# generated using pymatgen
data_Cs2MnBi2S5
_symmetry_space_group_name_H-M   'P 1'
_cell_length_a   4.19042836
_cell_length_b   16.04103297
_cell_length_c   18.47209274
_cell_angle_alpha   90.00000000
_cell_angle_beta   90.00000000
_cell_angle_gamma   90.00000000
_symmetry_Int_Tables_number   1
_chemical_formula_structural   Cs2MnBi2S5
_chemical_formula_sum   'Cs8 Mn4 Bi8 S20'
_cell_volume   1241.67189789
_cell_formula_units_Z   4
loop_
 _symmetry_equiv_pos_site_id
 _symmetry_equiv_pos_as_xyz
  1  'x, y, z'
loop_
 _atom_site_type_symbol
 _atom_site_label
 _atom_site_symmetry_multiplicity
 _atom_site_fract_x
 _atom_site_fract_y
 _atom_site_fract_z
 _atom_site_occupancy
  Cs  Cs0  1  0.25000000  0.00734734  0.62358787  1
  Cs  Cs1  1  0.75000000  0.03719435  0.88319118  1
  Cs  Cs2  1  0.25000000  0.46280565  0.38319118  1
  Cs  Cs3  1  0.75000000  0.49265266  0.12358787  1
  Cs  Cs4  1  0.75000000  0.99265266  0.37641213  1
  Cs  Cs5  1  0.75000000  0.53719435  0.61680882  1
  Cs  Cs6  1  0.25000000  0.96280565  0.11680882  1
  Cs  Cs7  1  0.25000000  0.50734734  0.87641213  1
  Mn  Mn8  1  0.75000000  0.29169556  0.85444413  1
  Mn  Mn9  1  0.75000000  0.79169556  0.64555587  1
  Mn  Mn10  1  0.25000000  0.70830444  0.14555587  1
  Mn  Mn11  1  0.25000000  0.20830444  0.35444413  1
  Bi  Bi12  1  0.25000000  0.75193897  0.48355260  1
  Bi  Bi13  1  0.75000000  0.74806103  0.98355260  1
  Bi  Bi14  1  0.75000000  0.20854924  0.19784593  1
  Bi  Bi15  1  0.75000000  0.24806103  0.51644740  1
  Bi  Bi16  1  0.25000000  0.29145076  0.69784593  1
  Bi  Bi17  1  0.75000000  0.70854924  0.30215407  1
  Bi  Bi18  1  0.25000000  0.25193897  0.01644740  1
  Bi  Bi19  1  0.25000000  0.79145076  0.80215407  1
  S  S20  1  0.25000000  0.60858060  0.24361926  1
  S  S21  1  0.25000000  0.86401170  0.93881062  1
  S  S22  1  0.25000000  0.36401170  0.56118938  1
  S  S23  1  0.75000000  0.39141940  0.75638074  1
  S  S24  1  0.75000000  0.89141940  0.74361926  1
  S  S25  1  0.75000000  0.28760501  0.34379625  1
  S  S26  1  0.25000000  0.81718242  0.35141116  1
  S  S27  1  0.25000000  0.21239499  0.84379625  1
  S  S28  1  0.75000000  0.18281758  0.64858884  1
  S  S29  1  0.25000000  0.31718242  0.14858884  1
  S  S30  1  0.25000000  0.64135451  0.02928944  1
  S  S31  1  0.25000000  0.71239499  0.65620375  1
  S  S32  1  0.75000000  0.78760501  0.15620375  1
  S  S33  1  0.75000000  0.35864549  0.97071056  1
  S  S34  1  0.75000000  0.13598830  0.06118938  1
  S  S35  1  0.25000000  0.14135451  0.47071056  1
  S  S36  1  0.25000000  0.10858060  0.25638074  1
  S  S37  1  0.75000000  0.63598830  0.43881062  1
  S  S38  1  0.75000000  0.68281758  0.85141116  1
  S  S39  1  0.75000000  0.85864549  0.52928944  1
