# generated using pymatgen
data_K3Cu2(BiS2)5
_symmetry_space_group_name_H-M   'P 1'
_cell_length_a   4.05785128
_cell_length_b   14.40469181
_cell_length_c   17.88724591
_cell_angle_alpha   90.00000000
_cell_angle_beta   90.00000000
_cell_angle_gamma   90.00000000
_symmetry_Int_Tables_number   1
_chemical_formula_structural   K3Cu2(BiS2)5
_chemical_formula_sum   'K6 Cu4 Bi10 S20'
_cell_volume   1045.54703477
_cell_formula_units_Z   2
loop_
 _symmetry_equiv_pos_site_id
 _symmetry_equiv_pos_as_xyz
  1  'x, y, z'
loop_
 _atom_site_type_symbol
 _atom_site_label
 _atom_site_symmetry_multiplicity
 _atom_site_fract_x
 _atom_site_fract_y
 _atom_site_fract_z
 _atom_site_occupancy
  K  K0  1  0.50000000  0.97513510  0.24662266  1
  K  K1  1  0.50000000  0.02486490  0.75337734  1
  K  K2  1  0.00000000  0.47513510  0.25337734  1
  K  K3  1  0.00000000  0.52486490  0.74662266  1
  K  K4  1  0.50000000  0.50000000  0.00000000  1
  K  K5  1  0.00000000  0.00000000  0.50000000  1
  Cu  Cu6  1  0.00000000  0.21835958  0.24805875  1
  Cu  Cu7  1  0.50000000  0.71835958  0.25194125  1
  Cu  Cu8  1  0.50000000  0.28164042  0.74805875  1
  Cu  Cu9  1  0.00000000  0.78164042  0.75194125  1
  Bi  Bi10  1  0.00000000  0.71952762  0.40322545  1
  Bi  Bi11  1  0.50000000  0.23147496  0.39644207  1
  Bi  Bi12  1  0.00000000  0.28047238  0.59677455  1
  Bi  Bi13  1  0.00000000  0.26852504  0.89644207  1
  Bi  Bi14  1  0.50000000  0.76852504  0.60355793  1
  Bi  Bi15  1  0.50000000  0.50000000  0.50000000  1
  Bi  Bi16  1  0.00000000  0.73147496  0.10355793  1
  Bi  Bi17  1  0.50000000  0.21952762  0.09677455  1
  Bi  Bi18  1  0.50000000  0.78047238  0.90322545  1
  Bi  Bi19  1  0.00000000  0.00000000  0.00000000  1
  S  S20  1  0.00000000  0.79963800  0.26591573  1
  S  S21  1  0.50000000  0.12339274  0.94669267  1
  S  S22  1  0.50000000  0.29963800  0.23408427  1
  S  S23  1  0.50000000  0.87660726  0.05330733  1
  S  S24  1  0.00000000  0.66255187  0.96320205  1
  S  S25  1  0.50000000  0.40571453  0.63967624  1
  S  S26  1  0.00000000  0.20036200  0.73408427  1
  S  S27  1  0.00000000  0.33744813  0.03679795  1
  S  S28  1  0.00000000  0.90571453  0.86032376  1
  S  S29  1  0.50000000  0.16255187  0.53679795  1
  S  S30  1  0.00000000  0.11805237  0.35132707  1
  S  S31  1  0.00000000  0.88194763  0.64867293  1
  S  S32  1  0.00000000  0.37660726  0.44669267  1
  S  S33  1  0.50000000  0.83744813  0.46320205  1
  S  S34  1  0.00000000  0.09428547  0.13967624  1
  S  S35  1  0.50000000  0.61805237  0.14867293  1
  S  S36  1  0.00000000  0.62339274  0.55330733  1
  S  S37  1  0.50000000  0.70036200  0.76591573  1
  S  S38  1  0.50000000  0.38194763  0.85132707  1
  S  S39  1  0.50000000  0.59428547  0.36032376  1
