# generated using pymatgen
data_CaGe2WO6
_symmetry_space_group_name_H-M   'P 1'
_cell_length_a   5.64981177
_cell_length_b   8.85345428
_cell_length_c   12.71834166
_cell_angle_alpha   90.00000000
_cell_angle_beta   104.19941406
_cell_angle_gamma   90.00000000
_symmetry_Int_Tables_number   1
_chemical_formula_structural   CaGe2WO6
_chemical_formula_sum   'Ca4 Ge8 W4 O24'
_cell_volume   616.73936742
_cell_formula_units_Z   4
loop_
 _symmetry_equiv_pos_site_id
 _symmetry_equiv_pos_as_xyz
  1  'x, y, z'
loop_
 _atom_site_type_symbol
 _atom_site_label
 _atom_site_symmetry_multiplicity
 _atom_site_fract_x
 _atom_site_fract_y
 _atom_site_fract_z
 _atom_site_occupancy
  Ca  Ca0  1  0.46818673  0.41708922  0.24596360  1
  Ca  Ca1  1  0.03181327  0.91708922  0.75403640  1
  Ca  Ca2  1  0.53181327  0.58291078  0.75403640  1
  Ca  Ca3  1  0.96818673  0.08291078  0.24596360  1
  Ge  Ge4  1  0.82665092  0.37144427  0.07700199  1
  Ge  Ge5  1  0.67334908  0.87144427  0.92299801  1
  Ge  Ge6  1  0.17334908  0.62855573  0.92299801  1
  Ge  Ge7  1  0.32665092  0.12855573  0.07700199  1
  Ge  Ge8  1  0.18728245  0.34529347  0.46676671  1
  Ge  Ge9  1  0.31271755  0.84529347  0.53323329  1
  Ge  Ge10  1  0.81271755  0.65470653  0.53323329  1
  Ge  Ge11  1  0.68728245  0.15470653  0.46676671  1
  W  W12  1  0.99522721  0.66151340  0.29256816  1
  W  W13  1  0.50477279  0.16151340  0.70743184  1
  W  W14  1  0.00477279  0.33848660  0.70743184  1
  W  W15  1  0.49522721  0.83848660  0.29256816  1
  O  O16  1  0.40501078  0.25097602  0.40367347  1
  O  O17  1  0.09498922  0.75097602  0.59632653  1
  O  O18  1  0.59498922  0.74902398  0.59632653  1
  O  O19  1  0.90501078  0.24902398  0.40367347  1
  O  O20  1  0.13242840  0.27516931  0.14600259  1
  O  O21  1  0.36757160  0.77516931  0.85399841  1
  O  O22  1  0.86757160  0.72483069  0.85399841  1
  O  O23  1  0.63242840  0.22483069  0.14600259  1
  O  O24  1  0.69370274  0.97214282  0.41867925  1
  O  O25  1  0.80629726  0.47214282  0.58132075  1
  O  O26  1  0.30629726  0.02785718  0.58132075  1
  O  O27  1  0.19370274  0.52785718  0.41867925  1
  O  O28  1  0.32102584  0.00437883  0.20135056  1
  O  O29  1  0.17897416  0.50437883  0.79864944  1
  O  O30  1  0.67897416  0.99562117  0.79864944  1
  O  O31  1  0.82102584  0.49562117  0.20135056  1
  O  O32  1  0.70143203  0.34115729  0.77282190  1
  O  O33  1  0.79856797  0.84115729  0.22717810  1
  O  O34  1  0.29856797  0.65884271  0.22717810  1
  O  O35  1  0.20143203  0.15884271  0.77282190  1
  O  O36  1  0.27964533  0.33783855  0.60942541  1
  O  O37  1  0.22035467  0.83783855  0.39057459  1
  O  O38  1  0.72035467  0.66216145  0.39057459  1
  O  O39  1  0.77964533  0.16216145  0.60942541  1
