# generated using pymatgen
data_K2Pd(NO3)4
_symmetry_space_group_name_H-M   'P 1'
_cell_length_a   8.13887179
_cell_length_b   9.67561839
_cell_length_c   15.92584147
_cell_angle_alpha   90.00000000
_cell_angle_beta   90.00000000
_cell_angle_gamma   91.33396838
_symmetry_Int_Tables_number   1
_chemical_formula_structural   K2Pd(NO3)4
_chemical_formula_sum   'K8 Pd4 N16 O48'
_cell_volume   1253.79810697
_cell_formula_units_Z   4
loop_
 _symmetry_equiv_pos_site_id
 _symmetry_equiv_pos_as_xyz
  1  'x, y, z'
loop_
 _atom_site_type_symbol
 _atom_site_label
 _atom_site_symmetry_multiplicity
 _atom_site_fract_x
 _atom_site_fract_y
 _atom_site_fract_z
 _atom_site_occupancy
  K  K0  1  0.77523339  0.01512743  0.83965122  1
  K  K1  1  0.77523339  0.51512743  0.66034878  1
  K  K2  1  0.74556893  0.54996301  0.09357240  1
  K  K3  1  0.25443107  0.45003699  0.90642760  1
  K  K4  1  0.22476661  0.98487257  0.16034878  1
  K  K5  1  0.74556893  0.04996301  0.40642760  1
  K  K6  1  0.25443107  0.95003699  0.59357240  1
  K  K7  1  0.22476661  0.48487257  0.33965122  1
  Pd  Pd8  1  0.26999419  0.82410886  0.87991409  1
  Pd  Pd9  1  0.26999419  0.32410886  0.62008591  1
  Pd  Pd10  1  0.73000581  0.17589114  0.12008591  1
  Pd  Pd11  1  0.73000581  0.67589114  0.37991409  1
  N  N12  1  0.42993851  0.28512086  0.19382439  1
  N  N13  1  0.56894403  0.23779230  0.96205852  1
  N  N14  1  0.57006149  0.71487914  0.80617561  1
  N  N15  1  0.04577714  0.23992685  0.04098852  1
  N  N16  1  0.04577714  0.73992685  0.45901148  1
  N  N17  1  0.10202662  0.20744458  0.76620139  1
  N  N18  1  0.10202662  0.70744458  0.73379861  1
  N  N19  1  0.43105597  0.26220770  0.46205852  1
  N  N20  1  0.42993851  0.78512086  0.30617561  1
  N  N21  1  0.95422286  0.26007315  0.54098852  1
  N  N22  1  0.57006149  0.21487914  0.69382439  1
  N  N23  1  0.95422286  0.76007315  0.95901148  1
  N  N24  1  0.89797338  0.79255542  0.23379861  1
  N  N25  1  0.56894403  0.73779230  0.53794148  1
  N  N26  1  0.89797338  0.29255542  0.26620139  1
  N  N27  1  0.43105597  0.76220770  0.03794148  1
  O  O28  1  0.54597431  0.34953609  0.99851955  1
  O  O29  1  0.48468825  0.79102142  0.10916376  1
  O  O30  1  0.05077514  0.21228234  0.84000351  1
  O  O31  1  0.51211115  0.39432523  0.19846268  1
  O  O32  1  0.80742645  0.28286183  0.52586263  1
  O  O33  1  0.19257355  0.71713817  0.47413737  1
  O  O34  1  0.48788885  0.60567477  0.80153732  1
  O  O35  1  0.03308967  0.35659228  0.58607915  1
  O  O36  1  0.96691033  0.14340772  0.08607915  1
  O  O37  1  0.94922486  0.78771766  0.15999649  1
  O  O38  1  0.54597431  0.84953609  0.50148045  1
  O  O39  1  0.94922486  0.28771766  0.34000351  1
  O  O40  1  0.34385497  0.35940914  0.49910729  1
  O  O41  1  0.02764922  0.15594751  0.51693760  1
  O  O42  1  0.28596193  0.27032953  0.22028041  1
  O  O43  1  0.50769692  0.82682926  0.84070826  1
  O  O44  1  0.05077514  0.71228234  0.65999649  1
  O  O45  1  0.19762848  0.81358614  0.75735710  1
  O  O46  1  0.80237152  0.18641386  0.24264290  1
  O  O47  1  0.06836904  0.11231705  0.71629811  1
  O  O48  1  0.34385497  0.85940914  0.00089271  1
  O  O49  1  0.06836904  0.61231705  0.78370189  1
  O  O50  1  0.93163096  0.88768295  0.28370189  1
  O  O51  1  0.02764922  0.65594751  0.98306240  1
  O  O52  1  0.65614503  0.64059086  0.50089271  1
  O  O53  1  0.49230308  0.67317074  0.34070826  1
  O  O54  1  0.03308967  0.85659228  0.91392085  1
  O  O55  1  0.71403807  0.22967047  0.72028041  1
  O  O56  1  0.49230308  0.17317074  0.15929174  1
  O  O57  1  0.50769692  0.32682926  0.65929174  1
  O  O58  1  0.80742645  0.78286183  0.97413737  1
  O  O59  1  0.51211115  0.89432523  0.30153732  1
  O  O60  1  0.45402569  0.15046391  0.49851955  1
  O  O61  1  0.19762848  0.31358614  0.74264290  1
  O  O62  1  0.48788885  0.10567477  0.69846268  1
  O  O63  1  0.97235078  0.34405249  0.01693760  1
  O  O64  1  0.96691033  0.64340772  0.41392085  1
  O  O65  1  0.51531175  0.20897858  0.89083624  1
  O  O66  1  0.28596193  0.77032953  0.27971959  1
  O  O67  1  0.19257355  0.21713817  0.02586263  1
  O  O68  1  0.93163096  0.38768295  0.21629811  1
  O  O69  1  0.48468825  0.29102142  0.39083624  1
  O  O70  1  0.97235078  0.84405249  0.48306240  1
  O  O71  1  0.45402569  0.65046391  0.00148045  1
  O  O72  1  0.80237152  0.68641386  0.25735710  1
  O  O73  1  0.65614503  0.14059086  0.99910729  1
  O  O74  1  0.71403807  0.72967047  0.77971959  1
  O  O75  1  0.51531175  0.70897858  0.60916376  1
