# generated using pymatgen
data_RbNiF3
_symmetry_space_group_name_H-M   'P 1'
_cell_length_a   5.93181391
_cell_length_b   5.93181343
_cell_length_c   14.51240869
_cell_angle_alpha   90.00000000
_cell_angle_beta   90.00000000
_cell_angle_gamma   120.00000273
_symmetry_Int_Tables_number   1
_chemical_formula_structural   RbNiF3
_chemical_formula_sum   'Rb6 Ni6 F18'
_cell_volume   442.22686389
_cell_formula_units_Z   6
loop_
 _symmetry_equiv_pos_site_id
 _symmetry_equiv_pos_as_xyz
  1  'x, y, z'
loop_
 _atom_site_type_symbol
 _atom_site_label
 _atom_site_symmetry_multiplicity
 _atom_site_fract_x
 _atom_site_fract_y
 _atom_site_fract_z
 _atom_site_occupancy
  Rb  Rb0  1  0.33333300  0.66666700  0.40709454  1
  Rb  Rb1  1  0.66666700  0.33333300  0.90709454  1
  Rb  Rb2  1  0.66666700  0.33333300  0.59290546  1
  Rb  Rb3  1  0.33333300  0.66666700  0.09290546  1
  Rb  Rb4  1  0.00000000  0.00000000  0.75000000  1
  Rb  Rb5  1  0.00000000  0.00000000  0.25000000  1
  Ni  Ni6  1  0.33333300  0.66666700  0.65532052  1
  Ni  Ni7  1  0.66666700  0.33333300  0.15532052  1
  Ni  Ni8  1  0.66666700  0.33333300  0.34467948  1
  Ni  Ni9  1  0.33333300  0.66666700  0.84467948  1
  Ni  Ni10  1  0.00000000  0.00000000  0.50000000  1
  Ni  Ni11  1  0.00000000  0.00000000  0.00000000  1
  F  F12  1  0.83448965  0.16551035  0.41991612  1
  F  F13  1  0.83448965  0.66897829  0.41991612  1
  F  F14  1  0.33102171  0.16551035  0.41991612  1
  F  F15  1  0.66897829  0.83448965  0.91991612  1
  F  F16  1  0.16551035  0.33102171  0.58008388  1
  F  F17  1  0.16551035  0.83448965  0.91991612  1
  F  F18  1  0.16551035  0.33102171  0.91991612  1
  F  F19  1  0.83448965  0.16551035  0.08008388  1
  F  F20  1  0.33102171  0.16551035  0.08008388  1
  F  F21  1  0.66897829  0.83448965  0.58008388  1
  F  F22  1  0.16551035  0.83448965  0.58008388  1
  F  F23  1  0.83448965  0.66897829  0.08008388  1
  F  F24  1  0.51830526  0.03660952  0.25000000  1
  F  F25  1  0.48169474  0.51830526  0.75000000  1
  F  F26  1  0.03660952  0.51830526  0.75000000  1
  F  F27  1  0.96339048  0.48169474  0.25000000  1
  F  F28  1  0.51830526  0.48169474  0.25000000  1
  F  F29  1  0.48169474  0.96339048  0.75000000  1
