# generated using pymatgen
data_KNa7Pb2O7
_symmetry_space_group_name_H-M   'P 1'
_cell_length_a   6.04086090
_cell_length_b   10.75668884
_cell_length_c   17.82085800
_cell_angle_alpha   90.33783542
_cell_angle_beta   90.00000000
_cell_angle_gamma   90.00000000
_symmetry_Int_Tables_number   1
_chemical_formula_structural   KNa7Pb2O7
_chemical_formula_sum   'K4 Na28 Pb8 O28'
_cell_volume   1157.97318230
_cell_formula_units_Z   4
loop_
 _symmetry_equiv_pos_site_id
 _symmetry_equiv_pos_as_xyz
  1  'x, y, z'
loop_
 _atom_site_type_symbol
 _atom_site_label
 _atom_site_symmetry_multiplicity
 _atom_site_fract_x
 _atom_site_fract_y
 _atom_site_fract_z
 _atom_site_occupancy
  K  K0  1  0.98401964  0.13999029  0.46369310  1
  K  K1  1  0.01598036  0.86000971  0.53630690  1
  K  K2  1  0.51598036  0.63999029  0.46369310  1
  K  K3  1  0.48401964  0.36000971  0.53630690  1
  Na  Na4  1  0.68063211  0.33310321  0.19451452  1
  Na  Na5  1  0.55890456  0.92978625  0.41982552  1
  Na  Na6  1  0.71376070  0.29463787  0.82259202  1
  Na  Na7  1  0.81936789  0.83310321  0.19451452  1
  Na  Na8  1  0.18063211  0.16689679  0.80548548  1
  Na  Na9  1  0.59832048  0.59009010  0.29354181  1
  Na  Na10  1  0.16401536  0.42143602  0.86431657  1
  Na  Na11  1  0.31936789  0.66689679  0.80548548  1
  Na  Na12  1  0.66401536  0.07856398  0.13568343  1
  Na  Na13  1  0.78623930  0.79463787  0.82259202  1
  Na  Na14  1  0.33598464  0.92143602  0.86431657  1
  Na  Na15  1  0.94109544  0.42978625  0.41982552  1
  Na  Na16  1  0.33048649  0.18669344  0.97075256  1
  Na  Na17  1  0.40167952  0.40990990  0.70645819  1
  Na  Na18  1  0.83048649  0.31330656  0.02924744  1
  Na  Na19  1  0.85407767  0.54226851  0.74661149  1
  Na  Na20  1  0.44109544  0.07021375  0.58017448  1
  Na  Na21  1  0.14592233  0.45773149  0.25338851  1
  Na  Na22  1  0.16951351  0.68669344  0.97075256  1
  Na  Na23  1  0.64592233  0.04226851  0.74661149  1
  Na  Na24  1  0.09832048  0.90990990  0.70645819  1
  Na  Na25  1  0.21376070  0.20536213  0.17740798  1
  Na  Na26  1  0.05890456  0.57021375  0.58017448  1
  Na  Na27  1  0.90167952  0.09009010  0.29354181  1
  Na  Na28  1  0.35407767  0.95773149  0.25338851  1
  Na  Na29  1  0.28623930  0.70536213  0.17740798  1
  Na  Na30  1  0.66951351  0.81330656  0.02924744  1
  Na  Na31  1  0.83598464  0.57856398  0.13568343  1
  Pb  Pb32  1  0.31662319  0.44009205  0.07776911  1
  Pb  Pb33  1  0.68337681  0.55990795  0.92223089  1
  Pb  Pb34  1  0.93395445  0.24982255  0.64246601  1
  Pb  Pb35  1  0.56604555  0.74982255  0.64246601  1
  Pb  Pb36  1  0.06604555  0.75017745  0.35753399  1
  Pb  Pb37  1  0.18337681  0.94009205  0.07776911  1
  Pb  Pb38  1  0.81662319  0.05990795  0.92223089  1
  Pb  Pb39  1  0.43395445  0.25017745  0.35753399  1
  O  O40  1  0.56657106  0.42733991  0.38145096  1
  O  O41  1  0.98890871  0.24292276  0.91718057  1
  O  O42  1  0.43342894  0.57266009  0.61854904  1
  O  O43  1  0.98573533  0.36122323  0.54709373  1
  O  O44  1  0.01109129  0.75707724  0.08281943  1
  O  O45  1  0.09406236  0.27820537  0.33342981  1
  O  O46  1  0.90593764  0.72179463  0.66657019  1
  O  O47  1  0.04531461  0.34539390  0.73997112  1
  O  O48  1  0.95468539  0.65460610  0.26002888  1
  O  O49  1  0.48685912  0.88177597  0.13814524  1
  O  O50  1  0.51109129  0.74292276  0.91718057  1
  O  O51  1  0.54531461  0.15460610  0.26002888  1
  O  O52  1  0.45468539  0.84539390  0.73997112  1
  O  O53  1  0.51314088  0.11822403  0.86185476  1
  O  O54  1  0.48890871  0.25707724  0.08281943  1
  O  O55  1  0.97413658  0.98412720  0.81990717  1
  O  O56  1  0.98685912  0.61822403  0.86185476  1
  O  O57  1  0.48573533  0.13877677  0.45290627  1
  O  O58  1  0.93342894  0.92733991  0.38145096  1
  O  O59  1  0.52586342  0.48412720  0.81990717  1
  O  O60  1  0.02586342  0.01587280  0.18009283  1
  O  O61  1  0.51426467  0.86122323  0.54709373  1
  O  O62  1  0.01426467  0.63877677  0.45290627  1
  O  O63  1  0.06657106  0.07266009  0.61854904  1
  O  O64  1  0.01314088  0.38177597  0.13814524  1
  O  O65  1  0.59406236  0.22179463  0.66657019  1
  O  O66  1  0.47413658  0.51587280  0.18009283  1
  O  O67  1  0.40593764  0.77820537  0.33342981  1
