# generated using pymatgen
data_LiSi2BO6
_symmetry_space_group_name_H-M   'P 1'
_cell_length_a   5.09135622
_cell_length_b   13.26269341
_cell_length_c   13.48807448
_cell_angle_alpha   90.00000000
_cell_angle_beta   90.11282384
_cell_angle_gamma   90.00000000
_symmetry_Int_Tables_number   1
_chemical_formula_structural   LiSi2BO6
_chemical_formula_sum   'Li8 Si16 B8 O48'
_cell_volume   910.78176599
_cell_formula_units_Z   8
loop_
 _symmetry_equiv_pos_site_id
 _symmetry_equiv_pos_as_xyz
  1  'x, y, z'
loop_
 _atom_site_type_symbol
 _atom_site_label
 _atom_site_symmetry_multiplicity
 _atom_site_fract_x
 _atom_site_fract_y
 _atom_site_fract_z
 _atom_site_occupancy
  Li  Li0  1  0.60298597  0.67037168  0.53813031  1
  Li  Li1  1  0.39701403  0.17037168  0.46186969  1
  Li  Li2  1  0.64936815  0.94443538  0.70979037  1
  Li  Li3  1  0.84022796  0.43889838  0.77249421  1
  Li  Li4  1  0.91051270  0.15739879  0.97264259  1
  Li  Li5  1  0.08948730  0.65739879  0.02735741  1
  Li  Li6  1  0.15977204  0.93889838  0.22750579  1
  Li  Li7  1  0.35063185  0.44443538  0.29020963  1
  Si  Si8  1  0.17353151  0.37262036  0.97639106  1
  Si  Si9  1  0.06187545  0.14281786  0.66721982  1
  Si  Si10  1  0.42757354  0.73060979  0.22775835  1
  Si  Si11  1  0.24068596  0.87745452  0.51884952  1
  Si  Si12  1  1.00058674  0.23240224  0.26919730  1
  Si  Si13  1  0.57242646  0.23060979  0.77224165  1
  Si  Si14  1  0.73343233  0.96552417  0.41796835  1
  Si  Si15  1  0.50508241  0.64221857  0.83218561  1
  Si  Si16  1  0.31759723  0.96178131  0.91730092  1
  Si  Si17  1  0.26656767  0.46552417  0.58203165  1
  Si  Si18  1  0.82646849  0.87262036  0.02360894  1
  Si  Si19  1  0.68240277  0.46178131  0.08269908  1
  Si  Si20  1  0.75931404  0.37745452  0.48115048  1
  Si  Si21  1  -0.00058674  0.73240224  0.73080270  1
  Si  Si22  1  0.49491759  0.14221857  0.16781439  1
  Si  Si23  1  0.93812455  0.64281786  0.33278018  1
  B  B24  1  0.89770256  0.16849100  0.46290973  1
  B  B25  1  0.33917499  0.43673378  0.78789301  1
  B  B26  1  0.41118257  0.16786191  0.96192989  1
  B  B27  1  0.10229744  0.66849100  0.53709027  1
  B  B28  1  0.66082501  0.93673378  0.21210699  1
  B  B29  1  0.14933005  0.93970530  0.71379748  1
  B  B30  1  0.85066995  0.43970530  0.28620252  1
  B  B31  1  0.58881743  0.66786191  0.03807011  1
  O  O32  1  0.89361361  0.38427771  0.03364494  1
  O  O33  1  0.14605613  0.72256855  0.28507877  1
  O  O34  1  0.35535621  0.17096922  0.70620227  1
  O  O35  1  0.71340962  0.08365922  0.44989170  1
  O  O36  1  0.75991101  0.57706088  0.05007662  1
  O  O37  1  0.28659038  0.58365922  0.55010830  1
  O  O38  1  0.70030259  0.20398427  0.23828633  1
  O  O39  1  0.71910771  0.25557963  0.47624069  1
  O  O40  1  0.92403623  0.68122064  0.62360748  1
  O  O41  1  0.85394387  0.22256855  0.71492123  1
  O  O42  1  0.57661971  0.15984689  0.05220735  1
  O  O43  1  0.60789427  0.93167637  0.95791961  1
  O  O44  1  0.52168594  0.35067533  0.78287321  1
  O  O45  1  0.93744866  0.90472382  0.49002951  1
  O  O46  1  0.67711583  0.42833734  0.37466032  1
  O  O47  1  0.22071210  0.25180031  0.96531700  1
  O  O48  1  0.79953170  0.68773097  0.81411743  1
  O  O49  1  0.52011658  0.52361693  0.80094698  1
  O  O50  1  0.47988342  0.02361693  0.19905302  1
  O  O51  1  0.66537079  0.44824417  0.20284162  1
  O  O52  1  0.47831406  0.85067533  0.21712679  1
  O  O53  1  0.07596377  0.18122064  0.37639252  1
  O  O54  1  0.56316225  0.42083980  0.56669763  1
  O  O55  1  0.20046830  0.18773097  0.18588257  1
  O  O56  1  0.32288417  0.92833734  0.62533968  1
  O  O57  1  0.24008899  0.07706088  0.94992338  1
  O  O58  1  0.97668461  0.02951565  0.70357827  1
  O  O59  1  0.85709260  0.92671449  0.13241413  1
  O  O60  1  0.39210573  0.43167637  0.04208039  1
  O  O61  1  0.77928790  0.75180031  0.03468300  1
  O  O62  1  0.28089229  0.75557963  0.52375931  1
  O  O63  1  0.92047045  0.65360728  0.45318487  1
  O  O64  1  0.43683775  0.92083980  0.43330237  1
  O  O65  1  0.06255134  0.40472382  0.50997049  1
  O  O66  1  0.10638639  0.88427771  0.96635506  1
  O  O67  1  0.64464379  0.67096922  0.29379773  1
  O  O68  1  0.96248453  0.85476649  0.72465359  1
  O  O69  1  0.14290740  0.42671449  0.86758587  1
  O  O70  1  0.17668111  0.44835851  0.69685976  1
  O  O71  1  0.33462921  0.94824417  0.79715838  1
  O  O72  1  0.07952955  0.15360728  0.54681513  1
  O  O73  1  0.60535886  0.17750051  0.88109018  1
  O  O74  1  0.42338029  0.65984689  0.94779265  1
  O  O75  1  0.29969741  0.70398427  0.76171367  1
  O  O76  1  0.03751547  0.35476649  0.27534641  1
  O  O77  1  0.39464114  0.67750051  0.11890982  1
  O  O78  1  0.02331539  0.52951565  0.29642173  1
  O  O79  1  0.82331889  0.94835851  0.30314024  1
