# generated using pymatgen
data_Bi(BO2)3
_symmetry_space_group_name_H-M   'P 1'
_cell_length_a   4.46702893
_cell_length_b   6.80702341
_cell_length_c   14.11378038
_cell_angle_alpha   90.00000000
_cell_angle_beta   95.40258471
_cell_angle_gamma   90.00000000
_symmetry_Int_Tables_number   1
_chemical_formula_structural   Bi(BO2)3
_chemical_formula_sum   'Bi4 B12 O24'
_cell_volume   427.25367643
_cell_formula_units_Z   4
loop_
 _symmetry_equiv_pos_site_id
 _symmetry_equiv_pos_as_xyz
  1  'x, y, z'
loop_
 _atom_site_type_symbol
 _atom_site_label
 _atom_site_symmetry_multiplicity
 _atom_site_fract_x
 _atom_site_fract_y
 _atom_site_fract_z
 _atom_site_occupancy
  Bi  Bi0  1  0.77996042  0.20119703  0.43129622  1
  Bi  Bi1  1  0.22003958  0.79880297  0.56870378  1
  Bi  Bi2  1  0.22003958  0.70119703  0.06870378  1
  Bi  Bi3  1  0.77996042  0.29880297  0.93129622  1
  B  B4  1  0.82956874  0.81300668  0.25245007  1
  B  B5  1  0.17043126  0.18699332  0.74754993  1
  B  B6  1  0.87966661  0.08353219  0.14029293  1
  B  B7  1  0.82956874  0.68699332  0.75245007  1
  B  B8  1  0.65633948  0.75646900  0.91177746  1
  B  B9  1  0.17043126  0.31300668  0.24754993  1
  B  B10  1  0.12033339  0.91646781  0.85970707  1
  B  B11  1  0.12033339  0.58353219  0.35970707  1
  B  B12  1  0.87966661  0.41646781  0.64029293  1
  B  B13  1  0.34366052  0.24353100  0.08822254  1
  B  B14  1  0.34366052  0.25646900  0.58822254  1
  B  B15  1  0.65633948  0.74353100  0.41177746  1
  O  O16  1  0.34145458  0.80847659  0.92602703  1
  O  O17  1  0.15758641  0.43283588  0.59315308  1
  O  O18  1  0.77078030  0.61647361  0.65940153  1
  O  O19  1  0.84241359  0.56716412  0.40684692  1
  O  O20  1  0.34235140  0.13517214  0.67602784  1
  O  O21  1  0.65854542  0.19152341  0.07397297  1
  O  O22  1  0.06207589  0.81715629  0.76671607  1
  O  O23  1  0.23845210  0.37198381  0.00563570  1
  O  O24  1  0.15758641  0.06716412  0.09315308  1
  O  O25  1  0.65764860  0.63517214  0.82397216  1
  O  O26  1  0.65854542  0.30847659  0.57397297  1
  O  O27  1  0.22921970  0.11647361  0.84059847  1
  O  O28  1  0.65764860  0.86482786  0.32397216  1
  O  O29  1  0.34235140  0.36482786  0.17602784  1
  O  O30  1  0.93792411  0.31715629  0.73328393  1
  O  O31  1  0.76154790  0.87198381  0.49436430  1
  O  O32  1  0.76154790  0.62801619  0.99436430  1
  O  O33  1  0.23845210  0.12801619  0.50563570  1
  O  O34  1  0.77078030  0.88352639  0.15940153  1
  O  O35  1  0.84241359  0.93283588  0.90684692  1
  O  O36  1  0.06207589  0.68284371  0.26671607  1
  O  O37  1  0.93792411  0.18284371  0.23328393  1
  O  O38  1  0.34145458  0.69152341  0.42602703  1
  O  O39  1  0.22921970  0.38352639  0.34059847  1
