# generated using pymatgen
data_Cu(IO3)2
_symmetry_space_group_name_H-M   'P 1'
_cell_length_a   5.10454357
_cell_length_b   6.34412847
_cell_length_c   8.36550482
_cell_angle_alpha   90.00000000
_cell_angle_beta   92.29343989
_cell_angle_gamma   90.00000000
_symmetry_Int_Tables_number   1
_chemical_formula_structural   Cu(IO3)2
_chemical_formula_sum   'Cu2 I4 O12'
_cell_volume   270.69050414
_cell_formula_units_Z   2
loop_
 _symmetry_equiv_pos_site_id
 _symmetry_equiv_pos_as_xyz
  1  'x, y, z'
loop_
 _atom_site_type_symbol
 _atom_site_label
 _atom_site_symmetry_multiplicity
 _atom_site_fract_x
 _atom_site_fract_y
 _atom_site_fract_z
 _atom_site_occupancy
  Cu  Cu0  1  0.50000000  0.50000000  0.50000000  1
  Cu  Cu1  1  0.50000000  0.00000000  0.50000000  1
  I  I2  1  0.53334369  0.75000000  0.15834281  1
  I  I3  1  0.03870129  0.25000000  0.24195469  1
  I  I4  1  0.96129871  0.75000000  0.75804531  1
  I  I5  1  0.46665631  0.25000000  0.84165719  1
  O  O6  1  0.73621168  0.96998168  0.69077275  1
  O  O7  1  0.26378832  0.03001832  0.30922725  1
  O  O8  1  0.36552607  0.25000000  0.61686745  1
  O  O9  1  0.63447393  0.75000000  0.38313255  1
  O  O10  1  0.80935953  0.25000000  0.40022887  1
  O  O11  1  0.25289866  0.46597334  0.90077514  1
  O  O12  1  0.26378832  0.46998168  0.30922725  1
  O  O13  1  0.25289866  0.03402666  0.90077514  1
  O  O14  1  0.74710134  0.53402666  0.09922486  1
  O  O15  1  0.74710134  0.96597334  0.09922486  1
  O  O16  1  0.73621168  0.53001832  0.69077275  1
  O  O17  1  0.19064047  0.75000000  0.59977113  1
