# generated using pymatgen
data_MgBi2O5
_symmetry_space_group_name_H-M   'P 1'
_cell_length_a   5.51390547
_cell_length_b   8.35081855
_cell_length_c   11.87970356
_cell_angle_alpha   90.00000000
_cell_angle_beta   90.00000000
_cell_angle_gamma   105.51257228
_symmetry_Int_Tables_number   1
_chemical_formula_structural   MgBi2O5
_chemical_formula_sum   'Mg4 Bi8 O20'
_cell_volume   527.08182971
_cell_formula_units_Z   4
loop_
 _symmetry_equiv_pos_site_id
 _symmetry_equiv_pos_as_xyz
  1  'x, y, z'
loop_
 _atom_site_type_symbol
 _atom_site_label
 _atom_site_symmetry_multiplicity
 _atom_site_fract_x
 _atom_site_fract_y
 _atom_site_fract_z
 _atom_site_occupancy
  Mg  Mg0  1  0.61086181  0.16256698  0.91800677  1
  Mg  Mg1  1  0.38913819  0.83743302  0.08199323  1
  Mg  Mg2  1  0.88913819  0.33743302  0.41800677  1
  Mg  Mg3  1  0.11086181  0.66256698  0.58199323  1
  Bi  Bi4  1  0.79014557  0.95696056  0.62476558  1
  Bi  Bi5  1  0.20985443  0.04303944  0.37523442  1
  Bi  Bi6  1  0.70985443  0.54303944  0.12476558  1
  Bi  Bi7  1  0.29014557  0.45696056  0.87523442  1
  Bi  Bi8  1  0.09437764  0.14954032  0.10277862  1
  Bi  Bi9  1  0.90562236  0.85045968  0.89722138  1
  Bi  Bi10  1  0.59437764  0.64954032  0.39722138  1
  Bi  Bi11  1  0.40562236  0.35045968  0.60277862  1
  O  O12  1  0.49393379  0.33276191  0.04411434  1
  O  O13  1  0.97780739  0.31800227  0.95775249  1
  O  O14  1  0.50129203  0.68581911  0.19298094  1
  O  O15  1  0.76087321  0.51203016  0.52324511  1
  O  O16  1  0.77922017  0.47628449  0.28886363  1
  O  O17  1  0.27922017  0.97628449  0.21113637  1
  O  O18  1  0.47780739  0.81800227  0.54224751  1
  O  O19  1  0.52219261  0.18199773  0.45775249  1
  O  O20  1  0.23912679  0.48796984  0.47675489  1
  O  O21  1  0.00606621  0.16723809  0.54411434  1
  O  O22  1  0.22077983  0.52371551  0.71113637  1
  O  O23  1  0.50606621  0.66723809  0.95588566  1
  O  O24  1  0.99393379  0.83276191  0.45588566  1
  O  O25  1  0.72077983  0.02371551  0.78886363  1
  O  O26  1  0.73912679  0.98796984  0.02324511  1
  O  O27  1  0.26087321  0.01203016  0.97675489  1
  O  O28  1  0.49870797  0.31418089  0.80701906  1
  O  O29  1  0.02219261  0.68199773  0.04224751  1
  O  O30  1  0.99870797  0.81418089  0.69298094  1
  O  O31  1  0.00129203  0.18581911  0.30701906  1
