# generated using pymatgen
data_K4VP2S9
_symmetry_space_group_name_H-M   'P 1'
_cell_length_a   6.90522364
_cell_length_b   13.08500551
_cell_length_c   19.59251847
_cell_angle_alpha   90.00000000
_cell_angle_beta   90.00000000
_cell_angle_gamma   90.00000000
_symmetry_Int_Tables_number   1
_chemical_formula_structural   K4VP2S9
_chemical_formula_sum   'K16 V4 P8 S36'
_cell_volume   1770.27983898
_cell_formula_units_Z   4
loop_
 _symmetry_equiv_pos_site_id
 _symmetry_equiv_pos_as_xyz
  1  'x, y, z'
loop_
 _atom_site_type_symbol
 _atom_site_label
 _atom_site_symmetry_multiplicity
 _atom_site_fract_x
 _atom_site_fract_y
 _atom_site_fract_z
 _atom_site_occupancy
  K  K0  1  0.74773909  0.32695248  0.56872913  1
  K  K1  1  0.25425964  0.37649255  0.81911116  1
  K  K2  1  0.74574036  0.87649255  0.18088884  1
  K  K3  1  0.74173880  0.03009745  0.46556860  1
  K  K4  1  0.24574036  0.37649255  0.31911116  1
  K  K5  1  0.25226091  0.82695248  0.43127087  1
  K  K6  1  0.25094170  0.67322042  0.21656817  1
  K  K7  1  0.75094170  0.17322042  0.28343183  1
  K  K8  1  0.25826120  0.53009745  0.53443140  1
  K  K9  1  0.24773909  0.82695248  0.93127087  1
  K  K10  1  0.24173880  0.53009745  0.03443140  1
  K  K11  1  0.24905830  0.67322042  0.71656817  1
  K  K12  1  0.75425964  0.87649255  0.68088884  1
  K  K13  1  0.74905830  0.17322042  0.78343183  1
  K  K14  1  0.75826120  0.03009745  0.96556860  1
  K  K15  1  0.75226091  0.32695248  0.06872913  1
  V  V16  1  0.14219143  0.10146245  0.12494215  1
  V  V17  1  0.64219143  0.60146245  0.37505785  1
  V  V18  1  0.85780857  0.60146245  0.87505785  1
  V  V19  1  0.35780857  0.10146245  0.62494215  1
  P  P20  1  0.25217894  0.00109894  0.76706659  1
  P  P21  1  0.24893277  0.20177965  0.48305126  1
  P  P22  1  0.74893277  0.70177965  0.01694874  1
  P  P23  1  0.25106723  0.20177965  0.98305126  1
  P  P24  1  0.75106723  0.70177965  0.51694874  1
  P  P25  1  0.75217894  0.50109894  0.73293341  1
  P  P26  1  0.74782106  0.50109894  0.23293341  1
  P  P27  1  0.24782106  0.00109894  0.26706659  1
  S  S28  1  0.74678373  0.54739904  0.48452813  1
  S  S29  1  0.83439745  0.10153558  0.12464304  1
  S  S30  1  0.49902592  0.24091139  0.93598024  1
  S  S31  1  0.50482948  0.46179930  0.68549875  1
  S  S32  1  0.74699387  0.76184753  0.41723032  1
  S  S33  1  0.00097408  0.24091139  0.43598024  1
  S  S34  1  0.00482948  0.96179930  0.81450125  1
  S  S35  1  0.24678373  0.04739904  0.01547187  1
  S  S36  1  0.99066014  0.74383181  0.06715242  1
  S  S37  1  0.99902592  0.74091139  0.56401976  1
  S  S38  1  0.99473991  0.45919613  0.68321557  1
  S  S39  1  0.75457000  0.44097648  0.83263351  1
  S  S40  1  0.24543000  0.94097648  0.16736649  1
  S  S41  1  0.75321627  0.54739904  0.98452813  1
  S  S42  1  0.25457000  0.94097648  0.66736649  1
  S  S43  1  0.16560255  0.60153558  0.87535696  1
  S  S44  1  0.50526009  0.45919613  0.18321557  1
  S  S45  1  0.74543000  0.44097648  0.33263351  1
  S  S46  1  0.24438385  0.15551882  0.23471607  1
  S  S47  1  0.33439745  0.60153558  0.37535696  1
  S  S48  1  0.00933986  0.24383181  0.93284758  1
  S  S49  1  0.99517052  0.46179930  0.18549875  1
  S  S50  1  0.25321627  0.04739904  0.51547187  1
  S  S51  1  0.74438385  0.65551882  0.26528393  1
  S  S52  1  0.66560255  0.10153558  0.62464304  1
  S  S53  1  0.25300613  0.26184753  0.58276968  1
  S  S54  1  0.75300613  0.76184753  0.91723032  1
  S  S55  1  0.49517052  0.96179930  0.31450125  1
  S  S56  1  0.49473991  0.95919613  0.81678443  1
  S  S57  1  0.25561615  0.15551882  0.73471607  1
  S  S58  1  0.50933986  0.74383181  0.56715242  1
  S  S59  1  0.75561615  0.65551882  0.76528393  1
  S  S60  1  0.24699387  0.26184753  0.08276968  1
  S  S61  1  0.50097408  0.74091139  0.06401976  1
  S  S62  1  0.49066014  0.24383181  0.43284758  1
  S  S63  1  0.00526009  0.95919613  0.31678443  1
