# generated using pymatgen
data_TlBi(PS3)2
_symmetry_space_group_name_H-M   'P 1'
_cell_length_a   6.77425852
_cell_length_b   7.58625187
_cell_length_c   10.02260347
_cell_angle_alpha   90.00000000
_cell_angle_beta   91.46084091
_cell_angle_gamma   90.00000000
_symmetry_Int_Tables_number   1
_chemical_formula_structural   TlBi(PS3)2
_chemical_formula_sum   'Tl2 Bi2 P4 S12'
_cell_volume   514.90652622
_cell_formula_units_Z   2
loop_
 _symmetry_equiv_pos_site_id
 _symmetry_equiv_pos_as_xyz
  1  'x, y, z'
loop_
 _atom_site_type_symbol
 _atom_site_label
 _atom_site_symmetry_multiplicity
 _atom_site_fract_x
 _atom_site_fract_y
 _atom_site_fract_z
 _atom_site_occupancy
  Tl  Tl0  1  0.19608406  0.14953208  0.00101155  1
  Tl  Tl1  1  0.80391594  0.64953208  0.99898845  1
  Bi  Bi2  1  0.71094203  0.90784106  0.51769000  1
  Bi  Bi3  1  0.28905797  0.40784106  0.48231000  1
  P  P4  1  0.80862292  0.36286905  0.67172820  1
  P  P5  1  0.29979152  0.63776725  0.20118081  1
  P  P6  1  0.70020848  0.13776725  0.79881919  1
  P  P7  1  0.19137708  0.86286905  0.32827180  1
  S  S8  1  0.32937731  0.71762666  0.01485080  1
  S  S9  1  0.67062269  0.21762666  0.98514920  1
  S  S10  1  0.84538234  0.24811605  0.48592933  1
  S  S11  1  0.09108910  0.44848540  0.23128788  1
  S  S12  1  0.54896197  0.55824610  0.30795805  1
  S  S13  1  0.41138521  0.04982493  0.33019527  1
  S  S14  1  0.06696861  0.45088142  0.74955541  1
  S  S15  1  0.45103803  0.05824610  0.69204195  1
  S  S16  1  0.15461766  0.74811605  0.51407067  1
  S  S17  1  0.93303139  0.95088142  0.25044459  1
  S  S18  1  0.58861479  0.54982493  0.66980473  1
  S  S19  1  0.90891090  0.94848540  0.76871212  1
