# generated using pymatgen
data_AuSCl7
_symmetry_space_group_name_H-M   'P 1'
_cell_length_a   9.08293004
_cell_length_b   10.43915941
_cell_length_c   12.21067235
_cell_angle_alpha   90.00000000
_cell_angle_beta   107.55336765
_cell_angle_gamma   90.00000000
_symmetry_Int_Tables_number   1
_chemical_formula_structural   AuSCl7
_chemical_formula_sum   'Au4 S4 Cl28'
_cell_volume   1103.88244376
_cell_formula_units_Z   4
loop_
 _symmetry_equiv_pos_site_id
 _symmetry_equiv_pos_as_xyz
  1  'x, y, z'
loop_
 _atom_site_type_symbol
 _atom_site_label
 _atom_site_symmetry_multiplicity
 _atom_site_fract_x
 _atom_site_fract_y
 _atom_site_fract_z
 _atom_site_occupancy
  Au  Au0  1  0.21453838  0.90639112  0.03138753  1
  Au  Au1  1  0.21453838  0.59360888  0.53138753  1
  Au  Au2  1  0.78546162  0.40639112  0.46861247  1
  Au  Au3  1  0.78546162  0.09360888  0.96861247  1
  S  S4  1  0.76223562  0.70707747  0.01347955  1
  S  S5  1  0.23776438  0.20707747  0.48652045  1
  S  S6  1  0.76223562  0.79292253  0.51347955  1
  S  S7  1  0.23776438  0.29292253  0.98652045  1
  Cl  Cl8  1  0.56861423  0.71364099  0.06484215  1
  Cl  Cl9  1  0.43138577  0.28635901  0.93515785  1
  Cl  Cl10  1  0.30533203  0.76904794  0.18559443  1
  Cl  Cl11  1  0.05221833  0.75340862  0.43006704  1
  Cl  Cl12  1  0.13298066  0.45965372  0.37111029  1
  Cl  Cl13  1  0.62539092  0.56623922  0.36387043  1
  Cl  Cl14  1  0.69985452  0.92430779  0.38485732  1
  Cl  Cl15  1  0.43138577  0.21364099  0.43515785  1
  Cl  Cl16  1  0.86701934  0.95965372  0.12888971  1
  Cl  Cl17  1  0.09863675  0.10486136  0.35456710  1
  Cl  Cl18  1  0.56861423  0.78635901  0.56484215  1
  Cl  Cl19  1  0.90136325  0.60486136  0.14543290  1
  Cl  Cl20  1  0.37460908  0.43376078  0.63612957  1
  Cl  Cl21  1  0.94778167  0.24659138  0.56993296  1
  Cl  Cl22  1  0.86701934  0.54034628  0.62888971  1
  Cl  Cl23  1  0.09863675  0.39513864  0.85456710  1
  Cl  Cl24  1  0.37460908  0.06623922  0.13612957  1
  Cl  Cl25  1  0.94778167  0.25340862  0.06993296  1
  Cl  Cl26  1  0.69466797  0.26904794  0.31440557  1
  Cl  Cl27  1  0.05221833  0.74659138  0.93006704  1
  Cl  Cl28  1  0.30014548  0.42430779  0.11514268  1
  Cl  Cl29  1  0.62539092  0.93376078  0.86387043  1
  Cl  Cl30  1  0.69985452  0.57569221  0.88485732  1
  Cl  Cl31  1  0.30533203  0.73095206  0.68559443  1
  Cl  Cl32  1  0.13298066  0.04034628  0.87111029  1
  Cl  Cl33  1  0.90136325  0.89513864  0.64543290  1
  Cl  Cl34  1  0.69466797  0.23095206  0.81440557  1
  Cl  Cl35  1  0.30014548  0.07569221  0.61514268  1
