# generated using pymatgen
data_CsSb2F7
_symmetry_space_group_name_H-M   'P 1'
_cell_length_a   5.74097105
_cell_length_b   6.93126823
_cell_length_c   10.51265224
_cell_angle_alpha   109.24833433
_cell_angle_beta   88.45111475
_cell_angle_gamma   89.99999703
_symmetry_Int_Tables_number   1
_chemical_formula_structural   CsSb2F7
_chemical_formula_sum   'Cs2 Sb4 F14'
_cell_volume   394.77500575
_cell_formula_units_Z   2
loop_
 _symmetry_equiv_pos_site_id
 _symmetry_equiv_pos_as_xyz
  1  'x, y, z'
loop_
 _atom_site_type_symbol
 _atom_site_label
 _atom_site_symmetry_multiplicity
 _atom_site_fract_x
 _atom_site_fract_y
 _atom_site_fract_z
 _atom_site_occupancy
  Cs  Cs0  1  0.50000000  0.00000000  0.50000000  1
  Cs  Cs1  1  0.00000000  0.50000000  0.50000000  1
  Sb  Sb2  1  0.95950657  0.14827214  0.83398336  1
  Sb  Sb3  1  0.45950657  0.68571122  0.83398336  1
  Sb  Sb4  1  0.54049343  0.31428878  0.16601664  1
  Sb  Sb5  1  0.04049343  0.85172786  0.16601664  1
  F  F6  1  0.82992911  0.46695141  0.15947698  1
  F  F7  1  0.70064978  0.15192475  0.26390666  1
  F  F8  1  0.49334229  0.51078388  0.35557974  1
  F  F9  1  0.32992911  0.69252557  0.15947698  1
  F  F10  1  0.99334229  0.84479587  0.35557974  1
  F  F11  1  0.29935022  0.84807525  0.73609334  1
  F  F12  1  0.17007089  0.53304859  0.84052302  1
  F  F13  1  0.50665771  0.48921612  0.64442026  1
  F  F14  1  0.75000000  0.08079846  0.00000000  1
  F  F15  1  0.25000000  0.91920154  1.00000000  1
  F  F16  1  0.00665771  0.15520413  0.64442026  1
  F  F17  1  0.20064978  0.11198191  0.26390666  1
  F  F18  1  0.79935022  0.88801809  0.73609334  1
  F  F19  1  0.67007089  0.30747443  0.84052302  1
