# generated using pymatgen
data_MnF3
_symmetry_space_group_name_H-M   'P 1'
_cell_length_a   5.48980378
_cell_length_b   5.34122216
_cell_length_c   13.59704660
_cell_angle_alpha   90.04618272
_cell_angle_beta   90.00000000
_cell_angle_gamma   120.92455574
_symmetry_Int_Tables_number   1
_chemical_formula_structural   MnF3
_chemical_formula_sum   'Mn6 F18'
_cell_volume   342.01924857
_cell_formula_units_Z   6
loop_
 _symmetry_equiv_pos_site_id
 _symmetry_equiv_pos_as_xyz
  1  'x, y, z'
loop_
 _atom_site_type_symbol
 _atom_site_label
 _atom_site_symmetry_multiplicity
 _atom_site_fract_x
 _atom_site_fract_y
 _atom_site_fract_z
 _atom_site_occupancy
  Mn  Mn0  1  0.00000000  0.00000000  0.00000000  1
  Mn  Mn1  1  0.00000000  0.00000000  0.50000000  1
  Mn  Mn2  1  0.66636285  0.33322320  0.33331066  1
  Mn  Mn3  1  0.33313965  0.66677680  0.16668934  1
  Mn  Mn4  1  0.33363715  0.66677680  0.66668934  1
  Mn  Mn5  1  0.66686035  0.33322320  0.83331066  1
  F  F6  1  0.09088249  0.33279300  0.58344677  1
  F  F7  1  0.75808949  0.66720700  0.91655323  1
  F  F8  1  0.90911751  0.66720700  0.41655323  1
  F  F9  1  0.24191051  0.33279300  0.08344677  1
  F  F10  1  0.58381519  0.56666512  0.25513047  1
  F  F11  1  0.01715007  0.43333488  0.24486953  1
  F  F12  1  0.41618481  0.43333488  0.74486953  1
  F  F13  1  0.98284993  0.56666512  0.75513047  1
  F  F14  1  0.25096255  0.89964741  0.58840762  1
  F  F15  1  0.35131614  0.10035259  0.91159238  1
  F  F16  1  0.74903745  0.10035259  0.41159238  1
  F  F17  1  0.64868386  0.89964741  0.08840762  1
  F  F18  1  0.91792779  0.23383112  0.92184348  1
  F  F19  1  0.68409667  0.76616888  0.57815652  1
  F  F20  1  0.08207221  0.76616888  0.07815652  1
  F  F21  1  0.31590333  0.23383112  0.42184348  1
  F  F22  1  0.42402562  0.00000000  0.25000000  1
  F  F23  1  0.57597438  0.00000000  0.75000000  1
