# generated using pymatgen
data_InSb2S4Cl
_symmetry_space_group_name_H-M   'P 1'
_cell_length_a   3.89216915
_cell_length_b   10.30349987
_cell_length_c   11.45657610
_cell_angle_alpha   65.60181851
_cell_angle_beta   80.23883047
_cell_angle_gamma   79.11106791
_symmetry_Int_Tables_number   1
_chemical_formula_structural   InSb2S4Cl
_chemical_formula_sum   'In2 Sb4 S8 Cl2'
_cell_volume   408.72281744
_cell_formula_units_Z   2
loop_
 _symmetry_equiv_pos_site_id
 _symmetry_equiv_pos_as_xyz
  1  'x, y, z'
loop_
 _atom_site_type_symbol
 _atom_site_label
 _atom_site_symmetry_multiplicity
 _atom_site_fract_x
 _atom_site_fract_y
 _atom_site_fract_z
 _atom_site_occupancy
  In  In0  1  0.83647170  0.88822688  0.43860335  1
  In  In1  1  0.16352830  0.11177312  0.56139665  1
  Sb  Sb2  1  0.54922061  0.68089943  0.22067848  1
  Sb  Sb3  1  0.20298149  0.68730996  0.90616675  1
  Sb  Sb4  1  0.45077939  0.31910057  0.77932152  1
  Sb  Sb5  1  0.79701851  0.31269004  0.09383325  1
  S  S6  1  0.28734409  0.07626347  0.34880139  1
  S  S7  1  0.18232311  0.50296926  0.13266581  1
  S  S8  1  0.96394230  0.85131697  0.22066037  1
  S  S9  1  0.59916587  0.82001475  0.98139071  1
  S  S10  1  0.03605770  0.14868303  0.77933963  1
  S  S11  1  0.71265591  0.92373653  0.65119861  1
  S  S12  1  0.81767689  0.49703074  0.86733419  1
  S  S13  1  0.40083413  0.17998525  0.01860929  1
  Cl  Cl14  1  0.60462506  0.31571587  0.47487169  1
  Cl  Cl15  1  0.39537494  0.68428413  0.52512831  1
