# generated using pymatgen
data_KZrSnF7
_symmetry_space_group_name_H-M   'P 1'
_cell_length_a   6.05310227
_cell_length_b   8.54287536
_cell_length_c   12.67308350
_cell_angle_alpha   90.00000000
_cell_angle_beta   90.00000000
_cell_angle_gamma   90.00000000
_symmetry_Int_Tables_number   1
_chemical_formula_structural   KZrSnF7
_chemical_formula_sum   'K4 Zr4 Sn4 F28'
_cell_volume   655.33653118
_cell_formula_units_Z   4
loop_
 _symmetry_equiv_pos_site_id
 _symmetry_equiv_pos_as_xyz
  1  'x, y, z'
loop_
 _atom_site_type_symbol
 _atom_site_label
 _atom_site_symmetry_multiplicity
 _atom_site_fract_x
 _atom_site_fract_y
 _atom_site_fract_z
 _atom_site_occupancy
  K  K0  1  0.78628247  0.75000000  0.25000000  1
  K  K1  1  0.78628247  0.25000000  0.25000000  1
  K  K2  1  0.21371753  0.25000000  0.75000000  1
  K  K3  1  0.21371753  0.75000000  0.75000000  1
  Zr  Zr4  1  0.74889575  0.00000000  0.91481188  1
  Zr  Zr5  1  0.25110425  0.00000000  0.08518812  1
  Zr  Zr6  1  0.25110425  0.50000000  0.41481188  1
  Zr  Zr7  1  0.74889575  0.50000000  0.58518812  1
  Sn  Sn8  1  0.76486613  0.00000000  0.59349829  1
  Sn  Sn9  1  0.23513387  0.00000000  0.40650171  1
  Sn  Sn10  1  0.23513387  0.50000000  0.09349829  1
  Sn  Sn11  1  0.76486613  0.50000000  0.90650171  1
  F  F12  1  0.49999702  0.00000000  0.19441464  1
  F  F13  1  0.84040312  0.26714160  0.60964922  1
  F  F14  1  0.84040312  0.23285840  0.89035078  1
  F  F15  1  0.12629379  0.00000000  0.92850262  1
  F  F16  1  0.12250634  0.00000000  0.58386310  1
  F  F17  1  0.90540451  0.50000000  0.74016524  1
  F  F18  1  0.09459549  0.00000000  0.24016524  1
  F  F19  1  0.50000000  0.35793084  0.50000000  1
  F  F20  1  0.15959688  0.73285840  0.39035078  1
  F  F21  1  0.84040312  0.76714160  0.89035078  1
  F  F22  1  0.15959688  0.76714160  0.10964922  1
  F  F23  1  0.50000000  0.14206916  0.00000000  1
  F  F24  1  0.87370621  0.00000000  0.07149738  1
  F  F25  1  0.87370621  0.50000000  0.42850262  1
  F  F26  1  0.50000298  0.00000000  0.80558536  1
  F  F27  1  0.50000298  0.50000000  0.69441464  1
  F  F28  1  0.84040312  0.73285840  0.60964922  1
  F  F29  1  0.87749366  0.50000000  0.08386310  1
  F  F30  1  0.87749366  0.00000000  0.41613690  1
  F  F31  1  0.90540451  0.00000000  0.75983476  1
  F  F32  1  0.12250634  0.50000000  0.91613690  1
  F  F33  1  0.09459549  0.50000000  0.25983476  1
  F  F34  1  0.49999702  0.50000000  0.30558536  1
  F  F35  1  0.12629379  0.50000000  0.57149738  1
  F  F36  1  0.50000000  0.85793084  0.00000000  1
  F  F37  1  0.50000000  0.64206916  0.50000000  1
  F  F38  1  0.15959688  0.23285840  0.10964922  1
  F  F39  1  0.15959688  0.26714160  0.39035078  1
