# generated using pymatgen
data_K2TiOF4
_symmetry_space_group_name_H-M   'P 1'
_cell_length_a   7.49156614
_cell_length_b   13.11922627
_cell_length_c   20.41117924
_cell_angle_alpha   90.00000000
_cell_angle_beta   90.00000000
_cell_angle_gamma   90.00000000
_symmetry_Int_Tables_number   1
_chemical_formula_structural   K2TiOF4
_chemical_formula_sum   'K32 Ti16 O16 F64'
_cell_volume   2006.08318208
_cell_formula_units_Z   16
loop_
 _symmetry_equiv_pos_site_id
 _symmetry_equiv_pos_as_xyz
  1  'x, y, z'
loop_
 _atom_site_type_symbol
 _atom_site_label
 _atom_site_symmetry_multiplicity
 _atom_site_fract_x
 _atom_site_fract_y
 _atom_site_fract_z
 _atom_site_occupancy
  K  K0  1  0.67223539  0.01611214  0.50667549  1
  K  K1  1  0.67223539  0.48388786  0.00667549  1
  K  K2  1  0.66780628  0.20569448  0.25056573  1
  K  K3  1  0.53219705  0.54635545  0.66700631  1
  K  K4  1  0.65689971  0.48382152  0.49459782  1
  K  K5  1  0.79920715  0.95851435  0.33508171  1
  K  K6  1  0.16698591  0.17185434  0.24893875  1
  K  K7  1  0.52243057  0.76371416  0.91870068  1
  K  K8  1  0.15689971  0.51617848  0.50540218  1
  K  K9  1  0.17223539  0.51611214  0.99332451  1
  K  K10  1  0.80855606  0.76750536  0.58332843  1
  K  K11  1  0.02243057  0.26371416  0.58129932  1
  K  K12  1  0.52243057  0.73628584  0.41870068  1
  K  K13  1  0.79920715  0.54148565  0.83508171  1
  K  K14  1  0.16780628  0.70569448  0.24943427  1
  K  K15  1  0.53219705  0.95364455  0.16700631  1
  K  K16  1  0.16780628  0.79430552  0.74943427  1
  K  K17  1  0.30855606  0.26750536  0.91667157  1
  K  K18  1  0.17223539  0.98388786  0.49332451  1
  K  K19  1  0.30855606  0.23249464  0.41667157  1
  K  K20  1  0.80855606  0.73249464  0.08332843  1
  K  K21  1  0.03219705  0.45364455  0.33299369  1
  K  K22  1  0.15689971  0.98382152  0.00540218  1
  K  K23  1  0.65689971  0.01617848  0.99459782  1
  K  K24  1  0.66698591  0.67185434  0.25106125  1
  K  K25  1  0.29920715  0.04148565  0.66491829  1
  K  K26  1  0.66698591  0.82814566  0.75106125  1
  K  K27  1  0.66780628  0.29430552  0.75056573  1
  K  K28  1  0.02243057  0.23628584  0.08129932  1
  K  K29  1  0.16698591  0.32814566  0.74893875  1
  K  K30  1  0.29920715  0.45851435  0.16491829  1
  K  K31  1  0.03219705  0.04635545  0.83299369  1
  Ti  Ti32  1  0.80166437  0.06451671  0.67402699  1
  Ti  Ti33  1  0.30166437  0.93548329  0.32597301  1
  Ti  Ti34  1  0.52138115  0.24457830  0.57619049  1
  Ti  Ti35  1  0.52846307  0.06348669  0.82716488  1
  Ti  Ti36  1  0.52846307  0.43651331  0.32716488  1
  Ti  Ti37  1  0.02138115  0.75542170  0.42380951  1
  Ti  Ti38  1  0.80430429  0.25472021  0.42484745  1
  Ti  Ti39  1  0.02846307  0.56348669  0.67283512  1
  Ti  Ti40  1  0.30430429  0.74527979  0.57515255  1
  Ti  Ti41  1  0.30166437  0.56451671  0.82597301  1
  Ti  Ti42  1  0.02138115  0.74457830  0.92380951  1
  Ti  Ti43  1  0.80430429  0.24527979  0.92484745  1
  Ti  Ti44  1  0.30430429  0.75472021  0.07515255  1
  Ti  Ti45  1  0.80166437  0.43548329  0.17402699  1
  Ti  Ti46  1  0.02846307  0.93651331  0.17283512  1
  Ti  Ti47  1  0.52138115  0.25542170  0.07619049  1
  O  O48  1  0.15897367  0.84482447  0.12208261  1
  O  O49  1  0.66549953  0.15599767  0.62551311  1
  O  O50  1  0.66549953  0.34400233  0.12551311  1
  O  O51  1  0.66904167  0.42766342  0.25169215  1
  O  O52  1  0.66734724  0.25003538  0.50175832  1
  O  O53  1  0.16734724  0.75003538  0.99824168  1
  O  O54  1  0.16904167  0.57233658  0.74830785  1
  O  O55  1  0.66904167  0.07233658  0.75169215  1
  O  O56  1  0.65897367  0.15517553  0.87791739  1
  O  O57  1  0.16549953  0.84400233  0.37448689  1
  O  O58  1  0.66734724  0.24996462  0.00175832  1
  O  O59  1  0.16904167  0.92766342  0.24830785  1
  O  O60  1  0.16734724  0.74996462  0.49824168  1
  O  O61  1  0.15897367  0.65517553  0.62208261  1
  O  O62  1  0.16549953  0.65599767  0.87448689  1
  O  O63  1  0.65897367  0.34482447  0.37791739  1
  F  F64  1  0.35525667  0.04873526  0.90009277  1
  F  F65  1  0.87431672  0.03919113  0.21985381  1
  F  F66  1  0.85525667  0.54873526  0.59990723  1
  F  F67  1  0.15376263  0.05139709  0.13753230  1
  F  F68  1  0.46847405  0.94967558  0.40096547  1
  F  F69  1  0.88585669  0.87226367  0.46070211  1
  F  F70  1  0.46477998  0.67130163  0.79628643  1
  F  F71  1  0.44634374  0.63029631  0.53982852  1
  F  F72  1  0.37431672  0.96080887  0.78014619  1
  F  F73  1  0.69067863  0.36174440  0.88795677  1
  F  F74  1  0.86703801  0.82936352  0.20393689  1
  F  F75  1  0.19067863  0.86174440  0.61204323  1
  F  F76  1  0.34270609  0.25854965  0.14748283  1
  F  F77  1  0.84599749  0.83217534  0.96913481  1
  F  F78  1  0.84270609  0.75854965  0.35251717  1
  F  F79  1  0.96477998  0.17130163  0.70371357  1
  F  F80  1  0.37431672  0.53919113  0.28014619  1
  F  F81  1  0.94634374  0.13029631  0.96017148  1
  F  F82  1  0.62257709  0.36287668  0.61506342  1
  F  F83  1  0.47428321  0.75433626  0.14956211  1
  F  F84  1  0.67360579  0.94938471  0.64027946  1
  F  F85  1  0.48141079  0.83617442  0.53335560  1
  F  F86  1  0.84599749  0.66782466  0.46913481  1
  F  F87  1  0.98141079  0.16382558  0.46664440  1
  F  F88  1  0.19067863  0.63825560  0.11204323  1
  F  F89  1  0.38585669  0.12773633  0.53929789  1
  F  F90  1  0.17360579  0.05061529  0.35972054  1
  F  F91  1  0.44634374  0.86970369  0.03982852  1
  F  F92  1  0.96091930  0.53832893  0.21889477  1
  F  F93  1  0.94634374  0.36970369  0.46017148  1
  F  F94  1  0.46091930  0.03832893  0.28110523  1
  F  F95  1  0.97428321  0.24566374  0.85043789  1
  F  F96  1  0.36703801  0.17063648  0.79606311  1
  F  F97  1  0.17360579  0.44938471  0.85972054  1
  F  F98  1  0.47428321  0.74566374  0.64956211  1
  F  F99  1  0.34599749  0.33217534  0.53086519  1
  F  F100  1  0.65376263  0.55139709  0.36246770  1
  F  F101  1  0.46847405  0.55032442  0.90096547  1
  F  F102  1  0.65376263  0.94860291  0.86246770  1
  F  F103  1  0.36703801  0.32936352  0.29606311  1
  F  F104  1  0.34599749  0.16782466  0.03086519  1
  F  F105  1  0.86703801  0.67063648  0.70393689  1
  F  F106  1  0.97428321  0.25433626  0.35043789  1
  F  F107  1  0.96091930  0.96167107  0.71889477  1
  F  F108  1  0.46091930  0.46167107  0.78110523  1
  F  F109  1  0.85525667  0.95126474  0.09990723  1
  F  F110  1  0.48141079  0.66382558  0.03335560  1
  F  F111  1  0.12257709  0.86287668  0.88493658  1
  F  F112  1  0.15376263  0.44860291  0.63753230  1
  F  F113  1  0.84270609  0.74145035  0.85251717  1
  F  F114  1  0.98141079  0.33617442  0.96664440  1
  F  F115  1  0.62257709  0.13712332  0.11506342  1
  F  F116  1  0.96477998  0.32869837  0.20371357  1
  F  F117  1  0.34270609  0.24145035  0.64748283  1
  F  F118  1  0.12257709  0.63712332  0.38493658  1
  F  F119  1  0.96847405  0.05032442  0.59903453  1
  F  F120  1  0.67360579  0.55061529  0.14027946  1
  F  F121  1  0.46477998  0.82869837  0.29628643  1
  F  F122  1  0.69067863  0.13825560  0.38795677  1
  F  F123  1  0.35525667  0.45126474  0.40009277  1
  F  F124  1  0.96847405  0.44967558  0.09903453  1
  F  F125  1  0.87431672  0.46080887  0.71985381  1
  F  F126  1  0.38585669  0.37226367  0.03929789  1
  F  F127  1  0.88585669  0.62773633  0.96070211  1
