# generated using pymatgen
data_Na3VF6
_symmetry_space_group_name_H-M   'P 1'
_cell_length_a   5.60017838
_cell_length_b   5.82943806
_cell_length_c   8.11361799
_cell_angle_alpha   90.00000000
_cell_angle_beta   90.65895884
_cell_angle_gamma   90.00000000
_symmetry_Int_Tables_number   1
_chemical_formula_structural   Na3VF6
_chemical_formula_sum   'Na6 V2 F12'
_cell_volume   264.85878685
_cell_formula_units_Z   2
loop_
 _symmetry_equiv_pos_site_id
 _symmetry_equiv_pos_as_xyz
  1  'x, y, z'
loop_
 _atom_site_type_symbol
 _atom_site_label
 _atom_site_symmetry_multiplicity
 _atom_site_fract_x
 _atom_site_fract_y
 _atom_site_fract_z
 _atom_site_occupancy
  Na  Na0  1  0.01526853  0.55404792  0.74056145  1
  Na  Na1  1  0.48473147  0.05404792  0.75943855  1
  Na  Na2  1  0.98473147  0.44595208  0.25943855  1
  Na  Na3  1  0.51526853  0.94595208  0.24056145  1
  Na  Na4  1  0.50000000  0.50000000  0.00000000  1
  Na  Na5  1  0.00000000  0.00000000  0.50000000  1
  V  V6  1  0.50000000  0.50000000  0.50000000  1
  V  V7  1  0.00000000  0.00000000  0.00000000  1
  F  F8  1  0.66672294  0.22008871  0.42557176  1
  F  F9  1  0.83327706  0.72008871  0.07442824  1
  F  F10  1  0.33327706  0.77991129  0.57442824  1
  F  F11  1  0.16672294  0.27991129  0.92557176  1
  F  F12  1  0.20940423  0.32170377  0.55100101  1
  F  F13  1  0.29059577  0.82170377  0.94899899  1
  F  F14  1  0.79059577  0.67829623  0.44899899  1
  F  F15  1  0.70940423  0.17829623  0.05100101  1
  F  F16  1  0.11863473  0.06294420  0.22728284  1
  F  F17  1  0.38136527  0.56294420  0.27271716  1
  F  F18  1  0.88136527  0.93705580  0.77271716  1
  F  F19  1  0.61863473  0.43705580  0.72728284  1
