# generated using pymatgen
data_CrNiP2O9
_symmetry_space_group_name_H-M   'P 1'
_cell_length_a   6.31295142
_cell_length_b   7.85935569
_cell_length_c   13.72097125
_cell_angle_alpha   90.00930873
_cell_angle_beta   90.01684092
_cell_angle_gamma   89.99684442
_symmetry_Int_Tables_number   1
_chemical_formula_structural   CrNiP2O9
_chemical_formula_sum   'Cr4 Ni4 P8 O36'
_cell_volume   680.77597402
_cell_formula_units_Z   4
loop_
 _symmetry_equiv_pos_site_id
 _symmetry_equiv_pos_as_xyz
  1  'x, y, z'
loop_
 _atom_site_type_symbol
 _atom_site_label
 _atom_site_symmetry_multiplicity
 _atom_site_fract_x
 _atom_site_fract_y
 _atom_site_fract_z
 _atom_site_occupancy
  Cr  Cr0  1  0.74999827  0.35167022  0.88340112  1
  Cr  Cr1  1  0.25003028  0.64791053  0.11706777  1
  Cr  Cr2  1  0.25012249  0.85267297  0.61705962  1
  Cr  Cr3  1  0.74992147  0.14762002  0.38304464  1
  Ni  Ni4  1  0.49997195  0.00007212  0.00015343  1
  Ni  Ni5  1  0.49978208  0.49999781  0.50001400  1
  Ni  Ni6  1  0.00017275  0.49996439  0.50000140  1
  Ni  Ni7  1  0.00006893  0.00002920  0.00016659  1
  P  P8  1  0.25005411  0.34447337  0.93978849  1
  P  P9  1  0.74997380  0.65579169  0.06026976  1
  P  P10  1  0.75001461  0.84423191  0.56001060  1
  P  P11  1  0.25002186  0.15547968  0.43989263  1
  P  P12  1  0.75014073  0.38944498  0.69102639  1
  P  P13  1  0.24983439  0.61003979  0.30883474  1
  P  P14  1  0.24996533  0.88973159  0.80889739  1
  P  P15  1  0.74999872  0.11099428  0.19099482  1
  O  O16  1  0.04892102  0.60047585  0.37125935  1
  O  O17  1  0.54888879  0.39869685  0.62855165  1
  O  O18  1  0.95132315  0.10132228  0.12879684  1
  O  O19  1  0.45083511  0.89860652  0.87159494  1
  O  O20  1  0.95135372  0.39861834  0.62862188  1
  O  O21  1  0.45074536  0.60046040  0.37135979  1
  O  O22  1  0.04914213  0.89851784  0.87154801  1
  O  O23  1  0.54861693  0.10129738  0.12874136  1
  O  O24  1  0.25002123  0.33961873  0.48131143  1
  O  O25  1  0.74998276  0.66028735  0.51831320  1
  O  O26  1  0.75000913  0.83965948  0.01842243  1
  O  O27  1  0.24999228  0.16048441  0.98144725  1
  O  O28  1  0.75020818  0.16330303  0.94556750  1
  O  O29  1  0.24980045  0.83626278  0.05473743  1
  O  O30  1  0.24995384  0.66444794  0.55473829  1
  O  O31  1  0.75000228  0.33578951  0.44523089  1
  O  O32  1  0.74995577  0.22623041  0.75694519  1
  O  O33  1  0.25001690  0.77384822  0.24343640  1
  O  O34  1  0.25011621  0.72643701  0.74305327  1
  O  O35  1  0.74988894  0.27435650  0.25681535  1
  O  O36  1  0.44629021  0.13328889  0.37476566  1
  O  O37  1  0.94634598  0.86652896  0.62499301  1
  O  O38  1  0.55367082  0.63444291  0.12532689  1
  O  O39  1  0.05347786  0.36589291  0.87465948  1
  O  O40  1  0.55386165  0.86645908  0.62504786  1
  O  O41  1  0.05356762  0.13327169  0.37478983  1
  O  O42  1  0.44655098  0.36567489  0.87466482  1
  O  O43  1  0.94638079  0.63422105  0.12533135  1
  O  O44  1  0.74997385  0.97466865  0.27517347  1
  O  O45  1  0.24998102  0.02568722  0.72484106  1
  O  O46  1  0.25001173  0.47486901  0.22444633  1
  O  O47  1  0.75003995  0.52595341  0.77482000  1
  O  O48  1  0.74984966  0.97677544  0.47753593  1
  O  O49  1  0.25009847  0.02338214  0.52246714  1
  O  O50  1  0.25018157  0.47740583  0.02192701  1
  O  O51  1  0.74986888  0.52263556  0.97808729  1
