# generated using pymatgen
data_RbAlAs2O7
_symmetry_space_group_name_H-M   'P 1'
_cell_length_a   6.35503658
_cell_length_b   6.43699884
_cell_length_c   8.41431764
_cell_angle_alpha   96.84178729
_cell_angle_beta   103.99642275
_cell_angle_gamma   102.57944560
_symmetry_Int_Tables_number   1
_chemical_formula_structural   RbAlAs2O7
_chemical_formula_sum   'Rb2 Al2 As4 O14'
_cell_volume   320.56191755
_cell_formula_units_Z   2
loop_
 _symmetry_equiv_pos_site_id
 _symmetry_equiv_pos_as_xyz
  1  'x, y, z'
loop_
 _atom_site_type_symbol
 _atom_site_label
 _atom_site_symmetry_multiplicity
 _atom_site_fract_x
 _atom_site_fract_y
 _atom_site_fract_z
 _atom_site_occupancy
  Rb  Rb0  1  0.00000000  0.00000000  0.00000000  1
  Rb  Rb1  1  0.00000000  0.00000000  0.50000000  1
  Al  Al2  1  0.62413255  0.31527158  0.77054466  1
  Al  Al3  1  0.37586745  0.68472842  0.22945534  1
  As  As4  1  0.17777248  0.47280646  0.81447699  1
  As  As5  1  0.82222752  0.52719354  0.18552301  1
  As  As6  1  0.50811782  0.75717263  0.66308020  1
  As  As7  1  0.49188218  0.24282737  0.33691980  1
  O  O8  1  0.33646705  0.29088626  0.81278377  1
  O  O9  1  0.46872970  0.25427275  0.53399859  1
  O  O10  1  0.58076075  0.01231600  0.77201724  1
  O  O11  1  0.32643053  0.37904113  0.22237250  1
  O  O12  1  0.09119793  0.67781686  0.27135985  1
  O  O13  1  0.90880207  0.32218314  0.72864015  1
  O  O14  1  0.41923925  0.98768400  0.22798276  1
  O  O15  1  0.66353295  0.70911374  0.18721623  1
  O  O16  1  0.53127030  0.74572725  0.46600141  1
  O  O17  1  0.77806433  0.36030441  0.34008816  1
  O  O18  1  0.67356947  0.62095887  0.77762750  1
  O  O19  1  0.22193567  0.63969559  0.65991184  1
  O  O20  1  0.22601760  0.64669637  0.99395658  1
  O  O21  1  0.77398240  0.35330363  0.00604342  1
