# generated using pymatgen
data_Ba5Re3ClO15
_symmetry_space_group_name_H-M   'P 1'
_cell_length_a   11.12461384
_cell_length_b   11.12461424
_cell_length_c   7.93773292
_cell_angle_alpha   90.00000000
_cell_angle_beta   90.00000000
_cell_angle_gamma   119.99999880
_symmetry_Int_Tables_number   1
_chemical_formula_structural   Ba5Re3ClO15
_chemical_formula_sum   'Ba10 Re6 Cl2 O30'
_cell_volume   850.74033537
_cell_formula_units_Z   2
loop_
 _symmetry_equiv_pos_site_id
 _symmetry_equiv_pos_as_xyz
  1  'x, y, z'
loop_
 _atom_site_type_symbol
 _atom_site_label
 _atom_site_symmetry_multiplicity
 _atom_site_fract_x
 _atom_site_fract_y
 _atom_site_fract_z
 _atom_site_occupancy
  Ba  Ba0  1  0.26422964  0.26422964  0.22676433  1
  Ba  Ba1  1  0.00000000  0.26422964  0.72676433  1
  Ba  Ba2  1  0.73577036  0.00000000  0.22676433  1
  Ba  Ba3  1  1.00000000  0.73577036  0.22676433  1
  Ba  Ba4  1  0.33333300  0.66666700  0.48601824  1
  Ba  Ba5  1  0.66666700  0.33333300  0.48601824  1
  Ba  Ba6  1  0.73577036  0.73577036  0.72676433  1
  Ba  Ba7  1  0.26422964  0.00000000  0.72676433  1
  Ba  Ba8  1  0.33333300  0.66666700  0.98601824  1
  Ba  Ba9  1  0.66666700  0.33333300  0.98601824  1
  Re  Re10  1  0.39121422  0.39121422  0.78116646  1
  Re  Re11  1  1.00000000  0.39121422  0.28116646  1
  Re  Re12  1  0.00000000  0.60878578  0.78116646  1
  Re  Re13  1  0.39121422  0.00000000  0.28116646  1
  Re  Re14  1  0.60878578  0.60878578  0.28116646  1
  Re  Re15  1  0.60878578  0.00000000  0.78116646  1
  Cl  Cl16  1  0.00000000  0.00000000  0.94233164  1
  Cl  Cl17  1  0.00000000  0.00000000  0.44233164  1
  O  O18  1  0.13053201  0.55326243  0.74158604  1
  O  O19  1  0.38935343  0.25769107  0.92185630  1
  O  O20  1  0.86833765  0.61064657  0.92185630  1
  O  O21  1  0.13166235  0.38935343  0.42185630  1
  O  O22  1  0.70378971  0.70378971  0.10316182  1
  O  O23  1  0.42273042  0.86946799  0.74158604  1
  O  O24  1  0.13053201  0.57726958  0.24158604  1
  O  O25  1  0.44673757  0.57726958  0.74158604  1
  O  O26  1  0.86946799  0.44673757  0.24158604  1
  O  O27  1  0.38935343  0.13166235  0.42185630  1
  O  O28  1  1.00000000  0.70378971  0.60316182  1
  O  O29  1  0.61064657  0.74230893  0.42185630  1
  O  O30  1  0.74230893  0.61064657  0.42185630  1
  O  O31  1  0.74230893  0.13166235  0.92185630  1
  O  O32  1  0.70378971  0.00000000  0.60316182  1
  O  O33  1  0.29621029  0.00000000  0.10316182  1
  O  O34  1  0.55326243  0.13053201  0.74158604  1
  O  O35  1  0.42273042  0.55326243  0.24158604  1
  O  O36  1  0.86946799  0.42273042  0.74158604  1
  O  O37  1  0.44673757  0.86946799  0.24158604  1
  O  O38  1  0.29621029  0.29621029  0.60316182  1
  O  O39  1  0.57726958  0.44673757  0.74158604  1
  O  O40  1  0.00000000  0.29621029  0.10316182  1
  O  O41  1  0.55326243  0.42273042  0.24158604  1
  O  O42  1  0.57726958  0.13053201  0.24158604  1
  O  O43  1  0.86833765  0.25769107  0.42185630  1
  O  O44  1  0.13166235  0.74230893  0.92185630  1
  O  O45  1  0.61064657  0.86833765  0.92185630  1
  O  O46  1  0.25769107  0.86833765  0.42185630  1
  O  O47  1  0.25769107  0.38935343  0.92185630  1
