# generated using pymatgen
data_BiBPbO4
_symmetry_space_group_name_H-M   'P 1'
_cell_length_a   7.64159053
_cell_length_b   7.58627211
_cell_length_c   7.76378361
_cell_angle_alpha   90.00000000
_cell_angle_beta   93.05534772
_cell_angle_gamma   90.00000000
_symmetry_Int_Tables_number   1
_chemical_formula_structural   BiBPbO4
_chemical_formula_sum   'Bi4 B4 Pb4 O16'
_cell_volume   449.43595960
_cell_formula_units_Z   4
loop_
 _symmetry_equiv_pos_site_id
 _symmetry_equiv_pos_as_xyz
  1  'x, y, z'
loop_
 _atom_site_type_symbol
 _atom_site_label
 _atom_site_symmetry_multiplicity
 _atom_site_fract_x
 _atom_site_fract_y
 _atom_site_fract_z
 _atom_site_occupancy
  Bi  Bi0  1  0.15992061  0.99914290  0.34320326  1
  Bi  Bi1  1  0.65992061  0.50085710  0.84320326  1
  Bi  Bi2  1  0.84007939  0.00085710  0.65679674  1
  Bi  Bi3  1  0.34007939  0.49914290  0.15679674  1
  B  B4  1  0.01204084  0.24292287  0.01152885  1
  B  B5  1  0.98795916  0.75707713  0.98847115  1
  B  B6  1  0.51204084  0.25707713  0.51152885  1
  B  B7  1  0.48795916  0.74292287  0.48847115  1
  Pb  Pb8  1  0.31608574  0.89021324  0.81642697  1
  Pb  Pb9  1  0.81608574  0.60978676  0.31642697  1
  Pb  Pb10  1  0.18391426  0.39021324  0.68357303  1
  Pb  Pb11  1  0.68391426  0.10978676  0.18357303  1
  O  O12  1  0.89731404  0.89732389  0.39631181  1
  O  O13  1  0.31814934  0.78958422  0.52780319  1
  O  O14  1  0.60268596  0.39732389  0.10368819  1
  O  O15  1  0.81814934  0.71041578  0.02780319  1
  O  O16  1  0.52299073  0.70338595  0.31761033  1
  O  O17  1  0.37785428  0.26296691  0.38568428  1
  O  O18  1  0.12214572  0.76296691  0.11431572  1
  O  O19  1  0.10268596  0.10267611  0.60368819  1
  O  O20  1  0.18185066  0.28958422  0.97219681  1
  O  O21  1  0.68185066  0.21041578  0.47219681  1
  O  O22  1  0.87785428  0.23703309  0.88568428  1
  O  O23  1  0.97700927  0.20338595  0.18238967  1
  O  O24  1  0.47700927  0.29661405  0.68238967  1
  O  O25  1  0.62214572  0.73703309  0.61431572  1
  O  O26  1  0.02299073  0.79661405  0.81761033  1
  O  O27  1  0.39731404  0.60267611  0.89631181  1
