# generated using pymatgen
data_Tl2OsCBr2OF3
_symmetry_space_group_name_H-M   'P 1'
_cell_length_a   11.52473921
_cell_length_b   12.03176139
_cell_length_c   14.09150894
_cell_angle_alpha   90.00000000
_cell_angle_beta   91.68289589
_cell_angle_gamma   90.00000000
_symmetry_Int_Tables_number   1
_chemical_formula_structural   Tl2OsCBr2OF3
_chemical_formula_sum   'Tl16 Os8 C8 Br16 O8 F24'
_cell_volume   1953.12686567
_cell_formula_units_Z   8
loop_
 _symmetry_equiv_pos_site_id
 _symmetry_equiv_pos_as_xyz
  1  'x, y, z'
loop_
 _atom_site_type_symbol
 _atom_site_label
 _atom_site_symmetry_multiplicity
 _atom_site_fract_x
 _atom_site_fract_y
 _atom_site_fract_z
 _atom_site_occupancy
  Tl  Tl0  1  0.12914715  0.93791513  0.63000055  1
  Tl  Tl1  1  0.87085285  0.06208487  0.36999945  1
  Tl  Tl2  1  0.44860186  0.83599654  0.93676594  1
  Tl  Tl3  1  0.37085285  0.43791513  0.86999945  1
  Tl  Tl4  1  0.36304976  0.44334432  0.34974708  1
  Tl  Tl5  1  0.94860186  0.66400346  0.43676594  1
  Tl  Tl6  1  0.05139814  0.33599654  0.56323406  1
  Tl  Tl7  1  0.13695024  0.94334432  0.15025292  1
  Tl  Tl8  1  0.52164688  0.15618281  0.73425225  1
  Tl  Tl9  1  0.02164688  0.34381719  0.23425225  1
  Tl  Tl10  1  0.62914715  0.56208487  0.13000055  1
  Tl  Tl11  1  0.47835312  0.84381719  0.26574775  1
  Tl  Tl12  1  0.55139814  0.16400346  0.06323406  1
  Tl  Tl13  1  0.97835312  0.65618281  0.76574775  1
  Tl  Tl14  1  0.63695024  0.55665568  0.65025292  1
  Tl  Tl15  1  0.86304976  0.05665568  0.84974708  1
  Os  Os16  1  0.20754706  0.10602606  0.38812860  1
  Os  Os17  1  0.26414259  0.09900966  0.90447719  1
  Os  Os18  1  0.73585741  0.90099034  0.09552281  1
  Os  Os19  1  0.76414259  0.40099034  0.40447719  1
  Os  Os20  1  0.70754706  0.39397394  0.88812860  1
  Os  Os21  1  0.29245294  0.60602606  0.11187140  1
  Os  Os22  1  0.79245294  0.89397394  0.61187140  1
  Os  Os23  1  0.23585741  0.59900966  0.59552281  1
  C  C24  1  0.33908410  0.67358660  0.52373500  1
  C  C25  1  0.82499573  0.40055278  0.97707102  1
  C  C26  1  0.16091590  0.17358660  0.97626500  1
  C  C27  1  0.66091590  0.32641340  0.47626500  1
  C  C28  1  0.83908410  0.82641340  0.02373500  1
  C  C29  1  0.32499573  0.09944722  0.47707102  1
  C  C30  1  0.17500427  0.59944722  0.02292898  1
  C  C31  1  0.67500427  0.90055278  0.52292898  1
  Br  Br32  1  0.84215841  0.38725436  0.75404974  1
  Br  Br33  1  0.13695707  0.93283388  0.89638204  1
  Br  Br34  1  0.68209625  0.31540638  0.25729349  1
  Br  Br35  1  0.65784159  0.88725436  0.74595026  1
  Br  Br36  1  0.63695707  0.56716612  0.39638204  1
  Br  Br37  1  0.80745718  0.10006449  0.61968432  1
  Br  Br38  1  0.34215841  0.11274564  0.25404974  1
  Br  Br39  1  0.15784159  0.61274564  0.24595026  1
  Br  Br40  1  0.31790375  0.68459362  0.74270651  1
  Br  Br41  1  0.69254282  0.60006449  0.88031568  1
  Br  Br42  1  0.36304293  0.43283388  0.60361796  1
  Br  Br43  1  0.19254282  0.89993551  0.38031568  1
  Br  Br44  1  0.30745718  0.39993551  0.11968432  1
  Br  Br45  1  0.18209625  0.18459362  0.75729349  1
  Br  Br46  1  0.81790375  0.81540638  0.24270651  1
  Br  Br47  1  0.86304293  0.06716612  0.10361796  1
  O  O48  1  0.39986083  0.09209110  0.53544508  1
  O  O49  1  0.59101471  0.28021518  0.52123902  1
  O  O50  1  0.89986083  0.40790890  0.03544508  1
  O  O51  1  0.09101471  0.21978482  0.02123902  1
  O  O52  1  0.60013917  0.90790890  0.46455492  1
  O  O53  1  0.90898529  0.78021518  0.97876098  1
  O  O54  1  0.10013917  0.59209110  0.96455492  1
  O  O55  1  0.40898529  0.71978482  0.47876098  1
  F  F56  1  0.56862209  0.38931965  0.78649744  1
  F  F57  1  0.11580833  0.51320732  0.67709882  1
  F  F58  1  0.92171435  0.89251842  0.51858076  1
  F  F59  1  0.69004285  0.22667025  0.88589717  1
  F  F60  1  0.07828565  0.10748158  0.48141924  1
  F  F61  1  0.30995715  0.77332975  0.11410283  1
  F  F62  1  0.64451110  0.97182311  0.98645166  1
  F  F63  1  0.39223992  0.21395630  0.90722011  1
  F  F64  1  0.89223992  0.28604370  0.40722011  1
  F  F65  1  0.85548890  0.47182311  0.51354834  1
  F  F66  1  0.06862209  0.11068035  0.28649744  1
  F  F67  1  0.35548890  0.02817689  0.01354834  1
  F  F68  1  0.14451110  0.52817689  0.48645166  1
  F  F69  1  0.42171435  0.60748158  0.01858076  1
  F  F70  1  0.88419167  0.48679268  0.32290118  1
  F  F71  1  0.10776008  0.71395630  0.59277989  1
  F  F72  1  0.38419167  0.01320732  0.82290118  1
  F  F73  1  0.60776008  0.78604370  0.09277989  1
  F  F74  1  0.19004285  0.27332975  0.38589717  1
  F  F75  1  0.61580833  0.98679268  0.17709882  1
  F  F76  1  0.80995715  0.72667025  0.61410283  1
  F  F77  1  0.93137791  0.88931965  0.71350256  1
  F  F78  1  0.43137791  0.61068035  0.21350256  1
  F  F79  1  0.57828565  0.39251842  0.98141924  1
