# generated using pymatgen
data_Al2CO
_symmetry_space_group_name_H-M   'P 1'
_cell_length_a   3.48172760
_cell_length_b   3.48172760
_cell_length_c   4.08761003
_cell_angle_alpha   90.00487682
_cell_angle_beta   89.99512318
_cell_angle_gamma   119.99742718
_symmetry_Int_Tables_number   1
_chemical_formula_structural   Al2CO
_chemical_formula_sum   'Al2 C1 O1'
_cell_volume   42.91419060
_cell_formula_units_Z   1
loop_
 _symmetry_equiv_pos_site_id
 _symmetry_equiv_pos_as_xyz
  1  'x, y, z'
loop_
 _atom_site_type_symbol
 _atom_site_label
 _atom_site_symmetry_multiplicity
 _atom_site_fract_x
 _atom_site_fract_y
 _atom_site_fract_z
 _atom_site_occupancy
  Al  Al0  1  0.33339035  0.66660965  0.44590918  1
  Al  Al1  1  0.66676543  0.33323457  0.94676614  1
  C  C2  1  0.33334660  0.66665340  0.94731786  1
  O  O3  1  0.66649762  0.33350238  0.44600683  1
