# generated using pymatgen
data_Y2SiCO7
_symmetry_space_group_name_H-M   'P 1'
_cell_length_a   6.53068902
_cell_length_b   6.64996395
_cell_length_c   6.72525847
_cell_angle_alpha   95.53337040
_cell_angle_beta   116.43363692
_cell_angle_gamma   92.66453105
_symmetry_Int_Tables_number   1
_chemical_formula_structural   Y2SiCO7
_chemical_formula_sum   'Y4 Si2 C2 O14'
_cell_volume   259.00251459
_cell_formula_units_Z   2
loop_
 _symmetry_equiv_pos_site_id
 _symmetry_equiv_pos_as_xyz
  1  'x, y, z'
loop_
 _atom_site_type_symbol
 _atom_site_label
 _atom_site_symmetry_multiplicity
 _atom_site_fract_x
 _atom_site_fract_y
 _atom_site_fract_z
 _atom_site_occupancy
  Y  Y0  1  0.25690846  0.66715747  0.18897242  1
  Y  Y1  1  0.25085435  0.91320226  0.70148403  1
  Y  Y2  1  0.74309154  0.33284253  0.81102758  1
  Y  Y3  1  0.74914565  0.08679774  0.29851597  1
  Si  Si4  1  0.26348470  0.15759504  0.24172430  1
  Si  Si5  1  0.73651530  0.84240496  0.75827570  1
  C  C6  1  0.80574152  0.58996301  0.26585673  1
  C  C7  1  0.19425848  0.41003699  0.73414327  1
  O  O8  1  0.11362336  0.03421818  0.34207580  1
  O  O9  1  0.34275414  0.28350805  0.75042567  1
  O  O10  1  0.26523344  0.59605957  0.83518388  1
  O  O11  1  0.02308915  0.64681509  0.37714519  1
  O  O12  1  0.47915288  0.75120020  0.56256176  1
  O  O13  1  0.66773357  0.01679934  0.91035608  1
  O  O14  1  0.97691085  0.35318491  0.62285481  1
  O  O15  1  0.33226643  0.98320066  0.08964392  1
  O  O16  1  0.12723718  0.33174583  0.09306458  1
  O  O17  1  0.88637664  0.96578182  0.65792420  1
  O  O18  1  0.73476656  0.40394043  0.16481612  1
  O  O19  1  0.87276282  0.66825417  0.90693542  1
  O  O20  1  0.65724586  0.71649195  0.24957433  1
  O  O21  1  0.52084712  0.24879980  0.43743824  1
