# generated using pymatgen
data_Li2AlBO4
_symmetry_space_group_name_H-M   'P 1'
_cell_length_a   5.10917415
_cell_length_b   6.36818779
_cell_length_c   10.44953306
_cell_angle_alpha   96.27569343
_cell_angle_beta   90.00000000
_cell_angle_gamma   90.00000000
_symmetry_Int_Tables_number   1
_chemical_formula_structural   Li2AlBO4
_chemical_formula_sum   'Li8 Al4 B4 O16'
_cell_volume   337.95048779
_cell_formula_units_Z   4
loop_
 _symmetry_equiv_pos_site_id
 _symmetry_equiv_pos_as_xyz
  1  'x, y, z'
loop_
 _atom_site_type_symbol
 _atom_site_label
 _atom_site_symmetry_multiplicity
 _atom_site_fract_x
 _atom_site_fract_y
 _atom_site_fract_z
 _atom_site_occupancy
  Li  Li0  1  0.33083656  0.22514156  0.07145791  1
  Li  Li1  1  0.83083656  0.77485844  0.42854209  1
  Li  Li2  1  0.16916344  0.22514156  0.57145791  1
  Li  Li3  1  0.35772275  0.10521679  0.78922983  1
  Li  Li4  1  0.85772275  0.89478321  0.71077017  1
  Li  Li5  1  0.64227725  0.89478321  0.21077017  1
  Li  Li6  1  0.14227725  0.10521679  0.28922983  1
  Li  Li7  1  0.66916344  0.77485844  0.92854209  1
  Al  Al8  1  0.85652610  0.49815838  0.15883270  1
  Al  Al9  1  0.64347390  0.49815838  0.65883270  1
  Al  Al10  1  0.35652610  0.50184162  0.34116730  1
  Al  Al11  1  0.14347390  0.50184162  0.84116730  1
  B  B12  1  0.32286102  0.79730897  0.55857425  1
  B  B13  1  0.17713898  0.79730897  0.05857425  1
  B  B14  1  0.82286102  0.20269103  0.94142575  1
  B  B15  1  0.67713898  0.20269103  0.44142575  1
  O  O16  1  0.69950375  0.30111611  0.05146518  1
  O  O17  1  0.58526447  0.73365102  0.58051544  1
  O  O18  1  0.08526447  0.26634898  0.91948456  1
  O  O19  1  0.19950375  0.69888389  0.44853482  1
  O  O20  1  0.70033856  0.05331711  0.86116744  1
  O  O21  1  0.30049625  0.69888389  0.94853482  1
  O  O22  1  0.20033856  0.94668289  0.63883256  1
  O  O23  1  0.91473553  0.73365102  0.08051544  1
  O  O24  1  0.80049625  0.30111611  0.55146518  1
  O  O25  1  0.64871338  0.60033613  0.28397846  1
  O  O26  1  0.85128662  0.60033613  0.78397846  1
  O  O27  1  0.29966144  0.94668289  0.13883256  1
  O  O28  1  0.35128662  0.39966387  0.71602154  1
  O  O29  1  0.79966144  0.05331711  0.36116744  1
  O  O30  1  0.41473553  0.26634898  0.41948456  1
  O  O31  1  0.14871338  0.39966387  0.21602154  1
