# generated using pymatgen
data_K2Cu3S3O13
_symmetry_space_group_name_H-M   'P 1'
_cell_length_a   9.69682205
_cell_length_b   10.78844229
_cell_length_c   14.48270327
_cell_angle_alpha   108.62193436
_cell_angle_beta   90.00000000
_cell_angle_gamma   116.70570073
_symmetry_Int_Tables_number   1
_chemical_formula_structural   K2Cu3S3O13
_chemical_formula_sum   'K8 Cu12 S12 O52'
_cell_volume   1264.04633209
_cell_formula_units_Z   4
loop_
 _symmetry_equiv_pos_site_id
 _symmetry_equiv_pos_as_xyz
  1  'x, y, z'
loop_
 _atom_site_type_symbol
 _atom_site_label
 _atom_site_symmetry_multiplicity
 _atom_site_fract_x
 _atom_site_fract_y
 _atom_site_fract_z
 _atom_site_occupancy
  K  K0  1  0.54424574  0.61025341  0.87443388  1
  K  K1  1  0.57215864  0.65245049  0.43987888  1
  K  K2  1  0.06600767  0.61025341  0.37443388  1
  K  K3  1  0.91970815  0.34754951  0.06012112  1
  K  K4  1  0.45575426  0.38974659  0.12556612  1
  K  K5  1  0.08029185  0.65245049  0.93987888  1
  K  K6  1  0.42784136  0.34754951  0.56012112  1
  K  K7  1  0.93399233  0.38974659  0.62556612  1
  Cu  Cu8  1  0.83243448  0.15608743  0.29381046  1
  Cu  Cu9  1  0.98749966  0.02692897  0.85704928  1
  Cu  Cu10  1  0.50048279  0.96141902  0.84078801  1
  Cu  Cu11  1  0.03942931  0.02692897  0.35704928  1
  Cu  Cu12  1  0.16756552  0.84391257  0.70618954  1
  Cu  Cu13  1  0.46093623  0.96141902  0.34078801  1
  Cu  Cu14  1  0.32365295  0.15608743  0.79381046  1
  Cu  Cu15  1  0.53906377  0.03858098  0.65921199  1
  Cu  Cu16  1  0.67634705  0.84391257  0.20618954  1
  Cu  Cu17  1  0.96057069  0.97307103  0.64295072  1
  Cu  Cu18  1  0.01250034  0.97307103  0.14295072  1
  Cu  Cu19  1  0.49951721  0.03858098  0.15921199  1
  S  S20  1  0.81887161  0.70336282  0.71441152  1
  S  S21  1  0.88449121  0.70336282  0.21441152  1
  S  S22  1  0.74158747  0.98467174  0.00788185  1
  S  S23  1  0.33007216  0.70637591  0.13594185  1
  S  S24  1  0.24308426  0.98467174  0.50788185  1
  S  S25  1  0.62369624  0.29362409  0.36405815  1
  S  S26  1  0.75691574  0.01532826  0.49211815  1
  S  S27  1  0.11550879  0.29663718  0.78558848  1
  S  S28  1  0.25841253  0.01532826  0.99211815  1
  S  S29  1  0.66992784  0.29362409  0.86405815  1
  S  S30  1  0.37630376  0.70637591  0.63594185  1
  S  S31  1  0.18112839  0.29663718  0.28558848  1
  O  O32  1  0.55202789  0.24234707  0.25841505  1
  O  O33  1  0.96807089  0.76843351  0.14111322  1
  O  O34  1  0.88706674  0.07259283  0.97224315  1
  O  O35  1  0.62560042  0.43227095  0.42319358  1
  O  O36  1  0.62641470  0.90416324  0.40882083  1
  O  O37  1  0.37439958  0.56772905  0.57680642  1
  O  O38  1  0.20908452  0.67984573  0.63164001  1
  O  O39  1  0.69031919  0.24234707  0.75841505  1
  O  O40  1  0.37358530  0.09583676  0.59117917  1
  O  O41  1  0.60164578  0.90108511  0.92685164  1
  O  O42  1  0.29943933  0.90108511  0.42685164  1
  O  O43  1  0.03715981  0.19067261  0.68153058  1
  O  O44  1  0.24148444  0.12689670  0.96109818  1
  O  O45  1  0.95894747  0.67640094  0.70024367  1
  O  O46  1  0.15351280  0.19067261  0.18153058  1
  O  O47  1  0.70056067  0.09891489  0.57314836  1
  O  O48  1  0.18552609  0.07259283  0.47224315  1
  O  O49  1  0.64450530  0.17789357  0.90848870  1
  O  O50  1  0.30968081  0.75765293  0.24158495  1
  O  O51  1  0.96284019  0.80932739  0.31846942  1
  O  O52  1  0.31994344  0.43776205  0.29853824  1
  O  O53  1  0.68005656  0.56223795  0.70146176  1
  O  O54  1  0.10650810  0.00000000  0.75000000  1
  O  O55  1  0.71745347  0.67640094  0.20024367  1
  O  O56  1  0.80667052  0.43227095  0.92319358  1
  O  O57  1  0.39835422  0.09891489  0.07314836  1
  O  O58  1  0.35549470  0.82210643  0.09151130  1
  O  O59  1  0.11458773  0.87310330  0.53890182  1
  O  O60  1  0.11293326  0.92740717  0.02775685  1
  O  O61  1  0.75851556  0.87310330  0.03890182  1
  O  O62  1  0.61300439  0.00000000  0.25000000  1
  O  O63  1  0.53338827  0.17789357  0.40848870  1
  O  O64  1  0.04105253  0.32359906  0.29975633  1
  O  O65  1  0.19963739  0.23156649  0.35888678  1
  O  O66  1  0.44797211  0.75765293  0.74158495  1
  O  O67  1  0.11781861  0.43776205  0.79853824  1
  O  O68  1  0.89349190  0.00000000  0.25000000  1
  O  O69  1  0.28254653  0.32359906  0.79975633  1
  O  O70  1  0.27774855  0.90416324  0.90882083  1
  O  O71  1  0.88218139  0.56223795  0.20146176  1
  O  O72  1  0.52923878  0.32015427  0.86835999  1
  O  O73  1  0.46661173  0.82210643  0.59151130  1
  O  O74  1  0.79091548  0.32015427  0.36835999  1
  O  O75  1  0.38699561  0.00000000  0.75000000  1
  O  O76  1  0.81447391  0.92740717  0.52775685  1
  O  O77  1  0.88541227  0.12689670  0.46109818  1
  O  O78  1  0.80036261  0.76843351  0.64111322  1
  O  O79  1  0.72225145  0.09583676  0.09117917  1
  O  O80  1  0.19332948  0.56772905  0.07680642  1
  O  O81  1  0.47076122  0.67984573  0.13164001  1
  O  O82  1  0.03192911  0.23156649  0.85888678  1
  O  O83  1  0.84648720  0.80932739  0.81846942  1
