# generated using pymatgen
data_CsU6F25
_symmetry_space_group_name_H-M   'P 1'
_cell_length_a   8.22002125
_cell_length_b   8.22002143
_cell_length_c   16.67781694
_cell_angle_alpha   90.00000000
_cell_angle_beta   90.00000000
_cell_angle_gamma   119.99999925
_symmetry_Int_Tables_number   1
_chemical_formula_structural   CsU6F25
_chemical_formula_sum   'Cs2 U12 F50'
_cell_volume   975.92339137
_cell_formula_units_Z   2
loop_
 _symmetry_equiv_pos_site_id
 _symmetry_equiv_pos_as_xyz
  1  'x, y, z'
loop_
 _atom_site_type_symbol
 _atom_site_label
 _atom_site_symmetry_multiplicity
 _atom_site_fract_x
 _atom_site_fract_y
 _atom_site_fract_z
 _atom_site_occupancy
  Cs  Cs0  1  0.66666700  0.33333300  0.25000000  1
  Cs  Cs1  1  0.33333300  0.66666700  0.75000000  1
  U  U2  1  0.83343064  0.16656936  0.61237347  1
  U  U3  1  0.83343064  0.66686128  0.88762653  1
  U  U4  1  0.66686128  0.83343064  0.38762653  1
  U  U5  1  0.16656936  0.83343064  0.38762653  1
  U  U6  1  0.33313872  0.16656936  0.61237347  1
  U  U7  1  0.33313872  0.16656936  0.88762653  1
  U  U8  1  0.16656936  0.83343064  0.11237347  1
  U  U9  1  0.16656936  0.33313872  0.11237347  1
  U  U10  1  0.83343064  0.66686128  0.61237347  1
  U  U11  1  0.16656936  0.33313872  0.38762653  1
  U  U12  1  0.83343064  0.16656936  0.88762653  1
  U  U13  1  0.66686128  0.83343064  0.11237347  1
  F  F14  1  0.66666700  0.33333300  0.93449354  1
  F  F15  1  0.72416069  0.86208035  0.65865698  1
  F  F16  1  0.86208035  0.72416069  0.34134302  1
  F  F17  1  0.48238368  0.51761632  0.35589800  1
  F  F18  1  0.36787289  0.18393644  0.75000000  1
  F  F19  1  0.13791965  0.86208035  0.84134302  1
  F  F20  1  0.32066975  0.00000000  0.50000000  1
  F  F21  1  0.00000000  0.00000000  0.92760642  1
  F  F22  1  0.48238368  0.96476737  0.14410200  1
  F  F23  1  0.33333300  0.66666700  0.43449354  1
  F  F24  1  0.81606356  0.63212711  0.75000000  1
  F  F25  1  0.32066975  0.00000000  0.00000000  1
  F  F26  1  0.51761632  0.03523263  0.64410200  1
  F  F27  1  0.00000000  0.00000000  0.42760642  1
  F  F28  1  0.67933025  0.00000000  0.50000000  1
  F  F29  1  0.86208035  0.72416069  0.15865698  1
  F  F30  1  0.00000000  0.00000000  0.07239358  1
  F  F31  1  0.81606356  0.18393644  0.75000000  1
  F  F32  1  0.27583931  0.13791965  0.34134302  1
  F  F33  1  0.18393644  0.81606356  0.25000000  1
  F  F34  1  0.51761632  0.48238368  0.64410200  1
  F  F35  1  0.96476737  0.48238368  0.85589800  1
  F  F36  1  1.00000000  0.32066975  0.50000000  1
  F  F37  1  0.13791965  0.86208035  0.65865698  1
  F  F38  1  0.48238368  0.51761632  0.14410200  1
  F  F39  1  0.03523263  0.51761632  0.35589800  1
  F  F40  1  1.00000000  0.32066975  0.00000000  1
  F  F41  1  0.33333300  0.66666700  0.06550646  1
  F  F42  1  0.00000000  0.00000000  0.57239358  1
  F  F43  1  0.18393644  0.36787289  0.25000000  1
  F  F44  1  0.03523263  0.51761632  0.14410200  1
  F  F45  1  0.86208035  0.13791965  0.34134302  1
  F  F46  1  0.96476737  0.48238368  0.64410200  1
  F  F47  1  0.51761632  0.48238368  0.85589800  1
  F  F48  1  0.67933025  0.67933025  0.50000000  1
  F  F49  1  0.00000000  0.67933025  0.00000000  1
  F  F50  1  0.32066975  0.32066975  0.00000000  1
  F  F51  1  0.13791965  0.27583931  0.84134302  1
  F  F52  1  0.51761632  0.03523263  0.85589800  1
  F  F53  1  0.48238368  0.96476737  0.35589800  1
  F  F54  1  0.32066975  0.32066975  0.50000000  1
  F  F55  1  0.67933025  0.67933025  0.00000000  1
  F  F56  1  0.63212711  0.81606356  0.25000000  1
  F  F57  1  0.86208035  0.13791965  0.15865698  1
  F  F58  1  0.27583931  0.13791965  0.15865698  1
  F  F59  1  0.13791965  0.27583931  0.65865698  1
  F  F60  1  0.00000000  0.67933025  0.50000000  1
  F  F61  1  0.66666700  0.33333300  0.56550646  1
  F  F62  1  0.67933025  0.00000000  0.00000000  1
  F  F63  1  0.72416069  0.86208035  0.84134302  1
