# generated using pymatgen
data_Na3Al2(AsO4)3
_symmetry_space_group_name_H-M   'P 1'
_cell_length_a   9.92456038
_cell_length_b   10.01853535
_cell_length_c   10.01853528
_cell_angle_alpha   84.84411573
_cell_angle_beta   84.89289003
_cell_angle_gamma   84.89288719
_symmetry_Int_Tables_number   1
_chemical_formula_structural   Na3Al2(AsO4)3
_chemical_formula_sum   'Na12 Al8 As12 O48'
_cell_volume   984.86822610
_cell_formula_units_Z   4
loop_
 _symmetry_equiv_pos_site_id
 _symmetry_equiv_pos_as_xyz
  1  'x, y, z'
loop_
 _atom_site_type_symbol
 _atom_site_label
 _atom_site_symmetry_multiplicity
 _atom_site_fract_x
 _atom_site_fract_y
 _atom_site_fract_z
 _atom_site_occupancy
  Na  Na0  1  0.51622363  0.54447973  0.82637031  1
  Na  Na1  1  0.82639214  0.29789431  0.29858201  1
  Na  Na2  1  0.23411486  0.50016473  0.99857877  1
  Na  Na3  1  0.48377637  0.17362969  0.45552027  1
  Na  Na4  1  0.76588514  0.00142123  0.49983527  1
  Na  Na5  1  0.17360786  0.70141799  0.70210569  1
  Na  Na6  1  0.26390317  0.36022154  0.27115212  1
  Na  Na7  1  0.59055870  0.02604234  0.77304678  1
  Na  Na8  1  0.92584597  0.95976803  0.24242608  1
  Na  Na9  1  0.07415403  0.75757392  0.04023197  1
  Na  Na10  1  0.40944130  0.22695322  0.97395766  1
  Na  Na11  1  0.73609683  0.72884788  0.63977846  1
  Al  Al12  1  0.50000000  0.52893159  0.47106841  1
  Al  Al13  1  0.71994068  0.74465102  0.03093266  1
  Al  Al14  1  0.77795951  0.24732336  0.97054733  1
  Al  Al15  1  1.00000000  0.46824848  0.53175152  1
  Al  Al16  1  1.00000000  0.24708218  0.75291782  1
  Al  Al17  1  0.28005932  0.96906734  0.25534898  1
  Al  Al18  1  0.50000000  0.74672870  0.25327130  1
  Al  Al19  1  0.22204049  0.02945267  0.75267664  1
  As  As20  1  0.29757070  0.33882488  0.67453211  1
  As  As21  1  0.42658481  0.83855381  0.54894983  1
  As  As22  1  0.19875451  0.66383884  0.33749378  1
  As  As23  1  0.57341519  0.45105017  0.16144619  1
  As  As24  1  0.59423776  0.04181948  0.17102077  1
  As  As25  1  0.08304623  0.15838040  0.45854094  1
  As  As26  1  0.40576224  0.82897923  0.95818052  1
  As  As27  1  0.80124549  0.66250622  0.33616116  1
  As  As28  1  0.90945344  0.95093680  0.83232591  1
  As  As29  1  0.70242930  0.32546789  0.66117512  1
  As  As30  1  0.91695377  0.54145906  0.84161960  1
  As  As31  1  0.09054656  0.16767409  0.04906320  1
  O  O32  1  0.85187781  0.87088360  0.98404697  1
  O  O33  1  0.16634448  0.83566124  0.33238416  1
  O  O34  1  0.82933752  0.90768087  0.70528459  1
  O  O35  1  0.57730639  0.62756575  0.12298436  1
  O  O36  1  0.62976670  0.86482425  0.16986784  1
  O  O37  1  0.66893545  0.09346078  0.29925469  1
  O  O38  1  0.56466597  0.90357260  0.59334896  1
  O  O39  1  0.57388116  0.41238224  0.33339966  1
  O  O40  1  0.37915124  0.62175374  0.33711944  1
  O  O41  1  0.87144529  0.12832072  0.83507183  1
  O  O42  1  0.37023330  0.83013216  0.13517575  1
  O  O43  1  0.35198032  0.98313291  0.88049411  1
  O  O44  1  0.23503652  0.09972715  0.37931483  1
  O  O45  1  0.62084876  0.66288056  0.37824626  1
  O  O46  1  0.62510190  0.47712303  0.60102952  1
  O  O47  1  0.64991081  0.19104341  0.59845591  1
  O  O48  1  0.42029124  0.08027340  0.17926229  1
  O  O49  1  0.33106455  0.70074531  0.90653922  1
  O  O50  1  0.91872252  0.36512623  0.88216485  1
  O  O51  1  0.66538151  0.32512614  0.83344714  1
  O  O52  1  0.84780763  0.79586777  0.40549816  1
  O  O53  1  0.05393609  0.60104234  0.89350469  1
  O  O54  1  0.17066248  0.29471541  0.09231913  1
  O  O55  1  0.57970876  0.82073771  0.91972660  1
  O  O56  1  0.87261253  0.51199558  0.40412660  1
  O  O57  1  0.76496348  0.62068517  0.90027285  1
  O  O58  1  0.12738747  0.59587340  0.48800442  1
  O  O59  1  0.14812219  0.01595303  0.12911640  1
  O  O60  1  0.08376285  0.33072689  0.42709230  1
  O  O61  1  0.83365552  0.66761584  0.16433876  1
  O  O62  1  0.88069151  0.32400898  0.62314671  1
  O  O63  1  0.33461849  0.16655286  0.67487386  1
  O  O64  1  0.11930849  0.37685329  0.67599102  1
  O  O65  1  0.12855471  0.16492817  0.87167928  1
  O  O66  1  0.91640125  0.17175332  0.08611760  1
  O  O67  1  0.08359875  0.91388240  0.82824668  1
  O  O68  1  0.15219237  0.59450184  0.20413223  1
  O  O69  1  0.42611884  0.66660034  0.58761776  1
  O  O70  1  0.72145426  0.37091333  0.09693988  1
  O  O71  1  0.43533403  0.40665104  0.09642740  1
  O  O72  1  0.64801968  0.11950589  0.01686709  1
  O  O73  1  0.27854574  0.90306012  0.62908667  1
  O  O74  1  0.35008919  0.40154409  0.80895659  1
  O  O75  1  0.08127748  0.11783515  0.63487377  1
  O  O76  1  0.94606391  0.10649531  0.39895766  1
  O  O77  1  0.91623715  0.57290770  0.66927311  1
  O  O78  1  0.42269361  0.87701564  0.37243425  1
  O  O79  1  0.37489810  0.39897048  0.52287697  1
