# generated using pymatgen
data_Na2Ca3Si3O10
_symmetry_space_group_name_H-M   'P 1'
_cell_length_a   5.19805143
_cell_length_b   8.63126787
_cell_length_c   11.45370228
_cell_angle_alpha   93.20018589
_cell_angle_beta   90.00000000
_cell_angle_gamma   107.52473454
_symmetry_Int_Tables_number   1
_chemical_formula_structural   Na2Ca3Si3O10
_chemical_formula_sum   'Na4 Ca6 Si6 O20'
_cell_volume   489.18814873
_cell_formula_units_Z   2
loop_
 _symmetry_equiv_pos_site_id
 _symmetry_equiv_pos_as_xyz
  1  'x, y, z'
loop_
 _atom_site_type_symbol
 _atom_site_label
 _atom_site_symmetry_multiplicity
 _atom_site_fract_x
 _atom_site_fract_y
 _atom_site_fract_z
 _atom_site_occupancy
  Na  Na0  1  0.72479815  0.91199171  0.03437428  1
  Na  Na1  1  0.18719356  0.91199171  0.53437428  1
  Na  Na2  1  0.81280644  0.08800829  0.46562572  1
  Na  Na3  1  0.27520185  0.08800829  0.96562572  1
  Ca  Ca4  1  0.08301952  0.69540724  0.79312881  1
  Ca  Ca5  1  0.61238772  0.69540724  0.29312881  1
  Ca  Ca6  1  0.00000000  0.50000000  0.50000000  1
  Ca  Ca7  1  0.38761228  0.30459276  0.70687119  1
  Ca  Ca8  1  0.91698048  0.30459276  0.20687119  1
  Ca  Ca9  1  0.50000000  0.50000000  0.00000000  1
  Si  Si10  1  0.20258646  0.00000000  0.25000000  1
  Si  Si11  1  0.79741354  0.00000000  0.75000000  1
  Si  Si12  1  0.16039630  0.69723223  0.10364976  1
  Si  Si13  1  0.53683593  0.69723223  0.60364976  1
  Si  Si14  1  0.83960370  0.30276777  0.89635024  1
  Si  Si15  1  0.46316407  0.30276777  0.39635024  1
  O  O16  1  0.15618978  0.31265762  0.89051866  1
  O  O17  1  0.57901051  0.28208878  0.52583451  1
  O  O18  1  0.92119363  0.91387507  0.84895308  1
  O  O19  1  0.00731856  0.08612493  0.65104692  1
  O  O20  1  0.48111321  0.13577763  0.31341855  1
  O  O21  1  0.42098949  0.71791122  0.47416549  1
  O  O22  1  0.51888679  0.86422237  0.68658145  1
  O  O23  1  0.70307827  0.28208878  0.02583451  1
  O  O24  1  0.29692173  0.71791122  0.97416549  1
  O  O25  1  0.84353216  0.68734238  0.60948134  1
  O  O26  1  0.99268144  0.91387507  0.34895308  1
  O  O27  1  0.30809174  0.54599482  0.66184520  1
  O  O28  1  0.84381022  0.68734238  0.10948134  1
  O  O29  1  0.15646784  0.31265762  0.39051866  1
  O  O30  1  0.34533558  0.86422237  0.18658145  1
  O  O31  1  0.76209692  0.45400518  0.83815480  1
  O  O32  1  0.23790308  0.54599482  0.16184520  1
  O  O33  1  0.07880637  0.08612493  0.15104692  1
  O  O34  1  0.65466442  0.13577763  0.81341855  1
  O  O35  1  0.69190826  0.45400518  0.33815480  1
