# generated using pymatgen
data_CsCrF4
_symmetry_space_group_name_H-M   'P 1'
_cell_length_a   9.84030855
_cell_length_b   9.84030833
_cell_length_c   3.96418768
_cell_angle_alpha   90.00000000
_cell_angle_beta   90.00000000
_cell_angle_gamma   120.00000072
_symmetry_Int_Tables_number   1
_chemical_formula_structural   CsCrF4
_chemical_formula_sum   'Cs3 Cr3 F12'
_cell_volume   332.43156848
_cell_formula_units_Z   3
loop_
 _symmetry_equiv_pos_site_id
 _symmetry_equiv_pos_as_xyz
  1  'x, y, z'
loop_
 _atom_site_type_symbol
 _atom_site_label
 _atom_site_symmetry_multiplicity
 _atom_site_fract_x
 _atom_site_fract_y
 _atom_site_fract_z
 _atom_site_occupancy
  Cs  Cs0  1  0.00000000  0.57161710  0.50000000  1
  Cs  Cs1  1  0.42838290  0.42838290  0.50000000  1
  Cs  Cs2  1  0.57161710  0.00000000  0.50000000  1
  Cr  Cr3  1  0.00000000  0.22399257  0.00000000  1
  Cr  Cr4  1  0.77600743  0.77600743  0.00000000  1
  Cr  Cr5  1  0.22399257  0.00000000  0.00000000  1
  F  F6  1  0.15985252  0.43764073  0.00000000  1
  F  F7  1  0.56235927  0.72221280  0.00000000  1
  F  F8  1  0.27778720  0.84014748  0.00000000  1
  F  F9  1  0.84014748  0.27778720  0.00000000  1
  F  F10  1  0.72221280  0.56235927  0.00000000  1
  F  F11  1  0.43764073  0.15985252  0.00000000  1
  F  F12  1  0.83108655  0.00000000  0.00000000  1
  F  F13  1  0.16891345  0.16891345  0.00000000  1
  F  F14  1  1.00000000  0.83108655  0.00000000  1
  F  F15  1  0.21865988  0.00000000  0.50000000  1
  F  F16  1  0.78134012  0.78134012  0.50000000  1
  F  F17  1  0.00000000  0.21865988  0.50000000  1
