# generated using pymatgen
data_RbTeF5
_symmetry_space_group_name_H-M   'P 1'
_cell_length_a   6.38456308
_cell_length_b   11.74297257
_cell_length_c   14.29783245
_cell_angle_alpha   90.00000000
_cell_angle_beta   90.00000000
_cell_angle_gamma   90.00000000
_symmetry_Int_Tables_number   1
_chemical_formula_structural   RbTeF5
_chemical_formula_sum   'Rb8 Te8 F40'
_cell_volume   1071.96210306
_cell_formula_units_Z   8
loop_
 _symmetry_equiv_pos_site_id
 _symmetry_equiv_pos_as_xyz
  1  'x, y, z'
loop_
 _atom_site_type_symbol
 _atom_site_label
 _atom_site_symmetry_multiplicity
 _atom_site_fract_x
 _atom_site_fract_y
 _atom_site_fract_z
 _atom_site_occupancy
  Rb  Rb0  1  0.75000000  0.50637287  0.09686698  1
  Rb  Rb1  1  0.25000000  0.66180422  0.60014765  1
  Rb  Rb2  1  0.75000000  0.16180422  0.89985235  1
  Rb  Rb3  1  0.75000000  0.99362713  0.59686698  1
  Rb  Rb4  1  0.25000000  0.83819578  0.10014765  1
  Rb  Rb5  1  0.25000000  0.49362713  0.90313302  1
  Rb  Rb6  1  0.75000000  0.33819578  0.39985235  1
  Rb  Rb7  1  0.25000000  0.00637287  0.40313302  1
  Te  Te8  1  0.75000000  0.78555080  0.92415475  1
  Te  Te9  1  0.75000000  0.71444920  0.42415475  1
  Te  Te10  1  0.25000000  0.21444920  0.07584525  1
  Te  Te11  1  0.25000000  0.28555080  0.57584525  1
  Te  Te12  1  0.75000000  0.03811027  0.24135856  1
  Te  Te13  1  0.25000000  0.53811027  0.25864144  1
  Te  Te14  1  0.25000000  0.96188973  0.75864144  1
  Te  Te15  1  0.75000000  0.46188973  0.74135856  1
  F  F16  1  0.75000000  0.01674969  0.37600903  1
  F  F17  1  0.96690596  0.90913307  0.92118677  1
  F  F18  1  0.75000000  0.48325031  0.87600903  1
  F  F19  1  0.52390141  0.58141679  0.75395436  1
  F  F20  1  0.47609859  0.08141679  0.74604564  1
  F  F21  1  0.02514195  0.17980986  0.52600317  1
  F  F22  1  0.75000000  0.67259766  0.55400463  1
  F  F23  1  0.47485805  0.32019014  0.02600317  1
  F  F24  1  0.25000000  0.17259766  0.94599537  1
  F  F25  1  0.02514195  0.32019014  0.02600317  1
  F  F26  1  0.75000000  0.82740234  0.05400463  1
  F  F27  1  0.02390141  0.41858321  0.24604564  1
  F  F28  1  0.52390141  0.91858321  0.25395436  1
  F  F29  1  0.47609859  0.41858321  0.24604564  1
  F  F30  1  0.96690596  0.59086693  0.42118677  1
  F  F31  1  0.03309404  0.40913307  0.57881323  1
  F  F32  1  0.97485805  0.82019014  0.47399683  1
  F  F33  1  0.02390141  0.08141679  0.74604564  1
  F  F34  1  0.53309404  0.59086693  0.42118677  1
  F  F35  1  0.03364383  0.84648062  0.72094103  1
  F  F36  1  0.25000000  0.51674969  0.12399097  1
  F  F37  1  0.25000000  0.98325031  0.62399097  1
  F  F38  1  0.52514195  0.82019014  0.47399683  1
  F  F39  1  0.53309404  0.90913307  0.92118677  1
  F  F40  1  0.96635617  0.15351938  0.27905897  1
  F  F41  1  0.97485805  0.67980986  0.97399683  1
  F  F42  1  0.52514195  0.67980986  0.97399683  1
  F  F43  1  0.97609859  0.58141679  0.75395436  1
  F  F44  1  0.53364383  0.15351938  0.27905897  1
  F  F45  1  0.97609859  0.91858321  0.25395436  1
  F  F46  1  0.46635617  0.84648062  0.72094103  1
  F  F47  1  0.53364383  0.34648062  0.77905897  1
  F  F48  1  0.03364383  0.65351938  0.22094103  1
  F  F49  1  0.03309404  0.09086693  0.07881323  1
  F  F50  1  0.47485805  0.17980986  0.52600317  1
  F  F51  1  0.25000000  0.32740234  0.44599537  1
  F  F52  1  0.46690596  0.40913307  0.57881323  1
  F  F53  1  0.46690596  0.09086693  0.07881323  1
  F  F54  1  0.96635617  0.34648062  0.77905897  1
  F  F55  1  0.46635617  0.65351938  0.22094103  1
