# generated using pymatgen
data_ZnAgBiO5
_symmetry_space_group_name_H-M   'P 1'
_cell_length_a   5.47424359
_cell_length_b   8.34093768
_cell_length_c   10.66219167
_cell_angle_alpha   90.00000000
_cell_angle_beta   90.00000000
_cell_angle_gamma   100.33335445
_symmetry_Int_Tables_number   1
_chemical_formula_structural   ZnAgBiO5
_chemical_formula_sum   'Zn4 Ag4 Bi4 O20'
_cell_volume   478.94298284
_cell_formula_units_Z   4
loop_
 _symmetry_equiv_pos_site_id
 _symmetry_equiv_pos_as_xyz
  1  'x, y, z'
loop_
 _atom_site_type_symbol
 _atom_site_label
 _atom_site_symmetry_multiplicity
 _atom_site_fract_x
 _atom_site_fract_y
 _atom_site_fract_z
 _atom_site_occupancy
  Zn  Zn0  1  0.57057484  0.16577589  0.91863984  1
  Zn  Zn1  1  0.42942516  0.83422411  0.08136016  1
  Zn  Zn2  1  0.92942516  0.33422411  0.41863984  1
  Zn  Zn3  1  0.07057484  0.66577589  0.58136016  1
  Ag  Ag4  1  0.69291608  0.97850838  0.61826601  1
  Ag  Ag5  1  0.30708392  0.02149162  0.38173399  1
  Ag  Ag6  1  0.80708392  0.52149162  0.11826601  1
  Ag  Ag7  1  0.19291608  0.47850838  0.88173399  1
  Bi  Bi8  1  0.12587221  0.14190217  0.11254999  1
  Bi  Bi9  1  0.87412779  0.85809783  0.88745001  1
  Bi  Bi10  1  0.62587221  0.64190217  0.38745001  1
  Bi  Bi11  1  0.37412779  0.35809783  0.61254999  1
  O  O12  1  0.46887558  0.27637850  0.06421381  1
  O  O13  1  0.98636107  0.35283773  0.03111947  1
  O  O14  1  0.60914047  0.69044963  0.19097067  1
  O  O15  1  0.73233240  0.48681538  0.54578468  1
  O  O16  1  0.73434152  0.42764081  0.29605518  1
  O  O17  1  0.23434152  0.92764081  0.20394482  1
  O  O18  1  0.48636107  0.85283773  0.46888053  1
  O  O19  1  0.51363893  0.14716227  0.53111947  1
  O  O20  1  0.26766760  0.51318462  0.45421532  1
  O  O21  1  0.03112442  0.22362150  0.56421381  1
  O  O22  1  0.26565848  0.57235919  0.70394482  1
  O  O23  1  0.53112442  0.72362150  0.93578619  1
  O  O24  1  0.96887558  0.77637850  0.43578619  1
  O  O25  1  0.76565848  0.07235919  0.79605518  1
  O  O26  1  0.76766760  0.01318462  0.04578468  1
  O  O27  1  0.23233240  0.98681538  0.95421532  1
  O  O28  1  0.39085953  0.30955037  0.80902933  1
  O  O29  1  0.01363893  0.64716227  0.96888053  1
  O  O30  1  0.89085953  0.80955037  0.69097067  1
  O  O31  1  0.10914047  0.19044963  0.30902933  1
