# generated using pymatgen
data_TlBiP2S7
_symmetry_space_group_name_H-M   'P 1'
_cell_length_a   9.19640125
_cell_length_b   9.76927854
_cell_length_c   12.62594442
_cell_angle_alpha   90.00000000
_cell_angle_beta   90.00000000
_cell_angle_gamma   90.44857302
_symmetry_Int_Tables_number   1
_chemical_formula_structural   TlBiP2S7
_chemical_formula_sum   'Tl4 Bi4 P8 S28'
_cell_volume   1134.30792719
_cell_formula_units_Z   4
loop_
 _symmetry_equiv_pos_site_id
 _symmetry_equiv_pos_as_xyz
  1  'x, y, z'
loop_
 _atom_site_type_symbol
 _atom_site_label
 _atom_site_symmetry_multiplicity
 _atom_site_fract_x
 _atom_site_fract_y
 _atom_site_fract_z
 _atom_site_occupancy
  Tl  Tl0  1  0.12010886  0.11724738  0.68791938  1
  Tl  Tl1  1  0.37989114  0.88275262  0.18791938  1
  Tl  Tl2  1  0.87989114  0.88275262  0.31208062  1
  Tl  Tl3  1  0.62010886  0.11724738  0.81208062  1
  Bi  Bi4  1  0.87749983  0.65545773  0.63688760  1
  Bi  Bi5  1  0.12250017  0.34454227  0.36311240  1
  Bi  Bi6  1  0.37749983  0.65545773  0.86311240  1
  Bi  Bi7  1  0.62250017  0.34454227  0.13688760  1
  P  P8  1  0.48131696  0.22463600  0.39414140  1
  P  P9  1  0.01868304  0.77536400  0.89414140  1
  P  P10  1  0.30115890  0.32052387  0.96372322  1
  P  P11  1  0.19884110  0.67947613  0.46372322  1
  P  P12  1  0.51868304  0.77536400  0.60585860  1
  P  P13  1  0.80115890  0.32052387  0.53627678  1
  P  P14  1  0.69884110  0.67947613  0.03627678  1
  P  P15  1  0.98131696  0.22463600  0.10585860  1
  S  S16  1  0.42860335  0.40647054  0.32581159  1
  S  S17  1  0.34786366  0.34852851  0.80855641  1
  S  S18  1  0.92758278  0.17006068  0.47143255  1
  S  S19  1  0.20485616  0.87062123  0.94454959  1
  S  S20  1  0.42758278  0.17006068  0.02856745  1
  S  S21  1  0.11046722  0.12135221  0.20854428  1
  S  S22  1  0.79514384  0.12937877  0.05545041  1
  S  S23  1  0.07241722  0.82993932  0.52856745  1
  S  S24  1  0.41914494  0.75153452  0.45312135  1
  S  S25  1  0.18376421  0.50588434  0.55212487  1
  S  S26  1  0.08085506  0.24846548  0.95312135  1
  S  S27  1  0.15213634  0.65147149  0.30855641  1
  S  S28  1  0.68376421  0.50588434  0.94787513  1
  S  S29  1  0.84786366  0.34852851  0.69144359  1
  S  S30  1  0.61046722  0.12135221  0.29145572  1
  S  S31  1  0.92860335  0.40647054  0.17418841  1
  S  S32  1  0.38953278  0.87864779  0.70854428  1
  S  S33  1  0.91914494  0.75153452  0.04687865  1
  S  S34  1  0.65213634  0.65147149  0.19144359  1
  S  S35  1  0.88953278  0.87864779  0.79145572  1
  S  S36  1  0.57139665  0.59352946  0.67418841  1
  S  S37  1  0.58085506  0.24846548  0.54687865  1
  S  S38  1  0.57241722  0.82993932  0.97143255  1
  S  S39  1  0.81623579  0.49411566  0.44787513  1
  S  S40  1  0.29514384  0.12937877  0.44454959  1
  S  S41  1  0.70485616  0.87062123  0.55545041  1
  S  S42  1  0.31623579  0.49411566  0.05212487  1
  S  S43  1  0.07139665  0.59352946  0.82581159  1
