# generated using pymatgen
data_K5V3O10
_symmetry_space_group_name_H-M   'P 1'
_cell_length_a   8.32242681
_cell_length_b   8.32242681
_cell_length_c   19.16973812
_cell_angle_alpha   90.00000000
_cell_angle_beta   90.00000000
_cell_angle_gamma   90.00000000
_symmetry_Int_Tables_number   1
_chemical_formula_structural   K5V3O10
_chemical_formula_sum   'K20 V12 O40'
_cell_volume   1327.74950757
_cell_formula_units_Z   4
loop_
 _symmetry_equiv_pos_site_id
 _symmetry_equiv_pos_as_xyz
  1  'x, y, z'
loop_
 _atom_site_type_symbol
 _atom_site_label
 _atom_site_symmetry_multiplicity
 _atom_site_fract_x
 _atom_site_fract_y
 _atom_site_fract_z
 _atom_site_occupancy
  O  O0  1  0.59638255  0.68425841  0.23784504  1
  O  O1  1  0.40361745  0.31574159  0.73784504  1
  O  O2  1  0.68425841  0.59638255  0.76215496  1
  O  O3  1  0.18425841  0.90361745  0.98784504  1
  O  O4  1  0.81574159  0.09638255  0.48784504  1
  O  O5  1  0.90361745  0.18425841  0.01215496  1
  O  O6  1  0.09638255  0.81574159  0.51215496  1
  O  O7  1  0.31574159  0.40361745  0.26215496  1
  O  O8  1  0.93970101  0.66789511  0.23893623  1
  O  O9  1  0.06029899  0.33210489  0.73893623  1
  O  O10  1  0.66789511  0.93970101  0.76106377  1
  O  O11  1  0.16789511  0.56029899  0.98893623  1
  O  O12  1  0.83210489  0.43970101  0.48893623  1
  O  O13  1  0.56029899  0.16789511  0.01106377  1
  O  O14  1  0.43970101  0.83210489  0.51106377  1
  O  O15  1  0.33210489  0.06029899  0.26106377  1
  O  O16  1  0.76880542  0.76284306  0.35767590  1
  O  O17  1  0.71572844  0.25639391  0.32274251  1
  O  O18  1  0.23119458  0.23715694  0.85767590  1
  O  O19  1  0.26284306  0.73119458  0.10767590  1
  O  O20  1  0.73715694  0.26880542  0.60767590  1
  O  O21  1  0.73119458  0.26284306  0.89232410  1
  O  O22  1  0.26880542  0.73715694  0.39232410  1
  O  O23  1  0.23715694  0.23119458  0.14232410  1
  O  O24  1  0.77873530  0.97860617  0.23657601  1
  O  O25  1  0.22126470  0.02139383  0.73657601  1
  O  O26  1  0.97860617  0.77873530  0.76342399  1
  O  O27  1  0.47860617  0.72126470  0.98657601  1
  O  O28  1  0.52139383  0.27873530  0.48657601  1
  O  O29  1  0.72126470  0.47860617  0.01342399  1
  O  O30  1  0.27873530  0.52139383  0.51342399  1
  O  O31  1  0.02139383  0.22126470  0.26342399  1
  O  O32  1  0.74360609  0.28427156  0.17725749  1
  O  O33  1  0.21572844  0.24360609  0.42725749  1
  O  O34  1  0.78427156  0.75639391  0.92725749  1
  O  O35  1  0.24360609  0.21572844  0.57274251  1
  O  O36  1  0.75639391  0.78427156  0.07274251  1
  O  O37  1  0.25639391  0.71572844  0.67725749  1
  O  O38  1  0.28427156  0.74360609  0.82274251  1
  O  O39  1  0.76284306  0.76880542  0.64232410  1
  K  K40  1  0.23603981  0.23603981  0.00000000  1
  K  K41  1  0.26396019  0.73603981  0.25000000  1
  K  K42  1  0.73603981  0.26396019  0.75000000  1
  K  K43  1  0.76396019  0.76396019  0.50000000  1
  K  K44  1  0.00106379  0.97298236  0.10839450  1
  K  K45  1  0.52701764  0.50106379  0.35839450  1
  K  K46  1  0.47298236  0.49893621  0.85839450  1
  K  K47  1  0.50106379  0.52701764  0.64160550  1
  K  K48  1  0.49893621  0.47298236  0.14160550  1
  K  K49  1  0.99893621  0.02701764  0.60839450  1
  K  K50  1  0.97298236  0.00106379  0.89160550  1
  K  K51  1  0.02701764  0.99893621  0.39160550  1
  K  K52  1  0.50899780  0.02383651  0.38284043  1
  K  K53  1  0.49100220  0.97616349  0.88284043  1
  K  K54  1  0.02383651  0.50899780  0.61715957  1
  K  K55  1  0.52383651  0.99100220  0.13284043  1
  K  K56  1  0.47616349  0.00899780  0.63284043  1
  K  K57  1  0.99100220  0.52383651  0.86715957  1
  K  K58  1  0.00899780  0.47616349  0.36715957  1
  K  K59  1  0.97616349  0.49100220  0.11715957  1
  V  V60  1  0.80876416  0.19123584  0.25000000  1
  V  V61  1  0.30876416  0.30876416  0.50000000  1
  V  V62  1  0.69123584  0.69123584  0.00000000  1
  V  V63  1  0.19123584  0.80876416  0.75000000  1
  V  V64  1  0.23380143  0.22849621  0.23224857  1
  V  V65  1  0.27150379  0.73380143  0.48224857  1
  V  V66  1  0.72849621  0.26619857  0.98224857  1
  V  V67  1  0.73380143  0.27150379  0.51775143  1
  V  V68  1  0.26619857  0.72849621  0.01775143  1
  V  V69  1  0.76619857  0.77150379  0.73224857  1
  V  V70  1  0.22849621  0.23380143  0.76775143  1
  V  V71  1  0.77150379  0.76619857  0.26775143  1
