# generated using pymatgen
data_RbNb(BO3)2
_symmetry_space_group_name_H-M   'P 1'
_cell_length_a   7.52184023
_cell_length_b   9.62984548
_cell_length_c   20.22424027
_cell_angle_alpha   90.00000000
_cell_angle_beta   90.00000000
_cell_angle_gamma   90.03304422
_symmetry_Int_Tables_number   1
_chemical_formula_structural   RbNb(BO3)2
_chemical_formula_sum   'Rb10 Nb10 B20 O60'
_cell_volume   1464.92559475
_cell_formula_units_Z   10
loop_
 _symmetry_equiv_pos_site_id
 _symmetry_equiv_pos_as_xyz
  1  'x, y, z'
loop_
 _atom_site_type_symbol
 _atom_site_label
 _atom_site_symmetry_multiplicity
 _atom_site_fract_x
 _atom_site_fract_y
 _atom_site_fract_z
 _atom_site_occupancy
  Rb  Rb0  1  0.51174562  0.89431401  0.40690595  1
  Rb  Rb1  1  0.01174562  0.39431401  0.59309405  1
  Rb  Rb2  1  0.99686751  0.39975544  0.39332419  1
  Rb  Rb3  1  0.00299795  0.39939520  0.99308773  1
  Rb  Rb4  1  0.50589523  0.89490415  0.20670735  1
  Rb  Rb5  1  0.50299795  0.89939520  0.00691227  1
  Rb  Rb6  1  0.49686751  0.89975544  0.60667581  1
  Rb  Rb7  1  0.01387466  0.40302129  0.19313598  1
  Rb  Rb8  1  0.51387466  0.90302129  0.80686402  1
  Rb  Rb9  1  0.00589523  0.39490415  0.79329265  1
  Nb  Nb10  1  0.48906794  0.49959481  0.66609815  1
  Nb  Nb11  1  0.50276507  0.50105976  0.26769171  1
  Nb  Nb12  1  0.01602074  -0.00009435  0.53333827  1
  Nb  Nb13  1  0.98906794  0.99959481  0.33390185  1
  Nb  Nb14  1  0.50050403  0.50301427  0.06800083  1
  Nb  Nb15  1  0.02276406  0.00229197  0.13293839  1
  Nb  Nb16  1  1.00050403  0.00301427  0.93199917  1
  Nb  Nb17  1  0.52276406  0.50229197  0.86706161  1
  Nb  Nb18  1  0.00276507  0.00105976  0.73230829  1
  Nb  Nb19  1  0.51602074  0.49990565  0.46666173  1
  B  B20  1  0.14842744  0.70615756  0.70219833  1
  B  B21  1  0.36722217  0.20625025  0.10264624  1
  B  B22  1  0.34955272  0.21015064  0.49405236  1
  B  B23  1  0.64842744  0.20615756  0.29780167  1
  B  B24  1  0.65481719  0.20636324  0.90750406  1
  B  B25  1  0.34624520  0.20692440  0.70961249  1
  B  B26  1  0.17831234  0.71234921  0.49006255  1
  B  B27  1  0.84624520  0.70692440  0.29038751  1
  B  B28  1  0.31999772  0.21976092  0.31009688  1
  B  B29  1  0.69652429  0.22520360  0.10597814  1
  B  B30  1  0.84955272  0.71015064  0.50594764  1
  B  B31  1  0.32447430  0.22431928  0.90038490  1
  B  B32  1  0.17619369  0.71714158  0.30433043  1
  B  B33  1  0.15481719  0.70636324  0.09249594  1
  B  B34  1  0.67831234  0.21234921  0.50993745  1
  B  B35  1  0.81999772  0.71976092  0.68990312  1
  B  B36  1  0.82447430  0.72431928  0.09961510  1
  B  B37  1  0.67619369  0.21714158  0.69566957  1
  B  B38  1  0.19652429  0.72520360  0.89402186  1
  B  B39  1  0.86722217  0.70625025  0.89735376  1
  O  O40  1  0.28730734  0.62585334  0.06668774  1
  O  O41  1  0.83192097  0.15053520  0.70865654  1
  O  O42  1  0.67803915  0.34940055  0.67181495  1
  O  O43  1  0.66733203  0.65752739  0.08866727  1
  O  O44  1  0.68755156  0.33416053  0.88141376  1
  O  O45  1  0.03790358  0.64848385  0.89003357  1
  O  O46  1  0.79215260  0.12970483  0.31581234  1
  O  O47  1  0.32475640  0.36047629  0.88196949  1
  O  O48  1  0.01238621  0.64395830  0.49201897  1
  O  O49  1  0.98245065  0.64882874  0.08980557  1
  O  O50  1  0.19868095  0.86251256  0.91066637  1
  O  O51  1  0.67254374  0.64849313  0.66949168  1
  O  O52  1  0.53790358  0.14848385  0.10996643  1
  O  O53  1  0.35049848  0.65722466  0.87889707  1
  O  O54  1  0.69880102  0.34652724  0.48999859  1
  O  O55  1  0.17803915  0.84940055  0.32818505  1
  O  O56  1  0.98127302  0.64567461  0.69005426  1
  O  O57  1  0.31797736  0.63733581  0.46538451  1
  O  O58  1  0.16733203  0.15752739  0.91133273  1
  O  O59  1  0.33914596  0.33247941  0.07412095  1
  O  O60  1  0.81647992  0.83764425  0.31338547  1
  O  O61  1  0.48245065  0.14882874  0.91019443  1
  O  O62  1  0.45851041  0.50270584  0.17939365  1
  O  O63  1  0.03258101  0.00413685  0.02078531  1
  O  O64  1  0.71227944  0.62818945  0.26388082  1
  O  O65  1  0.01668536  0.64536402  0.29106285  1
  O  O66  1  0.18755156  0.83416053  0.11858624  1
  O  O67  1  0.29215260  0.62970483  0.68418766  1
  O  O68  1  0.23110531  0.12734648  0.12624968  1
  O  O69  1  0.21227944  0.12818945  0.73611918  1
  O  O70  1  0.81049387  0.85619386  0.70767634  1
  O  O71  1  0.66742528  0.33396195  0.26989525  1
  O  O72  1  0.46266975  0.49668828  0.57679024  1
  O  O73  1  0.69834135  0.63971072  0.49082604  1
  O  O74  1  0.48127302  0.14567461  0.30994574  1
  O  O75  1  0.55814464  0.50212938  0.37810136  1
  O  O76  1  0.82475640  0.86047629  0.11803051  1
  O  O77  1  0.19880102  0.84652724  0.51000141  1
  O  O78  1  0.69868095  0.36251256  0.08933363  1
  O  O79  1  0.84105065  0.83970646  0.53272613  1
  O  O80  1  0.78730734  0.12585334  0.93331226  1
  O  O81  1  0.51954211  0.49786881  0.77745007  1
  O  O82  1  0.34105065  0.33970646  0.46727387  1
  O  O83  1  0.51668536  0.14536402  0.70893715  1
  O  O84  1  0.53258101  0.50413685  0.97921469  1
  O  O85  1  0.33192097  0.65053520  0.29134346  1
  O  O86  1  0.51238621  0.14395830  0.50798103  1
  O  O87  1  0.01954211  0.99786881  0.22254993  1
  O  O88  1  0.83914596  0.83247941  0.92587905  1
  O  O89  1  0.85049848  0.15722466  0.12110293  1
  O  O90  1  0.81797736  0.13733581  0.53461549  1
  O  O91  1  0.31647992  0.33764425  0.68661453  1
  O  O92  1  0.96266975  0.99668828  0.42320976  1
  O  O93  1  0.19834135  0.13971072  0.50917396  1
  O  O94  1  0.73110531  0.62734648  0.87375032  1
  O  O95  1  0.17254374  0.14849313  0.33050832  1
  O  O96  1  0.16742528  0.83396195  0.73010475  1
  O  O97  1  0.31049387  0.35619386  0.29232366  1
  O  O98  1  0.05814464  0.00212938  0.62189864  1
  O  O99  1  0.95851041  0.00270584  0.82060635  1
