# generated using pymatgen
data_RbEu(SO4)2
_symmetry_space_group_name_H-M   'P 1'
_cell_length_a   5.50311599
_cell_length_b   7.43238171
_cell_length_c   9.72335614
_cell_angle_alpha   101.58779187
_cell_angle_beta   90.00000000
_cell_angle_gamma   111.72870152
_symmetry_Int_Tables_number   1
_chemical_formula_structural   RbEu(SO4)2
_chemical_formula_sum   'Rb2 Eu2 S4 O16'
_cell_volume   360.69969482
_cell_formula_units_Z   2
loop_
 _symmetry_equiv_pos_site_id
 _symmetry_equiv_pos_as_xyz
  1  'x, y, z'
loop_
 _atom_site_type_symbol
 _atom_site_label
 _atom_site_symmetry_multiplicity
 _atom_site_fract_x
 _atom_site_fract_y
 _atom_site_fract_z
 _atom_site_occupancy
  Eu  Eu0  1  0.17842018  0.00000000  0.75000000  1
  Eu  Eu1  1  0.82157982  0.00000000  0.25000000  1
  Rb  Rb2  1  0.00000000  0.50000000  0.00000000  1
  Rb  Rb3  1  0.50000000  0.50000000  0.50000000  1
  S  S4  1  0.82479990  0.17524231  0.61263514  1
  S  S5  1  0.35044241  0.17524231  0.11263514  1
  S  S6  1  0.17520010  0.82475769  0.38736486  1
  S  S7  1  0.64955759  0.82475769  0.88736486  1
  O  O8  1  0.82465071  0.03841150  0.90781232  1
  O  O9  1  0.39654239  0.78699110  0.31685119  1
  O  O10  1  0.60345761  0.21300890  0.68314881  1
  O  O11  1  0.39279807  0.23377813  0.97372883  1
  O  O12  1  0.60720193  0.76622187  0.02627117  1
  O  O13  1  0.21287088  0.29053429  0.20168170  1
  O  O14  1  0.78712912  0.70946571  0.79831830  1
  O  O15  1  0.17534929  0.96158850  0.09218768  1
  O  O16  1  0.21376079  0.03841150  0.40781232  1
  O  O17  1  0.07766341  0.29053429  0.70168170  1
  O  O18  1  0.92233659  0.70946571  0.29831830  1
  O  O19  1  0.84098006  0.23377813  0.47372883  1
  O  O20  1  0.39044871  0.78699110  0.81685119  1
  O  O21  1  0.60955129  0.21300890  0.18314881  1
  O  O22  1  0.78623921  0.96158850  0.59218768  1
  O  O23  1  0.15901994  0.76622187  0.52627117  1
