# generated using pymatgen
data_RuCl(OF3)2
_symmetry_space_group_name_H-M   'P 1'
_cell_length_a   5.84341580
_cell_length_b   7.19862812
_cell_length_c   7.60062389
_cell_angle_alpha   90.56253639
_cell_angle_beta   90.00000000
_cell_angle_gamma   90.00000000
_symmetry_Int_Tables_number   1
_chemical_formula_structural   RuCl(OF3)2
_chemical_formula_sum   'Ru2 Cl2 O4 F12'
_cell_volume   319.70162161
_cell_formula_units_Z   2
loop_
 _symmetry_equiv_pos_site_id
 _symmetry_equiv_pos_as_xyz
  1  'x, y, z'
loop_
 _atom_site_type_symbol
 _atom_site_label
 _atom_site_symmetry_multiplicity
 _atom_site_fract_x
 _atom_site_fract_y
 _atom_site_fract_z
 _atom_site_occupancy
  Ru  Ru0  1  0.00156762  0.75000000  0.25000000  1
  Ru  Ru1  1  0.99843238  0.25000000  0.75000000  1
  Cl  Cl2  1  0.64311683  0.25000000  0.25000000  1
  Cl  Cl3  1  0.35688317  0.75000000  0.75000000  1
  O  O4  1  0.48471234  0.74543615  0.58993015  1
  O  O5  1  0.51528766  0.24543615  0.08993015  1
  O  O6  1  0.48471234  0.75456385  0.91006985  1
  O  O7  1  0.51528766  0.25456385  0.41006985  1
  F  F8  1  0.24160230  0.43262550  0.75835490  1
  F  F9  1  -0.00130129  0.75874269  1.00145541  1
  F  F10  1  0.75839770  0.93262550  0.25835490  1
  F  F11  1  0.77555750  0.43674940  0.75725526  1
  F  F12  1  0.24160230  0.06737450  0.74164510  1
  F  F13  1  0.22444250  0.56325060  0.24274474  1
  F  F14  1  1.00130129  0.25874269  0.50145541  1
  F  F15  1  0.22444250  0.93674940  0.25725526  1
  F  F16  1  0.75839770  0.56737450  0.24164510  1
  F  F17  1  -0.00130129  0.74125731  0.49854459  1
  F  F18  1  1.00130129  0.24125731  -0.00145541  1
  F  F19  1  0.77555750  0.06325060  0.74274474  1
