# generated using pymatgen
data_Tl2Cd2(SO4)3
_symmetry_space_group_name_H-M   'P 1'
_cell_length_a   10.54490573
_cell_length_b   10.52294520
_cell_length_c   10.63212966
_cell_angle_alpha   90.00000000
_cell_angle_beta   90.00000000
_cell_angle_gamma   90.00000000
_symmetry_Int_Tables_number   1
_chemical_formula_structural   Tl2Cd2(SO4)3
_chemical_formula_sum   'Tl8 Cd8 S12 O48'
_cell_volume   1179.77794885
_cell_formula_units_Z   4
loop_
 _symmetry_equiv_pos_site_id
 _symmetry_equiv_pos_as_xyz
  1  'x, y, z'
loop_
 _atom_site_type_symbol
 _atom_site_label
 _atom_site_symmetry_multiplicity
 _atom_site_fract_x
 _atom_site_fract_y
 _atom_site_fract_z
 _atom_site_occupancy
  Tl  Tl0  1  0.55830316  0.45998141  0.94746472  1
  Tl  Tl1  1  0.68789701  0.17236220  0.31646725  1
  Tl  Tl2  1  0.94169684  0.54001859  0.44746472  1
  Tl  Tl3  1  0.44169684  0.95998141  0.55253528  1
  Tl  Tl4  1  0.18789701  0.32763780  0.68353275  1
  Tl  Tl5  1  0.31210299  0.67236220  0.18353275  1
  Tl  Tl6  1  0.05830316  0.04001859  0.05253528  1
  Tl  Tl7  1  0.81210299  0.82763780  0.81646725  1
  Cd  Cd8  1  0.92109330  0.39903312  0.09269439  1
  Cd  Cd9  1  0.16740890  0.68466960  0.84128116  1
  Cd  Cd10  1  0.66740890  0.81533040  0.15871884  1
  Cd  Cd11  1  0.07890670  0.89903312  0.40730561  1
  Cd  Cd12  1  0.33259110  0.31533040  0.34128116  1
  Cd  Cd13  1  0.83259110  0.18466960  0.65871884  1
  Cd  Cd14  1  0.42109330  0.10096688  0.90730561  1
  Cd  Cd15  1  0.57890670  0.60096688  0.59269439  1
  S  S16  1  0.63180751  0.50592443  0.28625988  1
  S  S17  1  0.23869587  0.38077618  0.00979385  1
  S  S18  1  0.47564342  0.78420659  0.87276109  1
  S  S19  1  0.97564342  0.71579341  0.12723891  1
  S  S20  1  0.76130413  0.88077618  0.49020615  1
  S  S21  1  0.36819249  0.00592443  0.21374012  1
  S  S22  1  0.26130413  0.61922382  0.50979385  1
  S  S23  1  0.02435658  0.21579341  0.37276109  1
  S  S24  1  0.73869587  0.11922382  0.99020615  1
  S  S25  1  0.86819249  0.49407557  0.78625988  1
  S  S26  1  0.52435658  0.28420659  0.62723891  1
  S  S27  1  0.13180751  0.99407557  0.71374012  1
  O  O28  1  0.26238040  0.94106518  0.28014799  1
  O  O29  1  0.97357085  0.58552922  0.80394074  1
  O  O30  1  0.52642915  0.41447078  0.30394074  1
  O  O31  1  0.31951986  0.05125255  0.08882619  1
  O  O32  1  0.32680127  0.29966675  0.93426662  1
  O  O33  1  0.49634996  0.41624190  0.67307024  1
  O  O34  1  0.99634996  0.08375810  0.32692976  1
  O  O35  1  0.93001484  0.25287261  0.47081229  1
  O  O36  1  0.39251142  0.67120180  0.49710885  1
  O  O37  1  0.10748858  0.32879820  0.99710885  1
  O  O38  1  0.56998516  0.74712739  0.97081229  1
  O  O39  1  0.21980006  0.61330478  0.64338615  1
  O  O40  1  0.75377949  0.01243497  0.54259195  1
  O  O41  1  0.76238040  0.55893482  0.71985201  1
  O  O42  1  0.65540907  0.27995696  0.57339267  1
  O  O43  1  0.00365004  0.58375810  0.17307024  1
  O  O44  1  0.50365004  0.91624190  0.82692976  1
  O  O45  1  0.15540907  0.22004304  0.42660733  1
  O  O46  1  0.41514185  0.11697542  0.28851391  1
  O  O47  1  0.60748858  0.17120180  0.00289115  1
  O  O48  1  0.82680127  0.20033325  0.06573338  1
  O  O49  1  0.17319873  0.70033325  0.43426662  1
  O  O50  1  0.98473737  0.80678522  0.23298687  1
  O  O51  1  0.23761960  0.05893482  0.78014799  1
  O  O52  1  0.43001484  0.24712739  0.52918771  1
  O  O53  1  0.28019994  0.38669522  0.14338615  1
  O  O54  1  0.67319873  0.79966675  0.56573338  1
  O  O55  1  0.71980006  0.88669522  0.35661385  1
  O  O56  1  0.18048014  0.94874745  0.58882619  1
  O  O57  1  0.06998516  0.75287261  0.02918771  1
  O  O58  1  0.02642915  0.08552922  0.69605926  1
  O  O59  1  0.81951986  0.44874745  0.91117381  1
  O  O60  1  0.34459093  0.77995696  0.92660733  1
  O  O61  1  0.25377949  0.48756503  0.45740805  1
  O  O62  1  0.58485815  0.61697542  0.21148609  1
  O  O63  1  0.68048014  0.55125255  0.41117381  1
  O  O64  1  0.01526263  0.30678522  0.26701313  1
  O  O65  1  0.89251142  0.82879820  0.50289115  1
  O  O66  1  0.24622051  0.51243497  0.95740805  1
  O  O67  1  0.08485815  0.88302458  0.78851391  1
  O  O68  1  0.91514185  0.38302458  0.71148609  1
  O  O69  1  0.48473737  0.69321478  0.76701313  1
  O  O70  1  0.74622051  0.98756503  0.04259195  1
  O  O71  1  0.73761960  0.44106518  0.21985201  1
  O  O72  1  0.78019994  0.11330478  0.85661385  1
  O  O73  1  0.47357085  0.91447078  0.19605926  1
  O  O74  1  0.84459093  0.72004304  0.07339267  1
  O  O75  1  0.51526263  0.19321478  0.73298687  1
