# generated using pymatgen
data_Na3B6PO13
_symmetry_space_group_name_H-M   'P 1'
_cell_length_a   6.87986192
_cell_length_b   9.45386086
_cell_length_c   16.42343584
_cell_angle_alpha   90.00000000
_cell_angle_beta   90.00000000
_cell_angle_gamma   90.00000000
_symmetry_Int_Tables_number   1
_chemical_formula_structural   Na3B6PO13
_chemical_formula_sum   'Na12 B24 P4 O52'
_cell_volume   1068.20091667
_cell_formula_units_Z   4
loop_
 _symmetry_equiv_pos_site_id
 _symmetry_equiv_pos_as_xyz
  1  'x, y, z'
loop_
 _atom_site_type_symbol
 _atom_site_label
 _atom_site_symmetry_multiplicity
 _atom_site_fract_x
 _atom_site_fract_y
 _atom_site_fract_z
 _atom_site_occupancy
  Na  Na0  1  0.75221361  0.06005277  0.25000000  1
  Na  Na1  1  0.74232682  0.93969855  0.86534530  1
  Na  Na2  1  0.24232682  0.56030145  0.13465470  1
  Na  Na3  1  0.75767318  0.43969855  0.63465470  1
  Na  Na4  1  0.75767318  0.43969855  0.86534530  1
  Na  Na5  1  0.24778639  0.93994723  0.75000000  1
  Na  Na6  1  0.74778639  0.56005277  0.25000000  1
  Na  Na7  1  0.25767318  0.06030145  0.36534530  1
  Na  Na8  1  0.25221361  0.43994723  0.75000000  1
  Na  Na9  1  0.74232682  0.93969855  0.63465470  1
  Na  Na10  1  0.24232682  0.56030145  0.36534530  1
  Na  Na11  1  0.25767318  0.06030145  0.13465470  1
  B  B12  1  0.18969610  0.31647709  0.94849766  1
  B  B13  1  0.69480257  0.43615446  0.44623297  1
  B  B14  1  0.68969610  0.18352291  0.44849766  1
  B  B15  1  0.53586368  0.30963721  0.32907878  1
  B  B16  1  0.68969610  0.18352291  0.05150234  1
  B  B17  1  0.80519743  0.93615446  0.05376703  1
  B  B18  1  0.96413632  0.80963721  0.32907878  1
  B  B19  1  0.69480257  0.43615446  0.05376703  1
  B  B20  1  0.18969610  0.31647709  0.55150234  1
  B  B21  1  0.80519743  0.93615446  0.44623297  1
  B  B22  1  0.81030390  0.68352291  0.05150234  1
  B  B23  1  0.19480257  0.06384554  0.94623297  1
  B  B24  1  0.31030390  0.81647709  0.55150234  1
  B  B25  1  0.03586368  0.19036279  0.82907878  1
  B  B26  1  0.46413632  0.69036279  0.82907878  1
  B  B27  1  0.30519743  0.56384554  0.94623297  1
  B  B28  1  0.53586368  0.30963721  0.17092122  1
  B  B29  1  0.96413632  0.80963721  0.17092122  1
  B  B30  1  0.30519743  0.56384554  0.55376703  1
  B  B31  1  0.46413632  0.69036279  0.67092122  1
  B  B32  1  0.03586368  0.19036279  0.67092122  1
  B  B33  1  0.31030390  0.81647709  0.94849766  1
  B  B34  1  0.81030390  0.68352291  0.44849766  1
  B  B35  1  0.19480257  0.06384554  0.55376703  1
  P  P36  1  0.32300057  0.81000792  0.25000000  1
  P  P37  1  0.82300057  0.68999208  0.75000000  1
  P  P38  1  0.67699943  0.18999208  0.75000000  1
  P  P39  1  0.17699943  0.31000792  0.25000000  1
  O  O40  1  0.39936217  0.56013776  0.62593970  1
  O  O41  1  0.81852091  0.18728278  0.67218300  1
  O  O42  1  0.73404321  0.31047593  0.48783576  1
  O  O43  1  0.90582234  0.68038482  0.12360960  1
  O  O44  1  0.74736966  0.05870695  0.48623870  1
  O  O45  1  0.75263034  0.55870695  0.01376130  1
  O  O46  1  0.59417766  0.18038482  0.12360960  1
  O  O47  1  0.09417766  0.31961518  0.62360960  1
  O  O48  1  0.74736966  0.05870695  0.01376130  1
  O  O49  1  0.73404321  0.31047593  0.01216424  1
  O  O50  1  0.60063783  0.43986224  0.37406030  1
  O  O51  1  0.93773696  0.55347190  0.75000000  1
  O  O52  1  0.92933366  0.83012781  0.75000000  1
  O  O53  1  0.18147909  0.81271722  0.32781700  1
  O  O54  1  0.09417766  0.31961518  0.87639040  1
  O  O55  1  0.18147909  0.81271722  0.17218300  1
  O  O56  1  0.57066634  0.33012781  0.75000000  1
  O  O57  1  0.59417766  0.18038482  0.37639040  1
  O  O58  1  0.37914640  0.69414077  0.75000000  1
  O  O59  1  0.81852091  0.18728278  0.82781700  1
  O  O60  1  0.60063783  0.43986224  0.12593970  1
  O  O61  1  0.39936217  0.56013776  0.87406030  1
  O  O62  1  0.24736966  0.44129305  0.98623870  1
  O  O63  1  0.10063783  0.06013776  0.62593970  1
  O  O64  1  0.07066634  0.16987219  0.25000000  1
  O  O65  1  0.89936217  0.93986224  0.37406030  1
  O  O66  1  0.25263034  0.94129305  0.98623870  1
  O  O67  1  0.26595679  0.68952407  0.98783576  1
  O  O68  1  0.40582234  0.81961518  0.87639040  1
  O  O69  1  0.75263034  0.55870695  0.48623870  1
  O  O70  1  0.68147909  0.68728278  0.82781700  1
  O  O71  1  0.76595679  0.81047593  0.01216424  1
  O  O72  1  0.12085360  0.19414077  0.75000000  1
  O  O73  1  0.23404321  0.18952407  0.98783576  1
  O  O74  1  0.42933366  0.66987219  0.25000000  1
  O  O75  1  0.31852091  0.31271722  0.17218300  1
  O  O76  1  0.89936217  0.93986224  0.12593970  1
  O  O77  1  0.06226304  0.44652810  0.25000000  1
  O  O78  1  0.76595679  0.81047593  0.48783576  1
  O  O79  1  0.31852091  0.31271722  0.32781700  1
  O  O80  1  0.62085360  0.30585923  0.25000000  1
  O  O81  1  0.23404321  0.18952407  0.51216424  1
  O  O82  1  0.43773696  0.94652810  0.25000000  1
  O  O83  1  0.90582234  0.68038482  0.37639040  1
  O  O84  1  0.87914640  0.80585923  0.25000000  1
  O  O85  1  0.56226304  0.05347190  0.75000000  1
  O  O86  1  0.40582234  0.81961518  0.62360960  1
  O  O87  1  0.26595679  0.68952407  0.51216424  1
  O  O88  1  0.25263034  0.94129305  0.51376130  1
  O  O89  1  0.10063783  0.06013776  0.87406030  1
  O  O90  1  0.24736966  0.44129305  0.51376130  1
  O  O91  1  0.68147909  0.68728278  0.67218300  1
