# generated using pymatgen
data_K2Si3SnO9
_symmetry_space_group_name_H-M   'P 1'
_cell_length_a   7.78423911
_cell_length_b   7.78423947
_cell_length_c   7.78423958
_cell_angle_alpha   83.14404284
_cell_angle_beta   83.14404255
_cell_angle_gamma   83.14404643
_symmetry_Int_Tables_number   1
_chemical_formula_structural   K2Si3SnO9
_chemical_formula_sum   'K4 Si6 Sn2 O18'
_cell_volume   462.30818785
_cell_formula_units_Z   2
loop_
 _symmetry_equiv_pos_site_id
 _symmetry_equiv_pos_as_xyz
  1  'x, y, z'
loop_
 _atom_site_type_symbol
 _atom_site_label
 _atom_site_symmetry_multiplicity
 _atom_site_fract_x
 _atom_site_fract_y
 _atom_site_fract_z
 _atom_site_occupancy
  K  K0  1  0.77319877  0.22633971  0.98947587  1
  K  K1  1  0.49003066  0.49003066  0.49003066  1
  K  K2  1  0.98947587  0.77319877  0.22633971  1
  K  K3  1  0.22633971  0.98947587  0.77319877  1
  Si  Si4  1  0.01851586  0.44554113  0.54887517  1
  Si  Si5  1  0.54887517  0.01851586  0.44554113  1
  Si  Si6  1  0.89551633  0.10183396  0.51259056  1
  Si  Si7  1  0.10183396  0.51259056  0.89551633  1
  Si  Si8  1  0.44554113  0.54887517  0.01851586  1
  Si  Si9  1  0.51259056  0.89551633  0.10183396  1
  Sn  Sn10  1  0.74528865  0.74528865  0.74528865  1
  Sn  Sn11  1  0.22666169  0.22666169  0.22666169  1
  O  O12  1  0.32297664  0.00921616  0.09986409  1
  O  O13  1  0.35700575  0.12646141  0.44358932  1
  O  O14  1  0.63616884  0.92081937  0.91968123  1
  O  O15  1  0.59107405  0.54795008  0.85038768  1
  O  O16  1  0.68718610  0.15381912  0.48204473  1
  O  O17  1  0.44358932  0.35700575  0.12646141  1
  O  O18  1  0.09986409  0.32297664  0.00921616  1
  O  O19  1  0.91968123  0.63616884  0.92081937  1
  O  O20  1  0.92081937  0.91968123  0.63616884  1
  O  O21  1  0.00921616  0.09986409  0.32297664  1
  O  O22  1  0.62251512  0.95281639  0.25185554  1
  O  O23  1  0.54795008  0.85038768  0.59107405  1
  O  O24  1  0.12646141  0.44358932  0.35700575  1
  O  O25  1  0.25185554  0.62251512  0.95281639  1
  O  O26  1  0.85038768  0.59107405  0.54795008  1
  O  O27  1  0.15381912  0.48204473  0.68718610  1
  O  O28  1  0.48204473  0.68718610  0.15381912  1
  O  O29  1  0.95281639  0.25185554  0.62251512  1
