# generated using pymatgen
data_CaCo2(PO5)2
_symmetry_space_group_name_H-M   'P 1'
_cell_length_a   6.85831894
_cell_length_b   6.85831818
_cell_length_c   8.77516693
_cell_angle_alpha   102.63132277
_cell_angle_beta   102.63132321
_cell_angle_gamma   116.13002471
_symmetry_Int_Tables_number   1
_chemical_formula_structural   CaCo2(PO5)2
_chemical_formula_sum   'Ca2 Co4 P4 O20'
_cell_volume   337.41928206
_cell_formula_units_Z   2
loop_
 _symmetry_equiv_pos_site_id
 _symmetry_equiv_pos_as_xyz
  1  'x, y, z'
loop_
 _atom_site_type_symbol
 _atom_site_label
 _atom_site_symmetry_multiplicity
 _atom_site_fract_x
 _atom_site_fract_y
 _atom_site_fract_z
 _atom_site_occupancy
  Ca  Ca0  1  0.49623181  0.99623181  0.50000000  1
  Ca  Ca1  1  0.24623181  0.24623181  1.00000000  1
  Co  Co2  1  0.87152402  0.61943423  0.25064286  1
  Co  Co3  1  0.36879137  0.62088015  0.74935714  1
  Co  Co4  1  0.87088015  0.11879137  0.24935714  1
  Co  Co5  1  0.86943423  0.62152402  0.75064286  1
  P  P6  1  0.03717746  0.03686619  0.58382973  1
  P  P7  1  0.70334773  0.20303646  0.91617027  1
  P  P8  1  0.45303646  0.45334773  0.41617027  1
  P  P9  1  0.28686619  0.78717746  0.08382973  1
  O  O10  1  0.57353836  0.56011928  0.30052632  1
  O  O11  1  0.65617518  0.65858101  0.82568492  1
  O  O12  1  0.32763068  0.61008000  0.97125518  1
  O  O13  1  0.81011928  0.32353836  0.80052632  1
  O  O14  1  0.21813195  0.22986390  0.29909313  1
  O  O15  1  0.40929309  0.62930557  0.52712059  1
  O  O16  1  0.08049026  0.58289608  0.67431508  1
  O  O17  1  0.83289608  0.83049026  0.17431508  1
  O  O18  1  0.90858101  0.40617518  0.32568492  1
  O  O19  1  0.16903882  0.68076977  0.20090687  1
  O  O20  1  0.25959296  0.27301304  0.69947368  1
  O  O21  1  0.47986390  0.96813195  0.79909313  1
  O  O22  1  0.93076977  0.91903882  0.70090687  1
  O  O23  1  0.13217350  0.85218599  0.97287941  1
  O  O24  1  0.10218599  0.88217350  0.47287941  1
  O  O25  1  0.87930557  0.15929309  0.02712059  1
  O  O26  1  0.86008000  0.07763068  0.47125518  1
  O  O27  1  0.63882482  0.35637550  0.02874482  1
  O  O28  1  0.52301304  0.00959296  0.19947368  1
  O  O29  1  0.60637550  0.38882482  0.52874482  1
