# generated using pymatgen
data_AgHg2PO4
_symmetry_space_group_name_H-M   'P 1'
_cell_length_a   6.27168474
_cell_length_b   8.84929252
_cell_length_c   9.49439210
_cell_angle_alpha   90.00000000
_cell_angle_beta   90.00000000
_cell_angle_gamma   90.00000000
_symmetry_Int_Tables_number   1
_chemical_formula_structural   AgHg2PO4
_chemical_formula_sum   'Ag4 Hg8 P4 O16'
_cell_volume   526.93850385
_cell_formula_units_Z   4
loop_
 _symmetry_equiv_pos_site_id
 _symmetry_equiv_pos_as_xyz
  1  'x, y, z'
loop_
 _atom_site_type_symbol
 _atom_site_label
 _atom_site_symmetry_multiplicity
 _atom_site_fract_x
 _atom_site_fract_y
 _atom_site_fract_z
 _atom_site_occupancy
  Ag  Ag0  1  0.00000000  0.52882556  0.14884575  1
  Ag  Ag1  1  0.00000000  0.02882556  0.35115425  1
  Ag  Ag2  1  0.00000000  0.97117444  0.64884575  1
  Ag  Ag3  1  0.00000000  0.47117444  0.85115425  1
  Hg  Hg4  1  0.21379811  0.75297527  0.46794338  1
  Hg  Hg5  1  0.78620189  0.74702473  0.96794338  1
  Hg  Hg6  1  0.78620189  0.25297527  0.03205662  1
  Hg  Hg7  1  0.78620189  0.24702473  0.53205662  1
  Hg  Hg8  1  0.21379811  0.24702473  0.53205662  1
  Hg  Hg9  1  0.21379811  0.25297527  0.03205662  1
  Hg  Hg10  1  0.21379811  0.74702473  0.96794338  1
  Hg  Hg11  1  0.78620189  0.75297527  0.46794338  1
  P  P12  1  0.50000000  0.45618792  0.28590565  1
  P  P13  1  0.50000000  0.54381208  0.71409435  1
  P  P14  1  0.50000000  0.04381208  0.78590565  1
  P  P15  1  0.50000000  0.95618792  0.21409435  1
  O  O16  1  0.29070997  0.04862391  0.19728056  1
  O  O17  1  0.50000000  0.11618948  0.63577543  1
  O  O18  1  0.50000000  0.82876882  0.09788426  1
  O  O19  1  0.50000000  0.17123118  0.90211574  1
  O  O20  1  0.70929003  0.45137609  0.69728056  1
  O  O21  1  0.50000000  0.32876882  0.40211574  1
  O  O22  1  0.29070997  0.95137609  0.80271944  1
  O  O23  1  0.50000000  0.88381052  0.36422457  1
  O  O24  1  0.70929003  0.95137609  0.80271944  1
  O  O25  1  0.50000000  0.61618948  0.86422457  1
  O  O26  1  0.29070997  0.54862391  0.30271944  1
  O  O27  1  0.70929003  0.04862391  0.19728056  1
  O  O28  1  0.50000000  0.38381052  0.13577543  1
  O  O29  1  0.50000000  0.67123118  0.59788426  1
  O  O30  1  0.70929003  0.54862391  0.30271944  1
  O  O31  1  0.29070997  0.45137609  0.69728056  1
