# generated using pymatgen
data_Sm3Si2Cl5O6
_symmetry_space_group_name_H-M   'P 1'
_cell_length_a   7.55731719
_cell_length_b   7.55731720
_cell_length_c   11.99443376
_cell_angle_alpha   80.70604654
_cell_angle_beta   80.70604653
_cell_angle_gamma   89.34678492
_symmetry_Int_Tables_number   1
_chemical_formula_structural   Sm3Si2Cl5O6
_chemical_formula_sum   'Sm6 Si4 Cl10 O12'
_cell_volume   667.09552452
_cell_formula_units_Z   2
loop_
 _symmetry_equiv_pos_site_id
 _symmetry_equiv_pos_as_xyz
  1  'x, y, z'
loop_
 _atom_site_type_symbol
 _atom_site_label
 _atom_site_symmetry_multiplicity
 _atom_site_fract_x
 _atom_site_fract_y
 _atom_site_fract_z
 _atom_site_occupancy
  Sm  Sm0  1  0.91832194  0.41474193  0.33147690  1
  Sm  Sm1  1  0.50000000  0.00000000  0.00000000  1
  Sm  Sm2  1  0.41474193  0.91832194  0.33147690  1
  Sm  Sm3  1  0.08167806  0.58525807  0.66852310  1
  Sm  Sm4  1  0.58525807  0.08167806  0.66852310  1
  Sm  Sm5  1  0.00000000  0.50000000  0.00000000  1
  Si  Si6  1  0.89108426  0.18107069  0.85783481  1
  Si  Si7  1  0.18107069  0.89108426  0.85783481  1
  Si  Si8  1  0.81892931  0.10891574  0.14216519  1
  Si  Si9  1  0.10891574  0.81892931  0.14216519  1
  Cl  Cl10  1  0.61706554  0.61706554  0.35878717  1
  Cl  Cl11  1  0.68031586  0.10770903  0.42084181  1
  Cl  Cl12  1  0.89229097  0.31968414  0.57915819  1
  Cl  Cl13  1  0.23008872  0.23008872  0.33237786  1
  Cl  Cl14  1  0.68279286  0.68279286  0.00388964  1
  Cl  Cl15  1  0.10770903  0.68031586  0.42084181  1
  Cl  Cl16  1  0.31720714  0.31720714  0.99611036  1
  Cl  Cl17  1  0.76991128  0.76991128  0.66762214  1
  Cl  Cl18  1  0.31968414  0.89229097  0.57915819  1
  Cl  Cl19  1  0.38293446  0.38293446  0.64121283  1
  O  O20  1  0.04693415  0.04693415  0.81252455  1
  O  O21  1  0.95842374  0.38926046  0.82796006  1
  O  O22  1  0.61073954  0.04157626  0.17203994  1
  O  O23  1  0.87000186  0.30229194  0.17225688  1
  O  O24  1  0.12999814  0.69770806  0.82774312  1
  O  O25  1  0.69770806  0.12999814  0.82774312  1
  O  O26  1  0.14671199  0.85328801  0.00000000  1
  O  O27  1  0.30229194  0.87000186  0.17225688  1
  O  O28  1  0.85328801  0.14671199  0.00000000  1
  O  O29  1  0.38926046  0.95842374  0.82796006  1
  O  O30  1  0.04157626  0.61073954  0.17203994  1
  O  O31  1  0.95306585  0.95306585  0.18747545  1
