# generated using pymatgen
data_AgAs(S8F3)2
_symmetry_space_group_name_H-M   'P 1'
_cell_length_a   8.21480869
_cell_length_b   10.05735189
_cell_length_c   16.18068038
_cell_angle_alpha   100.36995835
_cell_angle_beta   90.00000000
_cell_angle_gamma   114.10425146
_symmetry_Int_Tables_number   1
_chemical_formula_structural   AgAs(S8F3)2
_chemical_formula_sum   'Ag2 As2 S32 F12'
_cell_volume   1196.30670836
_cell_formula_units_Z   2
loop_
 _symmetry_equiv_pos_site_id
 _symmetry_equiv_pos_as_xyz
  1  'x, y, z'
loop_
 _atom_site_type_symbol
 _atom_site_label
 _atom_site_symmetry_multiplicity
 _atom_site_fract_x
 _atom_site_fract_y
 _atom_site_fract_z
 _atom_site_occupancy
  Ag  Ag0  1  0.83555494  0.00000000  0.75000000  1
  Ag  Ag1  1  0.16444506  0.00000000  0.25000000  1
  As  As2  1  0.50000000  0.00000000  0.00000000  1
  As  As3  1  0.50000000  0.00000000  0.50000000  1
  S  S4  1  0.28758496  0.28960544  0.43749564  1
  S  S5  1  0.93389689  0.83526216  0.35071002  1
  S  S6  1  0.36174510  0.31883802  0.16525646  1
  S  S7  1  0.63825490  0.68116198  0.83474354  1
  S  S8  1  0.09863473  0.16473784  0.14928998  1
  S  S9  1  1.00202048  0.28960544  0.93749564  1
  S  S10  1  0.50228942  0.39489831  0.37249895  1
  S  S11  1  0.90136527  0.83526216  0.85071002  1
  S  S12  1  0.10067891  0.80254659  0.67011370  1
  S  S13  1  0.27072255  0.36020594  0.91926420  1
  S  S14  1  0.93497876  0.25393249  0.21353430  1
  S  S15  1  0.31895373  0.25393249  0.71353430  1
  S  S16  1  0.77974352  0.25889856  0.75648166  1
  S  S17  1  0.72927745  0.63979406  0.08073580  1
  S  S18  1  0.10739111  0.60510169  0.12750105  1
  S  S19  1  0.29813232  0.19745341  0.82988630  1
  S  S20  1  -0.00202048  0.71039456  0.06250436  1
  S  S21  1  0.49771058  0.60510169  0.62750105  1
  S  S22  1  0.68104627  0.74606751  0.28646570  1
  S  S23  1  0.70186768  0.80254659  0.17011370  1
  S  S24  1  0.91051660  0.63979406  0.58073580  1
  S  S25  1  0.08948340  0.36020594  0.41926420  1
  S  S26  1  0.04290709  0.68116198  0.33474354  1
  S  S27  1  0.22025648  0.74110144  0.24351834  1
  S  S28  1  0.71241504  0.71039456  0.56250436  1
  S  S29  1  0.95709291  0.31883802  0.66525646  1
  S  S30  1  0.89260889  0.39489831  0.87249895  1
  S  S31  1  0.06502124  0.74606751  0.78646570  1
  S  S32  1  0.89932109  0.19745341  0.32988630  1
  S  S33  1  0.52084496  0.74110144  0.74351834  1
  S  S34  1  0.47915504  0.25889856  0.25648166  1
  S  S35  1  0.06610311  0.16473784  0.64928998  1
  F  F36  1  0.44674190  0.98778831  0.10622328  1
  F  F37  1  0.37292599  0.80553481  0.96823939  1
  F  F38  1  0.30547467  0.02996990  0.98114467  1
  F  F39  1  0.43260882  0.80553481  0.46823939  1
  F  F40  1  0.62707401  0.19446519  0.03176061  1
  F  F41  1  0.27550477  0.97003010  0.51885533  1
  F  F42  1  0.69452533  0.97003010  0.01885533  1
  F  F43  1  0.72449523  0.02996990  0.48114467  1
  F  F44  1  0.55325810  0.01221169  0.89377672  1
  F  F45  1  0.45895359  0.01221169  0.39377672  1
  F  F46  1  0.56739118  0.19446519  0.53176061  1
  F  F47  1  0.54104641  0.98778831  0.60622328  1
