# generated using pymatgen
data_Ba3Bi(ClO)3
_symmetry_space_group_name_H-M   'P 1'
_cell_length_a   7.15034249
_cell_length_b   12.21992613
_cell_length_c   12.46783599
_cell_angle_alpha   90.00000000
_cell_angle_beta   90.00000000
_cell_angle_gamma   90.00000000
_symmetry_Int_Tables_number   1
_chemical_formula_structural   Ba3Bi(ClO)3
_chemical_formula_sum   'Ba12 Bi4 Cl12 O12'
_cell_volume   1089.39782923
_cell_formula_units_Z   4
loop_
 _symmetry_equiv_pos_site_id
 _symmetry_equiv_pos_as_xyz
  1  'x, y, z'
loop_
 _atom_site_type_symbol
 _atom_site_label
 _atom_site_symmetry_multiplicity
 _atom_site_fract_x
 _atom_site_fract_y
 _atom_site_fract_z
 _atom_site_occupancy
  Ba  Ba0  1  0.16921880  0.06805177  0.88714620  1
  Ba  Ba1  1  0.65042979  0.25000000  0.96897946  1
  Ba  Ba2  1  0.66921880  0.06805177  0.61285380  1
  Ba  Ba3  1  0.16921880  0.43194823  0.88714620  1
  Ba  Ba4  1  0.33078120  0.93194823  0.38714620  1
  Ba  Ba5  1  0.34957021  0.75000000  0.03102054  1
  Ba  Ba6  1  0.83078120  0.56805177  0.11285380  1
  Ba  Ba7  1  0.33078120  0.56805177  0.38714620  1
  Ba  Ba8  1  0.83078120  0.93194823  0.11285380  1
  Ba  Ba9  1  0.15042979  0.25000000  0.53102054  1
  Ba  Ba10  1  0.66921880  0.43194823  0.61285380  1
  Ba  Ba11  1  0.84957021  0.75000000  0.46897946  1
  Bi  Bi12  1  0.09602907  0.25000000  0.12138674  1
  Bi  Bi13  1  0.59602907  0.25000000  0.37861326  1
  Bi  Bi14  1  0.90397093  0.75000000  0.87861326  1
  Bi  Bi15  1  0.40397093  0.75000000  0.62138674  1
  Cl  Cl16  1  0.89472310  0.00253705  0.36232340  1
  Cl  Cl17  1  0.08499140  0.75000000  0.23242079  1
  Cl  Cl18  1  0.10527690  0.50253705  0.63767660  1
  Cl  Cl19  1  0.58499140  0.75000000  0.26757921  1
  Cl  Cl20  1  0.60527690  0.99746295  0.86232340  1
  Cl  Cl21  1  0.91500860  0.25000000  0.76757921  1
  Cl  Cl22  1  0.39472310  0.00253705  0.13767660  1
  Cl  Cl23  1  0.39472310  0.49746295  0.13767660  1
  Cl  Cl24  1  0.60527690  0.50253705  0.86232340  1
  Cl  Cl25  1  0.89472310  0.49746295  0.36232340  1
  Cl  Cl26  1  0.41500860  0.25000000  0.73242079  1
  Cl  Cl27  1  0.10527690  0.99746295  0.63767660  1
  O  O28  1  0.07208101  0.87322937  0.94944546  1
  O  O29  1  0.42791899  0.37322937  0.44944546  1
  O  O30  1  0.92791899  0.12677063  0.05055454  1
  O  O31  1  0.57208101  0.62677063  0.55055454  1
  O  O32  1  0.71379916  0.75000000  0.00681783  1
  O  O33  1  0.28620084  0.25000000  0.99318217  1
  O  O34  1  0.78620084  0.25000000  0.50681783  1
  O  O35  1  0.92791899  0.37322937  0.05055454  1
  O  O36  1  0.57208101  0.87322937  0.55055454  1
  O  O37  1  0.42791899  0.12677063  0.44944546  1
  O  O38  1  0.21379916  0.75000000  0.49318217  1
  O  O39  1  0.07208101  0.62677063  0.94944546  1
