# generated using pymatgen
data_PrMg(AgO3)2
_symmetry_space_group_name_H-M   'P 1'
_cell_length_a   5.41545173
_cell_length_b   5.78972550
_cell_length_c   8.12346297
_cell_angle_alpha   89.97218708
_cell_angle_beta   90.00637922
_cell_angle_gamma   90.02553883
_symmetry_Int_Tables_number   1
_chemical_formula_structural   PrMg(AgO3)2
_chemical_formula_sum   'Pr2 Mg2 Ag4 O12'
_cell_volume   254.70283021
_cell_formula_units_Z   2
loop_
 _symmetry_equiv_pos_site_id
 _symmetry_equiv_pos_as_xyz
  1  'x, y, z'
loop_
 _atom_site_type_symbol
 _atom_site_label
 _atom_site_symmetry_multiplicity
 _atom_site_fract_x
 _atom_site_fract_y
 _atom_site_fract_z
 _atom_site_occupancy
  Pr  Pr0  1  0.02066032  0.92750839  0.74992517  1
  Pr  Pr1  1  0.52079667  0.57242322  0.25008684  1
  Mg  Mg2  1  0.46570203  0.42823134  0.75006940  1
  Mg  Mg3  1  0.96557364  0.07172136  0.24996506  1
  Ag  Ag4  1  0.00021327  0.49455864  0.99766465  1
  Ag  Ag5  1  0.00065120  0.49461900  0.50227391  1
  Ag  Ag6  1  0.50052629  0.00521325  0.49789930  1
  Ag  Ag7  1  0.50016777  0.00532059  0.00215767  1
  O  O8  1  0.11194285  0.42422555  0.24953445  1
  O  O9  1  0.21952987  0.22276289  0.91706508  1
  O  O10  1  0.21991183  0.22269119  0.58270842  1
  O  O11  1  0.31562890  0.68739146  0.57275828  1
  O  O12  1  0.31529099  0.68757775  0.92720106  1
  O  O13  1  0.33056155  0.95076130  0.24962222  1
  O  O14  1  0.61217837  0.07568306  0.75042779  1
  O  O15  1  0.71932374  0.27725059  0.08268760  1
  O  O16  1  0.71985661  0.27748956  0.41749309  1
  O  O17  1  0.81527337  0.81248453  0.07312706  1
  O  O18  1  0.81572134  0.81254939  0.42691861  1
  O  O19  1  0.83048337  0.54953596  0.75041334  1
