# generated using pymatgen
data_BiPPbO5
_symmetry_space_group_name_H-M   'P 1'
_cell_length_a   5.91388414
_cell_length_b   7.10144481
_cell_length_c   7.10620351
_cell_angle_alpha   107.15152193
_cell_angle_beta   109.09337855
_cell_angle_gamma   101.51570072
_symmetry_Int_Tables_number   1
_chemical_formula_structural   BiPPbO5
_chemical_formula_sum   'Bi2 P2 Pb2 O10'
_cell_volume   254.57898792
_cell_formula_units_Z   2
loop_
 _symmetry_equiv_pos_site_id
 _symmetry_equiv_pos_as_xyz
  1  'x, y, z'
loop_
 _atom_site_type_symbol
 _atom_site_label
 _atom_site_symmetry_multiplicity
 _atom_site_fract_x
 _atom_site_fract_y
 _atom_site_fract_z
 _atom_site_occupancy
  Bi  Bi0  1  0.61699708  0.26858600  0.55764334  1
  Bi  Bi1  1  0.38300292  0.73141400  0.44235666  1
  P  P2  1  0.17899282  0.65609090  0.85826950  1
  P  P3  1  0.82100718  0.34390910  0.14173050  1
  Pb  Pb4  1  0.16741006  0.10884517  0.82206257  1
  Pb  Pb5  1  0.83258994  0.89115483  0.17793743  1
  O  O6  1  0.25827788  0.99827791  0.47288603  1
  O  O7  1  0.93540628  0.58341011  0.28474117  1
  O  O8  1  0.65775176  0.31109186  0.90541406  1
  O  O9  1  0.36531416  0.76919061  0.78196157  1
  O  O10  1  0.34224824  0.68890814  0.09458594  1
  O  O11  1  0.74172212  0.00172209  0.52711397  1
  O  O12  1  0.96234557  0.75088606  0.84268268  1
  O  O13  1  0.06459372  0.41658989  0.71525883  1
  O  O14  1  0.03765443  0.24911394  0.15731732  1
  O  O15  1  0.63468584  0.23080939  0.21803843  1
