# generated using pymatgen
data_Al2P3H9(CO3)3
_symmetry_space_group_name_H-M   'P 1'
_cell_length_a   14.28306680
_cell_length_b   14.28306687
_cell_length_c   8.70717338
_cell_angle_alpha   90.00000000
_cell_angle_beta   90.00000000
_cell_angle_gamma   119.99999985
_symmetry_Int_Tables_number   1
_chemical_formula_structural   Al2P3H9(CO3)3
_chemical_formula_sum   'Al8 P12 H36 C12 O36'
_cell_volume   1538.33443421
_cell_formula_units_Z   4
loop_
 _symmetry_equiv_pos_site_id
 _symmetry_equiv_pos_as_xyz
  1  'x, y, z'
loop_
 _atom_site_type_symbol
 _atom_site_label
 _atom_site_symmetry_multiplicity
 _atom_site_fract_x
 _atom_site_fract_y
 _atom_site_fract_z
 _atom_site_occupancy
  Al  Al0  1  0.33333300  0.66666700  0.99088922  1
  Al  Al1  1  0.90295873  0.39675886  0.05854552  1
  Al  Al2  1  0.09704127  0.49380013  0.55854552  1
  Al  Al3  1  0.66666700  0.33333300  0.49088922  1
  Al  Al4  1  0.60324114  0.50619987  0.05854552  1
  Al  Al5  1  0.39675886  0.90295873  0.55854552  1
  Al  Al6  1  0.50619987  0.60324114  0.55854552  1
  Al  Al7  1  0.49380013  0.09704127  0.05854552  1
  P  P8  1  0.34863081  0.86533301  0.20033259  1
  P  P9  1  0.86533301  0.34863081  0.70033259  1
  P  P10  1  0.81068611  0.52920485  0.23208131  1
  P  P11  1  0.71851873  0.18931389  0.23208131  1
  P  P12  1  0.18931389  0.71851873  0.73208131  1
  P  P13  1  0.13466699  0.48329780  0.20033259  1
  P  P14  1  0.47079515  0.28148127  0.23208131  1
  P  P15  1  0.52920485  0.81068611  0.73208131  1
  P  P16  1  0.48329780  0.13466699  0.70033259  1
  P  P17  1  0.51670220  0.65136919  0.20033259  1
  P  P18  1  0.28148127  0.47079515  0.73208131  1
  P  P19  1  0.65136919  0.51670220  0.70033259  1
  H  H20  1  0.96076273  0.66527120  0.37352589  1
  H  H21  1  0.93781934  0.71890872  0.20128536  1
  H  H22  1  0.61976331  0.83559606  0.11958448  1
  H  H23  1  0.28109128  0.21891062  0.20128536  1
  H  H24  1  0.16440394  0.78416724  0.11958448  1
  H  H25  1  0.17643791  0.73301703  0.30040061  1
  H  H26  1  0.84158274  0.14853297  0.36378511  1
  H  H27  1  0.21891062  0.28109128  0.70128536  1
  H  H28  1  0.18889316  0.86439555  0.28947941  1
  H  H29  1  0.73301703  0.17643791  0.80040061  1
  H  H30  1  0.33472880  0.29549153  0.37352589  1
  H  H31  1  0.15841726  0.30695023  0.86378511  1
  H  H32  1  0.71890872  0.93781934  0.70128536  1
  H  H33  1  0.55657912  0.82356209  0.30040061  1
  H  H34  1  0.13560445  0.32449761  0.28947941  1
  H  H35  1  0.69304977  0.85146703  0.86378511  1
  H  H36  1  0.32449761  0.13560445  0.78947941  1
  H  H37  1  0.83559606  0.61976331  0.61958448  1
  H  H38  1  0.86439555  0.18889316  0.78947941  1
  H  H39  1  0.70450847  0.03923727  0.37352589  1
  H  H40  1  0.78108938  0.06218066  0.20128536  1
  H  H41  1  0.67550239  0.81110684  0.28947941  1
  H  H42  1  0.21583276  0.38023669  0.11958448  1
  H  H43  1  0.82356209  0.55657912  0.80040061  1
  H  H44  1  0.14853297  0.84158274  0.86378511  1
  H  H45  1  0.81110684  0.67550239  0.78947941  1
  H  H46  1  0.78416724  0.16440394  0.61958448  1
  H  H47  1  0.29549153  0.33472880  0.87352589  1
  H  H48  1  0.03923727  0.70450847  0.87352589  1
  H  H49  1  0.85146703  0.69304977  0.36378511  1
  H  H50  1  0.26698297  0.44342088  0.30040061  1
  H  H51  1  0.30695023  0.15841726  0.36378511  1
  H  H52  1  0.44342088  0.26698297  0.80040061  1
  H  H53  1  0.06218066  0.78108938  0.70128536  1
  H  H54  1  0.66527120  0.96076273  0.87352589  1
  H  H55  1  0.38023669  0.21583276  0.61958448  1
  C  C56  1  0.60063055  0.79424921  0.23084384  1
  C  C57  1  0.39936945  0.19361865  0.73084384  1
  C  C58  1  0.23375183  0.33522135  0.79904008  1
  C  C59  1  0.89853048  0.66477865  0.29904008  1
  C  C60  1  0.10146952  0.76624817  0.79904008  1
  C  C61  1  0.66477865  0.89853048  0.79904008  1
  C  C62  1  0.80638135  0.20575079  0.73084384  1
  C  C63  1  0.20575079  0.80638135  0.23084384  1
  C  C64  1  0.76624817  0.10146952  0.29904008  1
  C  C65  1  0.33522135  0.23375183  0.29904008  1
  C  C66  1  0.79424921  0.60063055  0.73084384  1
  C  C67  1  0.19361865  0.39936945  0.23084384  1
  O  O68  1  0.58624690  0.21032319  0.61656210  1
  O  O69  1  0.58752612  0.61630248  0.10886793  1
  O  O70  1  0.70486877  0.24753895  0.36662212  1
  O  O71  1  0.54267018  0.29513123  0.36662212  1
  O  O72  1  0.24753895  0.70486877  0.86662212  1
  O  O73  1  0.41375310  0.62407629  0.11656210  1
  O  O74  1  0.53516360  0.73316790  0.61297574  1
  O  O75  1  0.89610206  0.40597475  0.85895478  1
  O  O76  1  0.38757894  0.50214092  0.64435007  1
  O  O77  1  0.21032319  0.58624690  0.11656210  1
  O  O78  1  0.40597475  0.89610206  0.35895478  1
  O  O79  1  0.97122364  0.38369752  0.60886793  1
  O  O80  1  0.62407629  0.41375310  0.61656210  1
  O  O81  1  0.29513123  0.54267018  0.86662212  1
  O  O82  1  0.59402525  0.49012731  0.85895478  1
  O  O83  1  0.37592371  0.78967681  0.11656210  1
  O  O84  1  0.49012731  0.59402525  0.35895478  1
  O  O85  1  0.19800430  0.46483640  0.61297574  1
  O  O86  1  0.61242106  0.11456198  0.14435007  1
  O  O87  1  0.02877636  0.41247388  0.10886793  1
  O  O88  1  0.50214092  0.38757894  0.14435007  1
  O  O89  1  0.46483640  0.19800430  0.11297574  1
  O  O90  1  0.11456198  0.61242106  0.64435007  1
  O  O91  1  0.78967681  0.37592371  0.61656210  1
  O  O92  1  0.61630248  0.58752612  0.60886793  1
  O  O93  1  0.75246105  0.45732982  0.36662212  1
  O  O94  1  0.38369752  0.97122364  0.10886793  1
  O  O95  1  0.80199570  0.26683210  0.11297574  1
  O  O96  1  0.10389794  0.50987269  0.35895478  1
  O  O97  1  0.41247388  0.02877636  0.60886793  1
  O  O98  1  0.50987269  0.10389794  0.85895478  1
  O  O99  1  0.49785908  0.88543802  0.64435007  1
  O  O100  1  0.73316790  0.53516360  0.11297574  1
  O  O101  1  0.45732982  0.75246105  0.86662212  1
  O  O102  1  0.26683210  0.80199570  0.61297574  1
  O  O103  1  0.88543802  0.49785908  0.14435007  1
