# generated using pymatgen
data_CaSi2(NO)2
_symmetry_space_group_name_H-M   'P 1'
_cell_length_a   7.38548942
_cell_length_b   10.57546254
_cell_length_c   13.77231221
_cell_angle_alpha   90.00000000
_cell_angle_beta   90.00000000
_cell_angle_gamma   101.89474900
_symmetry_Int_Tables_number   1
_chemical_formula_structural   CaSi2(NO)2
_chemical_formula_sum   'Ca12 Si24 N24 O24'
_cell_volume   1052.58872760
_cell_formula_units_Z   12
loop_
 _symmetry_equiv_pos_site_id
 _symmetry_equiv_pos_as_xyz
  1  'x, y, z'
loop_
 _atom_site_type_symbol
 _atom_site_label
 _atom_site_symmetry_multiplicity
 _atom_site_fract_x
 _atom_site_fract_y
 _atom_site_fract_z
 _atom_site_occupancy
  Ca  Ca0  1  0.25477554  0.64272400  0.86996356  1
  Ca  Ca1  1  0.74522446  0.35727600  0.36996356  1
  Ca  Ca2  1  0.08187346  0.94836263  0.93648131  1
  Ca  Ca3  1  0.58832986  0.70152707  0.42485157  1
  Ca  Ca4  1  0.58844265  0.95103853  0.87868647  1
  Ca  Ca5  1  0.91812654  0.05163737  0.43648131  1
  Ca  Ca6  1  0.91909612  0.30461724  0.86707138  1
  Ca  Ca7  1  0.41167014  0.29847293  0.92485157  1
  Ca  Ca8  1  0.74327212  0.61540976  0.93305698  1
  Ca  Ca9  1  0.41155735  0.04896147  0.37868647  1
  Ca  Ca10  1  0.25672788  0.38459024  0.43305698  1
  Ca  Ca11  1  0.08090388  0.69538276  0.36707138  1
  Si  Si12  1  0.37648052  0.08011889  0.09704715  1
  Si  Si13  1  0.38189895  0.58302592  0.10004014  1
  Si  Si14  1  0.95155001  0.56055313  0.70609409  1
  Si  Si15  1  0.28909935  0.69948049  0.59489808  1
  Si  Si16  1  0.95231583  0.30796220  0.59769873  1
  Si  Si17  1  0.37979740  0.32968987  0.20403188  1
  Si  Si18  1  0.95343389  0.05558566  0.71069355  1
  Si  Si19  1  0.62020260  0.67031013  0.70403188  1
  Si  Si20  1  0.71245649  0.80306520  0.10393714  1
  Si  Si21  1  0.95263469  0.80826461  0.59287225  1
  Si  Si22  1  0.28748179  0.94438300  0.70457907  1
  Si  Si23  1  0.04768417  0.69203780  0.09769873  1
  Si  Si24  1  0.04844999  0.43944687  0.20609409  1
  Si  Si25  1  0.71251821  0.05561700  0.20457907  1
  Si  Si26  1  0.28754351  0.19693480  0.60393714  1
  Si  Si27  1  0.04736531  0.19173539  0.09287225  1
  Si  Si28  1  0.37802048  0.83341232  0.20805393  1
  Si  Si29  1  0.71140650  0.54805085  0.20457109  1
  Si  Si30  1  0.62351948  0.91988111  0.59704715  1
  Si  Si31  1  0.71090065  0.30051951  0.09489808  1
  Si  Si32  1  0.61810105  0.41697408  0.60004014  1
  Si  Si33  1  0.28859350  0.45194915  0.70457109  1
  Si  Si34  1  0.62197952  0.16658768  0.70805393  1
  Si  Si35  1  0.04656611  0.94441434  0.21069355  1
  N  N36  1  0.85440386  0.69017003  0.67673621  1
  N  N37  1  0.19205243  0.08313917  0.69273211  1
  N  N38  1  0.86022511  0.18994311  0.68236532  1
  N  N39  1  0.47897277  0.74489019  0.12664120  1
  N  N40  1  0.52102723  0.25510981  0.62664120  1
  N  N41  1  0.13977489  0.81005689  0.18236532  1
  N  N42  1  0.13911083  0.05740038  0.12201157  1
  N  N43  1  0.52245225  0.50763394  0.68345158  1
  N  N44  1  0.19255345  0.33750110  0.61661724  1
  N  N45  1  0.86088917  0.94259962  0.62201157  1
  N  N46  1  0.14559614  0.30982997  0.17673621  1
  N  N47  1  0.80794757  0.91686083  0.19273211  1
  N  N48  1  0.80778238  0.40985975  0.18700981  1
  N  N49  1  0.19221762  0.59014025  0.68700981  1
  N  N50  1  0.47754775  0.49236606  0.18345158  1
  N  N51  1  0.52510325  0.00331564  0.68468556  1
  N  N52  1  0.80744655  0.66249890  0.11661724  1
  N  N53  1  0.19178503  0.83608539  0.61109084  1
  N  N54  1  0.47489675  0.99668436  0.18468556  1
  N  N55  1  0.47393994  0.24384793  0.11521333  1
  N  N56  1  0.85373637  0.43740856  0.62654820  1
  N  N57  1  0.14626363  0.56259144  0.12654820  1
  N  N58  1  0.80821497  0.16391461  0.11109084  1
  N  N59  1  0.52606006  0.75615207  0.61521333  1
  O  O60  1  0.57338137  0.45020279  0.48793022  1
  O  O61  1  0.91945828  0.27008193  0.48336221  1
  O  O62  1  0.73458208  0.36829560  0.98811774  1
  O  O63  1  0.24321838  0.14789164  0.49287069  1
  O  O64  1  0.26315348  0.87880130  0.81231612  1
  O  O65  1  0.26541792  0.63170440  0.48811774  1
  O  O66  1  0.60223107  0.95821976  0.48442515  1
  O  O67  1  0.89789095  0.77424708  0.47985663  1
  O  O68  1  0.75678162  0.85210836  0.99287069  1
  O  O69  1  0.10392888  0.98195017  0.32221195  1
  O  O70  1  0.39776893  0.04178024  0.98442515  1
  O  O71  1  0.89607112  0.01804983  0.82221195  1
  O  O72  1  0.42661863  0.54979721  0.98793022  1
  O  O73  1  0.60247501  0.19825452  0.82241720  1
  O  O74  1  0.73684652  0.12119870  0.31231612  1
  O  O75  1  0.08054172  0.72991807  0.98336221  1
  O  O76  1  0.24130947  0.40152487  0.81486718  1
  O  O77  1  0.57541760  0.71064546  0.81450611  1
  O  O78  1  0.75869053  0.59847513  0.31486718  1
  O  O79  1  0.39752499  0.80174548  0.32241720  1
  O  O80  1  0.10210905  0.22575292  0.97985663  1
  O  O81  1  0.42458240  0.28935454  0.31450611  1
  O  O82  1  0.07873902  0.47377946  0.32158748  1
  O  O83  1  0.92126098  0.52622054  0.82158748  1
