# generated using pymatgen
data_MnB2F8
_symmetry_space_group_name_H-M   'P 1'
_cell_length_a   5.56422621
_cell_length_b   8.73044254
_cell_length_c   11.10749255
_cell_angle_alpha   90.00000000
_cell_angle_beta   90.00000000
_cell_angle_gamma   90.00000000
_symmetry_Int_Tables_number   1
_chemical_formula_structural   MnB2F8
_chemical_formula_sum   'Mn4 B8 F32'
_cell_volume   539.58151926
_cell_formula_units_Z   4
loop_
 _symmetry_equiv_pos_site_id
 _symmetry_equiv_pos_as_xyz
  1  'x, y, z'
loop_
 _atom_site_type_symbol
 _atom_site_label
 _atom_site_symmetry_multiplicity
 _atom_site_fract_x
 _atom_site_fract_y
 _atom_site_fract_z
 _atom_site_occupancy
  B  B0  1  0.25000000  0.85389642  0.40672831  1
  B  B1  1  0.75000000  0.14610358  0.59327169  1
  B  B2  1  0.25000000  0.35389642  0.09327169  1
  B  B3  1  0.75000000  0.64610358  0.90672831  1
  B  B4  1  0.25000000  0.50556137  0.65466459  1
  B  B5  1  0.75000000  0.49443863  0.34533541  1
  B  B6  1  0.25000000  0.00556137  0.84533541  1
  B  B7  1  0.75000000  0.99443863  0.15466459  1
  F  F8  1  0.25000000  0.74665467  0.31170607  1
  F  F9  1  0.25000000  0.43193835  0.54011046  1
  F  F10  1  0.75000000  0.06806165  0.04011046  1
  F  F11  1  0.25000000  0.93193835  0.95988954  1
  F  F12  1  0.75000000  0.99385132  0.64011839  1
  F  F13  1  0.25000000  0.00614868  0.35988161  1
  F  F14  1  0.75000000  0.49385132  0.85988161  1
  F  F15  1  0.25000000  0.50614868  0.14011839  1
  F  F16  1  0.45749952  0.60267225  0.66033858  1
  F  F17  1  0.95749952  0.39732775  0.33966142  1
  F  F18  1  0.04250048  0.10267225  0.83966142  1
  F  F19  1  0.75000000  0.56806165  0.45988954  1
  F  F20  1  0.54250048  0.39732775  0.33966142  1
  F  F21  1  0.04250048  0.60267225  0.66033858  1
  F  F22  1  0.95749952  0.89732775  0.16033858  1
  F  F23  1  0.45749952  0.10267225  0.83966142  1
  F  F24  1  0.45871953  0.83361815  0.47827228  1
  F  F25  1  0.95871953  0.16638185  0.52172772  1
  F  F26  1  0.04128047  0.33361815  0.02172772  1
  F  F27  1  0.54128047  0.66638185  0.97827228  1
  F  F28  1  0.54128047  0.16638185  0.52172772  1
  F  F29  1  0.04128047  0.83361815  0.47827228  1
  F  F30  1  0.95871953  0.66638185  0.97827228  1
  F  F31  1  0.45871953  0.33361815  0.02172772  1
  F  F32  1  0.75000000  0.59720450  0.25197591  1
  F  F33  1  0.25000000  0.40279550  0.74802409  1
  F  F34  1  0.75000000  0.09720450  0.24802409  1
  F  F35  1  0.25000000  0.90279550  0.75197591  1
  F  F36  1  0.25000000  0.24665467  0.18829393  1
  F  F37  1  0.75000000  0.75334533  0.81170607  1
  F  F38  1  0.54250048  0.89732775  0.16033858  1
  F  F39  1  0.75000000  0.25334533  0.68829393  1
  Mn  Mn40  1  0.25000000  0.75289138  0.10136920  1
  Mn  Mn41  1  0.75000000  0.24710862  0.89863080  1
  Mn  Mn42  1  0.25000000  0.25289138  0.39863080  1
  Mn  Mn43  1  0.75000000  0.74710862  0.60136920  1
