# generated using pymatgen
data_Ag2HgSI2
_symmetry_space_group_name_H-M   'P 1'
_cell_length_a   7.31767908
_cell_length_b   7.68244062
_cell_length_c   8.03896427
_cell_angle_alpha   118.54346440
_cell_angle_beta   90.00000000
_cell_angle_gamma   90.00000000
_symmetry_Int_Tables_number   1
_chemical_formula_structural   Ag2HgSI2
_chemical_formula_sum   'Ag4 Hg2 S2 I4'
_cell_volume   397.00148794
_cell_formula_units_Z   2
loop_
 _symmetry_equiv_pos_site_id
 _symmetry_equiv_pos_as_xyz
  1  'x, y, z'
loop_
 _atom_site_type_symbol
 _atom_site_label
 _atom_site_symmetry_multiplicity
 _atom_site_fract_x
 _atom_site_fract_y
 _atom_site_fract_z
 _atom_site_occupancy
  Ag  Ag0  1  0.77021752  0.18249732  0.67670251  1
  Ag  Ag1  1  0.77021752  0.50579481  0.32329749  1
  Ag  Ag2  1  0.27021752  0.49420519  0.67670251  1
  Ag  Ag3  1  0.27021752  0.81750268  0.32329749  1
  Hg  Hg4  1  0.41419443  0.02443735  1.00000000  1
  Hg  Hg5  1  0.91419443  0.97556265  0.00000000  1
  S  S6  1  0.68512655  0.20293217  1.00000000  1
  S  S7  1  0.18512655  0.79706783  0.00000000  1
  I  I8  1  0.16722199  0.13801233  0.68156264  1
  I  I9  1  0.16722199  0.45644969  0.31843736  1
  I  I10  1  0.66722199  0.86198767  0.31843736  1
  I  I11  1  0.66722199  0.54355031  0.68156264  1
