# generated using pymatgen
data_K2ZrS4
_symmetry_space_group_name_H-M   'P 1'
_cell_length_a   6.80780559
_cell_length_b   9.57239338
_cell_length_c   23.55265335
_cell_angle_alpha   90.00000000
_cell_angle_beta   90.00000000
_cell_angle_gamma   90.00000000
_symmetry_Int_Tables_number   1
_chemical_formula_structural   K2ZrS4
_chemical_formula_sum   'K16 Zr8 S32'
_cell_volume   1534.85559981
_cell_formula_units_Z   8
loop_
 _symmetry_equiv_pos_site_id
 _symmetry_equiv_pos_as_xyz
  1  'x, y, z'
loop_
 _atom_site_type_symbol
 _atom_site_label
 _atom_site_symmetry_multiplicity
 _atom_site_fract_x
 _atom_site_fract_y
 _atom_site_fract_z
 _atom_site_occupancy
  K  K0  1  0.06496967  0.06918921  0.80168430  1
  K  K1  1  0.56496967  0.43081079  0.80168430  1
  K  K2  1  0.20331934  0.85769620  0.03127422  1
  K  K3  1  0.20331934  0.35769620  0.46872578  1
  K  K4  1  0.79668066  0.64230380  0.53127422  1
  K  K5  1  0.56496967  0.93081079  0.69831570  1
  K  K6  1  0.43503033  0.06918921  0.30168430  1
  K  K7  1  0.43503033  0.56918921  0.19831570  1
  K  K8  1  0.70331934  0.14230380  0.46872578  1
  K  K9  1  0.93503033  0.43081079  0.30168430  1
  K  K10  1  0.93503033  0.93081079  0.19831570  1
  K  K11  1  0.06496967  0.56918921  0.69831570  1
  K  K12  1  0.29668066  0.35769620  0.96872578  1
  K  K13  1  0.70331934  0.64230380  0.03127422  1
  K  K14  1  0.29668066  0.85769620  0.53127422  1
  K  K15  1  0.79668066  0.14230380  0.96872578  1
  Zr  Zr16  1  0.55315629  0.82856591  0.86855809  1
  Zr  Zr17  1  0.44684371  0.17143409  0.13144191  1
  Zr  Zr18  1  0.05315629  0.67143409  0.86855809  1
  Zr  Zr19  1  0.94684371  0.32856591  0.13144191  1
  Zr  Zr20  1  0.44684371  0.67143409  0.36855809  1
  Zr  Zr21  1  0.94684371  0.82856591  0.36855809  1
  Zr  Zr22  1  0.55315629  0.32856591  0.63144191  1
  Zr  Zr23  1  0.05315629  0.17143409  0.63144191  1
  S  S24  1  0.42887329  0.91020565  0.16056170  1
  S  S25  1  0.42887329  0.41020565  0.33943830  1
  S  S26  1  0.86401991  0.33233909  0.56624160  1
  S  S27  1  0.61070322  0.94796135  0.08958202  1
  S  S28  1  0.71082724  0.23064307  0.20423328  1
  S  S29  1  0.88929678  0.94796135  0.58958202  1
  S  S30  1  0.88929678  0.44796135  0.91041798  1
  S  S31  1  0.21082724  0.76935693  0.29576672  1
  S  S32  1  0.71082724  0.73064307  0.29576672  1
  S  S33  1  0.86401991  0.83233909  0.93375840  1
  S  S34  1  0.92887329  0.08979435  0.33943830  1
  S  S35  1  0.38929678  0.05203865  0.91041798  1
  S  S36  1  0.57112671  0.08979435  0.83943830  1
  S  S37  1  0.13598009  0.66766091  0.43375840  1
  S  S38  1  0.21082724  0.26935693  0.20423328  1
  S  S39  1  0.78917276  0.23064307  0.70423328  1
  S  S40  1  0.07112671  0.91020565  0.66056170  1
  S  S41  1  0.11070322  0.55203865  0.08958202  1
  S  S42  1  0.36401991  0.66766091  0.93375840  1
  S  S43  1  0.63598009  0.33233909  0.06624160  1
  S  S44  1  0.61070322  0.44796135  0.41041798  1
  S  S45  1  0.38929678  0.55203865  0.58958202  1
  S  S46  1  0.36401991  0.16766091  0.56624160  1
  S  S47  1  0.78917276  0.73064307  0.79576672  1
  S  S48  1  0.92887329  0.58979435  0.16056170  1
  S  S49  1  0.28917276  0.76935693  0.79576672  1
  S  S50  1  0.57112671  0.58979435  0.66056170  1
  S  S51  1  0.28917276  0.26935693  0.70423328  1
  S  S52  1  0.07112671  0.41020565  0.83943830  1
  S  S53  1  0.63598009  0.83233909  0.43375840  1
  S  S54  1  0.13598009  0.16766091  0.06624160  1
  S  S55  1  0.11070322  0.05203865  0.41041798  1
