# generated using pymatgen
data_In2H10S3O17
_symmetry_space_group_name_H-M   'P 1'
_cell_length_a   5.82138450
_cell_length_b   10.95405898
_cell_length_c   11.57486430
_cell_angle_alpha   88.86045259
_cell_angle_beta   88.91788951
_cell_angle_gamma   79.03694979
_symmetry_Int_Tables_number   1
_chemical_formula_structural   In2H10S3O17
_chemical_formula_sum   'In4 H20 S6 O34'
_cell_volume   724.40405496
_cell_formula_units_Z   2
loop_
 _symmetry_equiv_pos_site_id
 _symmetry_equiv_pos_as_xyz
  1  'x, y, z'
loop_
 _atom_site_type_symbol
 _atom_site_label
 _atom_site_symmetry_multiplicity
 _atom_site_fract_x
 _atom_site_fract_y
 _atom_site_fract_z
 _atom_site_occupancy
  In  In0  1  0.40800176  0.38641608  0.25365871  1
  In  In1  1  0.59199824  0.61358392  0.74634129  1
  In  In2  1  0.00000000  0.00000000  0.50000000  1
  In  In3  1  0.00000000  0.00000000  0.00000000  1
  H  H4  1  0.62091162  0.55117036  0.39296719  1
  H  H5  1  0.86235424  0.38563258  0.68950973  1
  H  H6  1  0.13764576  0.61436742  0.31049027  1
  H  H7  1  0.63430796  0.17837881  0.90913875  1
  H  H8  1  0.75108813  0.39339867  0.06892254  1
  H  H9  1  0.37461190  0.46568666  0.89909251  1
  H  H10  1  0.57559577  0.18174113  0.56088227  1
  H  H11  1  0.40178996  0.94938013  0.36941179  1
  H  H12  1  0.12414110  0.61243819  0.16753720  1
  H  H13  1  0.71326367  0.41088224  0.43701293  1
  H  H14  1  0.35073339  0.94728947  0.15977413  1
  H  H15  1  0.62538810  0.53431334  0.10090749  1
  H  H16  1  0.24891187  0.60660133  0.93107746  1
  H  H17  1  0.42440423  0.81825887  0.43911773  1
  H  H18  1  0.59821004  0.05061987  0.63058821  1
  H  H19  1  0.36569204  0.82162119  0.09086125  1
  H  H20  1  0.87585890  0.38756181  0.83246280  1
  H  H21  1  0.37908838  0.44882964  0.60703281  1
  H  H22  1  0.28673633  0.58911776  0.56298707  1
  H  H23  1  0.64926661  0.05271053  0.84022587  1
  S  S24  1  0.30124401  0.91252010  0.74765568  1
  S  S25  1  0.80301829  0.72634531  0.99414924  1
  S  S26  1  0.19698171  0.27365469  0.00585076  1
  S  S27  1  0.14058357  0.29110514  0.49431497  1
  S  S28  1  0.69875599  0.08747990  0.25234432  1
  S  S29  1  0.85941643  0.70889486  0.50568503  1
  O  O30  1  0.39321289  0.53729364  0.61813294  1
  O  O31  1  0.20929463  0.57551784  0.23774385  1
  O  O32  1  0.36831529  0.55558385  0.88005869  1
  O  O33  1  0.14660991  0.36103218  0.38200103  1
  O  O34  1  0.21513770  0.29809729  0.13195361  1
  O  O35  1  0.16700641  0.15605126  0.46808725  1
  O  O36  1  0.08964590  0.66135915  0.45033636  1
  O  O37  1  0.83299359  0.84394874  0.53191275  1
  O  O38  1  0.49989634  0.02203853  0.25250761  1
  O  O39  1  0.03771147  0.66170669  0.03272894  1
  O  O40  1  0.78234476  0.10719444  0.13177537  1
  O  O41  1  0.96228853  0.33829331  0.96727106  1
  O  O42  1  0.77646940  0.86430995  0.00863744  1
  O  O43  1  0.89596136  0.01509615  0.31936834  1
  O  O44  1  0.21765524  0.89280556  0.86822463  1
  O  O45  1  0.50010366  0.97796147  0.74749239  1
  O  O46  1  0.63045963  0.21304294  0.30565394  1
  O  O47  1  0.66199290  0.69344703  0.43129223  1
  O  O48  1  0.67264334  0.09724809  0.57042378  1
  O  O49  1  0.61229672  0.68699738  0.06302585  1
  O  O50  1  0.74560470  0.10494020  0.87998466  1
  O  O51  1  0.91035410  0.33864085  0.54966364  1
  O  O52  1  0.85339009  0.63896782  0.61799897  1
  O  O53  1  0.25439530  0.89505980  0.12001534  1
  O  O54  1  0.36954037  0.78695706  0.69434606  1
  O  O55  1  0.63168471  0.44441615  0.11994131  1
  O  O56  1  0.32735666  0.90275191  0.42957622  1
  O  O57  1  0.79070537  0.42448216  0.76225615  1
  O  O58  1  0.10403864  0.98490385  0.68063166  1
  O  O59  1  0.38770328  0.31300262  0.93697415  1
  O  O60  1  0.33800710  0.30655297  0.56870777  1
  O  O61  1  0.60678711  0.46270636  0.38186706  1
  O  O62  1  0.22353060  0.13569005  0.99136256  1
  O  O63  1  0.78486230  0.70190271  0.86804639  1
