# generated using pymatgen
data_BaZr4(PO4)6
_symmetry_space_group_name_H-M   'P 1'
_cell_length_a   9.53511481
_cell_length_b   9.53511473
_cell_length_c   9.53511528
_cell_angle_alpha   55.32269975
_cell_angle_beta   55.32270014
_cell_angle_gamma   55.32270155
_symmetry_Int_Tables_number   1
_chemical_formula_structural   BaZr4(PO4)6
_chemical_formula_sum   'Ba1 Zr4 P6 O24'
_cell_volume   546.38167726
_cell_formula_units_Z   1
loop_
 _symmetry_equiv_pos_site_id
 _symmetry_equiv_pos_as_xyz
  1  'x, y, z'
loop_
 _atom_site_type_symbol
 _atom_site_label
 _atom_site_symmetry_multiplicity
 _atom_site_fract_x
 _atom_site_fract_y
 _atom_site_fract_z
 _atom_site_occupancy
  Ba  Ba0  1  0.00000000  0.00000000  0.00000000  1
  Zr  Zr1  1  0.35448065  0.35448065  0.35448066  1
  Zr  Zr2  1  0.64551935  0.64551935  0.64551934  1
  Zr  Zr3  1  0.15101095  0.15101095  0.15101095  1
  Zr  Zr4  1  0.84898905  0.84898905  0.84898905  1
  P  P5  1  0.03205973  0.75311677  0.45981336  1
  P  P6  1  0.96794027  0.24688323  0.54018664  1
  P  P7  1  0.45981336  0.03205973  0.75311677  1
  P  P8  1  0.54018664  0.96794027  0.24688323  1
  P  P9  1  0.75311677  0.45981336  0.03205973  1
  P  P10  1  0.24688323  0.54018664  0.96794027  1
  O  O11  1  0.24295811  0.51957377  0.14289663  1
  O  O12  1  0.48042623  0.85710337  0.75704189  1
  O  O13  1  0.21788024  0.37969460  -0.00099446  1
  O  O14  1  0.78211976  0.62030540  1.00099446  1
  O  O15  1  0.27989544  0.08426520  0.91251696  1
  O  O16  1  0.14289663  0.24295811  0.51957377  1
  O  O17  1  1.00099446  0.78211976  0.62030540  1
  O  O18  1  0.91251696  0.27989544  0.08426520  1
  O  O19  1  0.43015229  0.55225213  0.81093890  1
  O  O20  1  0.72010456  0.91573480  0.08748304  1
  O  O21  1  0.08426520  0.91251696  0.27989544  1
  O  O22  1  0.08748304  0.72010456  0.91573480  1
  O  O23  1  0.56984771  0.44774787  0.18906110  1
  O  O24  1  0.55225213  0.81093890  0.43015229  1
  O  O25  1  0.91573480  0.08748304  0.72010456  1
  O  O26  1  0.62030540  1.00099446  0.78211976  1
  O  O27  1  0.37969460  -0.00099446  0.21788024  1
  O  O28  1  0.18906110  0.56984771  0.44774787  1
  O  O29  1  0.51957377  0.14289663  0.24295811  1
  O  O30  1  0.85710337  0.75704189  0.48042623  1
  O  O31  1  -0.00099446  0.21788024  0.37969460  1
  O  O32  1  0.75704189  0.48042623  0.85710337  1
  O  O33  1  0.81093890  0.43015229  0.55225213  1
  O  O34  1  0.44774787  0.18906110  0.56984771  1
