# generated using pymatgen
data_Tl2SeO4
_symmetry_space_group_name_H-M   'P 1'
_cell_length_a   6.43886969
_cell_length_b   8.09823246
_cell_length_c   10.92421607
_cell_angle_alpha   90.00000000
_cell_angle_beta   90.00000000
_cell_angle_gamma   90.00000000
_symmetry_Int_Tables_number   1
_chemical_formula_structural   Tl2SeO4
_chemical_formula_sum   'Tl8 Se4 O16'
_cell_volume   569.62646223
_cell_formula_units_Z   4
loop_
 _symmetry_equiv_pos_site_id
 _symmetry_equiv_pos_as_xyz
  1  'x, y, z'
loop_
 _atom_site_type_symbol
 _atom_site_label
 _atom_site_symmetry_multiplicity
 _atom_site_fract_x
 _atom_site_fract_y
 _atom_site_fract_z
 _atom_site_occupancy
  Tl  Tl0  1  0.72546859  0.99445407  0.53878424  1
  Tl  Tl1  1  0.22546859  0.00554593  0.96121576  1
  Tl  Tl2  1  0.22164910  0.17644447  0.33149481  1
  Tl  Tl3  1  0.27453141  0.50554593  0.03878424  1
  Tl  Tl4  1  0.77835090  0.32355553  0.83149481  1
  Tl  Tl5  1  0.77453141  0.49445407  0.46121576  1
  Tl  Tl6  1  0.27835090  0.67644447  0.66850519  1
  Tl  Tl7  1  0.72164910  0.82355553  0.16850519  1
  Se  Se8  1  0.23986120  0.70504444  0.33350096  1
  Se  Se9  1  0.73986120  0.29495556  0.16649904  1
  Se  Se10  1  0.26013880  0.20504444  0.66649904  1
  Se  Se11  1  0.76013880  0.79495556  0.83350096  1
  O  O12  1  0.67796303  0.49268732  0.19534500  1
  O  O13  1  0.55292201  0.78018636  0.92731063  1
  O  O14  1  0.70254606  0.70070984  0.69968715  1
  O  O15  1  0.94707799  0.28018636  0.07268937  1
  O  O16  1  0.46470714  0.29794061  0.60031909  1
  O  O17  1  0.29745394  0.79929016  0.19968715  1
  O  O18  1  0.32203697  0.00731268  0.69534500  1
  O  O19  1  0.79745394  0.20070984  0.30031285  1
  O  O20  1  0.44707799  0.71981364  0.42731063  1
  O  O21  1  0.05292201  0.21981364  0.57268937  1
  O  O22  1  0.53529286  0.20205939  0.10031909  1
  O  O23  1  0.17796303  0.50731268  0.30465500  1
  O  O24  1  0.96470714  0.70205939  0.89968091  1
  O  O25  1  0.82203697  0.99268732  0.80465500  1
  O  O26  1  0.20254606  0.29929016  0.80031285  1
  O  O27  1  0.03529286  0.79794061  0.39968091  1
