# generated using pymatgen
data_Pr(WO3)2
_symmetry_space_group_name_H-M   'P 1'
_cell_length_a   5.55934932
_cell_length_b   5.70991603
_cell_length_c   7.96607649
_cell_angle_alpha   89.42417197
_cell_angle_beta   89.58270370
_cell_angle_gamma   90.01017593
_symmetry_Int_Tables_number   1
_chemical_formula_structural   Pr(WO3)2
_chemical_formula_sum   'Pr2 W4 O12'
_cell_volume   252.85100974
_cell_formula_units_Z   2
loop_
 _symmetry_equiv_pos_site_id
 _symmetry_equiv_pos_as_xyz
  1  'x, y, z'
loop_
 _atom_site_type_symbol
 _atom_site_label
 _atom_site_symmetry_multiplicity
 _atom_site_fract_x
 _atom_site_fract_y
 _atom_site_fract_z
 _atom_site_occupancy
  Pr  Pr0  1  0.00828547  0.94943909  0.74966601  1
  Pr  Pr1  1  0.51587522  0.55619479  0.24887038  1
  W  W2  1  0.00276013  0.49169203  0.99731487  1
  W  W3  1  0.00305653  0.49201384  0.49862140  1
  W  W4  1  0.50215987  0.00669115  0.50103607  1
  W  W5  1  0.49878934  0.00906934  0.00177005  1
  O  O6  1  0.09242724  0.48479580  0.24927983  1
  O  O7  1  0.20188421  0.20346005  0.95361919  1
  O  O8  1  0.20293527  0.20250731  0.54739838  1
  O  O9  1  0.28771101  0.73680981  0.53361676  1
  O  O10  1  0.26897388  0.71176329  0.96991184  1
  O  O11  1  0.44035848  0.97920745  0.25066379  1
  O  O12  1  0.58750934  0.01329671  0.74927274  1
  O  O13  1  0.71839288  0.30522835  0.04441680  1
  O  O14  1  0.69322462  0.28282360  0.45678167  1
  O  O15  1  0.77964341  0.77743814  0.03232633  1
  O  O16  1  0.77722990  0.77531757  0.46548254  1
  O  O17  1  0.93965319  0.52225267  0.74995234  1
