# generated using pymatgen
data_K2RuN3Cl3O5
_symmetry_space_group_name_H-M   'P 1'
_cell_length_a   7.19459810
_cell_length_b   7.68874873
_cell_length_c   10.46708336
_cell_angle_alpha   90.40703098
_cell_angle_beta   102.11787209
_cell_angle_gamma   90.53827488
_symmetry_Int_Tables_number   1
_chemical_formula_structural   K2RuN3Cl3O5
_chemical_formula_sum   'K4 Ru2 N6 Cl6 O10'
_cell_volume   566.06138920
_cell_formula_units_Z   2
loop_
 _symmetry_equiv_pos_site_id
 _symmetry_equiv_pos_as_xyz
  1  'x, y, z'
loop_
 _atom_site_type_symbol
 _atom_site_label
 _atom_site_symmetry_multiplicity
 _atom_site_fract_x
 _atom_site_fract_y
 _atom_site_fract_z
 _atom_site_occupancy
  K  K0  1  0.76953637  0.74837229  0.02200894  1
  K  K1  1  0.61855695  0.25440462  0.63644987  1
  K  K2  1  0.38144305  0.74559538  0.36355013  1
  K  K3  1  0.23046363  0.25162771  0.97799106  1
  Ru  Ru4  1  0.12900153  0.75407398  0.73895064  1
  Ru  Ru5  1  0.87099847  0.24592602  0.26104936  1
  N  N6  1  0.30835509  0.95253619  0.69731855  1
  N  N7  1  0.67613938  0.43356451  0.29467457  1
  N  N8  1  0.98607887  0.25496153  0.42622684  1
  N  N9  1  0.32386062  0.56643549  0.70532543  1
  N  N10  1  0.69164491  0.04746381  0.30268145  1
  N  N11  1  0.01392113  0.74503847  0.57377316  1
  Cl  Cl12  1  0.08799700  0.02796689  0.20719902  1
  Cl  Cl13  1  0.29136193  0.76855053  0.95726465  1
  Cl  Cl14  1  0.91200300  0.97203311  0.79280098  1
  Cl  Cl15  1  0.07089714  0.47660327  0.20000957  1
  Cl  Cl16  1  0.70863807  0.23144947  0.04273535  1
  Cl  Cl17  1  0.92910286  0.52339673  0.79999043  1
  O  O18  1  0.59822862  0.53270257  0.20664433  1
  O  O19  1  0.64264062  0.44678103  0.40737147  1
  O  O20  1  0.34740850  0.95568646  0.58598945  1
  O  O21  1  0.35735938  0.55321897  0.59262853  1
  O  O22  1  0.65259150  0.04431354  0.41401055  1
  O  O23  1  0.05492861  0.25956737  0.53763594  1
  O  O24  1  0.37252229  0.06742724  0.77945385  1
  O  O25  1  0.40177138  0.46729743  0.79335567  1
  O  O26  1  0.94507139  0.74043263  0.46236406  1
  O  O27  1  0.62747771  0.93257276  0.22054615  1
