# generated using pymatgen
data_Na3FeF6
_symmetry_space_group_name_H-M   'P 1'
_cell_length_a   5.57056557
_cell_length_b   5.81611545
_cell_length_c   8.07683925
_cell_angle_alpha   90.00000000
_cell_angle_beta   90.39809264
_cell_angle_gamma   90.00000000
_symmetry_Int_Tables_number   1
_chemical_formula_structural   Na3FeF6
_chemical_formula_sum   'Na6 Fe2 F12'
_cell_volume   261.67562231
_cell_formula_units_Z   2
loop_
 _symmetry_equiv_pos_site_id
 _symmetry_equiv_pos_as_xyz
  1  'x, y, z'
loop_
 _atom_site_type_symbol
 _atom_site_label
 _atom_site_symmetry_multiplicity
 _atom_site_fract_x
 _atom_site_fract_y
 _atom_site_fract_z
 _atom_site_occupancy
  Na  Na0  1  0.23330855  0.92964886  0.50566167  1
  Na  Na1  1  0.76669145  0.42964886  0.49433833  1
  Na  Na2  1  0.26705497  0.04591861  0.99369449  1
  Na  Na3  1  0.73294503  0.54591861  0.00630551  1
  Na  Na4  1  0.25016498  0.48794142  0.75027621  1
  Na  Na5  1  0.74983502  0.98794142  0.24972379  1
  Fe  Fe6  1  0.75053514  0.98777014  0.74981645  1
  Fe  Fe7  1  0.24946486  0.48777014  0.25018355  1
  F  F8  1  0.58336467  0.26777466  0.82337514  1
  F  F9  1  0.41663533  0.76777466  0.17662486  1
  F  F10  1  0.03809475  0.16482474  0.69690675  1
  F  F11  1  0.96190525  0.66482474  0.30309325  1
  F  F12  1  0.86998331  0.92865222  0.97592464  1
  F  F13  1  0.13001669  0.42865222  0.02407536  1
  F  F14  1  0.91815233  0.70825718  0.67596627  1
  F  F15  1  0.08184767  0.20825718  0.32403373  1
  F  F16  1  0.36943196  0.54662719  0.47617903  1
  F  F17  1  0.63056804  0.04662719  0.52382097  1
  F  F18  1  0.53674701  0.31058597  0.19674025  1
  F  F19  1  0.46325299  0.81058597  0.80325975  1
