# generated using pymatgen
data_K4U(PO5)2
_symmetry_space_group_name_H-M   'P 1'
_cell_length_a   6.95722429
_cell_length_b   6.95722429
_cell_length_c   12.08247108
_cell_angle_alpha   90.00000000
_cell_angle_beta   90.00000000
_cell_angle_gamma   90.00000000
_symmetry_Int_Tables_number   1
_chemical_formula_structural   K4U(PO5)2
_chemical_formula_sum   'K8 U2 P4 O20'
_cell_volume   584.82748305
_cell_formula_units_Z   2
loop_
 _symmetry_equiv_pos_site_id
 _symmetry_equiv_pos_as_xyz
  1  'x, y, z'
loop_
 _atom_site_type_symbol
 _atom_site_label
 _atom_site_symmetry_multiplicity
 _atom_site_fract_x
 _atom_site_fract_y
 _atom_site_fract_z
 _atom_site_occupancy
  K  K0  1  0.75000000  0.50120100  0.92109312  1
  K  K1  1  0.25000000  0.49879900  0.07890688  1
  K  K2  1  0.75000000  0.99879900  0.92109312  1
  K  K3  1  0.00120100  0.25000000  0.57890688  1
  K  K4  1  0.25000000  0.00120100  0.07890688  1
  K  K5  1  0.49879900  0.25000000  0.57890688  1
  K  K6  1  0.99879900  0.75000000  0.42109312  1
  K  K7  1  0.50120100  0.75000000  0.42109312  1
  U  U8  1  0.75000000  0.25000000  0.25000000  1
  U  U9  1  0.25000000  0.75000000  0.75000000  1
  P  P10  1  0.75000000  0.75000000  0.66707172  1
  P  P11  1  0.25000000  0.25000000  0.83292828  1
  P  P12  1  0.25000000  0.25000000  0.33292828  1
  P  P13  1  0.75000000  0.75000000  0.16707172  1
  O  O14  1  0.56645042  0.75000000  0.09685579  1
  O  O15  1  0.75000000  0.57438171  0.25142598  1
  O  O16  1  0.92561829  0.75000000  0.75142598  1
  O  O17  1  0.75000000  0.92561829  0.25142598  1
  O  O18  1  0.43354958  0.25000000  0.90314421  1
  O  O19  1  0.75000000  0.25000000  0.40323062  1
  O  O20  1  0.25000000  0.07438171  0.74857402  1
  O  O21  1  0.25000000  0.75000000  0.59676938  1
  O  O22  1  0.57438171  0.75000000  0.75142598  1
  O  O23  1  0.25000000  0.43354958  0.40314421  1
  O  O24  1  0.93354958  0.75000000  0.09685579  1
  O  O25  1  0.42561829  0.25000000  0.24857402  1
  O  O26  1  0.25000000  0.42561829  0.74857402  1
  O  O27  1  0.07438171  0.25000000  0.24857402  1
  O  O28  1  0.25000000  0.06645042  0.40314421  1
  O  O29  1  0.06645042  0.25000000  0.90314421  1
  O  O30  1  0.25000000  0.75000000  0.90323062  1
  O  O31  1  0.75000000  0.25000000  0.09676938  1
  O  O32  1  0.75000000  0.56645042  0.59685579  1
  O  O33  1  0.75000000  0.93354958  0.59685579  1
