# generated using pymatgen
data_SbPOF8
_symmetry_space_group_name_H-M   'P 1'
_cell_length_a   5.60352041
_cell_length_b   7.71056634
_cell_length_c   17.51324204
_cell_angle_alpha   90.00000000
_cell_angle_beta   90.00000000
_cell_angle_gamma   99.55914226
_symmetry_Int_Tables_number   1
_chemical_formula_structural   SbPOF8
_chemical_formula_sum   'Sb4 P4 O4 F32'
_cell_volume   746.17590837
_cell_formula_units_Z   4
loop_
 _symmetry_equiv_pos_site_id
 _symmetry_equiv_pos_as_xyz
  1  'x, y, z'
loop_
 _atom_site_type_symbol
 _atom_site_label
 _atom_site_symmetry_multiplicity
 _atom_site_fract_x
 _atom_site_fract_y
 _atom_site_fract_z
 _atom_site_occupancy
  Sb  Sb0  1  0.96631089  0.73883154  0.12230638  1
  Sb  Sb1  1  0.03368911  0.26116846  0.87769362  1
  Sb  Sb2  1  0.96631089  0.23883154  0.37769362  1
  Sb  Sb3  1  0.03368911  0.76116846  0.62230638  1
  P  P4  1  0.37465378  0.14442882  0.13071027  1
  P  P5  1  0.37465378  0.64442882  0.36928973  1
  P  P6  1  0.62534622  0.35557118  0.63071027  1
  P  P7  1  0.62534622  0.85557118  0.86928973  1
  O  O8  1  0.82660836  0.00430992  0.87293427  1
  O  O9  1  0.17339164  0.49569008  0.37293427  1
  O  O10  1  0.82660836  0.50430992  0.62706573  1
  O  O11  1  0.17339164  0.99569008  0.12706573  1
  F  F12  1  0.24633254  0.16834042  0.42016780  1
  F  F13  1  0.71515772  0.84871546  0.16368137  1
  F  F14  1  0.21981180  0.99043232  0.62087843  1
  F  F15  1  0.12826625  0.69909052  0.52282272  1
  F  F16  1  0.91644481  0.28922623  0.77697942  1
  F  F17  1  0.78018820  0.50956768  0.12087843  1
  F  F18  1  0.47458860  0.34719525  0.70346938  1
  F  F19  1  0.08355519  0.21077377  0.27697942  1
  F  F20  1  0.75366746  0.33165958  0.92016780  1
  F  F21  1  0.52541140  0.15280475  0.20346938  1
  F  F22  1  0.44053809  0.85178090  0.93356033  1
  F  F23  1  0.55946191  0.14821910  0.06643967  1
  F  F24  1  0.91644481  0.78922623  0.72302058  1
  F  F25  1  0.08355519  0.71077377  0.22302058  1
  F  F26  1  0.87173375  0.30090948  0.47717728  1
  F  F27  1  0.55946191  0.64821910  0.43356033  1
  F  F28  1  0.52541140  0.65280475  0.29653062  1
  F  F29  1  0.78018820  0.00956768  0.37912157  1
  F  F30  1  0.44053809  0.35178090  0.56643967  1
  F  F31  1  0.24633254  0.66834042  0.07983220  1
  F  F32  1  0.71075888  0.67848533  0.87308667  1
  F  F33  1  0.28484228  0.65128454  0.66368137  1
  F  F34  1  0.21981180  0.49043232  0.87912157  1
  F  F35  1  0.47458860  0.84719525  0.79653062  1
  F  F36  1  0.28924112  0.32151467  0.12691333  1
  F  F37  1  0.75366746  0.83165958  0.57983220  1
  F  F38  1  0.87173375  0.80090948  0.02282272  1
  F  F39  1  0.28924112  0.82151467  0.37308667  1
  F  F40  1  0.71515772  0.34871546  0.33631863  1
  F  F41  1  0.28484228  0.15128454  0.83631863  1
  F  F42  1  0.71075888  0.17848533  0.62691333  1
  F  F43  1  0.12826625  0.19909052  0.97717728  1
