# generated using pymatgen
data_EuSi2(NO)2
_symmetry_space_group_name_H-M   'P 1'
_cell_length_a   7.13279919
_cell_length_b   7.31752867
_cell_length_c   7.33304176
_cell_angle_alpha   88.77459686
_cell_angle_beta   84.75340946
_cell_angle_gamma   76.03203613
_symmetry_Int_Tables_number   1
_chemical_formula_structural   EuSi2(NO)2
_chemical_formula_sum   'Eu4 Si8 N8 O8'
_cell_volume   369.87051686
_cell_formula_units_Z   4
loop_
 _symmetry_equiv_pos_site_id
 _symmetry_equiv_pos_as_xyz
  1  'x, y, z'
loop_
 _atom_site_type_symbol
 _atom_site_label
 _atom_site_symmetry_multiplicity
 _atom_site_fract_x
 _atom_site_fract_y
 _atom_site_fract_z
 _atom_site_occupancy
  Eu  Eu0  1  0.15059092  0.10922498  0.55763425  1
  Eu  Eu1  1  0.16081183  0.12021357  0.06586806  1
  Eu  Eu2  1  0.63882886  0.22904815  0.31677171  1
  Eu  Eu3  1  0.62628845  0.21824213  0.81013298  1
  Si  Si4  1  0.06079105  0.77022029  0.83333697  1
  Si  Si5  1  0.85684193  0.56725765  0.58246330  1
  Si  Si6  1  0.77363031  0.57087661  0.99414142  1
  Si  Si7  1  0.97649666  0.76721247  0.24785576  1
  Si  Si8  1  0.36518687  0.56541611  0.08290965  1
  Si  Si9  1  0.47097299  0.77563379  0.74141385  1
  Si  Si10  1  0.55819246  0.77636703  0.33224086  1
  Si  Si11  1  0.27606787  0.56129555  0.49526326  1
  N  N12  1  0.42511154  0.60834626  0.30254199  1
  N  N13  1  0.04306775  0.60363038  0.42336963  1
  N  N14  1  0.54038108  0.61704733  0.91941314  1
  N  N15  1  0.14462071  0.72022158  0.05247219  1
  N  N16  1  0.26136442  0.72656248  0.66853423  1
  N  N17  1  0.76368950  0.72872632  0.17440864  1
  N  N18  1  0.91791325  0.61563933  0.80083443  1
  N  N19  1  0.64160430  0.73415922  0.55110292  1
  O  O20  1  0.40994151  0.99550823  0.80604593  1
  O  O21  1  0.37723043  0.34052270  0.07126765  1
  O  O22  1  0.82870120  0.35041504  0.05693818  1
  O  O23  1  0.36195423  0.34617908  0.56296661  1
  O  O24  1  0.42635306  0.99026939  0.31524919  1
  O  O25  1  0.95871129  0.99493876  0.82560990  1
  O  O26  1  0.82944566  0.35218116  0.56857447  1
  O  O27  1  0.95733985  0.98410441  0.31384882  1
