# generated using pymatgen
data_Sm3Si2S8I
_symmetry_space_group_name_H-M   'P 1'
_cell_length_a   7.78922050
_cell_length_b   8.85329525
_cell_length_c   10.80343698
_cell_angle_alpha   97.54185145
_cell_angle_beta   90.00000000
_cell_angle_gamma   116.09783005
_symmetry_Int_Tables_number   1
_chemical_formula_structural   Sm3Si2S8I
_chemical_formula_sum   'Sm6 Si4 S16 I2'
_cell_volume   661.86597233
_cell_formula_units_Z   2
loop_
 _symmetry_equiv_pos_site_id
 _symmetry_equiv_pos_as_xyz
  1  'x, y, z'
loop_
 _atom_site_type_symbol
 _atom_site_label
 _atom_site_symmetry_multiplicity
 _atom_site_fract_x
 _atom_site_fract_y
 _atom_site_fract_z
 _atom_site_occupancy
  Sm  Sm0  1  0.67596550  0.60000304  0.81859980  1
  Sm  Sm1  1  0.32403450  0.39999696  0.18140020  1
  Sm  Sm2  1  0.92403754  0.60000304  0.31859980  1
  Sm  Sm3  1  0.39673981  0.00000000  0.75000000  1
  Sm  Sm4  1  0.07596246  0.39999696  0.68140020  1
  Sm  Sm5  1  0.60326019  0.00000000  0.25000000  1
  Si  Si6  1  0.62177983  0.31835836  0.52771377  1
  Si  Si7  1  0.30342147  0.68164164  0.97228623  1
  Si  Si8  1  0.69657853  0.31835836  0.02771377  1
  Si  Si9  1  0.37822017  0.68164164  0.47228623  1
  S  S10  1  0.89219544  0.28829722  0.14697868  1
  S  S11  1  0.74680823  0.29730784  0.83433235  1
  S  S12  1  0.71356604  0.56483324  0.08620847  1
  S  S13  1  0.44950038  0.70269216  0.66566765  1
  S  S14  1  0.10780456  0.71170278  0.85302132  1
  S  S15  1  0.28643396  0.43516676  0.91379153  1
  S  S16  1  0.39610178  0.28829722  0.64697868  1
  S  S17  1  0.25319177  0.70269216  0.16566765  1
  S  S18  1  0.14873280  0.43516676  0.41379153  1
  S  S19  1  0.85126720  0.56483324  0.58620847  1
  S  S20  1  0.72565573  0.13566573  0.53997297  1
  S  S21  1  0.27434427  0.86433427  0.46002703  1
  S  S22  1  0.55049962  0.29730784  0.33433235  1
  S  S23  1  0.60389822  0.71170278  0.35302132  1
  S  S24  1  0.58999000  0.86433427  0.96002703  1
  S  S25  1  0.41001000  0.13566573  0.03997297  1
  I  I26  1  0.98486214  0.00000000  0.75000000  1
  I  I27  1  0.01513786  0.00000000  0.25000000  1
