# generated using pymatgen
data_YMn2O4
_symmetry_space_group_name_H-M   'P 1'
_cell_length_a   6.29432533
_cell_length_b   6.29432571
_cell_length_c   6.50846035
_cell_angle_alpha   117.22866741
_cell_angle_beta   119.48852074
_cell_angle_gamma   91.02540988
_symmetry_Int_Tables_number   1
_chemical_formula_structural   YMn2O4
_chemical_formula_sum   'Y2 Mn4 O8'
_cell_volume   189.47808843
_cell_formula_units_Z   2
loop_
 _symmetry_equiv_pos_site_id
 _symmetry_equiv_pos_as_xyz
  1  'x, y, z'
loop_
 _atom_site_type_symbol
 _atom_site_label
 _atom_site_symmetry_multiplicity
 _atom_site_fract_x
 _atom_site_fract_y
 _atom_site_fract_z
 _atom_site_occupancy
  Y  Y0  1  0.00000000  0.50000100  0.00000100  1
  Y  Y1  1  0.00000100  -0.00000000  0.50000000  1
  Mn  Mn2  1  0.38506978  0.63506978  0.75000000  1
  Mn  Mn3  1  0.61493022  0.36493122  0.25000000  1
  Mn  Mn4  1  0.50000100  -0.00000000  0.50000000  1
  Mn  Mn5  1  0.00000000  -0.00000000  -0.00000000  1
  O  O6  1  0.71086807  0.76762711  0.48584088  1
  O  O7  1  0.78178623  0.22502919  0.01416112  1
  O  O8  1  0.21111739  0.21525418  0.97558985  1
  O  O9  1  0.28913193  0.23237389  0.51416012  1
  O  O10  1  0.26033667  0.76447246  0.47558885  1
  O  O11  1  0.21821377  0.77497181  0.98584088  1
  O  O12  1  0.73966233  0.23552654  0.52441015  1
  O  O13  1  0.78888261  0.78474682  0.02441015  1
