# generated using pymatgen
data_Cs2Al2P2O9
_symmetry_space_group_name_H-M   'P 1'
_cell_length_a   4.98809882
_cell_length_b   7.21972836
_cell_length_c   8.24040227
_cell_angle_alpha   96.76844982
_cell_angle_beta   106.95812037
_cell_angle_gamma   108.59890369
_symmetry_Int_Tables_number   1
_chemical_formula_structural   Cs2Al2P2O9
_chemical_formula_sum   'Cs2 Al2 P2 O9'
_cell_volume   261.65110631
_cell_formula_units_Z   1
loop_
 _symmetry_equiv_pos_site_id
 _symmetry_equiv_pos_as_xyz
  1  'x, y, z'
loop_
 _atom_site_type_symbol
 _atom_site_label
 _atom_site_symmetry_multiplicity
 _atom_site_fract_x
 _atom_site_fract_y
 _atom_site_fract_z
 _atom_site_occupancy
  Cs  Cs0  1  0.77173109  0.20451998  0.35051041  1
  Cs  Cs1  1  0.22826891  0.79548002  0.64948959  1
  Al  Al2  1  0.14810217  0.23490020  0.96717327  1
  Al  Al3  1  0.85189783  0.76509980  0.03282673  1
  P  P4  1  0.61130967  0.35011684  0.77438505  1
  P  P5  1  0.38869033  0.64988316  0.22561495  1
  O  O6  1  0.09740129  0.70022794  0.19993310  1
  O  O7  1  0.59982285  0.73231385  0.41185392  1
  O  O8  1  0.47043049  0.25712639  0.90738256  1
  O  O9  1  0.71886553  0.58472599  0.83121308  1
  O  O10  1  0.90259871  0.29977206  0.80006690  1
  O  O11  1  0.28113447  0.41527401  0.16878692  1
  O  O12  1  0.40017715  0.26768615  0.58814608  1
  O  O13  1  0.00000000  0.00000000  0.00000000  1
  O  O14  1  0.52956951  0.74287361  0.09261744  1
