# generated using pymatgen
data_Rb2Zr(IO3)6
_symmetry_space_group_name_H-M   'P 1'
_cell_length_a   7.90722143
_cell_length_b   7.90722151
_cell_length_c   7.90722216
_cell_angle_alpha   97.30923386
_cell_angle_beta   97.30923388
_cell_angle_gamma   97.30923952
_symmetry_Int_Tables_number   1
_chemical_formula_structural   Rb2Zr(IO3)6
_chemical_formula_sum   'Rb2 Zr1 I6 O18'
_cell_volume   481.19471165
_cell_formula_units_Z   1
loop_
 _symmetry_equiv_pos_site_id
 _symmetry_equiv_pos_as_xyz
  1  'x, y, z'
loop_
 _atom_site_type_symbol
 _atom_site_label
 _atom_site_symmetry_multiplicity
 _atom_site_fract_x
 _atom_site_fract_y
 _atom_site_fract_z
 _atom_site_occupancy
  Rb  Rb0  1  0.83202198  0.83202198  0.83202198  1
  Rb  Rb1  1  0.16797802  0.16797802  0.16797802  1
  Zr  Zr2  1  0.50000000  0.50000000  0.50000000  1
  I  I3  1  0.88139935  0.29553573  0.66542603  1
  I  I4  1  0.33457397  0.11860065  0.70446427  1
  I  I5  1  0.66542603  0.88139935  0.29553573  1
  I  I6  1  0.29553573  0.66542603  0.88139935  1
  I  I7  1  0.11860065  0.70446427  0.33457397  1
  I  I8  1  0.70446427  0.33457397  0.11860065  1
  O  O9  1  0.39283898  0.27858475  0.89826897  1
  O  O10  1  0.89826897  0.39283898  0.27858475  1
  O  O11  1  0.72141525  0.10173103  0.60716102  1
  O  O12  1  0.68997922  0.10081181  0.08262792  1
  O  O13  1  0.34537632  0.27820210  0.54693014  1
  O  O14  1  0.08262792  0.68997922  0.10081181  1
  O  O15  1  0.27858475  0.89826897  0.39283898  1
  O  O16  1  0.91737208  0.31002078  0.89918819  1
  O  O17  1  0.65462368  0.72179790  0.45306986  1
  O  O18  1  0.54693014  0.34537632  0.27820210  1
  O  O19  1  0.60716102  0.72141525  0.10173103  1
  O  O20  1  0.45306986  0.65462368  0.72179790  1
  O  O21  1  0.10173103  0.60716102  0.72141525  1
  O  O22  1  0.10081181  0.08262792  0.68997922  1
  O  O23  1  0.89918819  0.91737208  0.31002078  1
  O  O24  1  0.27820210  0.54693014  0.34537632  1
  O  O25  1  0.31002078  0.89918819  0.91737208  1
  O  O26  1  0.72179790  0.45306986  0.65462368  1
