# generated using pymatgen
data_Bi3Pt3O11
_symmetry_space_group_name_H-M   'P 1'
_cell_length_a   9.52071152
_cell_length_b   9.52071152
_cell_length_c   9.52071152
_cell_angle_alpha   90.00000000
_cell_angle_beta   90.00000000
_cell_angle_gamma   90.00000000
_symmetry_Int_Tables_number   1
_chemical_formula_structural   Bi3Pt3O11
_chemical_formula_sum   'Bi12 Pt12 O44'
_cell_volume   862.99487849
_cell_formula_units_Z   4
loop_
 _symmetry_equiv_pos_site_id
 _symmetry_equiv_pos_as_xyz
  1  'x, y, z'
loop_
 _atom_site_type_symbol
 _atom_site_label
 _atom_site_symmetry_multiplicity
 _atom_site_fract_x
 _atom_site_fract_y
 _atom_site_fract_z
 _atom_site_occupancy
  Bi  Bi0  1  0.11763374  0.38236626  0.11763374  1
  Bi  Bi1  1  0.38236626  0.38236626  0.38236626  1
  Bi  Bi2  1  0.61763374  0.88236626  0.88236626  1
  Bi  Bi3  1  0.88236626  0.61763374  0.88236626  1
  Bi  Bi4  1  0.11763374  0.11763374  0.38236626  1
  Bi  Bi5  1  0.38236626  0.11763374  0.11763374  1
  Bi  Bi6  1  0.50000000  0.00000000  0.50000000  1
  Bi  Bi7  1  0.88236626  0.88236626  0.61763374  1
  Bi  Bi8  1  0.00000000  0.00000000  0.00000000  1
  Bi  Bi9  1  0.50000000  0.50000000  0.00000000  1
  Bi  Bi10  1  0.00000000  0.50000000  0.50000000  1
  Bi  Bi11  1  0.61763374  0.61763374  0.61763374  1
  Pt  Pt12  1  0.75000000  0.40783067  0.25000000  1
  Pt  Pt13  1  0.25000000  0.75000000  0.09216933  1
  Pt  Pt14  1  0.75000000  0.25000000  0.90783067  1
  Pt  Pt15  1  0.75000000  0.25000000  0.59216933  1
  Pt  Pt16  1  0.40783067  0.25000000  0.75000000  1
  Pt  Pt17  1  0.90783067  0.75000000  0.25000000  1
  Pt  Pt18  1  0.25000000  0.75000000  0.40783067  1
  Pt  Pt19  1  0.09216933  0.25000000  0.75000000  1
  Pt  Pt20  1  0.25000000  0.59216933  0.75000000  1
  Pt  Pt21  1  0.59216933  0.75000000  0.25000000  1
  Pt  Pt22  1  0.25000000  0.90783067  0.75000000  1
  Pt  Pt23  1  0.75000000  0.09216933  0.25000000  1
  O  O24  1  0.14705862  0.35294138  0.35294138  1
  O  O25  1  0.75000000  0.10528319  0.75000000  1
  O  O26  1  0.08138471  0.46167706  0.74467454  1
  O  O27  1  0.85294138  0.85294138  0.85294138  1
  O  O28  1  0.58138471  0.96167706  0.25532546  1
  O  O29  1  0.25000000  0.25000000  0.89471681  1
  O  O30  1  0.14705862  0.14705862  0.14705862  1
  O  O31  1  0.08138471  0.03832294  0.75532546  1
  O  O32  1  0.96167706  0.25532546  0.58138471  1
  O  O33  1  0.64705862  0.64705862  0.85294138  1
  O  O34  1  0.41861529  0.03832294  0.74467454  1
  O  O35  1  0.41861529  0.46167706  0.75532546  1
  O  O36  1  0.85294138  0.64705862  0.64705862  1
  O  O37  1  0.75532546  0.41861529  0.46167706  1
  O  O38  1  0.91861529  0.96167706  0.24467454  1
  O  O39  1  0.53832294  0.24467454  0.58138471  1
  O  O40  1  0.74467454  0.41861529  0.03832294  1
  O  O41  1  0.64705862  0.85294138  0.64705862  1
  O  O42  1  0.10528319  0.75000000  0.75000000  1
  O  O43  1  0.46167706  0.75532546  0.41861529  1
  O  O44  1  0.96167706  0.24467454  0.91861529  1
  O  O45  1  0.25532546  0.91861529  0.53832294  1
  O  O46  1  0.24467454  0.58138471  0.53832294  1
  O  O47  1  0.53832294  0.25532546  0.91861529  1
  O  O48  1  0.03832294  0.74467454  0.41861529  1
  O  O49  1  0.58138471  0.53832294  0.24467454  1
  O  O50  1  0.75532546  0.08138471  0.03832294  1
  O  O51  1  0.03832294  0.75532546  0.08138471  1
  O  O52  1  0.60528319  0.25000000  0.25000000  1
  O  O53  1  0.75000000  0.39471681  0.75000000  1
  O  O54  1  0.35294138  0.14705862  0.35294138  1
  O  O55  1  0.25000000  0.89471681  0.25000000  1
  O  O56  1  0.74467454  0.08138471  0.46167706  1
  O  O57  1  0.46167706  0.74467454  0.08138471  1
  O  O58  1  0.35294138  0.35294138  0.14705862  1
  O  O59  1  0.91861529  0.53832294  0.25532546  1
  O  O60  1  0.75000000  0.75000000  0.10528319  1
  O  O61  1  0.25000000  0.25000000  0.60528319  1
  O  O62  1  0.24467454  0.91861529  0.96167706  1
  O  O63  1  0.39471681  0.75000000  0.75000000  1
  O  O64  1  0.89471681  0.25000000  0.25000000  1
  O  O65  1  0.25532546  0.58138471  0.96167706  1
  O  O66  1  0.75000000  0.75000000  0.39471681  1
  O  O67  1  0.25000000  0.60528319  0.25000000  1
