# generated using pymatgen
data_K6Nb4S25
_symmetry_space_group_name_H-M   'P 1'
_cell_length_a   13.41419593
_cell_length_b   16.10554143
_cell_length_c   18.65549942
_cell_angle_alpha   104.72585904
_cell_angle_beta   90.00000000
_cell_angle_gamma   90.00000000
_symmetry_Int_Tables_number   1
_chemical_formula_structural   K6Nb4S25
_chemical_formula_sum   'K24 Nb16 S100'
_cell_volume   3898.00233451
_cell_formula_units_Z   4
loop_
 _symmetry_equiv_pos_site_id
 _symmetry_equiv_pos_as_xyz
  1  'x, y, z'
loop_
 _atom_site_type_symbol
 _atom_site_label
 _atom_site_symmetry_multiplicity
 _atom_site_fract_x
 _atom_site_fract_y
 _atom_site_fract_z
 _atom_site_occupancy
  K  K0  1  0.01763318  0.38368851  0.26653681  1
  K  K1  1  0.50811077  0.60487699  0.20792565  1
  K  K2  1  0.19503602  0.45693869  0.93562665  1
  K  K3  1  0.63538475  0.18511488  0.91074500  1
  K  K4  1  0.19102781  0.96058923  0.92152362  1
  K  K5  1  0.12164256  0.77472314  0.58732773  1
  K  K6  1  0.80897219  0.03941077  0.07847638  1
  K  K7  1  0.87835744  0.22527686  0.41267227  1
  K  K8  1  0.00811077  0.89512301  0.29207435  1
  K  K9  1  0.36461525  0.81488512  0.08925500  1
  K  K10  1  0.30897219  0.46058923  0.42152362  1
  K  K11  1  0.86461525  0.68511488  0.41074500  1
  K  K12  1  0.69102781  0.53941077  0.57847638  1
  K  K13  1  0.80496398  0.54306131  0.06437335  1
  K  K14  1  0.69503602  0.04306131  0.56437335  1
  K  K15  1  0.62164256  0.72527686  0.91267227  1
  K  K16  1  0.30496398  0.95693869  0.43562665  1
  K  K17  1  0.51763318  0.11631149  0.23346319  1
  K  K18  1  0.48236682  0.88368851  0.76653681  1
  K  K19  1  0.98236682  0.61631149  0.73346319  1
  K  K20  1  0.13538475  0.31488512  0.58925500  1
  K  K21  1  0.37835744  0.27472314  0.08732773  1
  K  K22  1  0.49188923  0.39512301  0.79207435  1
  K  K23  1  0.99188923  0.10487699  0.70792565  1
  Nb  Nb24  1  0.20426182  0.55481920  0.16624190  1
  Nb  Nb25  1  0.70426182  0.94518080  0.33375810  1
  Nb  Nb26  1  0.22132401  0.07308892  0.17559959  1
  Nb  Nb27  1  0.82865037  0.30809609  0.64573562  1
  Nb  Nb28  1  0.72132401  0.42691108  0.32440041  1
  Nb  Nb29  1  0.32865037  0.19190391  0.85426438  1
  Nb  Nb30  1  0.27867599  0.57308892  0.67559959  1
  Nb  Nb31  1  0.17134963  0.69190391  0.35426438  1
  Nb  Nb32  1  0.79573818  0.44518080  0.83375810  1
  Nb  Nb33  1  0.81530802  0.80200618  0.63436952  1
  Nb  Nb34  1  0.77867599  0.92691108  0.82440041  1
  Nb  Nb35  1  0.18469198  0.19799382  0.36563048  1
  Nb  Nb36  1  0.31530802  0.69799382  0.86563048  1
  Nb  Nb37  1  0.29573818  0.05481920  0.66624190  1
  Nb  Nb38  1  0.67134963  0.80809609  0.14573562  1
  Nb  Nb39  1  0.68469198  0.30200618  0.13436952  1
  S  S40  1  0.58769453  0.69076480  0.08353185  1
  S  S41  1  0.24453448  0.22748098  0.24313621  1
  S  S42  1  0.82124355  0.94025997  0.41791305  1
  S  S43  1  0.59327531  0.24858299  0.53003730  1
  S  S44  1  0.19898937  0.71884096  0.22834701  1
  S  S45  1  0.92901723  0.53760977  0.90152947  1
  S  S46  1  0.19813568  0.54782394  0.78709112  1
  S  S47  1  0.42901723  0.96239023  0.59847053  1
  S  S48  1  0.86437422  0.27383295  0.11567674  1
  S  S49  1  0.36437422  0.22616705  0.38432326  1
  S  S50  1  0.63562578  0.77383295  0.61567674  1
  S  S51  1  0.77648591  0.05672861  0.77752545  1
  S  S52  1  0.24788868  0.43617761  0.22251269  1
  S  S53  1  0.01572666  0.80469306  0.10515328  1
  S  S54  1  0.04503429  0.59142123  0.28790351  1
  S  S55  1  0.45288958  0.09363059  0.61556438  1
  S  S56  1  0.65491037  0.94416225  0.90678138  1
  S  S57  1  0.75211132  0.56382239  0.77748731  1
  S  S58  1  0.05251336  0.11809785  0.28516034  1
  S  S59  1  0.04711042  0.59363059  0.11556438  1
  S  S60  1  0.30597959  0.55557516  0.27690805  1
  S  S61  1  0.21694413  0.17226114  0.95839656  1
  S  S62  1  0.78305587  0.82773886  0.04160344  1
  S  S63  1  0.95496571  0.40857877  0.71209649  1
  S  S64  1  0.25546552  0.72748098  0.74313621  1
  S  S65  1  0.38787231  0.37608654  0.55872887  1
  S  S66  1  0.58874771  0.92875783  0.10985109  1
  S  S67  1  0.30186432  0.04782394  0.28709112  1
  S  S68  1  0.80597959  0.94442484  0.22309195  1
  S  S69  1  0.41125229  0.07124217  0.89014891  1
  S  S70  1  0.18252570  0.25137258  0.80267710  1
  S  S71  1  0.41230547  0.30923520  0.91646815  1
  S  S72  1  0.98427334  0.19530694  0.89484672  1
  S  S73  1  0.25211132  0.93617761  0.72251269  1
  S  S74  1  0.19402041  0.05557516  0.77690805  1
  S  S75  1  0.42959440  0.58740347  0.88695325  1
  S  S76  1  0.92959440  0.91259653  0.61304675  1
  S  S77  1  0.44748664  0.61809785  0.78516034  1
  S  S78  1  0.92207523  0.99408254  0.90753870  1
  S  S79  1  0.36689723  0.70585461  0.66311686  1
  S  S80  1  0.55251336  0.38190215  0.21483966  1
  S  S81  1  0.79651233  0.32401913  0.03585527  1
  S  S82  1  0.88787231  0.12391346  0.94127113  1
  S  S83  1  0.63310277  0.29414539  0.33688314  1
  S  S84  1  0.69813568  0.95217606  0.71290888  1
  S  S85  1  0.90672469  0.74858299  0.03003730  1
  S  S86  1  0.07098277  0.46239023  0.09847053  1
  S  S87  1  0.57792477  0.49408254  0.40753870  1
  S  S88  1  0.61055020  0.17461023  0.08416520  1
  S  S89  1  0.75546552  0.77251902  0.75686379  1
  S  S90  1  0.71694413  0.32773886  0.54160344  1
  S  S91  1  0.15491037  0.55583775  0.59321862  1
  S  S92  1  0.28305587  0.67226114  0.45839656  1
  S  S93  1  0.61212769  0.62391346  0.44127113  1
  S  S94  1  0.11055020  0.32538977  0.41583480  1
  S  S95  1  0.84508963  0.44416225  0.40678138  1
  S  S96  1  0.13310277  0.20585461  0.16311686  1
  S  S97  1  0.38944980  0.82538977  0.91583480  1
  S  S98  1  0.11212769  0.87608654  0.05872887  1
  S  S99  1  0.67875645  0.44025997  0.91791305  1
  S  S100  1  0.74453448  0.27251902  0.25686379  1
  S  S101  1  0.95288958  0.40636941  0.88443562  1
  S  S102  1  0.48427334  0.30469306  0.60515328  1
  S  S103  1  0.70348767  0.82401913  0.53585527  1
  S  S104  1  0.91125229  0.42875783  0.60985109  1
  S  S105  1  0.40672469  0.75141701  0.46996270  1
  S  S106  1  0.22351409  0.94327139  0.22247455  1
  S  S107  1  0.54503429  0.90857877  0.21209649  1
  S  S108  1  0.20348767  0.67598087  0.96414473  1
  S  S109  1  0.57098277  0.03760977  0.40152947  1
  S  S110  1  0.68252570  0.24862742  0.69732290  1
  S  S111  1  0.81747430  0.74862742  0.19732290  1
  S  S112  1  0.34508963  0.05583775  0.09321862  1
  S  S113  1  0.86689723  0.79414539  0.83688314  1
  S  S114  1  0.80186432  0.45217606  0.21290888  1
  S  S115  1  0.57040560  0.41259653  0.11304675  1
  S  S116  1  0.51572666  0.69530694  0.39484672  1
  S  S117  1  0.08874771  0.57124217  0.39014891  1
  S  S118  1  0.17875645  0.05974003  0.58208695  1
  S  S119  1  0.31747430  0.75137258  0.30267710  1
  S  S120  1  0.94748664  0.88190215  0.71483966  1
  S  S121  1  0.42207523  0.50591746  0.59246130  1
  S  S122  1  0.07792477  0.00591746  0.09246130  1
  S  S123  1  0.69402041  0.44442484  0.72309195  1
  S  S124  1  0.27648591  0.44327139  0.72247455  1
  S  S125  1  0.08769453  0.80923520  0.41646815  1
  S  S126  1  0.88944980  0.67461023  0.58416520  1
  S  S127  1  0.69898937  0.78115904  0.27165299  1
  S  S128  1  0.30101063  0.21884096  0.72834701  1
  S  S129  1  0.91230547  0.19076480  0.58353185  1
  S  S130  1  0.29651233  0.17598087  0.46414473  1
  S  S131  1  0.32124355  0.55974003  0.08208695  1
  S  S132  1  0.72351409  0.55672861  0.27752545  1
  S  S133  1  0.09327531  0.25141701  0.96996270  1
  S  S134  1  0.45496571  0.09142123  0.78790351  1
  S  S135  1  0.54711042  0.90636941  0.38443562  1
  S  S136  1  0.13562578  0.72616705  0.88432326  1
  S  S137  1  0.74788868  0.06382239  0.27748731  1
  S  S138  1  0.80101063  0.28115904  0.77165299  1
  S  S139  1  0.07040560  0.08740347  0.38695325  1
