# generated using pymatgen
data_Ge(PbS2)2
_symmetry_space_group_name_H-M   'P 1'
_cell_length_a   8.18382378
_cell_length_b   9.40717960
_cell_length_c   10.63884437
_cell_angle_alpha   90.00000000
_cell_angle_beta   110.39547068
_cell_angle_gamma   90.00000000
_symmetry_Int_Tables_number   1
_chemical_formula_structural   Ge(PbS2)2
_chemical_formula_sum   'Ge4 Pb8 S16'
_cell_volume   767.70293110
_cell_formula_units_Z   4
loop_
 _symmetry_equiv_pos_site_id
 _symmetry_equiv_pos_as_xyz
  1  'x, y, z'
loop_
 _atom_site_type_symbol
 _atom_site_label
 _atom_site_symmetry_multiplicity
 _atom_site_fract_x
 _atom_site_fract_y
 _atom_site_fract_z
 _atom_site_occupancy
  Ge  Ge0  1  0.70957817  0.80854317  0.99324599  1
  Ge  Ge1  1  0.79042183  0.30854317  0.50675401  1
  Ge  Ge2  1  0.29042183  0.19145683  0.00675401  1
  Ge  Ge3  1  0.20957817  0.69145683  0.49324599  1
  Pb  Pb4  1  0.25549774  0.54597110  0.84806516  1
  Pb  Pb5  1  0.30406390  0.32444967  0.33749286  1
  Pb  Pb6  1  0.19593610  0.82444967  0.16250714  1
  Pb  Pb7  1  0.69593610  0.67555033  0.66250714  1
  Pb  Pb8  1  0.74450226  0.45402890  0.15193484  1
  Pb  Pb9  1  0.75549774  0.95402890  0.34806516  1
  Pb  Pb10  1  0.24450226  0.04597110  0.65193484  1
  Pb  Pb11  1  0.80406390  0.17555033  0.83749286  1
  S  S12  1  0.95838465  0.20432967  0.40605057  1
  S  S13  1  0.42249485  0.08732420  0.20467444  1
  S  S14  1  0.11953270  0.02533653  0.87133963  1
  S  S15  1  0.36023953  0.86643771  0.44425485  1
  S  S16  1  0.54161535  0.70432967  0.09394943  1
  S  S17  1  0.04161535  0.79567033  0.59394943  1
  S  S18  1  0.07750515  0.58732420  0.29532556  1
  S  S19  1  0.45838465  0.29567033  0.90605057  1
  S  S20  1  0.38046730  0.52533653  0.62866037  1
  S  S21  1  0.88046730  0.97466347  0.12866037  1
  S  S22  1  0.92249485  0.41267580  0.70467444  1
  S  S23  1  0.13976047  0.36643771  0.05574515  1
  S  S24  1  0.86023953  0.63356229  0.94425485  1
  S  S25  1  0.57750515  0.91267580  0.79532556  1
  S  S26  1  0.61953270  0.47466347  0.37133963  1
  S  S27  1  0.63976047  0.13356229  0.55574515  1
