# generated using pymatgen
data_Cs3CuTeS9
_symmetry_space_group_name_H-M   'P 1'
_cell_length_a   12.32958370
_cell_length_b   12.86587982
_cell_length_c   12.86587930
_cell_angle_alpha   116.47800751
_cell_angle_beta   90.00000000
_cell_angle_gamma   90.00000000
_symmetry_Int_Tables_number   1
_chemical_formula_structural   Cs3CuTeS9
_chemical_formula_sum   'Cs12 Cu4 Te4 S36'
_cell_volume   1826.84471621
_cell_formula_units_Z   4
loop_
 _symmetry_equiv_pos_site_id
 _symmetry_equiv_pos_as_xyz
  1  'x, y, z'
loop_
 _atom_site_type_symbol
 _atom_site_label
 _atom_site_symmetry_multiplicity
 _atom_site_fract_x
 _atom_site_fract_y
 _atom_site_fract_z
 _atom_site_occupancy
  Cs  Cs0  1  0.82377268  0.55345909  0.85413239  1
  Cs  Cs1  1  0.33404531  0.53624486  0.53624486  1
  Cs  Cs2  1  0.82377268  0.85413239  0.55345909  1
  Cs  Cs3  1  0.67622732  0.05345909  0.35413239  1
  Cs  Cs4  1  0.17622732  0.44654091  0.14586761  1
  Cs  Cs5  1  0.32377268  0.94654091  0.64586761  1
  Cs  Cs6  1  0.16595469  0.03624486  0.03624486  1
  Cs  Cs7  1  0.66595469  0.46375514  0.46375514  1
  Cs  Cs8  1  0.17622732  0.14586761  0.44654091  1
  Cs  Cs9  1  0.67622732  0.35413239  0.05345909  1
  Cs  Cs10  1  0.83404531  0.96375514  0.96375514  1
  Cs  Cs11  1  0.32377268  0.64586761  0.94654091  1
  Cu  Cu12  1  0.00000000  0.56817301  0.43182699  1
  Cu  Cu13  1  0.50000000  0.06817301  0.93182699  1
  Cu  Cu14  1  0.00000000  0.43182699  0.56817301  1
  Cu  Cu15  1  0.50000000  0.93182699  0.06817301  1
  Te  Te16  1  0.07482345  0.73130258  0.73130258  1
  Te  Te17  1  0.57482345  0.76869742  0.76869742  1
  Te  Te18  1  0.42517655  0.23130258  0.23130258  1
  Te  Te19  1  0.92517655  0.26869742  0.26869742  1
  S  S20  1  0.09733222  0.83201701  0.42433340  1
  S  S21  1  0.54432829  0.74737464  0.57965282  1
  S  S22  1  0.14373909  0.68294634  0.43516761  1
  S  S23  1  0.45567171  0.42034718  0.25262536  1
  S  S24  1  0.64373909  0.06483239  0.81705366  1
  S  S25  1  0.40266778  0.92433340  0.33201701  1
  S  S26  1  0.95567171  0.24737464  0.07965282  1
  S  S27  1  0.41910496  0.29679551  0.75123948  1
  S  S28  1  0.90266778  0.57566660  0.16798299  1
  S  S29  1  0.54432829  0.57965282  0.74737464  1
  S  S30  1  0.04432829  0.75262536  0.92034718  1
  S  S31  1  0.91910496  0.74876052  0.20320449  1
  S  S32  1  0.58089504  0.70320449  0.24876052  1
  S  S33  1  0.58089504  0.24876052  0.70320449  1
  S  S34  1  0.95567171  0.07965282  0.24737464  1
  S  S35  1  0.08089504  0.25123948  0.79679551  1
  S  S36  1  0.41910496  0.75123948  0.29679551  1
  S  S37  1  0.85626091  0.56483239  0.31705366  1
  S  S38  1  0.08068898  0.38211803  0.38211803  1
  S  S39  1  0.59733222  0.07566660  0.66798299  1
  S  S40  1  0.58068898  0.11788197  0.11788197  1
  S  S41  1  0.09733222  0.42433340  0.83201701  1
  S  S42  1  0.59733222  0.66798299  0.07566660  1
  S  S43  1  0.35626091  0.93516761  0.18294634  1
  S  S44  1  0.04432829  0.92034718  0.75262536  1
  S  S45  1  0.41931102  0.88211803  0.88211803  1
  S  S46  1  0.64373909  0.81705366  0.06483239  1
  S  S47  1  0.45567171  0.25262536  0.42034718  1
  S  S48  1  0.35626091  0.18294634  0.93516761  1
  S  S49  1  0.14373909  0.43516761  0.68294634  1
  S  S50  1  0.91931102  0.61788197  0.61788197  1
  S  S51  1  0.40266778  0.33201701  0.92433340  1
  S  S52  1  0.90266778  0.16798299  0.57566660  1
  S  S53  1  0.91910496  0.20320449  0.74876052  1
  S  S54  1  0.85626091  0.31705366  0.56483239  1
  S  S55  1  0.08089504  0.79679551  0.25123948  1
