# generated using pymatgen
data_SrEr2O4
_symmetry_space_group_name_H-M   'P 1'
_cell_length_a   3.39642445
_cell_length_b   10.09058584
_cell_length_c   11.91504479
_cell_angle_alpha   90.00000000
_cell_angle_beta   90.00000000
_cell_angle_gamma   90.00000000
_symmetry_Int_Tables_number   1
_chemical_formula_structural   SrEr2O4
_chemical_formula_sum   'Sr4 Er8 O16'
_cell_volume   408.35137202
_cell_formula_units_Z   4
loop_
 _symmetry_equiv_pos_site_id
 _symmetry_equiv_pos_as_xyz
  1  'x, y, z'
loop_
 _atom_site_type_symbol
 _atom_site_label
 _atom_site_symmetry_multiplicity
 _atom_site_fract_x
 _atom_site_fract_y
 _atom_site_fract_z
 _atom_site_occupancy
  Sr  Sr0  1  0.75000000  0.25346490  0.14976788  1
  Sr  Sr1  1  0.75000000  0.75346490  0.35023212  1
  Sr  Sr2  1  0.25000000  0.74653510  0.85023212  1
  Sr  Sr3  1  0.25000000  0.24653510  0.64976788  1
  Er  Er4  1  0.25000000  0.57729970  0.11001801  1
  Er  Er5  1  0.25000000  0.07729970  0.38998199  1
  Er  Er6  1  0.25000000  0.57571951  0.61203009  1
  Er  Er7  1  0.75000000  0.92270030  0.61001801  1
  Er  Er8  1  0.75000000  0.42428049  0.38796991  1
  Er  Er9  1  0.25000000  0.07571951  0.88796991  1
  Er  Er10  1  0.75000000  0.42270030  0.88998199  1
  Er  Er11  1  0.75000000  0.92428049  0.11203009  1
  O  O12  1  0.25000000  0.48465796  0.78382112  1
  O  O13  1  0.75000000  0.62386908  0.98033809  1
  O  O14  1  0.75000000  0.21093932  0.82739058  1
  O  O15  1  0.25000000  0.78906068  0.17260942  1
  O  O16  1  0.25000000  0.37613092  0.01966191  1
  O  O17  1  0.75000000  0.01534204  0.28382112  1
  O  O18  1  0.75000000  0.12386908  0.51966191  1
  O  O19  1  0.75000000  0.42555695  0.57681540  1
  O  O20  1  0.25000000  0.07444305  0.07681540  1
  O  O21  1  0.25000000  0.87613092  0.48033809  1
  O  O22  1  0.25000000  0.28906068  0.32739058  1
  O  O23  1  0.75000000  0.71093932  0.67260942  1
  O  O24  1  0.25000000  0.57444305  0.42318460  1
  O  O25  1  0.75000000  0.92555695  0.92318460  1
  O  O26  1  0.75000000  0.51534204  0.21617888  1
  O  O27  1  0.25000000  0.98465796  0.71617888  1
