# generated using pymatgen
data_K2Zn(GeO3)2
_symmetry_space_group_name_H-M   'P 1'
_cell_length_a   5.92702518
_cell_length_b   5.92702566
_cell_length_c   11.06502854
_cell_angle_alpha   90.00000000
_cell_angle_beta   90.00000000
_cell_angle_gamma   113.36988137
_symmetry_Int_Tables_number   1
_chemical_formula_structural   K2Zn(GeO3)2
_chemical_formula_sum   'K4 Zn2 Ge4 O12'
_cell_volume   356.82183457
_cell_formula_units_Z   2
loop_
 _symmetry_equiv_pos_site_id
 _symmetry_equiv_pos_as_xyz
  1  'x, y, z'
loop_
 _atom_site_type_symbol
 _atom_site_label
 _atom_site_symmetry_multiplicity
 _atom_site_fract_x
 _atom_site_fract_y
 _atom_site_fract_z
 _atom_site_occupancy
  K  K0  1  0.78371145  0.43033840  0.67699190  1
  K  K1  1  0.56966160  0.21628855  0.32300810  1
  K  K2  1  0.21628855  0.56966160  0.17699190  1
  K  K3  1  0.43033840  0.78371145  0.82300810  1
  Zn  Zn4  1  0.69119371  0.30880629  0.00000000  1
  Zn  Zn5  1  0.30880629  0.69119371  0.50000000  1
  Ge  Ge6  1  0.82584739  0.86202837  0.11225107  1
  Ge  Ge7  1  0.13797163  0.17415261  0.88774893  1
  Ge  Ge8  1  0.17415261  0.13797163  0.61225107  1
  Ge  Ge9  1  0.86202837  0.82584739  0.38774893  1
  O  O10  1  0.60736989  -0.01565984  0.08233824  1
  O  O11  1  0.54134994  0.70474610  0.36981410  1
  O  O12  1  0.70474610  0.54134994  0.13018590  1
  O  O13  1  0.39263011  1.01565984  0.58233824  1
  O  O14  1  -0.00299616  -0.00299616  0.25000000  1
  O  O15  1  0.45865006  0.29525390  0.86981410  1
  O  O16  1  0.06213463  0.93786537  0.00000000  1
  O  O17  1  0.29525390  0.45865006  0.63018590  1
  O  O18  1  1.00299616  1.00299616  0.75000000  1
  O  O19  1  0.93786537  0.06213463  0.50000000  1
  O  O20  1  1.01565984  0.39263011  0.91766176  1
  O  O21  1  -0.01565984  0.60736989  0.41766176  1
