# generated using pymatgen
data_Rb3Al2(PO4)3
_symmetry_space_group_name_H-M   'P 1'
_cell_length_a   8.77818472
_cell_length_b   8.95670387
_cell_length_c   9.73310429
_cell_angle_alpha   90.00000000
_cell_angle_beta   116.80431231
_cell_angle_gamma   90.00000000
_symmetry_Int_Tables_number   1
_chemical_formula_structural   Rb3Al2(PO4)3
_chemical_formula_sum   'Rb6 Al4 P6 O24'
_cell_volume   683.02685202
_cell_formula_units_Z   2
loop_
 _symmetry_equiv_pos_site_id
 _symmetry_equiv_pos_as_xyz
  1  'x, y, z'
loop_
 _atom_site_type_symbol
 _atom_site_label
 _atom_site_symmetry_multiplicity
 _atom_site_fract_x
 _atom_site_fract_y
 _atom_site_fract_z
 _atom_site_occupancy
  Rb  Rb0  1  0.93235654  0.47354259  0.77060868  1
  Rb  Rb1  1  0.83825214  0.97354259  0.77060868  1
  Rb  Rb2  1  0.35735249  0.17822746  0.00000000  1
  Rb  Rb3  1  0.16174786  0.47354259  0.22939132  1
  Rb  Rb4  1  0.06764346  0.97354259  0.22939132  1
  Rb  Rb5  1  0.64264751  0.67822746  1.00000000  1
  Al  Al6  1  0.51417106  0.81902516  0.33479130  1
  Al  Al7  1  0.82062024  0.31902516  0.33479130  1
  Al  Al8  1  0.48582894  0.31902516  0.66520870  1
  Al  Al9  1  0.17937976  0.81902516  0.66520870  1
  P  P10  1  0.87578293  0.65914756  0.40969775  1
  P  P11  1  0.76580547  0.25296843  0.00000000  1
  P  P12  1  0.23419453  0.75296843  1.00000000  1
  P  P13  1  0.12421707  0.15914756  0.59030225  1
  P  P14  1  0.46608518  0.65914756  0.59030225  1
  P  P15  1  0.53391482  0.15914756  0.40969775  1
  O  O16  1  0.77472736  0.34971503  0.14189936  1
  O  O17  1  0.95622299  0.68814215  0.30444895  1
  O  O18  1  0.64880303  0.22938841  0.34316679  1
  O  O19  1  0.58080571  0.98966475  0.43307278  1
  O  O20  1  0.01613880  0.22023845  0.42277996  1
  O  O21  1  0.59335884  0.22023845  0.57722004  1
  O  O22  1  0.22527264  0.84971503  0.85810064  1
  O  O23  1  0.30488133  0.59786307  0.00000000  1
  O  O24  1  0.36717200  0.84971503  0.14189936  1
  O  O25  1  0.63282800  0.34971503  0.85810064  1
  O  O26  1  0.41919429  0.48966475  0.56692722  1
  O  O27  1  0.35119697  0.72938841  0.65683321  1
  O  O28  1  0.34822596  0.18814215  0.30444895  1
  O  O29  1  0.06059254  0.75633283  1.00000000  1
  O  O30  1  0.30563625  0.22938841  0.65683321  1
  O  O31  1  0.69511867  0.09786307  1.00000000  1
  O  O32  1  0.98386120  0.72023845  0.57722004  1
  O  O33  1  0.93940746  0.25633283  0.00000000  1
  O  O34  1  0.40664116  0.72023845  0.42277996  1
  O  O35  1  0.14773293  0.98966475  0.56692722  1
  O  O36  1  0.85226707  0.48966475  0.43307278  1
  O  O37  1  0.65177404  0.68814215  0.69555105  1
  O  O38  1  0.04377701  0.18814215  0.69555105  1
  O  O39  1  0.69436375  0.72938841  0.34316679  1
