# generated using pymatgen
data_KBe(PO3)3
_symmetry_space_group_name_H-M   'P 1'
_cell_length_a   7.96860464
_cell_length_b   8.74131958
_cell_length_c   11.57532445
_cell_angle_alpha   90.00000000
_cell_angle_beta   90.00000000
_cell_angle_gamma   90.00000000
_symmetry_Int_Tables_number   1
_chemical_formula_structural   KBe(PO3)3
_chemical_formula_sum   'K4 Be4 P12 O36'
_cell_volume   806.29218621
_cell_formula_units_Z   4
loop_
 _symmetry_equiv_pos_site_id
 _symmetry_equiv_pos_as_xyz
  1  'x, y, z'
loop_
 _atom_site_type_symbol
 _atom_site_label
 _atom_site_symmetry_multiplicity
 _atom_site_fract_x
 _atom_site_fract_y
 _atom_site_fract_z
 _atom_site_occupancy
  K  K0  1  0.50207377  0.20459520  0.06698962  1
  K  K1  1  0.00207377  0.29540480  0.93301038  1
  K  K2  1  0.49792623  0.70459520  0.43301038  1
  K  K3  1  0.99792623  0.79540480  0.56698962  1
  Be  Be4  1  0.68022544  0.29029942  0.37272931  1
  Be  Be5  1  0.18022544  0.20970058  0.62727069  1
  Be  Be6  1  0.31977456  0.79029942  0.12727069  1
  Be  Be7  1  0.81977456  0.70970058  0.87272931  1
  P  P8  1  0.80996097  0.00244541  0.29857416  1
  P  P9  1  0.81864120  0.49448033  0.20339626  1
  P  P10  1  0.19003903  0.50244541  0.20142584  1
  P  P11  1  0.68135880  0.50551967  0.70339626  1
  P  P12  1  0.30996097  0.49755459  0.70142584  1
  P  P13  1  0.19159298  0.70731927  0.88251548  1
  P  P14  1  0.80840702  0.20731927  0.61748452  1
  P  P15  1  0.69003903  0.99755459  0.79857416  1
  P  P16  1  0.31864120  0.00551967  0.79660374  1
  P  P17  1  0.18135880  0.99448033  0.29660374  1
  P  P18  1  0.69159298  0.79268073  0.11748452  1
  P  P19  1  0.30840702  0.29268073  0.38251548  1
  O  O20  1  0.73948264  0.24584473  0.50180186  1
  O  O21  1  0.21458451  0.90003678  0.40063234  1
  O  O22  1  0.01427888  0.64857771  0.87394045  1
  O  O23  1  0.71458451  0.59996322  0.59936766  1
  O  O24  1  0.70537915  0.65019386  0.20385530  1
  O  O25  1  0.99698307  0.07301968  0.29831723  1
  O  O26  1  0.26051736  0.74584473  0.99819814  1
  O  O27  1  0.49698307  0.42698032  0.70168277  1
  O  O28  1  0.20766694  0.92949393  0.17711977  1
  O  O29  1  0.81132286  0.92090304  0.17161456  1
  O  O30  1  0.69402435  0.13938538  0.28861413  1
  O  O31  1  0.30597565  0.63938538  0.21138587  1
  O  O32  1  0.78261488  0.88874892  0.39213188  1
  O  O33  1  0.80597565  0.86061462  0.78861413  1
  O  O34  1  0.18867714  0.42090304  0.32838544  1
  O  O35  1  0.78541549  0.40003678  0.09936766  1
  O  O36  1  0.28541549  0.09996322  0.90063234  1
  O  O37  1  0.29462085  0.15019386  0.29614470  1
  O  O38  1  0.71738512  0.11125108  0.89213188  1
  O  O39  1  0.19402435  0.36061462  0.71138587  1
  O  O40  1  0.23948264  0.25415527  0.49819814  1
  O  O41  1  0.28261488  0.61125108  0.60786812  1
  O  O42  1  0.76051736  0.75415527  0.00180186  1
  O  O43  1  0.79233306  0.42949393  0.32288023  1
  O  O44  1  0.00301693  0.57301968  0.20168277  1
  O  O45  1  0.68867714  0.07909696  0.67161456  1
  O  O46  1  0.51427888  0.85142229  0.12605955  1
  O  O47  1  0.31132286  0.57909696  0.82838544  1
  O  O48  1  0.48572112  0.35142229  0.37394045  1
  O  O49  1  0.21738512  0.38874892  0.10786812  1
  O  O50  1  0.20537915  0.84980614  0.79614470  1
  O  O51  1  0.79462085  0.34980614  0.70385530  1
  O  O52  1  0.50301693  0.92698032  0.79831723  1
  O  O53  1  0.29233306  0.07050607  0.67711977  1
  O  O54  1  0.70766694  0.57050607  0.82288023  1
  O  O55  1  0.98572112  0.14857771  0.62605955  1
