# generated using pymatgen
data_KNbSi2O7
_symmetry_space_group_name_H-M   'P 1'
_cell_length_a   8.27438758
_cell_length_b   8.87738867
_cell_length_c   8.87738867
_cell_angle_alpha   90.00000000
_cell_angle_beta   90.00000000
_cell_angle_gamma   90.00000000
_symmetry_Int_Tables_number   1
_chemical_formula_structural   KNbSi2O7
_chemical_formula_sum   'K4 Nb4 Si8 O28'
_cell_volume   652.08818131
_cell_formula_units_Z   4
loop_
 _symmetry_equiv_pos_site_id
 _symmetry_equiv_pos_as_xyz
  1  'x, y, z'
loop_
 _atom_site_type_symbol
 _atom_site_label
 _atom_site_symmetry_multiplicity
 _atom_site_fract_x
 _atom_site_fract_y
 _atom_site_fract_z
 _atom_site_occupancy
  K  K0  1  0.99188282  0.67807307  0.17807307  1
  K  K1  1  0.99188282  0.82192693  0.67807307  1
  K  K2  1  0.99188282  0.32192693  0.82192693  1
  K  K3  1  0.99188282  0.17807307  0.32192693  1
  Nb  Nb4  1  0.72047318  0.50000000  0.50000000  1
  Nb  Nb5  1  0.21773813  0.50000000  0.50000000  1
  Nb  Nb6  1  0.72047318  0.00000000  0.00000000  1
  Nb  Nb7  1  0.21773813  0.00000000  0.00000000  1
  Si  Si8  1  0.69302958  0.37614480  0.12385520  1
  Si  Si9  1  0.30281940  0.62349593  0.87650407  1
  Si  Si10  1  0.30281940  0.87650407  0.37650407  1
  Si  Si11  1  0.30281940  0.12349593  0.62349593  1
  Si  Si12  1  0.69302958  0.12385520  0.62385520  1
  Si  Si13  1  0.69302958  0.87614480  0.37614480  1
  Si  Si14  1  0.69302958  0.62385520  0.87614480  1
  Si  Si15  1  0.30281940  0.37650407  0.12349593  1
  O  O16  1  0.76292822  0.71197737  0.42348757  1
  O  O17  1  0.23269470  0.78721186  0.92363219  1
  O  O18  1  0.76292822  0.21197737  0.07651243  1
  O  O19  1  0.76292822  0.42348757  0.28802263  1
  O  O20  1  0.23269470  0.28721186  0.57636781  1
  O  O21  1  0.76292822  0.07651243  0.78802263  1
  O  O22  1  0.23269470  0.42363219  0.28721186  1
  O  O23  1  0.49784652  0.11978134  0.61978134  1
  O  O24  1  0.23269470  0.07636781  0.78721186  1
  O  O25  1  0.49784652  0.38021866  0.11978134  1
  O  O26  1  0.76384364  0.50000000  0.00000000  1
  O  O27  1  0.23156386  0.50000000  0.00000000  1
  O  O28  1  0.49784652  0.88021866  0.38021866  1
  O  O29  1  0.76384364  0.00000000  0.50000000  1
  O  O30  1  0.49784652  0.61978134  0.88021866  1
  O  O31  1  0.76292822  0.78802263  0.92348757  1
  O  O32  1  0.23269470  0.21278814  0.07636781  1
  O  O33  1  0.23269470  0.71278814  0.42363219  1
  O  O34  1  0.23269470  0.92363219  0.21278814  1
  O  O35  1  0.23156386  0.00000000  0.50000000  1
  O  O36  1  0.50263242  0.50000000  0.50000000  1
  O  O37  1  0.99890047  0.50000000  0.50000000  1
  O  O38  1  0.23269470  0.57636781  0.71278814  1
  O  O39  1  0.76292822  0.92348757  0.21197737  1
  O  O40  1  0.50263242  0.00000000  0.00000000  1
  O  O41  1  0.76292822  0.57651243  0.71197737  1
  O  O42  1  0.99890047  0.00000000  0.00000000  1
  O  O43  1  0.76292822  0.28802263  0.57651243  1
