# generated using pymatgen
data_KZn4(PO4)3
_symmetry_space_group_name_H-M   'P 1'
_cell_length_a   8.26899178
_cell_length_b   9.78868625
_cell_length_c   14.06553769
_cell_angle_alpha   90.00000000
_cell_angle_beta   90.00000000
_cell_angle_gamma   90.00000000
_symmetry_Int_Tables_number   1
_chemical_formula_structural   KZn4(PO4)3
_chemical_formula_sum   'K4 Zn16 P12 O48'
_cell_volume   1138.50071474
_cell_formula_units_Z   4
loop_
 _symmetry_equiv_pos_site_id
 _symmetry_equiv_pos_as_xyz
  1  'x, y, z'
loop_
 _atom_site_type_symbol
 _atom_site_label
 _atom_site_symmetry_multiplicity
 _atom_site_fract_x
 _atom_site_fract_y
 _atom_site_fract_z
 _atom_site_occupancy
  K  K0  1  0.75000000  0.80600980  0.25000000  1
  K  K1  1  0.25000000  0.19399020  0.75000000  1
  K  K2  1  0.25000000  0.69399020  0.75000000  1
  K  K3  1  0.75000000  0.30600980  0.25000000  1
  Zn  Zn4  1  0.60547785  0.30789393  0.94894191  1
  Zn  Zn5  1  0.89452215  0.80789393  0.94894191  1
  Zn  Zn6  1  0.10547785  0.19210607  0.05105809  1
  Zn  Zn7  1  0.41269274  0.99665879  0.14524859  1
  Zn  Zn8  1  0.58730726  0.00334121  0.85475141  1
  Zn  Zn9  1  0.41269274  0.49665879  0.35475141  1
  Zn  Zn10  1  0.39452215  0.69210607  0.05105809  1
  Zn  Zn11  1  0.58730726  0.50334121  0.64524859  1
  Zn  Zn12  1  0.10547785  0.69210607  0.44894191  1
  Zn  Zn13  1  0.89452215  0.30789393  0.55105809  1
  Zn  Zn14  1  0.08730726  0.49665879  0.14524859  1
  Zn  Zn15  1  0.91269274  0.50334121  0.85475141  1
  Zn  Zn16  1  0.39452215  0.19210607  0.44894191  1
  Zn  Zn17  1  0.60547785  0.80789393  0.55105809  1
  Zn  Zn18  1  0.08730726  0.99665879  0.35475141  1
  Zn  Zn19  1  0.91269274  0.00334121  0.64524859  1
  P  P20  1  0.24584315  0.43439348  0.56479328  1
  P  P21  1  0.75415685  0.56560652  0.43520672  1
  P  P22  1  0.25415685  0.93439348  0.56479328  1
  P  P23  1  0.25000000  0.75397852  0.25000000  1
  P  P24  1  0.75000000  0.74602148  0.75000000  1
  P  P25  1  0.74584315  0.06560652  0.43520672  1
  P  P26  1  0.75000000  0.24602148  0.75000000  1
  P  P27  1  0.25415685  0.43439348  0.93520672  1
  P  P28  1  0.24584315  0.93439348  0.93520672  1
  P  P29  1  0.75415685  0.06560652  0.06479328  1
  P  P30  1  0.74584315  0.56560652  0.06479328  1
  P  P31  1  0.25000000  0.25397852  0.25000000  1
  O  O32  1  0.90255673  0.65779661  0.76284222  1
  O  O33  1  0.61860587  0.67590443  0.08742014  1
  O  O34  1  0.38139413  0.32409557  0.91257986  1
  O  O35  1  0.36747435  0.43631043  0.64862993  1
  O  O36  1  0.36747435  0.93631043  0.85137007  1
  O  O37  1  0.73551769  0.84360016  0.83917165  1
  O  O38  1  0.76448231  0.84360016  0.66082835  1
  O  O39  1  0.17082041  0.57614543  0.55154464  1
  O  O40  1  0.82917959  0.92385457  0.05154464  1
  O  O41  1  0.15896096  0.89127629  0.47074311  1
  O  O42  1  0.26448231  0.15639984  0.16082835  1
  O  O43  1  0.88139413  0.67590443  0.41257986  1
  O  O44  1  0.40255673  0.34220339  0.26284222  1
  O  O45  1  0.11860587  0.82409557  0.91257986  1
  O  O46  1  0.17082041  0.07614543  0.94845536  1
  O  O47  1  0.67082041  0.92385457  0.44845536  1
  O  O48  1  0.32917959  0.07614543  0.55154464  1
  O  O49  1  0.59744327  0.15779661  0.76284222  1
  O  O50  1  0.11860587  0.32409557  0.58742014  1
  O  O51  1  0.34103904  0.89127629  0.02925689  1
  O  O52  1  0.38139413  0.82409557  0.58742014  1
  O  O53  1  0.86747435  0.06368957  0.35137007  1
  O  O54  1  0.09744327  0.34220339  0.23715778  1
  O  O55  1  0.88139413  0.17590443  0.08742014  1
  O  O56  1  0.82917959  0.42385457  0.44845536  1
  O  O57  1  0.86747435  0.56368957  0.14862993  1
  O  O58  1  0.63252565  0.56368957  0.35137007  1
  O  O59  1  0.13252565  0.43631043  0.85137007  1
  O  O60  1  0.65896096  0.60872371  0.52925689  1
  O  O61  1  0.15896096  0.39127629  0.02925689  1
  O  O62  1  0.67082041  0.42385457  0.05154464  1
  O  O63  1  0.34103904  0.39127629  0.47074311  1
  O  O64  1  0.09744327  0.84220339  0.26284222  1
  O  O65  1  0.73551769  0.34360016  0.66082835  1
  O  O66  1  0.65896096  0.10872371  0.97074311  1
  O  O67  1  0.63252565  0.06368957  0.14862993  1
  O  O68  1  0.23551769  0.15639984  0.33917165  1
  O  O69  1  0.59744327  0.65779661  0.73715778  1
  O  O70  1  0.84103904  0.60872371  0.97074311  1
  O  O71  1  0.13252565  0.93631043  0.64862993  1
  O  O72  1  0.40255673  0.84220339  0.23715778  1
  O  O73  1  0.23551769  0.65639984  0.16082835  1
  O  O74  1  0.90255673  0.15779661  0.73715778  1
  O  O75  1  0.32917959  0.57614543  0.94845536  1
  O  O76  1  0.26448231  0.65639984  0.33917165  1
  O  O77  1  0.84103904  0.10872371  0.52925689  1
  O  O78  1  0.61860587  0.17590443  0.41257986  1
  O  O79  1  0.76448231  0.34360016  0.83917165  1
