# generated using pymatgen
data_K3Bi2(PO4)3
_symmetry_space_group_name_H-M   'P 1'
_cell_length_a   6.93213825
_cell_length_b   9.73002166
_cell_length_c   9.73002182
_cell_angle_alpha   88.81496426
_cell_angle_beta   72.46930075
_cell_angle_gamma   72.46930044
_symmetry_Int_Tables_number   1
_chemical_formula_structural   K3Bi2(PO4)3
_chemical_formula_sum   'K6 Bi4 P6 O24'
_cell_volume   594.96896595
_cell_formula_units_Z   2
loop_
 _symmetry_equiv_pos_site_id
 _symmetry_equiv_pos_as_xyz
  1  'x, y, z'
loop_
 _atom_site_type_symbol
 _atom_site_label
 _atom_site_symmetry_multiplicity
 _atom_site_fract_x
 _atom_site_fract_y
 _atom_site_fract_z
 _atom_site_occupancy
  K  K0  1  0.75000000  0.98704667  0.01295333  1
  K  K1  1  0.00000000  0.50000000  0.50000000  1
  K  K2  1  0.25000000  0.01295333  0.98704667  1
  K  K3  1  0.75000000  0.72578064  0.27421936  1
  K  K4  1  0.50000000  0.50000000  0.50000000  1
  K  K5  1  0.25000000  0.27421936  0.72578064  1
  Bi  Bi6  1  0.16960036  0.90961074  0.61403291  1
  Bi  Bi7  1  0.66960036  0.61403291  0.90961074  1
  Bi  Bi8  1  0.33039964  0.38596709  0.09038926  1
  Bi  Bi9  1  0.83039964  0.09038926  0.38596709  1
  P  P10  1  0.36279535  0.13806256  0.34735825  1
  P  P11  1  0.75000000  0.24558426  0.75441574  1
  P  P12  1  0.25000000  0.75441574  0.24558426  1
  P  P13  1  0.13720465  0.65264175  0.86193744  1
  P  P14  1  0.63720465  0.86193744  0.65264175  1
  P  P15  1  0.86279535  0.34735825  0.13806256  1
  O  O16  1  0.31838933  0.75902293  0.38249649  1
  O  O17  1  0.92369159  0.66512177  0.98570345  1
  O  O18  1  0.55888776  0.24034751  0.89016019  1
  O  O19  1  0.94111224  0.10983981  0.75965249  1
  O  O20  1  0.82896208  0.91139115  0.55625965  1
  O  O21  1  0.05888776  0.89016019  0.24034751  1
  O  O22  1  0.83984057  0.19320332  0.15647269  1
  O  O23  1  0.16015943  0.80679668  0.84352731  1
  O  O24  1  0.86701972  0.41520340  0.27824669  1
  O  O25  1  0.42369159  0.98570345  0.66512177  1
  O  O26  1  0.36701972  0.27824669  0.41520340  1
  O  O27  1  0.67103792  0.44374035  0.08860885  1
  O  O28  1  0.33984057  0.15647269  0.19320332  1
  O  O29  1  0.68161067  0.24097707  0.61750351  1
  O  O30  1  0.57630841  0.01429655  0.33487823  1
  O  O31  1  0.07630841  0.33487823  0.01429655  1
  O  O32  1  0.81838933  0.38249649  0.75902293  1
  O  O33  1  0.66015943  0.84352731  0.80679668  1
  O  O34  1  0.17103792  0.08860885  0.44374035  1
  O  O35  1  0.63298028  0.72175331  0.58479660  1
  O  O36  1  0.32896208  0.55625965  0.91139115  1
  O  O37  1  0.13298028  0.58479660  0.72175331  1
  O  O38  1  0.18161067  0.61750351  0.24097707  1
  O  O39  1  0.44111224  0.75965249  0.10983981  1
