# generated using pymatgen
data_KBS4(ClO3)4
_symmetry_space_group_name_H-M   'P 1'
_cell_length_a   8.36762353
_cell_length_b   10.76033338
_cell_length_c   11.20561484
_cell_angle_alpha   83.00038497
_cell_angle_beta   68.07655782
_cell_angle_gamma   70.95031005
_symmetry_Int_Tables_number   1
_chemical_formula_structural   KBS4(ClO3)4
_chemical_formula_sum   'K2 B2 S8 Cl8 O24'
_cell_volume   884.71544590
_cell_formula_units_Z   2
loop_
 _symmetry_equiv_pos_site_id
 _symmetry_equiv_pos_as_xyz
  1  'x, y, z'
loop_
 _atom_site_type_symbol
 _atom_site_label
 _atom_site_symmetry_multiplicity
 _atom_site_fract_x
 _atom_site_fract_y
 _atom_site_fract_z
 _atom_site_occupancy
  K  K0  1  0.34765968  0.40418753  0.16601871  1
  K  K1  1  0.51367839  0.90418753  0.83398129  1
  B  B2  1  0.12187738  0.50114759  0.75829160  1
  B  B3  1  0.88016898  0.00114759  0.24170840  1
  S  S4  1  0.61402680  0.94034264  0.44651323  1
  S  S5  1  0.19694775  0.79943273  0.18220929  1
  S  S6  1  0.06054003  0.44034264  0.55348677  1
  S  S7  1  0.25044518  0.71153828  0.70125674  1
  S  S8  1  0.74105086  0.05113545  0.04911975  1
  S  S9  1  0.95170192  0.21153828  0.29874326  1
  S  S10  1  0.37915704  0.29943273  0.81779071  1
  S  S11  1  0.79017061  0.55113545  0.95088025  1
  Cl  Cl12  1  0.69650453  0.34284630  0.35079948  1
  Cl  Cl13  1  0.34294845  0.76710592  0.29789676  1
  Cl  Cl14  1  0.64084521  0.26710592  0.70210324  1
  Cl  Cl15  1  0.83506002  0.61405273  0.09575993  1
  Cl  Cl16  1  0.35594203  0.05989715  0.48579820  1
  Cl  Cl17  1  0.84174023  0.55989715  0.51420180  1
  Cl  Cl18  1  0.93081995  0.11405273  0.90424007  1
  Cl  Cl19  1  0.04730402  0.84284630  0.64920052  1
  O  O20  1  0.73053111  0.66503622  0.87870079  1
  O  O21  1  0.28560534  0.38387894  0.72552238  1
  O  O22  1  0.67836490  0.46756082  0.00758517  1
  O  O23  1  0.98195005  0.46291187  0.87126271  1
  O  O24  1  0.27281524  0.87528981  0.07386041  1
  O  O25  1  0.07099727  0.53515529  0.64332159  1
  O  O26  1  0.34654637  0.17407057  0.83862581  1
  O  O27  1  0.97263560  0.14510976  0.41323356  1
  O  O28  1  0.94519484  0.11786005  0.20563571  1
  O  O29  1  0.21281703  0.42397778  0.43481455  1
  O  O30  1  0.64763158  0.92397778  0.56518545  1
  O  O31  1  0.63786471  0.82767011  0.37802550  1
  O  O32  1  0.85321276  0.96291187  0.12873729  1
  O  O33  1  0.71431885  0.03515529  0.35667841  1
  O  O34  1  0.29374471  0.78359245  0.77828843  1
  O  O35  1  0.15083055  0.61786005  0.79436429  1
  O  O36  1  0.18517219  0.67407057  0.16137419  1
  O  O37  1  0.60923190  0.16503622  0.12129921  1
  O  O38  1  0.68595007  0.96756082  0.99241483  1
  O  O39  1  0.01112772  0.88387894  0.27447762  1
  O  O40  1  0.34667565  0.37528981  0.92613959  1
  O  O41  1  0.07203315  0.28359245  0.22171157  1
  O  O42  1  0.38586916  0.64510976  0.58676644  1
  O  O43  1  0.01589021  0.32767011  0.62197450  1
