# generated using pymatgen
data_InHSeO4
_symmetry_space_group_name_H-M   'P 1'
_cell_length_a   5.78155617
_cell_length_b   8.18983913
_cell_length_c   8.30235425
_cell_angle_alpha   87.63456669
_cell_angle_beta   79.51510383
_cell_angle_gamma   83.03948215
_symmetry_Int_Tables_number   1
_chemical_formula_structural   InHSeO4
_chemical_formula_sum   'In4 H4 Se4 O16'
_cell_volume   383.62936327
_cell_formula_units_Z   4
loop_
 _symmetry_equiv_pos_site_id
 _symmetry_equiv_pos_as_xyz
  1  'x, y, z'
loop_
 _atom_site_type_symbol
 _atom_site_label
 _atom_site_symmetry_multiplicity
 _atom_site_fract_x
 _atom_site_fract_y
 _atom_site_fract_z
 _atom_site_occupancy
  In  In0  1  0.81030450  0.68651936  0.48511249  1
  In  In1  1  0.39657365  0.97675455  0.81340927  1
  In  In2  1  0.60342635  0.02324545  0.18659073  1
  In  In3  1  0.18969550  0.31348064  0.51488751  1
  H  H4  1  0.65115356  0.23941123  0.39300687  1
  H  H5  1  0.99354237  0.07488667  0.69774953  1
  H  H6  1  0.00645763  0.92511333  0.30225047  1
  H  H7  1  0.34884644  0.76058877  0.60699313  1
  Se  Se8  1  0.39698805  0.64449655  0.23626292  1
  Se  Se9  1  0.92903542  0.73064241  0.88034986  1
  Se  Se10  1  0.60301195  0.35550345  0.76373708  1
  Se  Se11  1  0.07096458  0.26935759  0.11965014  1
  O  O12  1  0.02456559  0.21337481  0.32358539  1
  O  O13  1  0.65177136  0.56941577  0.30425381  1
  O  O14  1  0.49550965  0.78357488  0.64058106  1
  O  O15  1  0.14232784  0.81700698  0.95174304  1
  O  O16  1  0.85072092  0.88513436  0.31443664  1
  O  O17  1  0.14927908  0.11486564  0.68556336  1
  O  O18  1  0.17168840  0.56372236  0.38570161  1
  O  O19  1  0.82831160  0.43627764  0.61429839  1
  O  O20  1  0.66611726  0.86511544  0.96058459  1
  O  O21  1  0.34822864  0.43058423  0.69574619  1
  O  O22  1  0.64936561  0.15276618  0.70590490  1
  O  O23  1  0.35063439  0.84723382  0.29409510  1
  O  O24  1  0.97543441  0.78662519  0.67641461  1
  O  O25  1  0.50449035  0.21642512  0.35941894  1
  O  O26  1  0.33388274  0.13488456  0.03941541  1
  O  O27  1  0.85767216  0.18299302  0.04825696  1
