# generated using pymatgen
data_La2C2N4O
_symmetry_space_group_name_H-M   'P 1'
_cell_length_a   6.14068241
_cell_length_b   6.28072629
_cell_length_c   7.48012799
_cell_angle_alpha   114.82369822
_cell_angle_beta   103.35653624
_cell_angle_gamma   90.00000079
_symmetry_Int_Tables_number   1
_chemical_formula_structural   La2C2N4O
_chemical_formula_sum   'La4 C4 N8 O2'
_cell_volume   253.21406787
_cell_formula_units_Z   2
loop_
 _symmetry_equiv_pos_site_id
 _symmetry_equiv_pos_as_xyz
  1  'x, y, z'
loop_
 _atom_site_type_symbol
 _atom_site_label
 _atom_site_symmetry_multiplicity
 _atom_site_fract_x
 _atom_site_fract_y
 _atom_site_fract_z
 _atom_site_occupancy
  La  La0  1  0.57548331  0.31530373  0.20053263  1
  La  La1  1  0.92451669  0.11477111  0.79946737  1
  La  La2  1  0.42451669  0.68469627  0.79946737  1
  La  La3  1  0.07548331  0.88522889  0.20053263  1
  C  C4  1  0.61147618  0.87876212  0.30513305  1
  C  C5  1  0.11147618  0.42637093  0.30513305  1
  C  C6  1  0.88852382  0.57362907  0.69486695  1
  C  C7  1  0.38852382  0.12123788  0.69486695  1
  N  N8  1  0.96898796  0.47496699  0.18432947  1
  N  N9  1  0.03101204  0.52503301  0.81567053  1
  N  N10  1  0.24645117  0.95019660  0.58306362  1
  N  N11  1  0.46898796  0.70936248  0.18432947  1
  N  N12  1  0.75354883  0.04980340  0.41693638  1
  N  N13  1  0.25354883  0.36713298  0.41693638  1
  N  N14  1  0.53101204  0.29063752  0.81567053  1
  N  N15  1  0.74645117  0.63286702  0.58306362  1
  O  O16  1  0.25000000  0.02610119  1.00000000  1
  O  O17  1  0.75000000  0.97389881  0.00000000  1
