# generated using pymatgen
data_Rb3NaTiO4
_symmetry_space_group_name_H-M   'P 1'
_cell_length_a   6.50055168
_cell_length_b   10.88538798
_cell_length_c   11.01420939
_cell_angle_alpha   112.64390345
_cell_angle_beta   90.00000000
_cell_angle_gamma   90.00000000
_symmetry_Int_Tables_number   1
_chemical_formula_structural   Rb3NaTiO4
_chemical_formula_sum   'Rb12 Na4 Ti4 O16'
_cell_volume   719.29888268
_cell_formula_units_Z   4
loop_
 _symmetry_equiv_pos_site_id
 _symmetry_equiv_pos_as_xyz
  1  'x, y, z'
loop_
 _atom_site_type_symbol
 _atom_site_label
 _atom_site_symmetry_multiplicity
 _atom_site_fract_x
 _atom_site_fract_y
 _atom_site_fract_z
 _atom_site_occupancy
  Rb  Rb0  1  0.65451495  0.96191571  0.33049416  1
  Rb  Rb1  1  0.12324128  0.67977243  0.60554111  1
  Rb  Rb2  1  0.38450780  0.45576569  0.31097242  1
  Rb  Rb3  1  0.11549220  0.45576569  0.81097242  1
  Rb  Rb4  1  0.84548505  0.96191571  0.83049416  1
  Rb  Rb5  1  0.61549220  0.54423431  0.68902758  1
  Rb  Rb6  1  0.87675872  0.32022757  0.39445889  1
  Rb  Rb7  1  0.15451495  0.03808429  0.16950584  1
  Rb  Rb8  1  0.62324128  0.32022757  0.89445889  1
  Rb  Rb9  1  0.37675872  0.67977243  0.10554111  1
  Rb  Rb10  1  0.34548505  0.03808429  0.66950584  1
  Rb  Rb11  1  0.88450780  0.54423431  0.18902758  1
  Na  Na12  1  0.61193123  0.12793040  0.10856056  1
  Na  Na13  1  0.38806877  0.87206960  0.89143944  1
  Na  Na14  1  0.88806877  0.12793040  0.60856056  1
  Na  Na15  1  0.11193123  0.87206960  0.39143944  1
  Ti  Ti16  1  0.36419370  0.24132399  0.48543975  1
  Ti  Ti17  1  0.63580630  0.75867601  0.51456025  1
  Ti  Ti18  1  0.86419370  0.75867601  0.01456025  1
  Ti  Ti19  1  0.13580630  0.24132399  0.98543975  1
  O  O20  1  0.97890952  0.79179276  0.17736093  1
  O  O21  1  0.47890952  0.20820724  0.32263907  1
  O  O22  1  0.25050903  0.40911578  0.04568137  1
  O  O23  1  0.16165544  0.11304138  0.46176826  1
  O  O24  1  0.74949097  0.59088422  0.95431863  1
  O  O25  1  0.42789696  0.76577748  0.40170079  1
  O  O26  1  0.66165544  0.88695862  0.03823174  1
  O  O27  1  0.02109048  0.20820724  0.82263907  1
  O  O28  1  0.75050903  0.59088422  0.45431863  1
  O  O29  1  0.07210304  0.76577748  0.90170079  1
  O  O30  1  0.33834456  0.11304138  0.96176826  1
  O  O31  1  0.83834456  0.88695862  0.53823174  1
  O  O32  1  0.57210304  0.23422252  0.59829921  1
  O  O33  1  0.24949097  0.40911578  0.54568137  1
  O  O34  1  0.52109048  0.79179276  0.67736093  1
  O  O35  1  0.92789696  0.23422252  0.09829921  1
