# generated using pymatgen
data_Ba6Nb14Si4O47
_symmetry_space_group_name_H-M   'P 1'
_cell_length_a   9.18155223
_cell_length_b   9.18155206
_cell_length_c   28.28056270
_cell_angle_alpha   90.00000000
_cell_angle_beta   90.00000000
_cell_angle_gamma   120.00000064
_symmetry_Int_Tables_number   1
_chemical_formula_structural   Ba6Nb14Si4O47
_chemical_formula_sum   'Ba12 Nb28 Si8 O94'
_cell_volume   2064.67113156
_cell_formula_units_Z   2
loop_
 _symmetry_equiv_pos_site_id
 _symmetry_equiv_pos_as_xyz
  1  'x, y, z'
loop_
 _atom_site_type_symbol
 _atom_site_label
 _atom_site_symmetry_multiplicity
 _atom_site_fract_x
 _atom_site_fract_y
 _atom_site_fract_z
 _atom_site_occupancy
  Ba  Ba0  1  0.00000000  0.58327626  0.01457301  1
  Ba  Ba1  1  0.60010148  0.00000000  0.29739752  1
  Ba  Ba2  1  0.58327626  0.58327626  0.51457301  1
  Ba  Ba3  1  0.41672374  0.41672374  0.01457301  1
  Ba  Ba4  1  0.60010148  0.60010148  0.79739752  1
  Ba  Ba5  1  0.41672374  0.00000000  0.51457301  1
  Ba  Ba6  1  0.39989852  0.00000000  0.79739752  1
  Ba  Ba7  1  0.39989852  0.39989852  0.29739752  1
  Ba  Ba8  1  0.00000000  0.39989852  0.79739752  1
  Ba  Ba9  1  1.00000000  0.41672374  0.51457301  1
  Ba  Ba10  1  0.58327626  0.00000000  0.01457301  1
  Ba  Ba11  1  1.00000000  0.60010148  0.29739752  1
  Nb  Nb12  1  0.21652040  0.00000000  0.94928547  1
  Nb  Nb13  1  0.66666700  0.33333300  0.41209350  1
  Nb  Nb14  1  0.00000000  0.76326244  0.58959347  1
  Nb  Nb15  1  1.00000000  0.78347960  0.44928547  1
  Nb  Nb16  1  0.00000000  0.25478230  0.36178516  1
  Nb  Nb17  1  0.74521770  0.74521770  0.36178516  1
  Nb  Nb18  1  0.76326244  0.76326244  0.08959347  1
  Nb  Nb19  1  0.78347960  0.78347960  0.94928547  1
  Nb  Nb20  1  0.25478230  0.25478230  0.86178516  1
  Nb  Nb21  1  0.74521770  0.00000000  0.86178516  1
  Nb  Nb22  1  1.00000000  0.23673756  0.08959347  1
  Nb  Nb23  1  0.78347960  0.00000000  0.44928547  1
  Nb  Nb24  1  0.33333300  0.66666700  0.91209350  1
  Nb  Nb25  1  0.23673756  0.00000000  0.08959347  1
  Nb  Nb26  1  0.23807748  0.00000000  0.22234329  1
  Nb  Nb27  1  0.76192252  0.76192252  0.22234329  1
  Nb  Nb28  1  0.21652040  0.21652040  0.44928547  1
  Nb  Nb29  1  0.25478230  0.00000000  0.36178516  1
  Nb  Nb30  1  1.00000000  0.74521770  0.86178516  1
  Nb  Nb31  1  1.00000000  0.23807748  0.22234329  1
  Nb  Nb32  1  0.66666700  0.33333300  0.91209350  1
  Nb  Nb33  1  0.00000000  0.21652040  0.94928547  1
  Nb  Nb34  1  0.76192252  0.00000000  0.72234329  1
  Nb  Nb35  1  0.00000000  0.76192252  0.72234329  1
  Nb  Nb36  1  0.23807748  0.23807748  0.72234329  1
  Nb  Nb37  1  0.76326244  0.00000000  0.58959347  1
  Nb  Nb38  1  0.23673756  0.23673756  0.58959347  1
  Nb  Nb39  1  0.33333300  0.66666700  0.41209350  1
  Si  Si40  1  0.66666700  0.33333300  0.21448175  1
  Si  Si41  1  0.66666700  0.33333300  0.59891742  1
  Si  Si42  1  0.66666700  0.33333300  0.71448175  1
  Si  Si43  1  0.33333300  0.66666700  0.09891742  1
  Si  Si44  1  0.66666700  0.33333300  0.09891742  1
  Si  Si45  1  0.33333300  0.66666700  0.59891742  1
  Si  Si46  1  0.33333300  0.66666700  0.71448175  1
  Si  Si47  1  0.33333300  0.66666700  0.21448175  1
  O  O48  1  1.00000000  0.28184689  0.15637870  1
  O  O49  1  0.81168264  0.81168264  0.87515376  1
  O  O50  1  0.69347836  0.51075519  0.23684476  1
  O  O51  1  0.82298320  0.82298320  0.72058270  1
  O  O52  1  1.00000000  0.18831736  0.87515376  1
  O  O53  1  1.00000000  0.17628177  0.59210641  1
  O  O54  1  0.00000000  0.82371823  0.09210641  1
  O  O55  1  0.52188405  0.83324862  0.44813460  1
  O  O56  1  0.00000000  0.81168264  0.37515376  1
  O  O57  1  0.17628177  0.00000000  0.59210641  1
  O  O58  1  0.18831736  0.18831736  0.37515376  1
  O  O59  1  0.82473820  0.31003599  0.36144994  1
  O  O60  1  0.51075519  0.81727683  0.73684476  1
  O  O61  1  0.81601379  0.51103047  0.57632963  1
  O  O62  1  0.69501668  0.18398621  0.57632963  1
  O  O63  1  0.31136457  0.47811595  0.44813460  1
  O  O64  1  1.00000000  0.23187168  0.43994827  1
  O  O65  1  0.17701680  0.17701680  0.22058270  1
  O  O66  1  0.51103047  0.81601379  0.57632963  1
  O  O67  1  0.81727683  0.30652164  0.23684476  1
  O  O68  1  0.82298320  0.00000000  0.22058270  1
  O  O69  1  0.47811595  0.31136457  0.44813460  1
  O  O70  1  0.66666700  0.33333300  0.65668438  1
  O  O71  1  0.21690318  0.00000000  0.01607046  1
  O  O72  1  0.30498332  0.48896953  0.57632963  1
  O  O73  1  0.81168264  0.00000000  0.37515376  1
  O  O74  1  0.68996401  0.17526180  0.86144994  1
  O  O75  1  0.66666700  0.33333300  0.15668438  1
  O  O76  1  0.68996401  0.51470221  0.36144994  1
  O  O77  1  0.00000000  0.76812832  0.93994827  1
  O  O78  1  0.69501668  0.51103047  0.07632963  1
  O  O79  1  0.51470221  0.82473820  0.86144994  1
  O  O80  1  0.28184689  0.00000000  0.15637870  1
  O  O81  1  0.31003599  0.82473820  0.36144994  1
  O  O82  1  0.30498332  0.81601379  0.07632963  1
  O  O83  1  0.48924481  0.18272317  0.23684476  1
  O  O84  1  0.51470221  0.68996401  0.36144994  1
  O  O85  1  0.51075519  0.69347836  0.23684476  1
  O  O86  1  0.30652164  0.48924481  0.73684476  1
  O  O87  1  0.16675138  0.47811595  0.94813460  1
  O  O88  1  0.30652164  0.81727683  0.23684476  1
  O  O89  1  0.18398621  0.48896953  0.07632963  1
  O  O90  1  0.83324862  0.31136457  0.94813460  1
  O  O91  1  0.47811595  0.16675138  0.94813460  1
  O  O92  1  0.00000000  0.21690318  0.01607046  1
  O  O93  1  0.76812832  0.00000000  0.93994827  1
  O  O94  1  0.00000000  0.71815311  0.65637870  1
  O  O95  1  0.78222540  0.00000000  0.79640585  1
  O  O96  1  0.17701680  0.00000000  0.72058270  1
  O  O97  1  0.23187168  0.00000000  0.43994827  1
  O  O98  1  0.82371823  0.00000000  0.09210641  1
  O  O99  1  0.17628177  0.17628177  0.09210641  1
  O  O100  1  0.33333300  0.66666700  0.65668438  1
  O  O101  1  0.51103047  0.69501668  0.07632963  1
  O  O102  1  0.33333300  0.66666700  0.15668438  1
  O  O103  1  0.16675138  0.68863543  0.44813460  1
  O  O104  1  0.71815311  0.00000000  0.65637870  1
  O  O105  1  1.00000000  0.78309682  0.51607046  1
  O  O106  1  0.68863543  0.52188405  0.94813460  1
  O  O107  1  0.31003599  0.48529779  0.86144994  1
  O  O108  1  0.17526180  0.68996401  0.86144994  1
  O  O109  1  0.28184689  0.28184689  0.65637870  1
  O  O110  1  0.00000000  0.21777460  0.29640585  1
  O  O111  1  0.18272317  0.48924481  0.23684476  1
  O  O112  1  0.21690318  0.21690318  0.51607046  1
  O  O113  1  0.00000000  0.82298320  0.22058270  1
  O  O114  1  0.81601379  0.30498332  0.07632963  1
  O  O115  1  0.71815311  0.71815311  0.15637870  1
  O  O116  1  0.78309682  0.00000000  0.51607046  1
  O  O117  1  0.82371823  0.82371823  0.59210641  1
  O  O118  1  0.78309682  0.78309682  0.01607046  1
  O  O119  1  0.48896953  0.30498332  0.57632963  1
  O  O120  1  0.21777460  0.21777460  0.79640585  1
  O  O121  1  0.31136457  0.83324862  0.94813460  1
  O  O122  1  0.82473820  0.51470221  0.86144994  1
  O  O123  1  0.18398621  0.69501668  0.57632963  1
  O  O124  1  0.48529779  0.17526180  0.36144994  1
  O  O125  1  0.83324862  0.52188405  0.44813460  1
  O  O126  1  0.81727683  0.51075519  0.73684476  1
  O  O127  1  1.00000000  0.78222540  0.79640585  1
  O  O128  1  0.48529779  0.31003599  0.86144994  1
  O  O129  1  0.18272317  0.69347836  0.73684476  1
  O  O130  1  0.17526180  0.48529779  0.36144994  1
  O  O131  1  0.18831736  0.00000000  0.87515376  1
  O  O132  1  0.52188405  0.68863543  0.94813460  1
  O  O133  1  1.00000000  0.17701680  0.72058270  1
  O  O134  1  0.76812832  0.76812832  0.43994827  1
  O  O135  1  0.23187168  0.23187168  0.93994827  1
  O  O136  1  0.69347836  0.18272317  0.73684476  1
  O  O137  1  0.68863543  0.16675138  0.44813460  1
  O  O138  1  0.48924481  0.30652164  0.73684476  1
  O  O139  1  0.48896953  0.18398621  0.07632963  1
  O  O140  1  0.21777460  0.00000000  0.29640585  1
  O  O141  1  0.78222540  0.78222540  0.29640585  1
