# generated using pymatgen
data_Ca2Nb2CoO8
_symmetry_space_group_name_H-M   'P 1'
_cell_length_a   5.47682332
_cell_length_b   6.36979107
_cell_length_c   10.02414679
_cell_angle_alpha   108.53099964
_cell_angle_beta   91.36187626
_cell_angle_gamma   89.98520818
_symmetry_Int_Tables_number   1
_chemical_formula_structural   Ca2Nb2CoO8
_chemical_formula_sum   'Ca4 Nb4 Co2 O16'
_cell_volume   331.46957389
_cell_formula_units_Z   2
loop_
 _symmetry_equiv_pos_site_id
 _symmetry_equiv_pos_as_xyz
  1  'x, y, z'
loop_
 _atom_site_type_symbol
 _atom_site_label
 _atom_site_symmetry_multiplicity
 _atom_site_fract_x
 _atom_site_fract_y
 _atom_site_fract_z
 _atom_site_occupancy
  Ca  Ca0  1  0.75371626  0.47027108  0.58324624  1
  Ca  Ca1  1  0.74129020  0.88731477  0.41816112  1
  Ca  Ca2  1  0.24150914  0.53062043  0.41813052  1
  Ca  Ca3  1  0.25351212  0.11244835  0.58145488  1
  Nb  Nb4  1  0.74800834  0.26398778  0.22144115  1
  Nb  Nb5  1  0.74658191  0.04273725  0.77907154  1
  Nb  Nb6  1  0.24704436  0.73626853  0.77910073  1
  Nb  Nb7  1  0.24781353  0.95711183  0.22083245  1
  Co  Co8  1  0.74776615  0.64363602  0.00025555  1
  Co  Co9  1  0.24762578  0.35561705  -0.00016918  1
  O  O10  1  0.08525983  0.19548529  0.13852235  1
  O  O11  1  0.41018168  0.05723368  0.86180718  1
  O  O12  1  0.90946301  0.80317490  0.86098301  1
  O  O13  1  0.58548022  0.94317223  0.13833280  1
  O  O14  1  0.57680382  0.41276721  0.11366987  1
  O  O15  1  0.91979333  0.29818610  0.88692649  1
  O  O16  1  0.42000361  0.58857383  0.88671924  1
  O  O17  1  0.07664362  0.70098023  0.11307685  1
  O  O18  1  0.49796868  0.24502018  0.36505512  1
  O  O19  1  0.99661800  0.88028577  0.63508709  1
  O  O20  1  0.34129834  0.83515245  0.36781183  1
  O  O21  1  0.15420767  0.46745987  0.63213219  1
  O  O22  1  0.65355991  0.16447787  0.63199819  1
  O  O23  1  0.84129770  0.53254774  0.36877692  1
  O  O24  1  0.99807092  0.11931076  0.36476141  1
  O  O25  1  0.49638787  0.75546479  0.63507747  1
