# generated using pymatgen
data_Rb2Sb2OF10
_symmetry_space_group_name_H-M   'P 1'
_cell_length_a   8.20323288
_cell_length_b   8.58560148
_cell_length_c   15.58417720
_cell_angle_alpha   90.00000000
_cell_angle_beta   90.00000000
_cell_angle_gamma   96.57567002
_symmetry_Int_Tables_number   1
_chemical_formula_structural   Rb2Sb2OF10
_chemical_formula_sum   'Rb8 Sb8 O4 F40'
_cell_volume   1090.36823702
_cell_formula_units_Z   4
loop_
 _symmetry_equiv_pos_site_id
 _symmetry_equiv_pos_as_xyz
  1  'x, y, z'
loop_
 _atom_site_type_symbol
 _atom_site_label
 _atom_site_symmetry_multiplicity
 _atom_site_fract_x
 _atom_site_fract_y
 _atom_site_fract_z
 _atom_site_occupancy
  Rb  Rb0  1  0.24724326  0.03224313  0.68373466  1
  Rb  Rb1  1  0.70598963  0.17101421  0.04298802  1
  Rb  Rb2  1  0.20598963  0.67101421  0.45701198  1
  Rb  Rb3  1  0.79401037  0.32898579  0.54298802  1
  Rb  Rb4  1  0.29401037  0.82898579  0.95701198  1
  Rb  Rb5  1  0.25275674  0.46775687  0.18373466  1
  Rb  Rb6  1  0.75275674  0.96775687  0.31626534  1
  Rb  Rb7  1  0.74724326  0.53224313  0.81626534  1
  Sb  Sb8  1  0.76106905  0.69269825  0.07177668  1
  Sb  Sb9  1  0.28264257  0.95232631  0.24286300  1
  Sb  Sb10  1  0.23893095  0.30730175  0.92822332  1
  Sb  Sb11  1  0.21735743  0.54767369  0.74286300  1
  Sb  Sb12  1  0.71735743  0.04767369  0.75713700  1
  Sb  Sb13  1  0.26106905  0.19269825  0.42822332  1
  Sb  Sb14  1  0.78264257  0.45232631  0.25713700  1
  Sb  Sb15  1  0.73893095  0.80730175  0.57177668  1
  O  O16  1  0.36777676  0.07361157  0.34274941  1
  O  O17  1  0.63222324  0.92638843  0.65725059  1
  O  O18  1  0.86777676  0.57361157  0.15725059  1
  O  O19  1  0.13222324  0.42638843  0.84274941  1
  F  F20  1  0.67847406  0.60981210  0.62992585  1
  F  F21  1  0.98945770  0.51402612  0.31438976  1
  F  F22  1  0.83897813  0.68609027  0.48507458  1
  F  F23  1  0.87477745  0.27251366  0.20960967  1
  F  F24  1  0.01054230  0.48597388  0.68561024  1
  F  F25  1  0.17847406  0.10981210  0.87007415  1
  F  F26  1  0.80434878  0.99356099  0.50363991  1
  F  F27  1  0.69565122  0.50643901  0.00363991  1
  F  F28  1  0.31505289  0.37776991  0.69159709  1
  F  F29  1  0.03979584  0.27968239  0.99480988  1
  F  F30  1  0.95040906  0.82731581  0.62690057  1
  F  F31  1  0.19565122  0.00643901  0.49636009  1
  F  F32  1  0.81505289  0.87776991  0.80840291  1
  F  F33  1  0.04959094  0.17268419  0.37309943  1
  F  F34  1  0.12522255  0.72748634  0.79039033  1
  F  F35  1  0.92065962  0.12830116  0.70161723  1
  F  F36  1  0.68494711  0.62223009  0.30840291  1
  F  F37  1  0.54959094  0.67268419  0.12690057  1
  F  F38  1  0.18494711  0.12223009  0.19159709  1
  F  F39  1  0.62522255  0.22748634  0.70960967  1
  F  F40  1  0.53979584  0.77968239  0.50519012  1
  F  F41  1  0.21865645  0.82367835  0.14415836  1
  F  F42  1  0.32152594  0.39018790  0.37007415  1
  F  F43  1  0.37477745  0.77251366  0.29039033  1
  F  F44  1  0.33897813  0.18609027  0.01492542  1
  F  F45  1  0.45040906  0.32731581  0.87309943  1
  F  F46  1  0.71865645  0.32367835  0.35584164  1
  F  F47  1  0.57934038  0.37169884  0.20161723  1
  F  F48  1  0.51054230  0.98597388  0.81438976  1
  F  F49  1  0.82152594  0.89018790  0.12992585  1
  F  F50  1  0.46020416  0.22031761  0.49480988  1
  F  F51  1  0.42065962  0.62830116  0.79838277  1
  F  F52  1  0.07934038  0.87169884  0.29838277  1
  F  F53  1  0.28134355  0.67632165  0.64415836  1
  F  F54  1  0.16102187  0.31390973  0.51492542  1
  F  F55  1  0.66102187  0.81390973  0.98507458  1
  F  F56  1  0.48945770  0.01402612  0.18561024  1
  F  F57  1  0.96020416  0.72031761  0.00519012  1
  F  F58  1  0.78134355  0.17632165  0.85584164  1
  F  F59  1  0.30434878  0.49356099  0.99636009  1
