# generated using pymatgen
data_Zn2B2PbO6
_symmetry_space_group_name_H-M   'P 1'
_cell_length_a   5.03378791
_cell_length_b   10.74116994
_cell_length_c   11.52302094
_cell_angle_alpha   90.00000000
_cell_angle_beta   90.00000000
_cell_angle_gamma   90.00000000
_symmetry_Int_Tables_number   1
_chemical_formula_structural   Zn2B2PbO6
_chemical_formula_sum   'Zn8 B8 Pb4 O24'
_cell_volume   623.03558485
_cell_formula_units_Z   4
loop_
 _symmetry_equiv_pos_site_id
 _symmetry_equiv_pos_as_xyz
  1  'x, y, z'
loop_
 _atom_site_type_symbol
 _atom_site_label
 _atom_site_symmetry_multiplicity
 _atom_site_fract_x
 _atom_site_fract_y
 _atom_site_fract_z
 _atom_site_occupancy
  Zn  Zn0  1  0.18117349  0.15041517  0.50072936  1
  Zn  Zn1  1  0.68117349  0.84958483  1.00072936  1
  Zn  Zn2  1  0.31882651  0.65041517  0.50072936  1
  Zn  Zn3  1  0.81882651  0.84958483  0.49927064  1
  Zn  Zn4  1  0.31882651  0.15041517  -0.00072936  1
  Zn  Zn5  1  0.81882651  0.34958483  1.00072936  1
  Zn  Zn6  1  0.68117349  0.34958483  0.49927064  1
  Zn  Zn7  1  0.18117349  0.65041517  -0.00072936  1
  B  B8  1  0.69372863  0.58405561  0.10171000  1
  B  B9  1  0.30627137  0.91594439  0.60171000  1
  B  B10  1  0.30627137  0.41594439  0.89829000  1
  B  B11  1  0.80627137  0.08405561  0.10171000  1
  B  B12  1  0.19372863  0.91594439  0.89829000  1
  B  B13  1  0.69372863  0.08405561  0.39829000  1
  B  B14  1  0.80627137  0.58405561  0.39829000  1
  B  B15  1  0.19372863  0.41594439  0.60171000  1
  Pb  Pb16  1  0.25000000  0.44058992  0.25000000  1
  Pb  Pb17  1  0.75000000  0.55941008  0.75000000  1
  Pb  Pb18  1  0.25000000  0.94058992  0.25000000  1
  Pb  Pb19  1  0.75000000  0.05941008  0.75000000  1
  O  O20  1  0.66038400  0.47747415  0.37652516  1
  O  O21  1  0.33961600  0.52252585  0.62347484  1
  O  O22  1  0.31814796  0.81313495  0.94681149  1
  O  O23  1  0.31814796  0.31313495  0.55318851  1
  O  O24  1  0.33961600  0.02252585  0.87652516  1
  O  O25  1  0.68185204  0.18686505  0.05318851  1
  O  O26  1  0.83961600  0.97747415  0.37652516  1
  O  O27  1  0.68185204  0.68686505  0.44681149  1
  O  O28  1  0.57797057  0.41056076  0.87535604  1
  O  O29  1  0.92202943  0.91056076  0.87535604  1
  O  O30  1  0.66038400  0.97747415  0.12347484  1
  O  O31  1  0.16038400  0.52252585  0.87652516  1
  O  O32  1  0.18185204  0.31313495  0.94681149  1
  O  O33  1  0.92202943  0.41056076  0.62464396  1
  O  O34  1  0.18185204  0.81313495  0.55318851  1
  O  O35  1  0.57797057  0.91056076  0.62464396  1
  O  O36  1  0.07797057  0.08943924  0.12464396  1
  O  O37  1  0.42202943  0.08943924  0.37535604  1
  O  O38  1  0.16038400  0.02252585  0.62347484  1
  O  O39  1  0.81814796  0.68686505  0.05318851  1
  O  O40  1  0.07797057  0.58943924  0.37535604  1
  O  O41  1  0.83961600  0.47747415  0.12347484  1
  O  O42  1  0.81814796  0.18686505  0.44681149  1
  O  O43  1  0.42202943  0.58943924  0.12464396  1
