# generated using pymatgen
data_Tb3CuSiS7
_symmetry_space_group_name_H-M   'P 1'
_cell_length_a   9.94491872
_cell_length_b   9.94491834
_cell_length_c   5.70554136
_cell_angle_alpha   90.00000000
_cell_angle_beta   90.00000000
_cell_angle_gamma   120.00000124
_symmetry_Int_Tables_number   1
_chemical_formula_structural   Tb3CuSiS7
_chemical_formula_sum   'Tb6 Si2 Cu2 S14'
_cell_volume   488.68605175
_cell_formula_units_Z   2
loop_
 _symmetry_equiv_pos_site_id
 _symmetry_equiv_pos_as_xyz
  1  'x, y, z'
loop_
 _atom_site_type_symbol
 _atom_site_label
 _atom_site_symmetry_multiplicity
 _atom_site_fract_x
 _atom_site_fract_y
 _atom_site_fract_z
 _atom_site_occupancy
  Tb  Tb0  1  0.87473753  0.64364671  0.24812463  1
  Tb  Tb1  1  0.35635329  0.23109082  0.24812463  1
  Tb  Tb2  1  0.23109065  0.87473755  0.74812439  1
  Tb  Tb3  1  0.12526245  0.35635310  0.74812439  1
  Tb  Tb4  1  0.64364690  0.76890935  0.74812439  1
  Tb  Tb5  1  0.76890918  0.12526247  0.24812463  1
  Si  Si6  1  0.33333300  0.66666700  0.33667305  1
  Cu  Cu7  1  0.00000000  0.00000000  0.20050227  1
  Si  Si8  1  0.66666700  0.33333300  0.83667322  1
  Cu  Cu9  1  0.00000000  0.00000000  0.70052779  1
  S  S10  1  0.66666700  0.33333300  0.46674399  1
  S  S11  1  0.89206302  0.41396185  0.98657507  1
  S  S12  1  0.90872831  0.74324837  0.72342283  1
  S  S13  1  0.52189883  0.10793698  0.98657507  1
  S  S14  1  0.47809988  0.89206331  0.48657304  1
  S  S15  1  0.74324630  0.83451891  0.22342543  1
  S  S16  1  0.10793669  0.58603657  0.48657304  1
  S  S17  1  0.58603815  0.47810117  0.98657507  1
  S  S18  1  0.16548109  0.90872739  0.22342543  1
  S  S19  1  0.83452006  0.09127169  0.72342283  1
  S  S20  1  0.09127261  0.25675370  0.22342543  1
  S  S21  1  0.33333300  0.66666700  0.96674349  1
  S  S22  1  0.41396343  0.52190012  0.48657304  1
  S  S23  1  0.25675163  0.16547994  0.72342283  1
