# generated using pymatgen
data_UTl2(TeO4)2
_symmetry_space_group_name_H-M   'P 1'
_cell_length_a   5.53682167
_cell_length_b   8.50609036
_cell_length_c   21.42325671
_cell_angle_alpha   90.00000000
_cell_angle_beta   91.87895152
_cell_angle_gamma   90.00000000
_symmetry_Int_Tables_number   1
_chemical_formula_structural   UTl2(TeO4)2
_chemical_formula_sum   'U4 Tl8 Te8 O32'
_cell_volume   1008.42231838
_cell_formula_units_Z   4
loop_
 _symmetry_equiv_pos_site_id
 _symmetry_equiv_pos_as_xyz
  1  'x, y, z'
loop_
 _atom_site_type_symbol
 _atom_site_label
 _atom_site_symmetry_multiplicity
 _atom_site_fract_x
 _atom_site_fract_y
 _atom_site_fract_z
 _atom_site_occupancy
  U  U0  1  0.73944382  0.17476270  0.14255544  1
  U  U1  1  0.26055618  0.82523730  0.85744456  1
  U  U2  1  0.23944382  0.32523730  0.64255544  1
  U  U3  1  0.76055618  0.67476270  0.35744456  1
  Tl  Tl4  1  0.74305821  0.11348950  0.95033737  1
  Tl  Tl5  1  0.76945807  0.16515853  0.35275242  1
  Tl  Tl6  1  0.73054193  0.66515853  0.14724758  1
  Tl  Tl7  1  0.75694179  0.61348950  0.54966263  1
  Tl  Tl8  1  0.24305821  0.38651050  0.45033737  1
  Tl  Tl9  1  0.23054193  0.83484147  0.64724758  1
  Tl  Tl10  1  0.26945807  0.33484147  0.85275242  1
  Tl  Tl11  1  0.25694179  0.88651050  0.04966263  1
  Te  Te12  1  0.75766997  0.07727065  0.76955669  1
  Te  Te13  1  0.72774785  0.08295935  0.55265641  1
  Te  Te14  1  0.24233003  0.92272935  0.23044331  1
  Te  Te15  1  0.22774785  0.41704065  0.05265641  1
  Te  Te16  1  0.25766997  0.42272935  0.26955669  1
  Te  Te17  1  0.27225215  0.91704065  0.44734359  1
  Te  Te18  1  0.74233003  0.57727065  0.73044331  1
  Te  Te19  1  0.77225215  0.58295935  0.94734359  1
  O  O20  1  0.85469937  0.03618578  0.08231341  1
  O  O21  1  0.97005062  0.90446382  0.78919201  1
  O  O22  1  0.02994938  0.09553618  0.21080799  1
  O  O23  1  0.99420068  0.48830448  0.32127024  1
  O  O24  1  0.41514765  0.84142155  0.52196329  1
  O  O25  1  0.51332342  0.86864181  0.38874374  1
  O  O26  1  0.52994938  0.40446382  0.71080799  1
  O  O27  1  0.37692307  0.68062676  0.79978967  1
  O  O28  1  0.00579932  0.51169552  0.67872976  1
  O  O29  1  0.12307693  0.18062676  0.70021033  1
  O  O30  1  0.94896366  0.25356534  0.57032294  1
  O  O31  1  0.35469937  0.46381422  0.58231341  1
  O  O32  1  0.62307693  0.31937324  0.20021033  1
  O  O33  1  0.86191915  0.23031351  0.82695981  1
  O  O34  1  0.58485235  0.15857845  0.47803671  1
  O  O35  1  0.55103634  0.75356534  0.92967706  1
  O  O36  1  0.91514765  0.65857845  0.02196329  1
  O  O37  1  0.64530063  0.53618578  0.41768659  1
  O  O38  1  0.47005062  0.59553618  0.28919201  1
  O  O39  1  0.48667658  0.13135819  0.61125626  1
  O  O40  1  0.05103634  0.74643466  0.42967706  1
  O  O41  1  0.50579932  0.98830448  0.17872976  1
  O  O42  1  0.87692307  0.81937324  0.29978967  1
  O  O43  1  0.08485235  0.34142155  0.97803671  1
  O  O44  1  0.36191915  0.26968649  0.32695981  1
  O  O45  1  0.49420068  0.01169552  0.82127024  1
  O  O46  1  0.63808085  0.73031351  0.67304019  1
  O  O47  1  0.98667658  0.36864181  0.11125626  1
  O  O48  1  0.44896366  0.24643466  0.07032294  1
  O  O49  1  0.13808085  0.76968649  0.17304019  1
  O  O50  1  0.14530063  0.96381422  0.91768659  1
  O  O51  1  0.01332342  0.63135819  0.88874374  1
