# generated using pymatgen
data_BaY2Si3O10
_symmetry_space_group_name_H-M   'P 1'
_cell_length_a   5.47404489
_cell_length_b   6.93551259
_cell_length_c   12.35796798
_cell_angle_alpha   90.00000000
_cell_angle_beta   90.00000000
_cell_angle_gamma   106.35971638
_symmetry_Int_Tables_number   1
_chemical_formula_structural   BaY2Si3O10
_chemical_formula_sum   'Ba2 Y4 Si6 O20'
_cell_volume   450.17824840
_cell_formula_units_Z   2
loop_
 _symmetry_equiv_pos_site_id
 _symmetry_equiv_pos_as_xyz
  1  'x, y, z'
loop_
 _atom_site_type_symbol
 _atom_site_label
 _atom_site_symmetry_multiplicity
 _atom_site_fract_x
 _atom_site_fract_y
 _atom_site_fract_z
 _atom_site_occupancy
  Ba  Ba0  1  0.23722032  0.98484006  0.75000000  1
  Ba  Ba1  1  0.76277968  0.01515994  0.25000000  1
  Y  Y2  1  0.84117190  0.31542589  0.59865181  1
  Y  Y3  1  0.84117190  0.31542589  0.90134819  1
  Y  Y4  1  0.15882810  0.68457411  0.09865181  1
  Y  Y5  1  0.15882810  0.68457411  0.40134819  1
  Si  Si6  1  0.30434369  0.21420209  0.06171963  1
  Si  Si7  1  0.58135823  0.48822919  0.25000000  1
  Si  Si8  1  0.41864177  0.51177081  0.75000000  1
  Si  Si9  1  0.30434369  0.21420209  0.43828037  1
  Si  Si10  1  0.69565631  0.78579791  0.56171963  1
  Si  Si11  1  0.69565631  0.78579791  0.93828037  1
  O  O12  1  0.10254348  0.35171095  0.44974378  1
  O  O13  1  0.54594852  0.33851400  0.14339968  1
  O  O14  1  0.45405148  0.66148600  0.85660032  1
  O  O15  1  0.54594852  0.33851400  0.35660032  1
  O  O16  1  0.16396547  0.00347247  0.37758024  1
  O  O17  1  0.83603453  0.99652753  0.87758024  1
  O  O18  1  0.56517901  0.80805662  0.05365153  1
  O  O19  1  0.89745652  0.64828905  0.94974378  1
  O  O20  1  0.89745652  0.64828905  0.55025622  1
  O  O21  1  0.37304414  0.61653999  0.25000000  1
  O  O22  1  0.16396547  0.00347247  0.12241976  1
  O  O23  1  0.43482099  0.19194338  0.55365153  1
  O  O24  1  0.87502722  0.63292629  0.25000000  1
  O  O25  1  0.45405148  0.66148600  0.64339968  1
  O  O26  1  0.12497278  0.36707371  0.75000000  1
  O  O27  1  0.43482099  0.19194338  0.94634847  1
  O  O28  1  0.62695586  0.38346001  0.75000000  1
  O  O29  1  0.56517901  0.80805662  0.44634847  1
  O  O30  1  0.83603453  0.99652753  0.62241976  1
  O  O31  1  0.10254348  0.35171095  0.05025622  1
