# generated using pymatgen
data_Pr3Si2S8Br
_symmetry_space_group_name_H-M   'P 1'
_cell_length_a   7.80797637
_cell_length_b   8.85155031
_cell_length_c   11.00527376
_cell_angle_alpha   96.81505976
_cell_angle_beta   90.00000000
_cell_angle_gamma   116.17098048
_symmetry_Int_Tables_number   1
_chemical_formula_structural   Pr3Si2S8Br
_chemical_formula_sum   'Pr6 Si4 S16 Br2'
_cell_volume   676.63522475
_cell_formula_units_Z   2
loop_
 _symmetry_equiv_pos_site_id
 _symmetry_equiv_pos_as_xyz
  1  'x, y, z'
loop_
 _atom_site_type_symbol
 _atom_site_label
 _atom_site_symmetry_multiplicity
 _atom_site_fract_x
 _atom_site_fract_y
 _atom_site_fract_z
 _atom_site_occupancy
  Pr  Pr0  1  0.92576133  0.60764261  0.31607909  1
  Pr  Pr1  1  0.31811872  0.39235739  0.18392091  1
  Pr  Pr2  1  0.61022646  0.00000000  0.25000000  1
  Pr  Pr3  1  0.68188128  0.60764261  0.81607909  1
  Pr  Pr4  1  0.07423867  0.39235739  0.68392091  1
  Pr  Pr5  1  0.38977354  0.00000000  0.75000000  1
  Si  Si6  1  0.62551444  0.31963994  0.52969844  1
  Si  Si7  1  0.37448556  0.68036006  0.47030156  1
  Si  Si8  1  0.69412550  0.31963994  0.02969844  1
  Si  Si9  1  0.30587450  0.68036006  0.97030156  1
  S  S10  1  0.58893951  0.86665118  0.95270110  1
  S  S11  1  0.14552241  0.43394043  0.41470734  1
  S  S12  1  0.39800459  0.29131666  0.64480764  1
  S  S13  1  0.25759906  0.70314453  0.16031427  1
  S  S14  1  0.60199541  0.70868334  0.35519236  1
  S  S15  1  0.72228833  0.13334882  0.54729890  1
  S  S16  1  0.74240094  0.29685547  0.83968573  1
  S  S17  1  0.27771167  0.86665118  0.45270110  1
  S  S18  1  0.10668793  0.70868334  0.85519236  1
  S  S19  1  0.41106049  0.13334882  0.04729890  1
  S  S20  1  0.55445452  0.29685547  0.33968573  1
  S  S21  1  0.71158198  0.56605957  0.08529266  1
  S  S22  1  0.89331207  0.29131666  0.14480764  1
  S  S23  1  0.44554548  0.70314453  0.66031427  1
  S  S24  1  0.85447759  0.56605957  0.58529266  1
  S  S25  1  0.28841802  0.43394043  0.91470734  1
  Br  Br26  1  0.00457737  0.00000000  0.25000000  1
  Br  Br27  1  0.99542263  0.00000000  0.75000000  1
