# generated using pymatgen
data_Ba2CuTeO6
_symmetry_space_group_name_H-M   'P 1'
_cell_length_a   5.81958481
_cell_length_b   5.93624717
_cell_length_c   10.29172018
_cell_angle_alpha   105.92250188
_cell_angle_beta   90.00450588
_cell_angle_gamma   119.30772651
_symmetry_Int_Tables_number   1
_chemical_formula_structural   Ba2CuTeO6
_chemical_formula_sum   'Ba4 Cu2 Te2 O12'
_cell_volume   294.28722854
_cell_formula_units_Z   2
loop_
 _symmetry_equiv_pos_site_id
 _symmetry_equiv_pos_as_xyz
  1  'x, y, z'
loop_
 _atom_site_type_symbol
 _atom_site_label
 _atom_site_symmetry_multiplicity
 _atom_site_fract_x
 _atom_site_fract_y
 _atom_site_fract_z
 _atom_site_occupancy
  Ba  Ba0  1  0.12722980  0.25537965  0.37540067  1
  Ba  Ba1  1  0.87277020  0.74462035  0.62459933  1
  Ba  Ba2  1  0.71467901  0.42847162  0.14548318  1
  Ba  Ba3  1  0.28532099  0.57152838  0.85451682  1
  Cu  Cu4  1  0.59580805  0.19160275  0.78428112  1
  Cu  Cu5  1  0.40419195  0.80839725  0.21571888  1
  Te  Te6  1  0.00000000  0.00000000  0.00000000  1
  Te  Te7  1  0.50000000  0.00000000  0.50000000  1
  O  O8  1  0.36641455  0.73160505  0.59687327  1
  O  O9  1  0.63358545  0.26839495  0.40312673  1
  O  O10  1  0.28638349  0.09630589  0.88578485  1
  O  O11  1  0.16433754  0.78971868  0.36951308  1
  O  O12  1  0.81228095  0.62884756  0.87431508  1
  O  O13  1  0.19321497  0.89964547  0.11029574  1
  O  O14  1  0.62068679  0.78706730  0.36785981  1
  O  O15  1  0.80678503  0.10035453  0.88970426  1
  O  O16  1  0.83566246  0.21028132  0.63048692  1
  O  O17  1  0.71361651  0.90369411  0.11421515  1
  O  O18  1  0.18771905  0.37115244  0.12568492  1
  O  O19  1  0.37931321  0.21293270  0.63214019  1
