# generated using pymatgen
data_K3Na3Nb8(PO7)5
_symmetry_space_group_name_H-M   'P 1'
_cell_length_a   11.54572215
_cell_length_b   11.54572239
_cell_length_c   11.54572183
_cell_angle_alpha   46.64656369
_cell_angle_beta   46.64656259
_cell_angle_gamma   46.64656467
_symmetry_Int_Tables_number   1
_chemical_formula_structural   K3Na3Nb8(PO7)5
_chemical_formula_sum   'K3 Na3 Nb8 P5 O35'
_cell_volume   743.28190229
_cell_formula_units_Z   1
loop_
 _symmetry_equiv_pos_site_id
 _symmetry_equiv_pos_as_xyz
  1  'x, y, z'
loop_
 _atom_site_type_symbol
 _atom_site_label
 _atom_site_symmetry_multiplicity
 _atom_site_fract_x
 _atom_site_fract_y
 _atom_site_fract_z
 _atom_site_occupancy
  K  K0  1  0.41161824  0.00000000  0.58838176  1
  K  K1  1  0.58838176  0.41161824  0.00000000  1
  K  K2  1  1.00000000  0.58838176  0.41161824  1
  Na  Na3  1  0.28541642  0.71458358  0.50000000  1
  Na  Na4  1  0.50000000  0.28541642  0.71458358  1
  Na  Na5  1  0.71458358  0.50000000  0.28541642  1
  Nb  Nb6  1  0.29827811  0.82229101  0.06974827  1
  Nb  Nb7  1  0.76588564  0.76588564  0.76588564  1
  Nb  Nb8  1  0.23411436  0.23411436  0.23411436  1
  Nb  Nb9  1  0.06974827  0.29827811  0.82229101  1
  Nb  Nb10  1  0.17770899  0.70172189  0.93025173  1
  Nb  Nb11  1  0.93025173  0.17770899  0.70172189  1
  Nb  Nb12  1  0.70172189  0.93025173  0.17770899  1
  Nb  Nb13  1  0.82229101  0.06974827  0.29827811  1
  P  P14  1  0.05704109  0.50000000  0.94295891  1
  P  P15  1  0.94295891  0.05704109  0.50000000  1
  P  P16  1  0.40745675  0.40745675  0.40745675  1
  P  P17  1  0.50000000  0.94295891  0.05704109  1
  P  P18  1  0.59254325  0.59254325  0.59254325  1
  O  O19  1  0.56545329  0.26422287  0.33441857  1
  O  O20  1  0.23825293  0.76174707  1.00000000  1
  O  O21  1  0.33441857  0.56545329  0.26422287  1
  O  O22  1  0.75141496  0.10082466  0.94332929  1
  O  O23  1  0.45645494  0.45645494  0.45645494  1
  O  O24  1  0.26422287  0.33441857  0.56545329  1
  O  O25  1  0.86802998  0.61216024  0.95529471  1
  O  O26  1  0.10082466  0.94332929  0.75141496  1
  O  O27  1  0.00000000  0.23825293  0.76174707  1
  O  O28  1  0.38783976  0.13197002  0.04470529  1
  O  O29  1  0.54354506  0.54354506  0.54354506  1
  O  O30  1  0.61216024  0.95529471  0.86802998  1
  O  O31  1  0.15362593  0.61458717  0.83725915  1
  O  O32  1  0.94332929  0.75141496  0.10082466  1
  O  O33  1  0.24858504  0.05667071  0.89917534  1
  O  O34  1  0.73577713  0.43454671  0.66558143  1
  O  O35  1  0.16274085  0.38541283  0.84637407  1
  O  O36  1  0.72878905  0.91679515  0.55660675  1
  O  O37  1  0.89917534  0.24858504  0.05667071  1
  O  O38  1  0.84637407  0.16274085  0.38541283  1
  O  O39  1  0.44339325  0.08320485  0.27121095  1
  O  O40  1  0.27121095  0.44339325  0.08320485  1
  O  O41  1  0.83725915  0.15362593  0.61458717  1
  O  O42  1  0.76174707  1.00000000  0.23825293  1
  O  O43  1  0.05667071  0.89917534  0.24858504  1
  O  O44  1  0.95529471  0.86802998  0.61216024  1
  O  O45  1  0.66558143  0.73577713  0.43454671  1
  O  O46  1  0.55660675  0.72878905  0.91679515  1
  O  O47  1  0.43454671  0.66558143  0.73577713  1
  O  O48  1  0.13197002  0.04470529  0.38783976  1
  O  O49  1  0.08320485  0.27121095  0.44339325  1
  O  O50  1  0.61458717  0.83725915  0.15362593  1
  O  O51  1  0.04470529  0.38783976  0.13197002  1
  O  O52  1  0.38541283  0.84637407  0.16274085  1
  O  O53  1  0.91679515  0.55660675  0.72878905  1
