# generated using pymatgen
data_Sr2Y2Fe2O7
_symmetry_space_group_name_H-M   'P 1'
_cell_length_a   12.63400871
_cell_length_b   12.63400871
_cell_length_c   12.63400871
_cell_angle_alpha   37.43112833
_cell_angle_beta   153.38536656
_cell_angle_gamma   154.16393976
_symmetry_Int_Tables_number   1
_chemical_formula_structural   Sr2Y2Fe2O7
_chemical_formula_sum   'Sr4 Y4 Fe4 O14'
_cell_volume   393.12822159
_cell_formula_units_Z   2
loop_
 _symmetry_equiv_pos_site_id
 _symmetry_equiv_pos_as_xyz
  1  'x, y, z'
loop_
 _atom_site_type_symbol
 _atom_site_label
 _atom_site_symmetry_multiplicity
 _atom_site_fract_x
 _atom_site_fract_y
 _atom_site_fract_z
 _atom_site_occupancy
  Sr  Sr0  1  0.04080261  0.86789728  0.88541844  1
  Sr  Sr1  1  0.98247884  0.15538417  0.11458156  1
  Sr  Sr2  1  0.04080261  0.65538417  0.67290533  1
  Sr  Sr3  1  0.98247884  0.36789728  0.32709467  1
  Y  Y4  1  0.01392231  0.51392231  0.50000000  1
  Y  Y5  1  0.01392231  0.01392231  0.00000000  1
  Y  Y6  1  0.53699381  0.73420911  0.30278569  1
  Y  Y7  1  0.43142342  0.23420911  0.69721431  1
  Fe  Fe8  1  0.51309280  0.44403110  0.91729697  1
  Fe  Fe9  1  0.52673312  0.59579583  0.08270303  1
  Fe  Fe10  1  0.51309280  0.09579583  0.56906170  1
  Fe  Fe11  1  0.52673312  0.94403110  0.43093830  1
  O  O12  1  0.00670796  0.84640480  0.66030316  1
  O  O13  1  0.18610164  0.34640480  0.33969684  1
  O  O14  1  0.44482622  0.18502124  0.13907526  1
  O  O15  1  0.04594698  0.30575296  0.86092474  1
  O  O16  1  0.44482622  0.80575296  0.75980598  1
  O  O17  1  0.04594698  0.68502124  0.24019402  1
  O  O18  1  0.61368316  0.74882681  0.73384037  1
  O  O19  1  0.01498744  0.87984179  0.26615963  1
  O  O20  1  0.61368316  0.37984179  0.36485635  1
  O  O21  1  0.01498744  0.24882681  0.63514365  1
  O  O22  1  0.51402187  0.90432933  0.27543659  1
  O  O23  1  0.62889273  0.23858428  0.72456341  1
  O  O24  1  0.51402187  0.73858428  0.10969254  1
  O  O25  1  0.62889273  0.40432933  0.89030746  1
