# generated using pymatgen
data_K2Ce(PO4)2
_symmetry_space_group_name_H-M   'P 1'
_cell_length_a   6.92736141
_cell_length_b   6.92736133
_cell_length_c   10.16950837
_cell_angle_alpha   109.91311465
_cell_angle_beta   109.91311433
_cell_angle_gamma   89.99999685
_symmetry_Int_Tables_number   1
_chemical_formula_structural   K2Ce(PO4)2
_chemical_formula_sum   'K4 Ce2 P4 O16'
_cell_volume   427.67468836
_cell_formula_units_Z   2
loop_
 _symmetry_equiv_pos_site_id
 _symmetry_equiv_pos_as_xyz
  1  'x, y, z'
loop_
 _atom_site_type_symbol
 _atom_site_label
 _atom_site_symmetry_multiplicity
 _atom_site_fract_x
 _atom_site_fract_y
 _atom_site_fract_z
 _atom_site_occupancy
  K  K0  1  0.00000000  0.50000000  0.00000000  1
  K  K1  1  0.50000000  0.00000000  0.50000000  1
  K  K2  1  0.00000000  0.00000000  0.00000000  1
  K  K3  1  0.00000000  0.00000000  0.50000000  1
  Ce  Ce4  1  0.62500000  0.37500000  0.25000000  1
  Ce  Ce5  1  0.37500000  0.62500000  0.75000000  1
  P  P6  1  0.55222502  0.80222502  0.10445004  1
  P  P7  1  0.44777498  0.19777498  0.89554996  1
  P  P8  1  0.19777498  0.44777498  0.39554996  1
  P  P9  1  0.80222502  0.55222502  0.60445004  1
  O  O10  1  0.03325747  0.60542347  0.71084694  1
  O  O11  1  0.24969118  0.67917496  0.49938236  1
  O  O12  1  0.67758947  0.60542347  0.71084694  1
  O  O13  1  0.24969118  0.32020740  0.49938236  1
  O  O14  1  0.96674253  0.39457653  0.28915306  1
  O  O15  1  0.39457653  0.96674253  0.78915306  1
  O  O16  1  0.75030882  0.32082504  0.50061764  1
  O  O17  1  0.32241053  0.39457653  0.28915306  1
  O  O18  1  0.32020740  0.24969118  0.99938236  1
  O  O19  1  0.60542347  0.03325747  0.21084694  1
  O  O20  1  0.39457653  0.32241053  0.78915306  1
  O  O21  1  0.60542347  0.67758947  0.21084694  1
  O  O22  1  0.75030882  0.67979260  0.50061764  1
  O  O23  1  0.32082504  0.75030882  0.00061764  1
  O  O24  1  0.67917496  0.24969118  0.99938236  1
  O  O25  1  0.67979260  0.75030882  0.00061764  1
