# generated using pymatgen
data_Ba3Er2(PS4)4
_symmetry_space_group_name_H-M   'P 1'
_cell_length_a   10.39632441
_cell_length_b   12.72353592
_cell_length_c   19.42011799
_cell_angle_alpha   90.00000000
_cell_angle_beta   90.00000000
_cell_angle_gamma   90.00000000
_symmetry_Int_Tables_number   1
_chemical_formula_structural   Ba3Er2(PS4)4
_chemical_formula_sum   'Ba12 Er8 P16 S64'
_cell_volume   2568.85450472
_cell_formula_units_Z   4
loop_
 _symmetry_equiv_pos_site_id
 _symmetry_equiv_pos_as_xyz
  1  'x, y, z'
loop_
 _atom_site_type_symbol
 _atom_site_label
 _atom_site_symmetry_multiplicity
 _atom_site_fract_x
 _atom_site_fract_y
 _atom_site_fract_z
 _atom_site_occupancy
  Ba  Ba0  1  0.38265426  0.75000000  0.50000000  1
  Ba  Ba1  1  0.88265426  0.75000000  0.00000000  1
  Ba  Ba2  1  0.78937231  0.39075553  0.77288907  1
  Ba  Ba3  1  0.61734574  0.25000000  0.50000000  1
  Ba  Ba4  1  0.78937231  0.10924447  0.22711093  1
  Ba  Ba5  1  0.71062769  0.60924447  0.27288907  1
  Ba  Ba6  1  0.21062769  0.60924447  0.22711093  1
  Ba  Ba7  1  0.21062769  0.89075553  0.77288907  1
  Ba  Ba8  1  0.28937231  0.10924447  0.27288907  1
  Ba  Ba9  1  0.28937231  0.39075553  0.72711093  1
  Ba  Ba10  1  0.71062769  0.89075553  0.72711093  1
  Ba  Ba11  1  0.11734574  0.25000000  0.00000000  1
  Er  Er12  1  0.37135439  0.61253598  0.92665148  1
  Er  Er13  1  0.62864561  0.11253598  0.92665148  1
  Er  Er14  1  0.87135439  0.88746402  0.42665148  1
  Er  Er15  1  0.12864561  0.11253598  0.57334852  1
  Er  Er16  1  0.12864561  0.38746402  0.42665148  1
  Er  Er17  1  0.37135439  0.88746402  0.07334852  1
  Er  Er18  1  0.87135439  0.61253598  0.57334852  1
  Er  Er19  1  0.62864561  0.38746402  0.07334852  1
  P  P20  1  0.00461894  0.86000543  0.60173783  1
  P  P21  1  0.43649942  0.45159404  0.36909835  1
  P  P22  1  0.93649942  0.04840596  0.86909835  1
  P  P23  1  0.99538106  0.13999457  0.39826217  1
  P  P24  1  0.56350058  0.54840596  0.63090165  1
  P  P25  1  0.43649942  0.04840596  0.63090165  1
  P  P26  1  0.06350058  0.95159404  0.13090165  1
  P  P27  1  0.49538106  0.13999457  0.10173783  1
  P  P28  1  0.93649942  0.45159404  0.13090165  1
  P  P29  1  0.99538106  0.36000543  0.60173783  1
  P  P30  1  0.06350058  0.54840596  0.86909835  1
  P  P31  1  0.50461894  0.63999457  0.10173783  1
  P  P32  1  0.56350058  0.95159404  0.36909835  1
  P  P33  1  0.50461894  0.86000543  0.89826217  1
  P  P34  1  0.00461894  0.63999457  0.39826217  1
  P  P35  1  0.49538106  0.36000543  0.89826217  1
  S  S36  1  0.06457834  0.72937867  0.65060380  1
  S  S37  1  0.06977161  0.38742680  0.85284747  1
  S  S38  1  0.93022839  0.61257320  0.14715253  1
  S  S39  1  0.00365848  0.01401154  0.33360190  1
  S  S40  1  0.56977161  0.11257320  0.35284747  1
  S  S41  1  0.38852580  0.40203266  0.98380360  1
  S  S42  1  0.79001892  0.11377082  0.80924580  1
  S  S43  1  0.17925793  0.17054454  0.43232760  1
  S  S44  1  0.56457834  0.72937867  0.84939620  1
  S  S45  1  0.49634152  0.98598846  0.83360190  1
  S  S46  1  0.88852580  0.40203266  0.51619640  1
  S  S47  1  0.38550157  0.60564406  0.64960074  1
  S  S48  1  0.43542166  0.27062133  0.15060380  1
  S  S49  1  0.67925793  0.32945546  0.93232760  1
  S  S50  1  0.87857187  0.08518179  0.96755801  1
  S  S51  1  0.61147420  0.59796734  0.01619640  1
  S  S52  1  0.70998108  0.61377082  0.69075420  1
  S  S53  1  0.37857187  0.41481821  0.46755801  1
  S  S54  1  0.49634152  0.51401154  0.16639810  1
  S  S55  1  0.43022839  0.88742680  0.64715253  1
  S  S56  1  0.88852580  0.09796734  0.48380360  1
  S  S57  1  0.93022839  0.88742680  0.85284747  1
  S  S58  1  0.29001892  0.11377082  0.69075420  1
  S  S59  1  0.11449843  0.39435594  0.14960074  1
  S  S60  1  0.62142813  0.91481821  0.46755801  1
  S  S61  1  0.37857187  0.08518179  0.53244199  1
  S  S62  1  0.38852580  0.09796734  0.01619640  1
  S  S63  1  0.29001892  0.38622918  0.30924580  1
  S  S64  1  0.87857187  0.41481821  0.03244199  1
  S  S65  1  0.32074207  0.67054454  0.06767240  1
  S  S66  1  0.38550157  0.89435594  0.35039926  1
  S  S67  1  0.12142813  0.91481821  0.03244199  1
  S  S68  1  0.06977161  0.11257320  0.14715253  1
  S  S69  1  0.61449843  0.39435594  0.35039926  1
  S  S70  1  0.12142813  0.58518179  0.96755801  1
  S  S71  1  0.99634152  0.98598846  0.66639810  1
  S  S72  1  0.88550157  0.60564406  0.85039926  1
  S  S73  1  0.88550157  0.89435594  0.14960074  1
  S  S74  1  0.82074207  0.67054454  0.43232760  1
  S  S75  1  0.56457834  0.77062133  0.15060380  1
  S  S76  1  0.32074207  0.82945546  0.93232760  1
  S  S77  1  0.43022839  0.61257320  0.35284747  1
  S  S78  1  0.61147420  0.90203266  0.98380360  1
  S  S79  1  0.67925793  0.17054454  0.06767240  1
  S  S80  1  0.82074207  0.82945546  0.56767240  1
  S  S81  1  0.11147420  0.90203266  0.51619640  1
  S  S82  1  0.20998108  0.88622918  0.19075420  1
  S  S83  1  0.50365848  0.48598846  0.83360190  1
  S  S84  1  0.93542166  0.22937867  0.65060380  1
  S  S85  1  0.79001892  0.38622918  0.19075420  1
  S  S86  1  0.06457834  0.77062133  0.34939620  1
  S  S87  1  0.17925793  0.32945546  0.56767240  1
  S  S88  1  0.00365848  0.48598846  0.66639810  1
  S  S89  1  0.11449843  0.10564406  0.85039926  1
  S  S90  1  0.11147420  0.59796734  0.48380360  1
  S  S91  1  0.70998108  0.88622918  0.30924580  1
  S  S92  1  0.99634152  0.51401154  0.33360190  1
  S  S93  1  0.93542166  0.27062133  0.34939620  1
  S  S94  1  0.56977161  0.38742680  0.64715253  1
  S  S95  1  0.61449843  0.10564406  0.64960074  1
  S  S96  1  0.43542166  0.22937867  0.84939620  1
  S  S97  1  0.50365848  0.01401154  0.16639810  1
  S  S98  1  0.20998108  0.61377082  0.80924580  1
  S  S99  1  0.62142813  0.58518179  0.53244199  1
