# generated using pymatgen
data_Gd3Si2Cl5O6
_symmetry_space_group_name_H-M   'P 1'
_cell_length_a   7.52506567
_cell_length_b   7.52506539
_cell_length_c   11.87949435
_cell_angle_alpha   80.72970264
_cell_angle_beta   80.72970292
_cell_angle_gamma   89.09336943
_symmetry_Int_Tables_number   1
_chemical_formula_structural   Gd3Si2Cl5O6
_chemical_formula_sum   'Gd6 Si4 Cl10 O12'
_cell_volume   655.20317119
_cell_formula_units_Z   2
loop_
 _symmetry_equiv_pos_site_id
 _symmetry_equiv_pos_as_xyz
  1  'x, y, z'
loop_
 _atom_site_type_symbol
 _atom_site_label
 _atom_site_symmetry_multiplicity
 _atom_site_fract_x
 _atom_site_fract_y
 _atom_site_fract_z
 _atom_site_occupancy
  Gd  Gd0  1  0.08103532  0.58351626  0.66891482  1
  Gd  Gd1  1  0.50000000  0.00000000  0.00000000  1
  Gd  Gd2  1  0.91896468  0.41648374  0.33108518  1
  Gd  Gd3  1  0.41648374  0.91896468  0.33108518  1
  Gd  Gd4  1  0.00000000  0.50000000  0.00000000  1
  Gd  Gd5  1  0.58351626  0.08103532  0.66891482  1
  Si  Si6  1  0.81918801  0.10952560  0.14303019  1
  Si  Si7  1  0.89047440  0.18081199  0.85696981  1
  Si  Si8  1  0.10952560  0.81918801  0.14303019  1
  Si  Si9  1  0.18081199  0.89047440  0.85696981  1
  Cl  Cl10  1  0.67429005  0.11539635  0.42055801  1
  Cl  Cl11  1  0.62086206  0.62086206  0.35608274  1
  Cl  Cl12  1  0.88460365  0.32570995  0.57944199  1
  Cl  Cl13  1  0.31571889  0.31571889  0.99595265  1
  Cl  Cl14  1  0.37913794  0.37913794  0.64391726  1
  Cl  Cl15  1  0.32570995  0.88460365  0.57944199  1
  Cl  Cl16  1  0.11539635  0.67429005  0.42055801  1
  Cl  Cl17  1  0.22295777  0.22295777  0.33694944  1
  Cl  Cl18  1  0.68428111  0.68428111  0.00404735  1
  Cl  Cl19  1  0.77704223  0.77704223  0.66305056  1
  O  O20  1  0.95344004  0.95344004  0.19058923  1
  O  O21  1  0.38994095  0.95752906  0.82800056  1
  O  O22  1  0.14508356  0.85491644  0.00000000  1
  O  O23  1  0.95752906  0.38994095  0.82800056  1
  O  O24  1  0.69542202  0.12954860  0.82785155  1
  O  O25  1  0.87045140  0.30457798  0.17214845  1
  O  O26  1  0.30457798  0.87045140  0.17214845  1
  O  O27  1  0.85491644  0.14508356  0.00000000  1
  O  O28  1  0.12954860  0.69542202  0.82785155  1
  O  O29  1  0.04655996  0.04655996  0.80941077  1
  O  O30  1  0.61005905  0.04247094  0.17199944  1
  O  O31  1  0.04247094  0.61005905  0.17199944  1
