# generated using pymatgen
data_La3Si2S8Br
_symmetry_space_group_name_H-M   'P 1'
_cell_length_a   7.88709976
_cell_length_b   8.90111290
_cell_length_c   11.04724481
_cell_angle_alpha   96.55236728
_cell_angle_beta   90.00000000
_cell_angle_gamma   116.29801246
_symmetry_Int_Tables_number   1
_chemical_formula_structural   La3Si2S8Br
_chemical_formula_sum   'La6 Si4 S16 Br2'
_cell_volume   689.63591284
_cell_formula_units_Z   2
loop_
 _symmetry_equiv_pos_site_id
 _symmetry_equiv_pos_as_xyz
  1  'x, y, z'
loop_
 _atom_site_type_symbol
 _atom_site_label
 _atom_site_symmetry_multiplicity
 _atom_site_fract_x
 _atom_site_fract_y
 _atom_site_fract_z
 _atom_site_occupancy
  La  La0  1  0.68601788  0.61158852  0.81676960  1
  La  La1  1  0.39276055  0.00000000  0.75000000  1
  La  La2  1  0.92557064  0.61158852  0.31676960  1
  La  La3  1  0.60723945  0.00000000  0.25000000  1
  La  La4  1  0.31398212  0.38841148  0.18323040  1
  La  La5  1  0.07442936  0.38841148  0.68323040  1
  Si  Si6  1  0.30621019  0.67993305  0.96979627  1
  Si  Si7  1  0.62627714  0.32006695  0.53020373  1
  Si  Si8  1  0.37372286  0.67993305  0.46979627  1
  Si  Si9  1  0.69378981  0.32006695  0.03020373  1
  S  S10  1  0.44560368  0.70176239  0.65864050  1
  S  S11  1  0.71038535  0.56475790  0.08494449  1
  S  S12  1  0.59902859  0.70770006  0.35519678  1
  S  S13  1  0.41327437  0.13377457  0.04806723  1
  S  S14  1  0.85437255  0.56475790  0.58494449  1
  S  S15  1  0.74384129  0.29823761  0.84135950  1
  S  S16  1  0.58672563  0.86622543  0.95193277  1
  S  S17  1  0.27949980  0.86622543  0.45193277  1
  S  S18  1  0.10867147  0.70770006  0.85519678  1
  S  S19  1  0.28961465  0.43524210  0.91505551  1
  S  S20  1  0.14562745  0.43524210  0.41505551  1
  S  S21  1  0.25615871  0.70176239  0.15864050  1
  S  S22  1  0.72050020  0.13377457  0.54806723  1
  S  S23  1  0.55439632  0.29823761  0.34135950  1
  S  S24  1  0.89132853  0.29229994  0.14480322  1
  S  S25  1  0.40097141  0.29229994  0.64480322  1
  Br  Br26  1  0.00520462  0.00000000  0.25000000  1
  Br  Br27  1  0.99479538  0.00000000  0.75000000  1
