# generated using pymatgen
data_RbLi2Be2F7
_symmetry_space_group_name_H-M   'P 1'
_cell_length_a   5.02450353
_cell_length_b   10.19625493
_cell_length_c   12.58556850
_cell_angle_alpha   90.18740797
_cell_angle_beta   90.00000000
_cell_angle_gamma   90.00000000
_symmetry_Int_Tables_number   1
_chemical_formula_structural   RbLi2Be2F7
_chemical_formula_sum   'Rb4 Li8 Be8 F28'
_cell_volume   644.76930727
_cell_formula_units_Z   4
loop_
 _symmetry_equiv_pos_site_id
 _symmetry_equiv_pos_as_xyz
  1  'x, y, z'
loop_
 _atom_site_type_symbol
 _atom_site_label
 _atom_site_symmetry_multiplicity
 _atom_site_fract_x
 _atom_site_fract_y
 _atom_site_fract_z
 _atom_site_occupancy
  Rb  Rb0  1  0.76714270  0.64032495  0.25006262  1
  Rb  Rb1  1  0.73285730  0.14032495  0.25006262  1
  Rb  Rb2  1  0.23285730  0.35967505  0.74993738  1
  Rb  Rb3  1  0.26714270  0.85967505  0.74993738  1
  Li  Li4  1  0.29291448  0.65213063  0.99932652  1
  Li  Li5  1  0.79291448  0.84786937  0.00067348  1
  Li  Li6  1  0.79005844  0.85040994  0.49900421  1
  Li  Li7  1  0.70708552  0.34786937  0.00067348  1
  Li  Li8  1  0.20994156  0.14959006  0.50099579  1
  Li  Li9  1  0.29005844  0.64959006  0.50099579  1
  Li  Li10  1  0.20708552  0.15213063  0.99932652  1
  Li  Li11  1  0.70994156  0.35040994  0.49900421  1
  Be  Be12  1  0.27523996  0.89904214  0.36590738  1
  Be  Be13  1  0.78614924  0.59729232  0.86778186  1
  Be  Be14  1  0.72476004  0.10095786  0.63409262  1
  Be  Be15  1  0.21385076  0.40270768  0.13221814  1
  Be  Be16  1  0.28614924  0.90270768  0.13221814  1
  Be  Be17  1  0.22476004  0.39904214  0.36590738  1
  Be  Be18  1  0.77523996  0.60095786  0.63409262  1
  Be  Be19  1  0.71385076  0.09729232  0.86778186  1
  F  F20  1  0.87016801  0.19591904  0.55535432  1
  F  F21  1  0.19721912  0.04677589  0.12043264  1
  F  F22  1  0.67614869  0.45893511  0.61836771  1
  F  F23  1  0.32385131  0.54106489  0.38163229  1
  F  F24  1  0.59193678  0.88952069  0.12175669  1
  F  F25  1  0.82385131  0.95893511  0.61836771  1
  F  F26  1  0.30007220  0.35027233  0.24775002  1
  F  F27  1  0.30278088  0.54677589  0.12043264  1
  F  F28  1  0.58049615  0.88954970  0.37960745  1
  F  F29  1  0.69992780  0.64972767  0.75224998  1
  F  F30  1  0.40806322  0.11047931  0.87824331  1
  F  F31  1  0.08049615  0.61045030  0.62039255  1
  F  F32  1  0.14364057  0.81329495  0.04813415  1
  F  F33  1  0.80278088  0.95322411  0.87956736  1
  F  F34  1  0.91950385  0.38954970  0.37960745  1
  F  F35  1  0.64364057  0.68670505  0.95186585  1
  F  F36  1  0.69721912  0.45322411  0.87956736  1
  F  F37  1  0.80007220  0.14972767  0.75224998  1
  F  F38  1  0.12983199  0.80408096  0.44464568  1
  F  F39  1  0.09193678  0.61047931  0.87824331  1
  F  F40  1  0.37016801  0.30408096  0.44464568  1
  F  F41  1  0.17614869  0.04106489  0.38163229  1
  F  F42  1  0.90806322  0.38952069  0.12175669  1
  F  F43  1  0.85635943  0.18670505  0.95186585  1
  F  F44  1  0.62983199  0.69591904  0.55535432  1
  F  F45  1  0.35635943  0.31329495  0.04813415  1
  F  F46  1  0.19992780  0.85027233  0.24775002  1
  F  F47  1  0.41950385  0.11045030  0.62039255  1
