# generated using pymatgen
data_K4Ru2Cl10O
_symmetry_space_group_name_H-M   'P 1'
_cell_length_a   7.30951441
_cell_length_b   7.30951438
_cell_length_c   10.09637468
_cell_angle_alpha   111.22227781
_cell_angle_beta   111.22227771
_cell_angle_gamma   89.99999784
_symmetry_Int_Tables_number   1
_chemical_formula_structural   K4Ru2Cl10O
_chemical_formula_sum   'K4 Ru2 Cl10 O1'
_cell_volume   463.39390627
_cell_formula_units_Z   1
loop_
 _symmetry_equiv_pos_site_id
 _symmetry_equiv_pos_as_xyz
  1  'x, y, z'
loop_
 _atom_site_type_symbol
 _atom_site_label
 _atom_site_symmetry_multiplicity
 _atom_site_fract_x
 _atom_site_fract_y
 _atom_site_fract_z
 _atom_site_occupancy
  K  K0  1  0.50000000  0.00000000  0.00000000  1
  K  K1  1  0.25000000  0.75000000  0.50000000  1
  K  K2  1  0.75000000  0.25000000  0.50000000  1
  K  K3  1  0.00000000  0.50000000  0.00000000  1
  Ru  Ru4  1  0.89562097  0.89562097  0.79124194  1
  Ru  Ru5  1  0.10437903  0.10437903  0.20875806  1
  Cl  Cl6  1  0.88135493  0.34487447  0.22622939  1
  Cl  Cl7  1  0.65512553  0.11864507  0.77377061  1
  Cl  Cl8  1  0.11864507  0.65512553  0.77377061  1
  Cl  Cl9  1  0.88135493  0.88135493  0.22622939  1
  Cl  Cl10  1  0.11864507  0.11864507  0.77377061  1
  Cl  Cl11  1  0.76092460  0.76092460  0.52184921  1
  Cl  Cl12  1  0.34487447  0.88135493  0.22622939  1
  Cl  Cl13  1  0.34487447  0.34487447  0.22622939  1
  Cl  Cl14  1  0.23907540  0.23907540  0.47815079  1
  Cl  Cl15  1  0.65512553  0.65512553  0.77377061  1
  O  O16  1  0.00000000  0.00000000  0.00000000  1
