# generated using pymatgen
data_Na3AlS3
_symmetry_space_group_name_H-M   'P 1'
_cell_length_a   7.65787221
_cell_length_b   12.15587000
_cell_length_c   13.80173391
_cell_angle_alpha   90.00000000
_cell_angle_beta   98.82099487
_cell_angle_gamma   90.00000000
_symmetry_Int_Tables_number   1
_chemical_formula_structural   Na3AlS3
_chemical_formula_sum   'Na24 Al8 S24'
_cell_volume   1269.58115866
_cell_formula_units_Z   8
loop_
 _symmetry_equiv_pos_site_id
 _symmetry_equiv_pos_as_xyz
  1  'x, y, z'
loop_
 _atom_site_type_symbol
 _atom_site_label
 _atom_site_symmetry_multiplicity
 _atom_site_fract_x
 _atom_site_fract_y
 _atom_site_fract_z
 _atom_site_occupancy
  Na  Na0  1  0.91787061  0.98211586  0.80625050  1
  Na  Na1  1  0.00505406  0.75495195  0.01155958  1
  Na  Na2  1  0.47038215  0.80805017  0.75896731  1
  Na  Na3  1  0.08696648  0.74177392  0.52682330  1
  Na  Na4  1  0.88951634  0.91283164  0.36427666  1
  Na  Na5  1  0.41303352  0.24177392  0.47317670  1
  Na  Na6  1  0.49515553  0.82482623  0.24184592  1
  Na  Na7  1  0.91303352  0.25822608  0.47317670  1
  Na  Na8  1  0.50505406  0.74504805  0.01155958  1
  Na  Na9  1  0.61048366  0.41283164  0.63572334  1
  Na  Na10  1  0.49494594  0.25495195  0.98844042  1
  Na  Na11  1  0.99494594  0.24504805  0.98844042  1
  Na  Na12  1  0.58696648  0.75822608  0.52682330  1
  Na  Na13  1  0.52961785  0.19194983  0.24103269  1
  Na  Na14  1  0.08212939  0.01788414  0.19374950  1
  Na  Na15  1  0.38951634  0.58716836  0.36427666  1
  Na  Na16  1  0.00484447  0.32482623  0.75815408  1
  Na  Na17  1  0.11048366  0.08716836  0.63572334  1
  Na  Na18  1  0.02961785  0.30805017  0.24103269  1
  Na  Na19  1  0.50484447  0.17517377  0.75815408  1
  Na  Na20  1  0.58212939  0.48211586  0.19374950  1
  Na  Na21  1  0.97038215  0.69194983  0.75896731  1
  Na  Na22  1  0.41787061  0.51788414  0.80625050  1
  Na  Na23  1  0.99515553  0.67517377  0.24184592  1
  Al  Al24  1  0.67275655  0.00696034  0.07341556  1
  Al  Al25  1  0.67798234  0.02095995  0.56620789  1
  Al  Al26  1  0.82201766  0.52095995  0.43379211  1
  Al  Al27  1  0.17798234  0.47904005  0.56620789  1
  Al  Al28  1  0.82724345  0.50696034  0.92658444  1
  Al  Al29  1  0.17275655  0.49303966  0.07341556  1
  Al  Al30  1  0.32201766  0.97904005  0.43379211  1
  Al  Al31  1  0.32724345  0.99303966  0.92658444  1
  S  S32  1  0.69067075  0.35963486  0.85460721  1
  S  S33  1  0.79461951  0.16698470  0.12462618  1
  S  S34  1  0.62336244  0.38961086  0.38603744  1
  S  S35  1  0.19067075  0.14036514  0.85460721  1
  S  S36  1  0.37934791  0.00144108  0.09597632  1
  S  S37  1  0.30932925  0.64036514  0.14539279  1
  S  S38  1  0.23834426  0.81682637  0.36908331  1
  S  S39  1  0.12336244  0.11038914  0.38603744  1
  S  S40  1  0.26165574  0.31682637  0.63091669  1
  S  S41  1  0.12065209  0.50144108  0.90402368  1
  S  S42  1  0.70538049  0.66698470  0.87537382  1
  S  S43  1  0.80932925  0.85963486  0.14539279  1
  S  S44  1  0.76165574  0.18317363  0.63091669  1
  S  S45  1  0.59308126  0.03379961  0.39769345  1
  S  S46  1  0.37663756  0.61038914  0.61396256  1
  S  S47  1  0.87934791  0.49855892  0.09597632  1
  S  S48  1  0.73834426  0.68317363  0.36908331  1
  S  S49  1  0.87663756  0.88961086  0.61396256  1
  S  S50  1  0.40691874  0.96620039  0.60230655  1
  S  S51  1  0.62065209  0.99855892  0.90402368  1
  S  S52  1  0.20538049  0.83301530  0.87537382  1
  S  S53  1  0.90691874  0.53379961  0.60230655  1
  S  S54  1  0.29461951  0.33301530  0.12462618  1
  S  S55  1  0.09308126  0.46620039  0.39769345  1
