# generated using pymatgen
data_K4Sr(SiO3)3
_symmetry_space_group_name_H-M   'P 1'
_cell_length_a   7.25033766
_cell_length_b   7.25033748
_cell_length_c   11.13674895
_cell_angle_alpha   90.00000000
_cell_angle_beta   90.00000000
_cell_angle_gamma   112.51413694
_symmetry_Int_Tables_number   1
_chemical_formula_structural   K4Sr(SiO3)3
_chemical_formula_sum   'K8 Sr2 Si6 O18'
_cell_volume   540.81138930
_cell_formula_units_Z   2
loop_
 _symmetry_equiv_pos_site_id
 _symmetry_equiv_pos_as_xyz
  1  'x, y, z'
loop_
 _atom_site_type_symbol
 _atom_site_label
 _atom_site_symmetry_multiplicity
 _atom_site_fract_x
 _atom_site_fract_y
 _atom_site_fract_z
 _atom_site_occupancy
  K  K0  1  0.65782436  0.23579769  0.75000000  1
  K  K1  1  0.05524127  0.94475873  0.00000000  1
  K  K2  1  0.49987916  0.50012084  0.00000000  1
  K  K3  1  0.76420231  0.34217564  0.25000000  1
  K  K4  1  0.77989916  0.77235166  0.75000000  1
  K  K5  1  0.49987916  0.50012084  0.50000000  1
  K  K6  1  0.22764834  0.22010084  0.25000000  1
  K  K7  1  0.05524127  0.94475873  0.50000000  1
  Sr  Sr8  1  0.27420861  0.74577396  0.75000000  1
  Sr  Sr9  1  0.25422604  0.72579139  0.25000000  1
  Si  Si10  1  0.59146641  0.01922480  0.03090789  1
  Si  Si11  1  0.98077520  0.40853359  0.96909211  1
  Si  Si12  1  0.98077520  0.40853359  0.53090789  1
  Si  Si13  1  0.73899815  0.81138901  0.25000000  1
  Si  Si14  1  0.18861099  0.26100185  0.75000000  1
  Si  Si15  1  0.59146641  0.01922480  0.46909211  1
  O  O16  1  0.05417164  0.27106212  0.87127119  1
  O  O17  1  0.97298730  0.59955254  0.60206462  1
  O  O18  1  0.11381730  0.44771155  0.09022455  1
  O  O19  1  0.72893788  0.94582836  0.12872881  1
  O  O20  1  0.72893788  0.94582836  0.37127119  1
  O  O21  1  0.74114401  0.25885599  0.00000000  1
  O  O22  1  0.55228845  0.88618270  0.59022455  1
  O  O23  1  0.55228845  0.88618270  0.90977545  1
  O  O24  1  0.39985123  0.45198850  0.75000000  1
  O  O25  1  0.74114401  0.25885599  0.50000000  1
  O  O26  1  0.40044746  0.02701270  0.10206462  1
  O  O27  1  0.95642220  0.79941502  0.25000000  1
  O  O28  1  0.20058498  0.04357780  0.75000000  1
  O  O29  1  0.54801150  0.60014877  0.25000000  1
  O  O30  1  0.11381730  0.44771155  0.40977545  1
  O  O31  1  0.97298730  0.59955254  0.89793538  1
  O  O32  1  0.40044746  0.02701270  0.39793538  1
  O  O33  1  0.05417164  0.27106212  0.62872881  1
