# generated using pymatgen
data_Ba3ScCO3F7
_symmetry_space_group_name_H-M   'P 1'
_cell_length_a   6.09461971
_cell_length_b   8.95972939
_cell_length_c   8.95972949
_cell_angle_alpha   98.71115972
_cell_angle_beta   90.00000000
_cell_angle_gamma   90.00000000
_symmetry_Int_Tables_number   1
_chemical_formula_structural   Ba3ScCO3F7
_chemical_formula_sum   'Ba6 Sc2 C2 O6 F14'
_cell_volume   483.61241120
_cell_formula_units_Z   2
loop_
 _symmetry_equiv_pos_site_id
 _symmetry_equiv_pos_as_xyz
  1  'x, y, z'
loop_
 _atom_site_type_symbol
 _atom_site_label
 _atom_site_symmetry_multiplicity
 _atom_site_fract_x
 _atom_site_fract_y
 _atom_site_fract_z
 _atom_site_occupancy
  Ba  Ba0  1  0.25000000  0.84450095  0.60306826  1
  Ba  Ba1  1  0.75000000  0.60306826  0.84450095  1
  Ba  Ba2  1  0.25000000  0.39693174  0.15549905  1
  Ba  Ba3  1  0.75000000  0.09450942  0.90549058  1
  Ba  Ba4  1  0.25000000  0.90549058  0.09450942  1
  Ba  Ba5  1  0.75000000  0.15549905  0.39693174  1
  Sc  Sc6  1  0.25000000  0.26955361  0.73044639  1
  Sc  Sc7  1  0.75000000  0.73044639  0.26955361  1
  C  C8  1  0.25000000  0.46385543  0.53614457  1
  C  C9  1  0.75000000  0.53614457  0.46385543  1
  O  O10  1  0.25000000  0.55778487  0.44221513  1
  O  O11  1  0.75000000  0.68274095  0.50797212  1
  O  O12  1  0.25000000  0.50797212  0.68274095  1
  O  O13  1  0.25000000  0.31725905  0.49202788  1
  O  O14  1  0.75000000  0.44221513  0.55778487  1
  O  O15  1  0.75000000  0.49202788  0.31725905  1
  F  F16  1  0.50000000  0.16061473  0.16061473  1
  F  F17  1  0.25000000  0.11519980  0.88480020  1
  F  F18  1  0.75000000  0.88480020  0.11519980  1
  F  F19  1  0.50000000  0.83938527  0.83938527  1
  F  F20  1  0.49392893  0.11795899  0.64081860  1
  F  F21  1  0.50607107  0.64081860  0.11795899  1
  F  F22  1  0.00607107  0.35918140  0.88204101  1
  F  F23  1  0.49392893  0.35918140  0.88204101  1
  F  F24  1  0.00607107  0.11795899  0.64081860  1
  F  F25  1  0.99392893  0.88204101  0.35918140  1
  F  F26  1  0.00000000  0.83938527  0.83938527  1
  F  F27  1  0.00000000  0.16061473  0.16061473  1
  F  F28  1  0.99392893  0.64081860  0.11795899  1
  F  F29  1  0.50607107  0.88204101  0.35918140  1
