# generated using pymatgen
data_AuSeClO3
_symmetry_space_group_name_H-M   'P 1'
_cell_length_a   4.49358713
_cell_length_b   9.99119197
_cell_length_c   10.90349835
_cell_angle_alpha   82.05733940
_cell_angle_beta   88.32463017
_cell_angle_gamma   88.44212894
_symmetry_Int_Tables_number   1
_chemical_formula_structural   AuSeClO3
_chemical_formula_sum   'Au4 Se4 Cl4 O12'
_cell_volume   484.49080431
_cell_formula_units_Z   4
loop_
 _symmetry_equiv_pos_site_id
 _symmetry_equiv_pos_as_xyz
  1  'x, y, z'
loop_
 _atom_site_type_symbol
 _atom_site_label
 _atom_site_symmetry_multiplicity
 _atom_site_fract_x
 _atom_site_fract_y
 _atom_site_fract_z
 _atom_site_occupancy
  Au  Au0  1  0.00471966  0.57897246  0.18621263  1
  Au  Au1  1  0.00000000  0.00000000  0.00000000  1
  Au  Au2  1  0.99528034  0.42102754  0.81378737  1
  Au  Au3  1  0.00000000  0.00000000  0.50000000  1
  Se  Se4  1  0.71985589  0.86445210  0.27041025  1
  Se  Se5  1  0.20790948  0.71167436  0.90416962  1
  Se  Se6  1  0.79209052  0.28832564  0.09583038  1
  Se  Se7  1  0.28014411  0.13554790  0.72958975  1
  Cl  Cl8  1  0.33779804  0.49578823  0.66223291  1
  Cl  Cl9  1  0.66220196  0.50421177  0.33776709  1
  Cl  Cl10  1  0.27897646  0.19094080  0.44419188  1
  Cl  Cl11  1  0.72102354  0.80905920  0.55580812  1
  O  O12  1  0.65519578  0.95066929  0.12253983  1
  O  O13  1  0.67877684  0.35423994  0.94848950  1
  O  O14  1  0.03301113  0.76202149  0.24493107  1
  O  O15  1  0.08087713  0.17276009  0.06852509  1
  O  O16  1  0.07115318  0.39625557  0.12905977  1
  O  O17  1  0.91912287  0.82723991  0.93147491  1
  O  O18  1  0.32122316  0.64576006  0.05151050  1
  O  O19  1  0.96698887  0.23797851  0.75506893  1
  O  O20  1  0.93040395  0.99247541  0.31851768  1
  O  O21  1  0.92884682  0.60374443  0.87094023  1
  O  O22  1  0.34480422  0.04933071  0.87746017  1
  O  O23  1  0.06959605  0.00752459  0.68148232  1
