# generated using pymatgen
data_P3IrO9
_symmetry_space_group_name_H-M   'P 1'
_cell_length_a   5.09576339
_cell_length_b   7.06131236
_cell_length_c   10.47460091
_cell_angle_alpha   98.38350603
_cell_angle_beta   92.41553607
_cell_angle_gamma   92.52943345
_symmetry_Int_Tables_number   1
_chemical_formula_structural   P3IrO9
_chemical_formula_sum   'P6 Ir2 O18'
_cell_volume   372.06416376
_cell_formula_units_Z   2
loop_
 _symmetry_equiv_pos_site_id
 _symmetry_equiv_pos_as_xyz
  1  'x, y, z'
loop_
 _atom_site_type_symbol
 _atom_site_label
 _atom_site_symmetry_multiplicity
 _atom_site_fract_x
 _atom_site_fract_y
 _atom_site_fract_z
 _atom_site_occupancy
  P  P0  1  0.50119397  0.32787983  0.63865631  1
  P  P1  1  0.49880603  0.67212017  0.36134369  1
  P  P2  1  0.47603187  0.03839399  0.81789831  1
  P  P3  1  0.52396813  0.96160601  0.18210169  1
  P  P4  1  0.23730249  0.31548170  0.22849038  1
  P  P5  1  0.76269751  0.68451830  0.77150962  1
  Ir  Ir6  1  0.00000000  -0.00000000  0.00000000  1
  Ir  Ir7  1  0.00000000  0.50000000  0.50000000  1
  O  O8  1  0.32775765  0.88375561  0.07270202  1
  O  O9  1  0.67224235  0.11624439  0.92729798  1
  O  O10  1  0.45843820  0.87159412  0.31035537  1
  O  O11  1  0.54156180  0.12840588  0.68964463  1
  O  O12  1  0.62180599  0.47576071  0.76223563  1
  O  O13  1  0.37819401  0.52423929  0.23776437  1
  O  O14  1  0.91685916  0.70107322  0.65363342  1
  O  O15  1  0.08314084  0.29892678  0.34636658  1
  O  O16  1  0.66525105  0.33478884  0.52255784  1
  O  O17  1  0.33474895  0.66521116  0.47744216  1
  O  O18  1  0.48742964  0.18319582  0.23195228  1
  O  O19  1  0.51257036  0.81680418  0.76804772  1
  O  O20  1  0.90188661  0.72700882  0.90360596  1
  O  O21  1  0.09811339  0.27299118  0.09639404  1
  O  O22  1  0.81055208  0.93096970  0.15864496  1
  O  O23  1  0.18944792  0.06903030  0.84135504  1
  O  O24  1  0.79135460  0.65197337  0.37954189  1
  O  O25  1  0.20864540  0.34802663  0.62045811  1
