# generated using pymatgen
data_Li8Bi2PdO10
_symmetry_space_group_name_H-M   'P 1'
_cell_length_a   4.28346442
_cell_length_b   5.35718201
_cell_length_c   11.20645551
_cell_angle_alpha   76.88958311
_cell_angle_beta   78.98208582
_cell_angle_gamma   66.43513008
_symmetry_Int_Tables_number   1
_chemical_formula_structural   Li8Bi2PdO10
_chemical_formula_sum   'Li8 Bi2 Pd1 O10'
_cell_volume   228.11162452
_cell_formula_units_Z   1
loop_
 _symmetry_equiv_pos_site_id
 _symmetry_equiv_pos_as_xyz
  1  'x, y, z'
loop_
 _atom_site_type_symbol
 _atom_site_label
 _atom_site_symmetry_multiplicity
 _atom_site_fract_x
 _atom_site_fract_y
 _atom_site_fract_z
 _atom_site_occupancy
  Li  Li0  1  0.62005041  0.22149834  0.53840084  1
  Li  Li1  1  0.25292853  0.40007116  0.09407179  1
  Li  Li2  1  0.08609239  0.44270705  0.38510818  1
  Li  Li3  1  0.91390761  0.55729295  0.61489182  1
  Li  Li4  1  0.74707147  0.59992884  0.90592821  1
  Li  Li5  1  0.37994959  0.77850166  0.46159916  1
  Li  Li6  1  0.55215950  0.70089526  0.19478573  1
  Li  Li7  1  0.44784050  0.29910474  0.80521427  1
  Bi  Bi8  1  0.18145447  0.91713927  0.71995180  1
  Bi  Bi9  1  0.81854553  0.08286073  0.28004820  1
  Pd  Pd10  1  0.00000000  0.00000000  0.00000000  1
  O  O11  1  0.96166330  0.24373134  0.83294206  1
  O  O12  1  0.67383034  0.91058215  0.74175717  1
  O  O13  1  0.32616966  0.08941785  0.25824283  1
  O  O14  1  0.39971225  0.55929610  0.64127940  1
  O  O15  1  0.60028775  0.44070390  0.35872060  1
  O  O16  1  0.21069884  0.67009393  0.90850839  1
  O  O17  1  0.03833670  0.75626866  0.16705794  1
  O  O18  1  0.12791668  0.18995838  0.55420826  1
  O  O19  1  0.87208332  0.81004162  0.44579174  1
  O  O20  1  0.78930116  0.32990607  0.09149161  1
