# generated using pymatgen
data_CdSiO3
_symmetry_space_group_name_H-M   'P 1'
_cell_length_a   7.08668147
_cell_length_b   7.36229564
_cell_length_c   15.32166421
_cell_angle_alpha   90.00000000
_cell_angle_beta   95.04442304
_cell_angle_gamma   90.00000000
_symmetry_Int_Tables_number   1
_chemical_formula_structural   CdSiO3
_chemical_formula_sum   'Cd12 Si12 O36'
_cell_volume   796.30004673
_cell_formula_units_Z   12
loop_
 _symmetry_equiv_pos_site_id
 _symmetry_equiv_pos_as_xyz
  1  'x, y, z'
loop_
 _atom_site_type_symbol
 _atom_site_label
 _atom_site_symmetry_multiplicity
 _atom_site_fract_x
 _atom_site_fract_y
 _atom_site_fract_z
 _atom_site_occupancy
  Cd  Cd0  1  0.01138601  0.37615604  0.24823141  1
  Cd  Cd1  1  0.24942597  0.62723010  0.09859712  1
  Cd  Cd2  1  0.74664744  0.62059842  0.39828735  1
  Cd  Cd3  1  0.98861399  0.87615604  0.25176859  1
  Cd  Cd4  1  0.25335256  0.37940158  0.60171265  1
  Cd  Cd5  1  0.75057403  0.12723010  0.40140288  1
  Cd  Cd6  1  0.25335256  0.12059842  0.10171265  1
  Cd  Cd7  1  0.74664744  0.87940158  0.89828735  1
  Cd  Cd8  1  0.98861399  0.62384396  0.75176859  1
  Cd  Cd9  1  0.24942597  0.87276990  0.59859712  1
  Cd  Cd10  1  0.75057403  0.37276990  0.90140288  1
  Cd  Cd11  1  0.01138601  0.12384396  0.74823141  1
  Si  Si12  1  0.23960022  0.58901796  0.41035539  1
  Si  Si13  1  0.23862138  0.16233677  0.40975707  1
  Si  Si14  1  0.54760330  0.12339120  0.69763922  1
  Si  Si15  1  0.76039978  0.41098204  0.58964461  1
  Si  Si16  1  0.76137862  0.66233677  0.09024293  1
  Si  Si17  1  0.54760330  0.37660880  0.19763922  1
  Si  Si18  1  0.76039978  0.08901796  0.08964461  1
  Si  Si19  1  0.23862138  0.33766323  0.90975707  1
  Si  Si20  1  0.23960022  0.91098204  0.91035539  1
  Si  Si21  1  0.45239670  0.62339120  0.80236078  1
  Si  Si22  1  0.45239670  0.87660880  0.30236078  1
  Si  Si23  1  0.76137862  0.83766323  0.59024293  1
  O  O24  1  0.70209955  0.62395936  0.60005704  1
  O  O25  1  0.29790045  0.12395936  0.89994296  1
  O  O26  1  0.41436164  0.44464341  0.86601681  1
  O  O27  1  0.58563836  0.55535659  0.13398319  1
  O  O28  1  0.58563836  0.94464341  0.63398319  1
  O  O29  1  0.29790045  0.37604064  0.39994296  1
  O  O30  1  0.22623726  0.37922934  0.01230340  1
  O  O31  1  0.95734960  0.87527155  0.65363821  1
  O  O32  1  0.04265040  0.12472845  0.34636179  1
  O  O33  1  0.77376274  0.87922934  0.48769660  1
  O  O34  1  0.95757768  0.12906906  0.15098376  1
  O  O35  1  0.31927175  0.12500236  0.70290737  1
  O  O36  1  0.41367530  0.80182350  0.86677379  1
  O  O37  1  0.69494987  0.12387305  0.78543143  1
  O  O38  1  0.41367530  0.69817650  0.36677379  1
  O  O39  1  0.30505013  0.87612695  0.21456857  1
  O  O40  1  0.68072825  0.87499764  0.29709263  1
  O  O41  1  0.95734960  0.62472845  0.15363821  1
  O  O42  1  0.58632470  0.30182350  0.63322621  1
  O  O43  1  0.70209955  0.87604064  0.10005704  1
  O  O44  1  0.04265040  0.37527155  0.84636179  1
  O  O45  1  0.68072825  0.62500236  0.79709263  1
  O  O46  1  0.30505013  0.62387305  0.71456857  1
  O  O47  1  0.77376274  0.62077066  0.98769660  1
  O  O48  1  0.95757768  0.37093094  0.65098376  1
  O  O49  1  0.69494987  0.37612695  0.28543143  1
  O  O50  1  0.31927175  0.37499764  0.20290737  1
  O  O51  1  0.58632470  0.19817650  0.13322621  1
  O  O52  1  0.04242232  0.87093094  0.84901624  1
  O  O53  1  0.76726741  0.12829976  0.98579142  1
  O  O54  1  0.41436164  0.05535659  0.36601681  1
  O  O55  1  0.22623726  0.12077066  0.51230340  1
  O  O56  1  0.76726741  0.37170024  0.48579142  1
  O  O57  1  0.23273259  0.87170024  0.01420858  1
  O  O58  1  0.04242232  0.62906906  0.34901624  1
  O  O59  1  0.23273259  0.62829976  0.51420858  1
