# generated using pymatgen
data_RbTeNO3F4
_symmetry_space_group_name_H-M   'P 1'
_cell_length_a   8.55636218
_cell_length_b   8.47471787
_cell_length_c   10.69929818
_cell_angle_alpha   71.37721139
_cell_angle_beta   88.67279405
_cell_angle_gamma   68.27528020
_symmetry_Int_Tables_number   1
_chemical_formula_structural   RbTeNO3F4
_chemical_formula_sum   'Rb4 Te4 N4 O12 F16'
_cell_volume   679.00208344
_cell_formula_units_Z   4
loop_
 _symmetry_equiv_pos_site_id
 _symmetry_equiv_pos_as_xyz
  1  'x, y, z'
loop_
 _atom_site_type_symbol
 _atom_site_label
 _atom_site_symmetry_multiplicity
 _atom_site_fract_x
 _atom_site_fract_y
 _atom_site_fract_z
 _atom_site_occupancy
  Rb  Rb0  1  0.43489662  0.57455280  0.98002034  1
  Rb  Rb1  1  0.68880586  0.07735437  0.49462187  1
  Rb  Rb2  1  0.95650562  0.55152458  0.86809860  1
  Rb  Rb3  1  0.16610320  0.11317326  0.59805976  1
  Te  Te4  1  0.25204766  0.57710203  0.56769712  1
  Te  Te5  1  0.74570293  0.56021448  0.27380727  1
  Te  Te6  1  0.87558129  0.08339946  0.90093752  1
  Te  Te7  1  0.38000242  0.09030424  0.19589202  1
  N  N8  1  0.05828945  1.00366515  0.26136836  1
  N  N9  1  0.06660231  0.64357518  0.21096760  1
  N  N10  1  0.55843193  0.66003476  0.60312662  1
  N  N11  1  0.55759668  0.00183030  0.86922886  1
  O  O12  1  0.57422233  0.53674616  0.55507275  1
  O  O13  1  0.71005516  0.94083189  0.83230808  1
  O  O14  1  0.95569273  0.94054269  0.31740783  1
  O  O15  1  0.53063188  0.11198862  0.93033080  1
  O  O16  1  0.17159130  0.70428422  0.15726431  1
  O  O17  1  0.45053648  0.94813238  0.84206335  1
  O  O18  1  0.92859672  0.67727820  0.13754724  1
  O  O19  1  0.04010632  0.09432636  0.14052815  1
  O  O20  1  0.08158490  0.55305741  0.33163156  1
  O  O21  1  0.40761991  0.74499893  0.62950471  1
  O  O22  1  0.67829779  0.69979598  0.62476320  1
  O  O23  1  0.19691936  0.97249561  0.33265644  1
  F  F24  1  0.31560348  0.47105997  0.75507563  1
  F  F25  1  0.38312161  0.32084902  0.57402948  1
  F  F26  1  0.56235791  0.17752934  0.16546984  1
  F  F27  1  0.04901857  0.87905936  0.85662771  1
  F  F28  1  0.57676372  0.75943840  0.12664647  1
  F  F29  1  0.34185065  0.19431073  0.33420693  1
  F  F30  1  0.82834803  0.18862152  0.71186404  1
  F  F31  1  0.55114752  0.88558921  0.33975917  1
  F  F32  1  0.07335376  0.48364948  0.60382583  1
  F  F33  1  0.07687396  0.77523779  0.61920722  1
  F  F34  1  0.78701525  0.45032435  0.13887765  1
  F  F35  1  0.88839544  0.30537249  0.38739085  1
  F  F36  1  0.05725329  0.17226367  0.87359065  1
  F  F37  1  0.23446899  0.34576257  0.08580404  1
  F  F38  1  0.73711852  0.34018486  0.88982862  1
  F  F39  1  0.56188848  0.47523816  0.30659153  1
