# generated using pymatgen
data_LaPS4
_symmetry_space_group_name_H-M   'P 1'
_cell_length_a   11.18700204
_cell_length_b   11.18700179
_cell_length_c   12.58954398
_cell_angle_alpha   116.37839401
_cell_angle_beta   116.37839344
_cell_angle_gamma   90.00000047
_symmetry_Int_Tables_number   1
_chemical_formula_structural   LaPS4
_chemical_formula_sum   'La8 P8 S32'
_cell_volume   1225.70729301
_cell_formula_units_Z   8
loop_
 _symmetry_equiv_pos_site_id
 _symmetry_equiv_pos_as_xyz
  1  'x, y, z'
loop_
 _atom_site_type_symbol
 _atom_site_label
 _atom_site_symmetry_multiplicity
 _atom_site_fract_x
 _atom_site_fract_y
 _atom_site_fract_z
 _atom_site_occupancy
  La  La0  1  0.62500000  0.87500000  0.25000000  1
  La  La1  1  0.12500000  0.37500000  0.25000000  1
  La  La2  1  0.62500000  0.37500000  0.25000000  1
  La  La3  1  0.12500000  0.87500000  0.25000000  1
  La  La4  1  0.37500000  0.62500000  0.75000000  1
  La  La5  1  0.87500000  0.12500000  0.75000000  1
  La  La6  1  0.87500000  0.62500000  0.75000000  1
  La  La7  1  0.37500000  0.12500000  0.75000000  1
  P  P8  1  0.25000000  0.71402697  0.00000000  1
  P  P9  1  0.75000000  0.78597303  1.00000000  1
  P  P10  1  0.25000000  0.21402697  0.00000000  1
  P  P11  1  0.75000000  0.28597303  1.00000000  1
  P  P12  1  0.21402697  0.75000000  0.50000000  1
  P  P13  1  0.71402697  0.75000000  0.50000000  1
  P  P14  1  0.28597303  0.25000000  0.50000000  1
  P  P15  1  0.78597303  0.25000000  0.50000000  1
  S  S16  1  0.09663432  0.11672375  0.00267343  1
  S  S17  1  0.61672375  0.59663432  0.50267343  1
  S  S18  1  0.66480504  0.09653071  0.82682838  1
  S  S19  1  0.88594968  0.40603911  0.50267343  1
  S  S20  1  0.40603911  0.61672375  0.00267343  1
  S  S21  1  0.61405032  0.90336568  0.49732657  1
  S  S22  1  0.83519496  0.26970234  0.17317162  1
  S  S23  1  0.59653071  0.16480504  0.32682838  1
  S  S24  1  0.11405032  0.59396089  0.49732657  1
  S  S25  1  0.88327625  0.09396089  0.49732657  1
  S  S26  1  0.23029766  0.66480504  0.32682838  1
  S  S27  1  0.33519496  0.90346929  0.17317162  1
  S  S28  1  0.16480504  0.73029766  0.82682838  1
  S  S29  1  0.59663432  0.88594968  0.00267343  1
  S  S30  1  0.40336568  0.11405032  0.99732657  1
  S  S31  1  0.09396089  0.61405032  0.99732657  1
  S  S32  1  0.83797667  0.76970234  0.17317162  1
  S  S33  1  0.40346929  0.83519496  0.67317162  1
  S  S34  1  0.26970234  0.33797667  0.67317162  1
  S  S35  1  0.38327625  0.40336568  0.49732657  1
  S  S36  1  0.11672375  0.90603911  0.50267343  1
  S  S37  1  0.16202333  0.23029766  0.82682838  1
  S  S38  1  0.38594968  0.09663432  0.50267343  1
  S  S39  1  0.73029766  0.66202333  0.32682838  1
  S  S40  1  0.66202333  0.59653071  0.82682838  1
  S  S41  1  0.33797667  0.40346929  0.17317162  1
  S  S42  1  0.90603911  0.38594968  0.00267343  1
  S  S43  1  0.59396089  0.38327625  0.99732657  1
  S  S44  1  0.09653071  0.16202333  0.32682838  1
  S  S45  1  0.90346929  0.83797667  0.67317162  1
  S  S46  1  0.76970234  0.33519496  0.67317162  1
  S  S47  1  0.90336568  0.88327625  0.99732657  1
