# generated using pymatgen
data_CaSbAsO5
_symmetry_space_group_name_H-M   'P 1'
_cell_length_a   7.85670037
_cell_length_b   7.35896058
_cell_length_c   8.59766306
_cell_angle_alpha   90.00382720
_cell_angle_beta   90.00297908
_cell_angle_gamma   90.00325736
_symmetry_Int_Tables_number   1
_chemical_formula_structural   CaSbAsO5
_chemical_formula_sum   'Ca4 Sb4 As4 O20'
_cell_volume   497.09235792
_cell_formula_units_Z   4
loop_
 _symmetry_equiv_pos_site_id
 _symmetry_equiv_pos_as_xyz
  1  'x, y, z'
loop_
 _atom_site_type_symbol
 _atom_site_label
 _atom_site_symmetry_multiplicity
 _atom_site_fract_x
 _atom_site_fract_y
 _atom_site_fract_z
 _atom_site_occupancy
  Ca  Ca0  1  0.10766826  0.74138231  0.14359315  1
  Ca  Ca1  1  0.39233373  0.25863230  0.64356329  1
  Ca  Ca2  1  0.60766417  0.75859154  0.85645027  1
  Ca  Ca3  1  0.89233560  0.24140795  0.35639280  1
  Sb  Sb4  1  0.00768710  0.53938783  0.79471557  1
  Sb  Sb5  1  0.49229225  0.46056855  0.29470686  1
  Sb  Sb6  1  0.50767810  0.96060888  0.20528158  1
  Sb  Sb7  1  0.99231487  0.03937219  0.70522260  1
  As  As8  1  0.66730796  0.29203353  0.95215747  1
  As  As9  1  0.83267416  0.70794818  0.45215565  1
  As  As10  1  0.16730702  0.20794243  0.04784938  1
  As  As11  1  0.33271362  0.79208147  0.54783040  1
  O  O12  1  0.85579112  0.31258206  0.84541631  1
  O  O13  1  0.64418074  0.68742512  0.34542263  1
  O  O14  1  0.35582548  0.18736972  0.15455534  1
  O  O15  1  0.14417680  0.81263705  0.65454463  1
  O  O16  1  0.52098438  0.42063253  0.85484078  1
  O  O17  1  0.97903659  0.57934626  0.35482849  1
  O  O18  1  0.02095854  0.07931933  0.14516060  1
  O  O19  1  0.47904120  0.92067545  0.64518964  1
  O  O20  1  0.62602806  0.06375829  0.95627194  1
  O  O21  1  0.87399010  0.93626236  0.45625097  1
  O  O22  1  0.12606182  0.43620789  0.04377532  1
  O  O23  1  0.37396376  0.56379166  0.54377431  1
  O  O24  1  0.70087306  0.37505005  0.13858831  1
  O  O25  1  0.79911760  0.62497043  0.63853863  1
  O  O26  1  0.20086324  0.12497134  0.86144474  1
  O  O27  1  0.29915428  0.87504216  0.36146716  1
  O  O28  1  0.90354193  0.71246907  0.93598587  1
  O  O29  1  0.59645150  0.28752649  0.43599473  1
  O  O30  1  0.40352304  0.78750145  0.06401511  1
  O  O31  1  0.09645692  0.21250611  0.56401148  1
