# generated using pymatgen
data_Rb2NaAl6F21
_symmetry_space_group_name_H-M   'P 1'
_cell_length_a   7.07552161
_cell_length_b   7.07552153
_cell_length_c   10.35445505
_cell_angle_alpha   70.06415442
_cell_angle_beta   70.06415463
_cell_angle_gamma   60.05992153
_symmetry_Int_Tables_number   1
_chemical_formula_structural   Rb2NaAl6F21
_chemical_formula_sum   'Rb2 Na1 Al6 F21'
_cell_volume   412.89336543
_cell_formula_units_Z   1
loop_
 _symmetry_equiv_pos_site_id
 _symmetry_equiv_pos_as_xyz
  1  'x, y, z'
loop_
 _atom_site_type_symbol
 _atom_site_label
 _atom_site_symmetry_multiplicity
 _atom_site_fract_x
 _atom_site_fract_y
 _atom_site_fract_z
 _atom_site_occupancy
  Rb  Rb0  1  0.86583737  0.86310247  0.40649192  1
  Rb  Rb1  1  0.13689753  0.13416263  0.59350808  1
  Na  Na2  1  0.48592295  0.51407705  0.50000000  1
  Al  Al3  1  0.54346123  0.08522998  0.80787555  1
  Al  Al4  1  0.91477002  0.45653877  0.19212445  1
  Al  Al5  1  0.04099973  0.58394894  0.81001374  1
  Al  Al6  1  0.53912112  0.58843689  0.80923399  1
  Al  Al7  1  0.41156311  0.46087888  0.19076601  1
  Al  Al8  1  0.41605106  0.95900027  0.18998626  1
  F  F9  1  0.32021840  0.43290036  0.37512252  1
  F  F10  1  0.56709964  0.67978160  0.62487748  1
  F  F11  1  0.83426404  0.50992894  0.79605832  1
  F  F12  1  0.49007106  0.16573596  0.20394168  1
  F  F13  1  0.13029594  0.54362697  0.17111502  1
  F  F14  1  0.48713547  0.04258691  0.99928611  1
  F  F15  1  0.24359303  0.65706732  0.83130037  1
  F  F16  1  0.86282652  0.40461603  0.37796367  1
  F  F17  1  0.12444639  0.16761713  0.18808326  1
  F  F18  1  0.24954371  0.29141201  0.81394927  1
  F  F19  1  0.34293268  0.75640697  0.16869963  1
  F  F20  1  0.50727904  0.49272096  1.00000000  1
  F  F21  1  0.12088771  0.64970536  0.62558655  1
  F  F22  1  0.69807627  0.37422962  0.20518691  1
  F  F23  1  0.59538397  0.13717348  0.62203633  1
  F  F24  1  0.70858799  0.75045629  0.18605073  1
  F  F25  1  0.45637303  0.86970406  0.82888498  1
  F  F26  1  0.62577038  0.30192373  0.79481309  1
  F  F27  1  0.83238287  0.87555361  0.81191674  1
  F  F28  1  0.95741309  0.51286453  0.00071389  1
  F  F29  1  0.35029464  0.87911229  0.37441345  1
