# generated using pymatgen
data_Na8Si6SnO18
_symmetry_space_group_name_H-M   'P 1'
_cell_length_a   7.43966180
_cell_length_b   7.44482494
_cell_length_c   7.44482519
_cell_angle_alpha   87.74752535
_cell_angle_beta   87.78929435
_cell_angle_gamma   87.78929929
_symmetry_Int_Tables_number   1
_chemical_formula_structural   Na8Si6SnO18
_chemical_formula_sum   'Na8 Si6 Sn1 O18'
_cell_volume   411.43744700
_cell_formula_units_Z   1
loop_
 _symmetry_equiv_pos_site_id
 _symmetry_equiv_pos_as_xyz
  1  'x, y, z'
loop_
 _atom_site_type_symbol
 _atom_site_label
 _atom_site_symmetry_multiplicity
 _atom_site_fract_x
 _atom_site_fract_y
 _atom_site_fract_z
 _atom_site_occupancy
  Na  Na0  1  0.50000000  0.00000000  0.50000000  1
  Na  Na1  1  0.75531455  0.75497821  0.75497821  1
  Na  Na2  1  0.24468545  0.24502179  0.24502179  1
  Na  Na3  1  0.50000000  0.50000000  0.00000000  1
  Na  Na4  1  0.00000000  0.00000000  0.50000000  1
  Na  Na5  1  0.50000000  0.00000000  0.00000000  1
  Na  Na6  1  0.00000000  0.50000000  0.00000000  1
  Na  Na7  1  0.00000000  0.50000000  0.50000000  1
  Si  Si8  1  0.73489128  0.27890096  0.27890096  1
  Si  Si9  1  0.27872216  0.73479162  0.27913782  1
  Si  Si10  1  0.72127784  0.26520838  0.72086218  1
  Si  Si11  1  0.26510872  0.72109904  0.72109904  1
  Si  Si12  1  0.72127784  0.72086218  0.26520838  1
  Si  Si13  1  0.27872216  0.27913782  0.73479162  1
  Sn  Sn14  1  0.00000000  0.00000000  0.00000000  1
  O  O15  1  0.18922450  0.18926151  0.92022516  1
  O  O16  1  0.75779309  0.49989019  0.24253951  1
  O  O17  1  0.21126458  0.21222616  0.54947407  1
  O  O18  1  0.24220691  0.50010981  0.75746049  1
  O  O19  1  0.45080977  0.78802547  0.78802547  1
  O  O20  1  0.50000000  0.75704239  0.24295761  1
  O  O21  1  0.75779309  0.24253951  0.49989019  1
  O  O22  1  0.18922450  0.92022516  0.18926151  1
  O  O23  1  0.81077550  0.81073849  0.07977484  1
  O  O24  1  0.81077550  0.07977484  0.81073849  1
  O  O25  1  0.78873542  0.45052593  0.78777384  1
  O  O26  1  0.08003321  0.81108506  0.81108506  1
  O  O27  1  0.50000000  0.24295761  0.75704239  1
  O  O28  1  0.78873542  0.78777384  0.45052593  1
  O  O29  1  0.21126458  0.54947407  0.21222616  1
  O  O30  1  0.91996679  0.18891494  0.18891494  1
  O  O31  1  0.24220691  0.75746049  0.50010981  1
  O  O32  1  0.54919023  0.21197453  0.21197453  1
