# generated using pymatgen
data_La2SnS3O2
_symmetry_space_group_name_H-M   'P 1'
_cell_length_a   5.89103431
_cell_length_b   5.90440464
_cell_length_c   19.27261782
_cell_angle_alpha   90.00000000
_cell_angle_beta   90.00000000
_cell_angle_gamma   90.00000000
_symmetry_Int_Tables_number   1
_chemical_formula_structural   La2SnS3O2
_chemical_formula_sum   'La8 Sn4 S12 O8'
_cell_volume   670.36043532
_cell_formula_units_Z   4
loop_
 _symmetry_equiv_pos_site_id
 _symmetry_equiv_pos_as_xyz
  1  'x, y, z'
loop_
 _atom_site_type_symbol
 _atom_site_label
 _atom_site_symmetry_multiplicity
 _atom_site_fract_x
 _atom_site_fract_y
 _atom_site_fract_z
 _atom_site_occupancy
  La  La0  1  0.50200983  0.24785028  0.56288999  1
  La  La1  1  0.49799017  0.75214972  0.06288999  1
  La  La2  1  0.00200983  0.25214972  0.43711001  1
  La  La3  1  0.99799017  0.74785028  0.93711001  1
  La  La4  1  0.49799017  0.75214972  0.43711001  1
  La  La5  1  0.99799017  0.74785028  0.56288999  1
  La  La6  1  0.00200983  0.25214972  0.06288999  1
  La  La7  1  0.50200983  0.24785028  0.93711001  1
  Sn  Sn8  1  0.93026978  0.34760093  0.75000000  1
  Sn  Sn9  1  0.43026978  0.15239907  0.25000000  1
  Sn  Sn10  1  0.56973022  0.84760093  0.75000000  1
  Sn  Sn11  1  0.06973022  0.65239907  0.25000000  1
  S  S12  1  0.48339087  0.73918791  0.25000000  1
  S  S13  1  0.51321185  0.25633608  0.36654363  1
  S  S14  1  0.01321185  0.24366392  0.63345637  1
  S  S15  1  0.01660913  0.23918791  0.25000000  1
  S  S16  1  0.48678815  0.74366392  0.63345637  1
  S  S17  1  0.98339087  0.76081209  0.75000000  1
  S  S18  1  0.48678815  0.74366392  0.86654363  1
  S  S19  1  0.98678815  0.75633608  0.13345637  1
  S  S20  1  0.51660913  0.26081209  0.75000000  1
  S  S21  1  0.01321185  0.24366392  0.86654363  1
  S  S22  1  0.98678815  0.75633608  0.36654363  1
  S  S23  1  0.51321185  0.25633608  0.13345637  1
  O  O24  1  0.74876080  0.49943464  0.49959133  1
  O  O25  1  0.75123920  0.99943464  0.00040867  1
  O  O26  1  0.24876080  0.00056536  0.99959133  1
  O  O27  1  0.74876080  0.49943464  0.00040867  1
  O  O28  1  0.25123920  0.50056536  0.99959133  1
  O  O29  1  0.75123920  0.99943464  0.49959133  1
  O  O30  1  0.25123920  0.50056536  0.50040867  1
  O  O31  1  0.24876080  0.00056536  0.50040867  1
