# generated using pymatgen
data_BaNaZrF7
_symmetry_space_group_name_H-M   'P 1'
_cell_length_a   5.62076632
_cell_length_b   9.26578755
_cell_length_c   11.41228651
_cell_angle_alpha   90.00000000
_cell_angle_beta   90.00000000
_cell_angle_gamma   90.00000000
_symmetry_Int_Tables_number   1
_chemical_formula_structural   BaNaZrF7
_chemical_formula_sum   'Ba4 Na4 Zr4 F28'
_cell_volume   594.36131471
_cell_formula_units_Z   4
loop_
 _symmetry_equiv_pos_site_id
 _symmetry_equiv_pos_as_xyz
  1  'x, y, z'
loop_
 _atom_site_type_symbol
 _atom_site_label
 _atom_site_symmetry_multiplicity
 _atom_site_fract_x
 _atom_site_fract_y
 _atom_site_fract_z
 _atom_site_occupancy
  Ba  Ba0  1  0.25000000  0.53051178  0.32780229  1
  Ba  Ba1  1  0.75000000  0.46948822  0.67219771  1
  Ba  Ba2  1  0.25000000  0.03051178  0.17219771  1
  Ba  Ba3  1  0.75000000  0.96948822  0.82780229  1
  Na  Na4  1  0.25000000  0.63452701  0.94526987  1
  Na  Na5  1  0.75000000  0.36547299  0.05473013  1
  Na  Na6  1  0.75000000  0.86547299  0.44526987  1
  Na  Na7  1  0.25000000  0.13452701  0.55473013  1
  Zr  Zr8  1  0.25000000  0.25119926  0.86033171  1
  Zr  Zr9  1  0.25000000  0.75119926  0.63966829  1
  Zr  Zr10  1  0.75000000  0.74880074  0.13966829  1
  Zr  Zr11  1  0.75000000  0.24880074  0.36033171  1
  F  F12  1  0.99635993  0.27790429  0.22533913  1
  F  F13  1  0.51850241  0.57543320  0.11349609  1
  F  F14  1  0.51850241  0.07543320  0.38650391  1
  F  F15  1  0.99010032  0.32758687  0.48455739  1
  F  F16  1  0.00364007  0.22209571  0.72533913  1
  F  F17  1  0.49635993  0.22209571  0.72533913  1
  F  F18  1  0.01850241  0.42456680  0.88650391  1
  F  F19  1  0.00989968  0.17241313  0.98455739  1
  F  F20  1  0.50364007  0.27790429  0.22533913  1
  F  F21  1  0.50364007  0.77790429  0.27466087  1
  F  F22  1  0.50989968  0.32758687  0.48455739  1
  F  F23  1  0.75000000  0.47724868  0.33211179  1
  F  F24  1  0.50989968  0.82758687  0.01544261  1
  F  F25  1  0.00989968  0.67241313  0.51544261  1
  F  F26  1  0.49635993  0.72209571  0.77466087  1
  F  F27  1  0.99010032  0.82758687  0.01544261  1
  F  F28  1  0.98149759  0.07543320  0.38650391  1
  F  F29  1  0.75000000  0.97724868  0.16788821  1
  F  F30  1  0.48149759  0.42456680  0.88650391  1
  F  F31  1  0.25000000  0.02275132  0.83211179  1
  F  F32  1  0.48149759  0.92456680  0.61349609  1
  F  F33  1  0.01850241  0.92456680  0.61349609  1
  F  F34  1  0.99635993  0.77790429  0.27466087  1
  F  F35  1  0.49010032  0.67241313  0.51544261  1
  F  F36  1  0.49010032  0.17241313  0.98455739  1
  F  F37  1  0.98149759  0.57543320  0.11349609  1
  F  F38  1  0.25000000  0.52275132  0.66788821  1
  F  F39  1  0.00364007  0.72209571  0.77466087  1
