# generated using pymatgen
data_Sr2Y2Co2O7
_symmetry_space_group_name_H-M   'P 1'
_cell_length_a   12.68068144
_cell_length_b   12.68068144
_cell_length_c   12.68068144
_cell_angle_alpha   36.22263020
_cell_angle_beta   154.41887209
_cell_angle_gamma   154.78992638
_symmetry_Int_Tables_number   1
_chemical_formula_structural   Sr2Y2Co2O7
_chemical_formula_sum   'Sr4 Y4 Co4 O14'
_cell_volume   374.52898869
_cell_formula_units_Z   2
loop_
 _symmetry_equiv_pos_site_id
 _symmetry_equiv_pos_as_xyz
  1  'x, y, z'
loop_
 _atom_site_type_symbol
 _atom_site_label
 _atom_site_symmetry_multiplicity
 _atom_site_fract_x
 _atom_site_fract_y
 _atom_site_fract_z
 _atom_site_occupancy
  Sr  Sr0  1  0.04080466  0.87930749  0.88095092  1
  Sr  Sr1  1  0.99835757  0.15985375  0.11904908  1
  Sr  Sr2  1  0.04080466  0.65985375  0.66149717  1
  Sr  Sr3  1  0.99835757  0.37930749  0.33850283  1
  Y  Y4  1  0.02953923  0.52953923  0.50000000  1
  Y  Y5  1  0.02953923  0.02953923  0.00000000  1
  Y  Y6  1  0.52829749  0.73181163  0.29648486  1
  Y  Y7  1  0.43532677  0.23181163  0.70351514  1
  Co  Co8  1  0.52540576  0.45347548  0.92120648  1
  Co  Co9  1  0.53226800  0.60419928  0.07879352  1
  Co  Co10  1  0.52540576  0.10419928  0.57193128  1
  Co  Co11  1  0.53226800  0.95347548  0.42806872  1
  O  O12  1  0.00685594  0.83167645  0.67518049  1
  O  O13  1  0.15649597  0.33167645  0.32481951  1
  O  O14  1  0.51210890  0.21339843  0.18011077  1
  O  O15  1  0.03328866  0.33199913  0.81988923  1
  O  O16  1  0.51210890  0.83199913  0.79871047  1
  O  O17  1  0.03328866  0.71339843  0.20128953  1
  O  O18  1  0.54973185  0.72869470  0.69766392  1
  O  O19  1  0.03103178  0.85206792  0.30233608  1
  O  O20  1  0.54973185  0.35206792  0.32103714  1
  O  O21  1  0.03103178  0.22869470  0.67896286  1
  O  O22  1  0.51156352  0.88777408  0.29536210  1
  O  O23  1  0.59241299  0.21620142  0.70463790  1
  O  O24  1  0.51156352  0.71620142  0.12378944  1
  O  O25  1  0.59241299  0.38777408  0.87621056  1
