# generated using pymatgen
data_K3Li3TeO6
_symmetry_space_group_name_H-M   'P 1'
_cell_length_a   6.07384112
_cell_length_b   9.83397381
_cell_length_c   11.85758473
_cell_angle_alpha   90.00000000
_cell_angle_beta   90.00000000
_cell_angle_gamma   90.00000000
_symmetry_Int_Tables_number   1
_chemical_formula_structural   K3Li3TeO6
_chemical_formula_sum   'K12 Li12 Te4 O24'
_cell_volume   708.25347071
_cell_formula_units_Z   4
loop_
 _symmetry_equiv_pos_site_id
 _symmetry_equiv_pos_as_xyz
  1  'x, y, z'
loop_
 _atom_site_type_symbol
 _atom_site_label
 _atom_site_symmetry_multiplicity
 _atom_site_fract_x
 _atom_site_fract_y
 _atom_site_fract_z
 _atom_site_occupancy
  K  K0  1  0.75000000  0.70746338  0.00645444  1
  K  K1  1  0.75000000  0.79253662  0.50645444  1
  K  K2  1  0.75000000  0.04089867  0.96217624  1
  K  K3  1  0.75000000  0.45910133  0.46217624  1
  K  K4  1  0.25000000  0.87194713  0.47210522  1
  K  K5  1  0.25000000  0.20746338  0.49354556  1
  K  K6  1  0.25000000  0.62805287  0.97210522  1
  K  K7  1  0.75000000  0.37194713  0.02789478  1
  K  K8  1  0.75000000  0.12805287  0.52789478  1
  K  K9  1  0.25000000  0.54089867  0.53782376  1
  K  K10  1  0.25000000  0.95910133  0.03782376  1
  K  K11  1  0.25000000  0.29253662  0.99354556  1
  Li  Li12  1  0.25000000  0.09066893  0.25112278  1
  Li  Li13  1  0.50617748  0.83562931  0.25662639  1
  Li  Li14  1  0.25000000  0.40933107  0.75112278  1
  Li  Li15  1  0.49382252  0.16437069  0.74337361  1
  Li  Li16  1  0.99382252  0.66437069  0.75662639  1
  Li  Li17  1  0.50617748  0.66437069  0.75662639  1
  Li  Li18  1  0.49382252  0.33562931  0.24337361  1
  Li  Li19  1  0.00617748  0.33562931  0.24337361  1
  Li  Li20  1  0.75000000  0.90933107  0.74887722  1
  Li  Li21  1  0.99382252  0.83562931  0.25662639  1
  Li  Li22  1  0.75000000  0.59066893  0.24887722  1
  Li  Li23  1  0.00617748  0.16437069  0.74337361  1
  Te  Te24  1  0.25000000  0.91310318  0.75561010  1
  Te  Te25  1  0.75000000  0.08689682  0.24438990  1
  Te  Te26  1  0.25000000  0.58689682  0.25561010  1
  Te  Te27  1  0.75000000  0.41310318  0.74438990  1
  O  O28  1  0.51202781  0.16114810  0.14707304  1
  O  O29  1  0.98797219  0.16114810  0.14707304  1
  O  O30  1  0.48639677  0.51455796  0.15789300  1
  O  O31  1  0.25000000  0.73791815  0.67607861  1
  O  O32  1  0.25000000  0.09063169  0.83551592  1
  O  O33  1  0.25000000  0.76208185  0.17607861  1
  O  O34  1  0.98639677  0.01455796  0.34210700  1
  O  O35  1  0.75000000  0.59063169  0.66448408  1
  O  O36  1  0.51360323  0.48544204  0.84210700  1
  O  O37  1  0.98639677  0.48544204  0.84210700  1
  O  O38  1  0.75000000  0.23791815  0.82392139  1
  O  O39  1  0.48639677  0.98544204  0.65789300  1
  O  O40  1  0.98797219  0.33885190  0.64707304  1
  O  O41  1  0.51360323  0.01455796  0.34210700  1
  O  O42  1  0.01202781  0.66114810  0.35292696  1
  O  O43  1  0.25000000  0.40936831  0.33551592  1
  O  O44  1  0.48797219  0.66114810  0.35292696  1
  O  O45  1  0.75000000  0.26208185  0.32392139  1
  O  O46  1  0.48797219  0.83885190  0.85292696  1
  O  O47  1  0.75000000  0.90936831  0.16448408  1
  O  O48  1  0.01202781  0.83885190  0.85292696  1
  O  O49  1  0.01360323  0.51455796  0.15789300  1
  O  O50  1  0.01360323  0.98544204  0.65789300  1
  O  O51  1  0.51202781  0.33885190  0.64707304  1
