# generated using pymatgen
data_Ca2AsClO4
_symmetry_space_group_name_H-M   'P 1'
_cell_length_a   6.41068831
_cell_length_b   7.18524573
_cell_length_c   11.17560367
_cell_angle_alpha   90.00000000
_cell_angle_beta   90.00000000
_cell_angle_gamma   90.00000000
_symmetry_Int_Tables_number   1
_chemical_formula_structural   Ca2AsClO4
_chemical_formula_sum   'Ca8 As4 Cl4 O16'
_cell_volume   514.77480023
_cell_formula_units_Z   4
loop_
 _symmetry_equiv_pos_site_id
 _symmetry_equiv_pos_as_xyz
  1  'x, y, z'
loop_
 _atom_site_type_symbol
 _atom_site_label
 _atom_site_symmetry_multiplicity
 _atom_site_fract_x
 _atom_site_fract_y
 _atom_site_fract_z
 _atom_site_occupancy
  Ca  Ca0  1  0.85993305  0.97637921  0.25000000  1
  Ca  Ca1  1  0.14006695  0.02362079  0.75000000  1
  Ca  Ca2  1  0.14006695  0.47637921  0.25000000  1
  Ca  Ca3  1  0.85993305  0.52362079  0.75000000  1
  Ca  Ca4  1  0.62443545  0.25000000  0.50000000  1
  Ca  Ca5  1  0.62443545  0.25000000  0.00000000  1
  Ca  Ca6  1  0.37556455  0.75000000  0.50000000  1
  Ca  Ca7  1  0.37556455  0.75000000  0.00000000  1
  As  As8  1  0.12898250  0.25000000  0.00000000  1
  As  As9  1  0.87101750  0.75000000  0.50000000  1
  As  As10  1  0.12898250  0.25000000  0.50000000  1
  As  As11  1  0.87101750  0.75000000  0.00000000  1
  Cl  Cl12  1  0.50241165  0.70083725  0.25000000  1
  Cl  Cl13  1  0.49758835  0.20083725  0.25000000  1
  Cl  Cl14  1  0.50241165  0.79916275  0.75000000  1
  Cl  Cl15  1  0.49758835  0.29916275  0.75000000  1
  O  O16  1  0.96869088  0.26340473  0.62383029  1
  O  O17  1  0.29260670  0.06609662  0.52855775  1
  O  O18  1  0.29260670  0.43390338  0.02855775  1
  O  O19  1  0.29260670  0.43390338  0.47144225  1
  O  O20  1  0.70739330  0.56609662  0.52855775  1
  O  O21  1  0.03130912  0.73659527  0.37616971  1
  O  O22  1  0.96869088  0.23659527  0.12383029  1
  O  O23  1  0.03130912  0.76340473  0.62383029  1
  O  O24  1  0.03130912  0.73659527  0.12383029  1
  O  O25  1  0.03130912  0.76340473  0.87616971  1
  O  O26  1  0.96869088  0.23659527  0.37616971  1
  O  O27  1  0.29260670  0.06609662  0.97144225  1
  O  O28  1  0.70739330  0.93390338  0.47144225  1
  O  O29  1  0.70739330  0.56609662  0.97144225  1
  O  O30  1  0.70739330  0.93390338  0.02855775  1
  O  O31  1  0.96869088  0.26340473  0.87616971  1
