# generated using pymatgen
data_LiLa4AuO8
_symmetry_space_group_name_H-M   'P 1'
_cell_length_a   5.78757531
_cell_length_b   5.78796927
_cell_length_c   6.89964668
_cell_angle_alpha   90.00000000
_cell_angle_beta   114.79739849
_cell_angle_gamma   90.00000000
_symmetry_Int_Tables_number   1
_chemical_formula_structural   LiLa4AuO8
_chemical_formula_sum   'Li1 La4 Au1 O8'
_cell_volume   209.81582383
_cell_formula_units_Z   1
loop_
 _symmetry_equiv_pos_site_id
 _symmetry_equiv_pos_as_xyz
  1  'x, y, z'
loop_
 _atom_site_type_symbol
 _atom_site_label
 _atom_site_symmetry_multiplicity
 _atom_site_fract_x
 _atom_site_fract_y
 _atom_site_fract_z
 _atom_site_occupancy
  Li  Li0  1  0.50000000  0.00000000  0.00000000  1
  La  La1  1  0.34968309  0.50000000  0.69936617  1
  La  La2  1  0.85035560  0.00000000  0.70071120  1
  La  La3  1  0.14964440  0.00000000  0.29928880  1
  La  La4  1  0.65031691  0.50000000  0.30063383  1
  Au  Au5  1  0.00000000  0.50000000  0.00000000  1
  O  O6  1  0.50000000  0.75078585  0.50000000  1
  O  O7  1  0.00000000  0.24921415  0.50000000  1
  O  O8  1  0.50000000  0.24921415  0.50000000  1
  O  O9  1  0.24906513  0.25095014  0.00000000  1
  O  O10  1  0.00000000  0.75078585  0.50000000  1
  O  O11  1  0.24906513  0.74904986  0.00000000  1
  O  O12  1  0.75093487  0.74904986  1.00000000  1
  O  O13  1  0.75093487  0.25095014  1.00000000  1
