# generated using pymatgen
data_NaTi2Al5O12
_symmetry_space_group_name_H-M   'P 1'
_cell_length_a   2.94123227
_cell_length_b   9.16175532
_cell_length_c   15.54520152
_cell_angle_alpha   90.00000000
_cell_angle_beta   90.00000000
_cell_angle_gamma   90.00000000
_symmetry_Int_Tables_number   1
_chemical_formula_structural   NaTi2Al5O12
_chemical_formula_sum   'Na2 Ti4 Al10 O24'
_cell_volume   418.89421975
_cell_formula_units_Z   2
loop_
 _symmetry_equiv_pos_site_id
 _symmetry_equiv_pos_as_xyz
  1  'x, y, z'
loop_
 _atom_site_type_symbol
 _atom_site_label
 _atom_site_symmetry_multiplicity
 _atom_site_fract_x
 _atom_site_fract_y
 _atom_site_fract_z
 _atom_site_occupancy
  Na  Na0  1  0.50000000  0.50000000  0.00000000  1
  Na  Na1  1  0.50000000  0.00000000  0.50000000  1
  Ti  Ti2  1  0.50000000  0.72913669  0.35610995  1
  Ti  Ti3  1  0.50000000  0.27086331  0.64389005  1
  Ti  Ti4  1  0.50000000  0.77086331  0.85610995  1
  Ti  Ti5  1  0.50000000  0.22913669  0.14389005  1
  Al  Al6  1  0.00000000  0.00000000  0.00000000  1
  Al  Al7  1  0.00000000  0.49057679  0.80090620  1
  Al  Al8  1  0.00000000  0.00942321  0.30090620  1
  Al  Al9  1  0.00000000  0.50942321  0.19909380  1
  Al  Al10  1  0.50000000  0.19159908  0.85405323  1
  Al  Al11  1  0.50000000  0.80840092  0.14594677  1
  Al  Al12  1  0.00000000  0.99057679  0.69909380  1
  Al  Al13  1  0.50000000  0.69159908  0.64594677  1
  Al  Al14  1  0.50000000  0.30840092  0.35405323  1
  Al  Al15  1  0.00000000  0.50000000  0.50000000  1
  O  O16  1  0.50000000  0.39478026  0.55143885  1
  O  O17  1  0.00000000  0.13622663  0.90716872  1
  O  O18  1  0.50000000  0.11332865  0.35199738  1
  O  O19  1  0.00000000  0.36315471  0.70515540  1
  O  O20  1  0.50000000  0.38667135  0.85199738  1
  O  O21  1  0.50000000  0.61332865  0.14800262  1
  O  O22  1  0.50000000  0.10521974  0.05143885  1
  O  O23  1  0.00000000  0.86377337  0.09283128  1
  O  O24  1  0.00000000  0.63622663  0.59283128  1
  O  O25  1  0.00000000  0.86315471  0.79484460  1
  O  O26  1  0.00000000  0.13684529  0.20515540  1
  O  O27  1  0.00000000  0.13478162  0.60653486  1
  O  O28  1  0.50000000  0.60899316  0.75183535  1
  O  O29  1  0.00000000  0.86521838  0.39346514  1
  O  O30  1  0.00000000  0.63684529  0.29484460  1
  O  O31  1  0.00000000  0.63478162  0.89346514  1
  O  O32  1  0.50000000  0.89478026  0.94856115  1
  O  O33  1  0.50000000  0.10899316  0.74816465  1
  O  O34  1  0.50000000  0.60521974  0.44856115  1
  O  O35  1  0.50000000  0.89100684  0.25183535  1
  O  O36  1  0.00000000  0.36377337  0.40716872  1
  O  O37  1  0.50000000  0.39100684  0.24816465  1
  O  O38  1  0.00000000  0.36521838  0.10653486  1
  O  O39  1  0.50000000  0.88667135  0.64800262  1
