# generated using pymatgen
data_Rb2Sb8O13
_symmetry_space_group_name_H-M   'P 1'
_cell_length_a   7.69723902
_cell_length_b   14.36175703
_cell_length_c   17.34654836
_cell_angle_alpha   90.00000000
_cell_angle_beta   90.00000000
_cell_angle_gamma   90.14902089
_symmetry_Int_Tables_number   1
_chemical_formula_structural   Rb2Sb8O13
_chemical_formula_sum   'Rb8 Sb32 O52'
_cell_volume   1917.58290930
_cell_formula_units_Z   4
loop_
 _symmetry_equiv_pos_site_id
 _symmetry_equiv_pos_as_xyz
  1  'x, y, z'
loop_
 _atom_site_type_symbol
 _atom_site_label
 _atom_site_symmetry_multiplicity
 _atom_site_fract_x
 _atom_site_fract_y
 _atom_site_fract_z
 _atom_site_occupancy
  Rb  Rb0  1  0.53061240  0.19302256  0.75000000  1
  Rb  Rb1  1  0.53863995  0.31996465  0.25000000  1
  Rb  Rb2  1  0.97648989  0.53348617  0.75000000  1
  Rb  Rb3  1  0.04430827  0.03158101  0.75000000  1
  Rb  Rb4  1  0.95569173  0.96841899  0.25000000  1
  Rb  Rb5  1  0.46938760  0.80697744  0.25000000  1
  Rb  Rb6  1  0.02351011  0.46651383  0.25000000  1
  Rb  Rb7  1  0.46136005  0.68003535  0.75000000  1
  Sb  Sb8  1  0.52154548  0.92477537  0.86193082  1
  Sb  Sb9  1  0.47845452  0.07522463  0.36193082  1
  Sb  Sb10  1  0.01629996  0.21000079  0.11459010  1
  Sb  Sb11  1  0.27123643  0.12234725  0.93907560  1
  Sb  Sb12  1  0.72876357  0.87765275  0.43907560  1
  Sb  Sb13  1  0.01629996  0.21000079  0.38540990  1
  Sb  Sb14  1  0.33084259  0.36582973  0.44676828  1
  Sb  Sb15  1  0.98370004  0.78999921  0.61459010  1
  Sb  Sb16  1  0.98370004  0.78999921  0.88540990  1
  Sb  Sb17  1  0.33084259  0.36582973  0.05323172  1
  Sb  Sb18  1  0.47845452  0.07522463  0.13806918  1
  Sb  Sb19  1  0.27123643  0.12234725  0.56092440  1
  Sb  Sb20  1  0.16900749  0.91785192  0.44098633  1
  Sb  Sb21  1  0.76361133  0.41284114  0.45016217  1
  Sb  Sb22  1  0.00626690  0.71358389  0.36225515  1
  Sb  Sb23  1  0.52154548  0.92477537  0.63806918  1
  Sb  Sb24  1  0.99373310  0.28641611  0.63774485  1
  Sb  Sb25  1  0.83099251  0.08214808  0.94098633  1
  Sb  Sb26  1  0.51362481  0.43457128  0.63616434  1
  Sb  Sb27  1  0.00626690  0.71358389  0.13774485  1
  Sb  Sb28  1  0.23638867  0.58715886  0.54983783  1
  Sb  Sb29  1  0.66915741  0.63417027  0.55323172  1
  Sb  Sb30  1  0.48637519  0.56542872  0.36383566  1
  Sb  Sb31  1  0.16900749  0.91785192  0.05901367  1
  Sb  Sb32  1  0.76361133  0.41284114  0.04983783  1
  Sb  Sb33  1  0.66915741  0.63417027  0.94676828  1
  Sb  Sb34  1  0.23638867  0.58715886  0.95016217  1
  Sb  Sb35  1  0.51362481  0.43457128  0.86383566  1
  Sb  Sb36  1  0.48637519  0.56542872  0.13616434  1
  Sb  Sb37  1  0.72876357  0.87765275  0.06092440  1
  Sb  Sb38  1  0.83099251  0.08214808  0.55901367  1
  Sb  Sb39  1  0.99373310  0.28641611  0.86225515  1
  O  O40  1  0.91936955  0.33883554  0.37787210  1
  O  O41  1  0.42632831  0.67959954  0.93171567  1
  O  O42  1  0.74063684  0.74423391  0.62376026  1
  O  O43  1  0.91936955  0.33883554  0.12212790  1
  O  O44  1  0.25936316  0.25576609  0.12376026  1
  O  O45  1  0.28853027  0.50494037  0.64067516  1
  O  O46  1  0.66678616  0.54822557  0.85518103  1
  O  O47  1  0.57367169  0.32040046  0.06828433  1
  O  O48  1  0.76274681  0.97436252  0.63568477  1
  O  O49  1  0.66678616  0.54822557  0.64481897  1
  O  O50  1  0.16212069  0.82499851  0.14650604  1
  O  O51  1  0.76274681  0.97436252  0.86431523  1
  O  O52  1  0.58617924  0.94805069  0.35908288  1
  O  O53  1  0.47888538  0.59024775  0.25000000  1
  O  O54  1  0.28853027  0.50494037  0.85932484  1
  O  O55  1  0.01314755  0.19671740  -0.00035497  1
  O  O56  1  0.74063684  0.74423391  0.87623974  1
  O  O57  1  0.42632831  0.67959954  0.56828433  1
  O  O58  1  0.01835803  0.68186084  0.25000000  1
  O  O59  1  0.52111462  0.40975225  0.75000000  1
  O  O60  1  0.71146973  0.49505963  0.14067516  1
  O  O61  1  0.50000000  0.50000000  0.00000000  1
  O  O62  1  0.33321384  0.45177443  0.14481897  1
  O  O63  1  0.41382076  0.05194931  0.64091712  1
  O  O64  1  0.21495381  0.21362829  0.85538712  1
  O  O65  1  0.07223613  0.03431728  0.92026235  1
  O  O66  1  0.92776387  0.96568272  0.07973765  1
  O  O67  1  0.08063045  0.66116446  0.87787210  1
  O  O68  1  0.98685245  0.80328260  0.49964503  1
  O  O69  1  0.50115508  0.10501379  0.25000000  1
  O  O70  1  0.23725319  0.02563748  0.36431523  1
  O  O71  1  0.71146973  0.49505963  0.35932484  1
  O  O72  1  0.01314755  0.19671740  0.50035497  1
  O  O73  1  0.49884492  0.89498621  0.75000000  1
  O  O74  1  0.83787931  0.17500149  0.64650604  1
  O  O75  1  0.33321384  0.45177443  0.35518103  1
  O  O76  1  0.50000000  0.50000000  0.50000000  1
  O  O77  1  0.83787931  0.17500149  0.85349396  1
  O  O78  1  0.16212069  0.82499851  0.35349396  1
  O  O79  1  0.92776387  0.96568272  0.42026235  1
  O  O80  1  0.98164197  0.31813916  0.75000000  1
  O  O81  1  0.98685245  0.80328260  1.00035497  1
  O  O82  1  0.08063045  0.66116446  0.62212790  1
  O  O83  1  0.58617924  0.94805069  0.14091712  1
  O  O84  1  0.25936316  0.25576609  0.37623974  1
  O  O85  1  0.57367169  0.32040046  0.43171567  1
  O  O86  1  0.23725319  0.02563748  0.13568477  1
  O  O87  1  0.78504619  0.78637171  0.35538712  1
  O  O88  1  0.78504619  0.78637171  0.14461288  1
  O  O89  1  0.07223613  0.03431728  0.57973765  1
  O  O90  1  0.21495381  0.21362829  0.64461288  1
  O  O91  1  0.41382076  0.05194931  0.85908288  1
