# generated using pymatgen
data_K2CuS(ClO2)2
_symmetry_space_group_name_H-M   'P 1'
_cell_length_a   6.21931648
_cell_length_b   7.85065383
_cell_length_c   16.53370934
_cell_angle_alpha   90.00000000
_cell_angle_beta   90.00000000
_cell_angle_gamma   90.00000000
_symmetry_Int_Tables_number   1
_chemical_formula_structural   K2CuS(ClO2)2
_chemical_formula_sum   'K8 Cu4 S4 Cl8 O16'
_cell_volume   807.26994442
_cell_formula_units_Z   4
loop_
 _symmetry_equiv_pos_site_id
 _symmetry_equiv_pos_as_xyz
  1  'x, y, z'
loop_
 _atom_site_type_symbol
 _atom_site_label
 _atom_site_symmetry_multiplicity
 _atom_site_fract_x
 _atom_site_fract_y
 _atom_site_fract_z
 _atom_site_occupancy
  K  K0  1  0.25000000  0.38008217  0.90623792  1
  K  K1  1  0.25000000  0.88273573  0.21694214  1
  K  K2  1  0.75000000  0.61726427  0.71694214  1
  K  K3  1  0.75000000  0.61991783  0.09376208  1
  K  K4  1  0.75000000  0.11991783  0.40623792  1
  K  K5  1  0.25000000  0.38273573  0.28305786  1
  K  K6  1  0.75000000  0.11726427  0.78305786  1
  K  K7  1  0.25000000  0.88008217  0.59376208  1
  Cu  Cu8  1  0.25000000  0.37897901  0.53765999  1
  Cu  Cu9  1  0.75000000  0.62102099  0.46234001  1
  Cu  Cu10  1  0.25000000  0.87897901  0.96234001  1
  Cu  Cu11  1  0.75000000  0.12102099  0.03765999  1
  S  S12  1  0.25000000  0.37003651  0.69733641  1
  S  S13  1  0.75000000  0.62996349  0.30266359  1
  S  S14  1  0.75000000  0.12996349  0.19733641  1
  S  S15  1  0.25000000  0.87003651  0.80266359  1
  Cl  Cl16  1  0.25000000  0.16201208  0.44768631  1
  Cl  Cl17  1  0.25000000  0.59884805  0.45170477  1
  Cl  Cl18  1  0.75000000  0.40115195  0.54829523  1
  Cl  Cl19  1  0.25000000  0.09884805  0.04829523  1
  Cl  Cl20  1  0.75000000  0.83798792  0.55231369  1
  Cl  Cl21  1  0.75000000  0.90115195  0.95170477  1
  Cl  Cl22  1  0.75000000  0.33798792  0.94768631  1
  Cl  Cl23  1  0.25000000  0.66201208  0.05231369  1
  O  O24  1  0.75000000  0.77599093  0.36313641  1
  O  O25  1  0.25000000  0.72400907  0.86313641  1
  O  O26  1  0.94528130  0.13287975  0.24787760  1
  O  O27  1  0.75000000  0.27599093  0.13686359  1
  O  O28  1  0.55471870  0.13287975  0.24787760  1
  O  O29  1  0.25000000  0.02469381  0.85835554  1
  O  O30  1  0.05471870  0.86712025  0.75212240  1
  O  O31  1  0.75000000  0.47530619  0.35835554  1
  O  O32  1  0.75000000  0.97530619  0.14164446  1
  O  O33  1  0.44528130  0.86712025  0.75212240  1
  O  O34  1  0.55471870  0.63287975  0.25212240  1
  O  O35  1  0.25000000  0.22400907  0.63686359  1
  O  O36  1  0.05471870  0.36712025  0.74787760  1
  O  O37  1  0.44528130  0.36712025  0.74787760  1
  O  O38  1  0.94528130  0.63287975  0.25212240  1
  O  O39  1  0.25000000  0.52469381  0.64164446  1
