# generated using pymatgen
data_AgGeBiTe3
_symmetry_space_group_name_H-M   'P 1'
_cell_length_a   4.35860394
_cell_length_b   6.14806643
_cell_length_c   7.55471934
_cell_angle_alpha   114.01039463
_cell_angle_beta   106.76631659
_cell_angle_gamma   90.00000000
_symmetry_Int_Tables_number   1
_chemical_formula_structural   AgGeBiTe3
_chemical_formula_sum   'Ag1 Ge1 Bi1 Te3'
_cell_volume   175.46348179
_cell_formula_units_Z   1
loop_
 _symmetry_equiv_pos_site_id
 _symmetry_equiv_pos_as_xyz
  1  'x, y, z'
loop_
 _atom_site_type_symbol
 _atom_site_label
 _atom_site_symmetry_multiplicity
 _atom_site_fract_x
 _atom_site_fract_y
 _atom_site_fract_z
 _atom_site_occupancy
  Ag  Ag0  1  0.99904659  0.99904659  0.99809317  1
  Ge  Ge1  1  0.67121266  0.67121266  0.34242432  1
  Bi  Bi2  1  0.33208026  0.33208026  0.66416152  1
  Te  Te3  1  0.32904744  0.82904744  0.65809587  1
  Te  Te4  1  0.00744372  0.50744372  0.01488745  1
  Te  Te5  1  0.66116933  0.16116933  0.32233767  1
