# generated using pymatgen
data_AuN5O14
_symmetry_space_group_name_H-M   'P 1'
_cell_length_a   7.95031638
_cell_length_b   8.37948717
_cell_length_c   9.23699246
_cell_angle_alpha   90.00000000
_cell_angle_beta   112.33418904
_cell_angle_gamma   90.00000000
_symmetry_Int_Tables_number   1
_chemical_formula_structural   AuN5O14
_chemical_formula_sum   'Au2 N10 O28'
_cell_volume   569.20178287
_cell_formula_units_Z   2
loop_
 _symmetry_equiv_pos_site_id
 _symmetry_equiv_pos_as_xyz
  1  'x, y, z'
loop_
 _atom_site_type_symbol
 _atom_site_label
 _atom_site_symmetry_multiplicity
 _atom_site_fract_x
 _atom_site_fract_y
 _atom_site_fract_z
 _atom_site_occupancy
  Au  Au0  1  0.50000000  0.50000000  0.50000000  1
  Au  Au1  1  0.00000000  0.00000000  0.00000000  1
  N  N2  1  0.63740274  0.92841299  0.77494253  1
  N  N3  1  0.33259346  0.26589133  0.63792037  1
  N  N4  1  0.16740654  0.76589133  0.86207963  1
  N  N5  1  0.13740274  0.57158701  0.27494253  1
  N  N6  1  0.36259726  0.07158701  0.22505747  1
  N  N7  1  0.66740654  0.73410867  0.36207963  1
  N  N8  1  0.86259726  0.42841299  0.72505747  1
  N  N9  1  0.83259346  0.23410867  0.13792037  1
  N  N10  1  0.00000000  0.00000000  0.50000000  1
  N  N11  1  0.50000000  0.50000000  0.00000000  1
  O  O12  1  0.32093240  0.96203647  0.29338406  1
  O  O13  1  0.25403016  0.61347808  0.42237289  1
  O  O14  1  0.00267640  0.34783846  0.77283767  1
  O  O15  1  0.74823789  0.76551102  0.50210263  1
  O  O16  1  0.09914159  0.90616427  0.48982243  1
  O  O17  1  0.24596984  0.11347808  0.07762711  1
  O  O18  1  0.05241884  0.89332350  0.82059706  1
  O  O19  1  0.75176211  0.26551102  0.99789737  1
  O  O20  1  0.74596984  0.38652192  0.57762711  1
  O  O21  1  0.67906760  0.03796353  0.70661594  1
  O  O22  1  0.68011275  0.80677081  0.25081218  1
  O  O23  1  0.59914159  0.59383573  0.98982243  1
  O  O24  1  0.44758116  0.39332350  0.67940294  1
  O  O25  1  0.24823789  0.73448898  0.00210263  1
  O  O26  1  0.99732360  0.65216154  0.22716233  1
  O  O27  1  0.18011275  0.69322919  0.75081218  1
  O  O28  1  0.49732360  0.84783846  0.72716233  1
  O  O29  1  0.31988725  0.19322919  0.74918782  1
  O  O30  1  0.50267640  0.15216154  0.27283767  1
  O  O31  1  0.55241884  0.60667650  0.32059706  1
  O  O32  1  0.17906760  0.46203647  0.20661594  1
  O  O33  1  0.90085841  0.09383573  0.51017757  1
  O  O34  1  0.82093240  0.53796353  0.79338406  1
  O  O35  1  0.81988725  0.30677081  0.24918782  1
  O  O36  1  0.94758116  0.10667650  0.17940294  1
  O  O37  1  0.25176211  0.23448898  0.49789737  1
  O  O38  1  0.75403016  0.88652192  0.92237289  1
  O  O39  1  0.40085841  0.40616427  0.01017757  1
