# generated using pymatgen
data_Mg2MnWO6
_symmetry_space_group_name_H-M   'P 1'
_cell_length_a   5.56880655
_cell_length_b   6.38923573
_cell_length_c   7.62488763
_cell_angle_alpha   90.31888075
_cell_angle_beta   131.41393042
_cell_angle_gamma   125.13107263
_symmetry_Int_Tables_number   1
_chemical_formula_structural   Mg2MnWO6
_chemical_formula_sum   'Mg2 Mn1 W1 O6'
_cell_volume   129.26253640
_cell_formula_units_Z   1
loop_
 _symmetry_equiv_pos_site_id
 _symmetry_equiv_pos_as_xyz
  1  'x, y, z'
loop_
 _atom_site_type_symbol
 _atom_site_label
 _atom_site_symmetry_multiplicity
 _atom_site_fract_x
 _atom_site_fract_y
 _atom_site_fract_z
 _atom_site_occupancy
  Mg  Mg0  1  0.91448932  0.58954028  0.25146744  1
  Mg  Mg1  1  0.08778629  0.67292029  0.74935500  1
  Mn  Mn2  1  0.99519200  0.03859025  0.49953361  1
  W  W3  1  0.00207085  0.94398342  0.00169228  1
  O  O4  1  0.69334016  0.78539858  0.09563593  1
  O  O5  1  0.30921144  0.09221615  0.90663430  1
  O  O6  1  0.51722041  0.40203736  0.29791425  1
  O  O7  1  0.48244395  0.87560883  0.70201716  1
  O  O8  1  0.41048760  0.92276091  0.29922333  1
  O  O9  1  0.60495697  0.51091194  0.71262470  1
