# generated using pymatgen
data_Ba2TeP2O9
_symmetry_space_group_name_H-M   'P 1'
_cell_length_a   7.06439338
_cell_length_b   7.51544342
_cell_length_c   9.03956799
_cell_angle_alpha   76.84057687
_cell_angle_beta   80.01598170
_cell_angle_gamma   75.47643114
_symmetry_Int_Tables_number   1
_chemical_formula_structural   Ba2TeP2O9
_chemical_formula_sum   'Ba4 Te2 P4 O18'
_cell_volume   448.93749010
_cell_formula_units_Z   2
loop_
 _symmetry_equiv_pos_site_id
 _symmetry_equiv_pos_as_xyz
  1  'x, y, z'
loop_
 _atom_site_type_symbol
 _atom_site_label
 _atom_site_symmetry_multiplicity
 _atom_site_fract_x
 _atom_site_fract_y
 _atom_site_fract_z
 _atom_site_occupancy
  Ba  Ba0  1  0.63059489  0.19503837  0.58274508  1
  Ba  Ba1  1  0.89696609  0.61672657  0.75699807  1
  Ba  Ba2  1  0.36940511  0.80496163  0.41725492  1
  Ba  Ba3  1  0.10303391  0.38327343  0.24300193  1
  Te  Te4  1  0.35590337  0.88680129  0.95439876  1
  Te  Te5  1  0.64409663  0.11319871  0.04560124  1
  P  P6  1  0.13461534  0.12052416  0.64847158  1
  P  P7  1  0.86538466  0.87947584  0.35152842  1
  P  P8  1  0.37639871  0.52144084  0.81645166  1
  P  P9  1  0.62360129  0.47855916  0.18354834  1
  O  O10  1  0.27699935  0.14761624  0.49722272  1
  O  O11  1  0.37887432  0.07131197  0.10231219  1
  O  O12  1  0.19857590  0.53025959  0.93869838  1
  O  O13  1  0.06523352  0.93619510  0.67610023  1
  O  O14  1  0.80142410  0.46974041  0.06130162  1
  O  O15  1  0.72902856  0.88991397  0.22073308  1
  O  O16  1  0.03856820  0.70878148  0.34735428  1
  O  O17  1  0.53179673  0.29865704  0.19808501  1
  O  O18  1  0.55062809  0.34904051  0.85553436  1
  O  O19  1  0.67067505  0.47730896  0.34338597  1
  O  O20  1  0.62112568  0.92868803  0.89768781  1
  O  O21  1  0.46820327  0.70134296  0.80191499  1
  O  O22  1  0.44937191  0.65095949  0.14446564  1
  O  O23  1  0.72300065  0.85238376  0.50277728  1
  O  O24  1  0.27097144  0.11008603  0.77926692  1
  O  O25  1  0.96143180  0.29121852  0.65264572  1
  O  O26  1  0.93476648  0.06380490  0.32389977  1
  O  O27  1  0.32932495  0.52269104  0.65661403  1
