# generated using pymatgen
data_K2Mo3O10
_symmetry_space_group_name_H-M   'P 1'
_cell_length_a   8.11290233
_cell_length_b   8.25132094
_cell_length_c   9.11506485
_cell_angle_alpha   97.62359640
_cell_angle_beta   90.00000000
_cell_angle_gamma   119.44661099
_symmetry_Int_Tables_number   1
_chemical_formula_structural   K2Mo3O10
_chemical_formula_sum   'K4 Mo6 O20'
_cell_volume   525.15290013
_cell_formula_units_Z   2
loop_
 _symmetry_equiv_pos_site_id
 _symmetry_equiv_pos_as_xyz
  1  'x, y, z'
loop_
 _atom_site_type_symbol
 _atom_site_label
 _atom_site_symmetry_multiplicity
 _atom_site_fract_x
 _atom_site_fract_y
 _atom_site_fract_z
 _atom_site_occupancy
  K  K0  1  0.22146504  0.63113096  0.84376444  1
  K  K1  1  0.59033508  0.36886904  0.65623556  1
  K  K2  1  0.77853496  0.36886904  0.15623556  1
  K  K3  1  0.40966492  0.63113096  0.34376444  1
  Mo  Mo4  1  0.03038494  0.21493164  0.51894844  1
  Mo  Mo5  1  0.81545330  0.78506836  0.98105156  1
  Mo  Mo6  1  0.96961506  0.78506836  0.48105156  1
  Mo  Mo7  1  0.18454670  0.21493164  0.01894844  1
  Mo  Mo8  1  0.29957873  0.00000000  0.25000000  1
  Mo  Mo9  1  0.70042127  0.00000000  0.75000000  1
  O  O10  1  0.15180825  0.40773239  0.08039714  1
  O  O11  1  0.74407586  0.59226761  0.41960286  1
  O  O12  1  0.84819175  0.59226761  0.91960286  1
  O  O13  1  0.25592414  0.40773239  0.58039714  1
  O  O14  1  0.93633941  0.04996220  0.90954149  1
  O  O15  1  0.88637721  0.95003780  0.59045851  1
  O  O16  1  0.06366059  0.95003780  0.09045851  1
  O  O17  1  0.11362279  0.04996220  0.40954149  1
  O  O18  1  0.94488354  0.27380383  0.37153201  1
  O  O19  1  0.67108070  0.72619617  0.12846799  1
  O  O20  1  0.05511646  0.72619617  0.62846799  1
  O  O21  1  0.32891930  0.27380383  0.87153201  1
  O  O22  1  0.12012933  0.76041379  0.32304849  1
  O  O23  1  0.35971554  0.23958621  0.17695151  1
  O  O24  1  0.87987067  0.23958621  0.67695151  1
  O  O25  1  0.64028446  0.76041379  0.82304849  1
  O  O26  1  0.37796983  0.88934585  0.11424384  1
  O  O27  1  0.48862399  0.11065415  0.38575616  1
  O  O28  1  0.62203017  0.11065415  0.88575616  1
  O  O29  1  0.51137601  0.88934585  0.61424384  1
