# generated using pymatgen
data_Nd10S19
_symmetry_space_group_name_H-M   'P 1'
_cell_length_a   8.96434336
_cell_length_b   8.96434336
_cell_length_c   16.23827560
_cell_angle_alpha   90.00000000
_cell_angle_beta   90.00000000
_cell_angle_gamma   90.00000000
_symmetry_Int_Tables_number   1
_chemical_formula_structural   Nd10S19
_chemical_formula_sum   'Nd20 S38'
_cell_volume   1304.89892663
_cell_formula_units_Z   2
loop_
 _symmetry_equiv_pos_site_id
 _symmetry_equiv_pos_as_xyz
  1  'x, y, z'
loop_
 _atom_site_type_symbol
 _atom_site_label
 _atom_site_symmetry_multiplicity
 _atom_site_fract_x
 _atom_site_fract_y
 _atom_site_fract_z
 _atom_site_occupancy
  Nd  Nd0  1  0.34833966  0.45924318  0.37769343  1
  Nd  Nd1  1  0.75000000  0.25000000  0.88548320  1
  Nd  Nd2  1  0.14547321  0.05537218  0.89720387  1
  Nd  Nd3  1  0.44462782  0.14547321  0.60279613  1
  Nd  Nd4  1  0.65166034  0.54075682  0.62230657  1
  Nd  Nd5  1  0.15166034  0.04075682  0.37769343  1
  Nd  Nd6  1  0.05537218  0.35452679  0.60279613  1
  Nd  Nd7  1  0.54075682  0.84833966  0.87769343  1
  Nd  Nd8  1  0.94462782  0.64547321  0.39720387  1
  Nd  Nd9  1  0.75000000  0.25000000  0.38548320  1
  Nd  Nd10  1  0.35452679  0.44462782  0.89720387  1
  Nd  Nd11  1  0.95924318  0.65166034  0.87769343  1
  Nd  Nd12  1  0.04075682  0.34833966  0.12230657  1
  Nd  Nd13  1  0.85452679  0.94462782  0.10279613  1
  Nd  Nd14  1  0.45924318  0.15166034  0.12230657  1
  Nd  Nd15  1  0.84833966  0.95924318  0.62230657  1
  Nd  Nd16  1  0.25000000  0.75000000  0.61451680  1
  Nd  Nd17  1  0.64547321  0.55537218  0.10279613  1
  Nd  Nd18  1  0.55537218  0.85452679  0.39720387  1
  Nd  Nd19  1  0.25000000  0.75000000  0.11451680  1
  S  S20  1  0.14826498  0.05311480  0.56193014  1
  S  S21  1  0.25000000  0.75000000  0.43420317  1
  S  S22  1  0.42287984  0.61111259  0.74999691  1
  S  S23  1  0.54918190  0.84816296  0.57374040  1
  S  S24  1  0.95081810  0.65183704  0.57374040  1
  S  S25  1  0.53017477  0.30409038  0.75093885  1
  S  S26  1  0.25000000  0.75000000  0.93420317  1
  S  S27  1  0.03017477  0.80409038  0.24906115  1
  S  S28  1  0.46982523  0.69590962  0.24906115  1
  S  S29  1  0.19590962  0.53017477  0.74906115  1
  S  S30  1  0.61111259  0.07712016  0.75000309  1
  S  S31  1  0.75000000  0.25000000  0.06579683  1
  S  S32  1  0.96982523  0.19590962  0.75093885  1
  S  S33  1  0.04918190  0.34816296  0.42625960  1
  S  S34  1  0.69590962  0.03017477  0.25093885  1
  S  S35  1  0.38888741  0.92287984  0.24999691  1
  S  S36  1  0.57712016  0.38888741  0.25000309  1
  S  S37  1  0.35173502  0.44688520  0.56193014  1
  S  S38  1  0.80409038  0.46982523  0.25093885  1
  S  S39  1  0.75000000  0.75000000  0.75000000  1
  S  S40  1  0.55311480  0.85173502  0.06193014  1
  S  S41  1  0.65183704  0.54918190  0.92625960  1
  S  S42  1  0.07712016  0.88888741  0.74999691  1
  S  S43  1  0.34816296  0.45081810  0.07374040  1
  S  S44  1  0.15183704  0.04918190  0.07374040  1
  S  S45  1  0.30409038  0.96982523  0.74906115  1
  S  S46  1  0.85173502  0.94688520  0.43806986  1
  S  S47  1  0.84816296  0.95081810  0.92625960  1
  S  S48  1  0.75000000  0.25000000  0.56579683  1
  S  S49  1  0.11111259  0.57712016  0.24999691  1
  S  S50  1  0.64826498  0.55311480  0.43806986  1
  S  S51  1  0.88888741  0.42287984  0.75000309  1
  S  S52  1  0.94688520  0.64826498  0.06193014  1
  S  S53  1  0.25000000  0.25000000  0.25000000  1
  S  S54  1  0.92287984  0.11111259  0.25000309  1
  S  S55  1  0.05311480  0.35173502  0.93806986  1
  S  S56  1  0.45081810  0.15183704  0.42625960  1
  S  S57  1  0.44688520  0.14826498  0.93806986  1
