# generated using pymatgen
data_CsNaTiO3
_symmetry_space_group_name_H-M   'P 1'
_cell_length_a   5.67114048
_cell_length_b   6.07520637
_cell_length_c   6.45640725
_cell_angle_alpha   118.06538902
_cell_angle_beta   90.00000000
_cell_angle_gamma   90.00000000
_symmetry_Int_Tables_number   1
_chemical_formula_structural   CsNaTiO3
_chemical_formula_sum   'Cs2 Na2 Ti2 O6'
_cell_volume   196.28783502
_cell_formula_units_Z   2
loop_
 _symmetry_equiv_pos_site_id
 _symmetry_equiv_pos_as_xyz
  1  'x, y, z'
loop_
 _atom_site_type_symbol
 _atom_site_label
 _atom_site_symmetry_multiplicity
 _atom_site_fract_x
 _atom_site_fract_y
 _atom_site_fract_z
 _atom_site_occupancy
  Cs  Cs0  1  0.75000000  0.26766298  0.53532596  1
  Cs  Cs1  1  0.25000000  0.73233702  0.46467404  1
  Na  Na2  1  0.25000000  0.42618305  0.85236611  1
  Na  Na3  1  0.75000000  0.57381695  0.14763389  1
  Ti  Ti4  1  0.25000000  0.04887360  0.09774720  1
  Ti  Ti5  1  0.75000000  0.95112640  0.90225280  1
  O  O6  1  0.25000000  0.20423401  0.40846801  1
  O  O7  1  0.00000000  0.21071713  1.00000000  1
  O  O8  1  0.50000000  0.78928287  0.00000000  1
  O  O9  1  0.50000000  0.21071713  1.00000000  1
  O  O10  1  0.00000000  0.78928287  0.00000000  1
  O  O11  1  0.75000000  0.79576599  0.59153199  1
