# generated using pymatgen
data_KNaTiO3
_symmetry_space_group_name_H-M   'P 1'
_cell_length_a   5.51255830
_cell_length_b   5.84674963
_cell_length_c   6.28111687
_cell_angle_alpha   62.26240536
_cell_angle_beta   86.55403082
_cell_angle_gamma   82.57978274
_symmetry_Int_Tables_number   1
_chemical_formula_structural   KNaTiO3
_chemical_formula_sum   'K2 Na2 Ti2 O6'
_cell_volume   177.68017917
_cell_formula_units_Z   2
loop_
 _symmetry_equiv_pos_site_id
 _symmetry_equiv_pos_as_xyz
  1  'x, y, z'
loop_
 _atom_site_type_symbol
 _atom_site_label
 _atom_site_symmetry_multiplicity
 _atom_site_fract_x
 _atom_site_fract_y
 _atom_site_fract_z
 _atom_site_occupancy
  K  K0  1  0.25000000  0.26287895  0.47424211  1
  K  K1  1  0.75000000  0.73712105  0.52575789  1
  Na  Na2  1  0.25000000  0.57758397  0.84483206  1
  Na  Na3  1  0.75000000  0.42241603  0.15516794  1
  Ti  Ti4  1  0.75000000  0.05292875  0.89414250  1
  Ti  Ti5  1  0.25000000  0.94707125  0.10585750  1
  O  O6  1  0.49537350  0.81061473  0.95098881  1
  O  O7  1  0.99537350  0.76160354  0.04901119  1
  O  O8  1  0.00462650  0.23839646  0.95098881  1
  O  O9  1  0.50462650  0.18938527  0.04901119  1
  O  O10  1  0.25000000  0.78676924  0.42646151  1
  O  O11  1  0.75000000  0.21323076  0.57353849  1
