# generated using pymatgen
data_SbI(ClF3)2
_symmetry_space_group_name_H-M   'P 1'
_cell_length_a   8.21803324
_cell_length_b   8.21803359
_cell_length_c   13.24702290
_cell_angle_alpha   90.00000000
_cell_angle_beta   90.00000000
_cell_angle_gamma   96.62586270
_symmetry_Int_Tables_number   1
_chemical_formula_structural   SbI(ClF3)2
_chemical_formula_sum   'Sb4 I4 Cl8 F24'
_cell_volume   888.67633401
_cell_formula_units_Z   4
loop_
 _symmetry_equiv_pos_site_id
 _symmetry_equiv_pos_as_xyz
  1  'x, y, z'
loop_
 _atom_site_type_symbol
 _atom_site_label
 _atom_site_symmetry_multiplicity
 _atom_site_fract_x
 _atom_site_fract_y
 _atom_site_fract_z
 _atom_site_occupancy
  Sb  Sb0  1  0.29466096  0.70533904  0.55823584  1
  Sb  Sb1  1  0.20533904  0.79466096  0.05823584  1
  Sb  Sb2  1  0.79466096  0.20533904  0.94176416  1
  Sb  Sb3  1  0.70533904  0.29466096  0.44176416  1
  I  I4  1  0.34236072  0.15763928  0.75000000  1
  I  I5  1  0.65763928  0.84236072  0.25000000  1
  I  I6  1  0.84236072  0.65763928  0.75000000  1
  I  I7  1  0.15763928  0.34236072  0.25000000  1
  Cl  Cl8  1  0.13231798  0.19500426  0.64065620  1
  Cl  Cl9  1  0.63231798  0.69500426  0.85934380  1
  Cl  Cl10  1  0.86768202  0.80499574  0.35934380  1
  Cl  Cl11  1  0.19500426  0.13231798  0.35934380  1
  Cl  Cl12  1  0.36768202  0.30499574  0.14065620  1
  Cl  Cl13  1  0.69500426  0.63231798  0.14065620  1
  Cl  Cl14  1  0.30499574  0.36768202  0.85934380  1
  Cl  Cl15  1  0.80499574  0.86768202  0.64065620  1
  F  F16  1  0.13540054  0.61637571  0.15245114  1
  F  F17  1  0.07084942  0.92915058  0.13015956  1
  F  F18  1  0.92915058  0.07084942  0.86984044  1
  F  F19  1  0.63540054  0.11637571  0.34754886  1
  F  F20  1  0.03088871  0.71670740  0.96951349  1
  F  F21  1  0.84585287  0.15414713  0.50496897  1
  F  F22  1  0.42915058  0.57084942  0.63015956  1
  F  F23  1  0.57084942  0.42915058  0.36984044  1
  F  F24  1  0.38362429  0.86459946  0.15245114  1
  F  F25  1  0.71670740  0.03088871  0.03048651  1
  F  F26  1  0.11637571  0.63540054  0.65245114  1
  F  F27  1  0.96911129  0.28329260  0.03048651  1
  F  F28  1  0.53088871  0.21670740  0.53048651  1
  F  F29  1  0.65414713  0.34585287  0.00496897  1
  F  F30  1  0.36459946  0.88362429  0.65245114  1
  F  F31  1  0.61637571  0.13540054  0.84754886  1
  F  F32  1  0.78329260  0.46911129  0.53048651  1
  F  F33  1  0.86459946  0.38362429  0.84754886  1
  F  F34  1  0.88362429  0.36459946  0.34754886  1
  F  F35  1  0.15414713  0.84585287  0.49503103  1
  F  F36  1  0.28329260  0.96911129  0.96951349  1
  F  F37  1  0.46911129  0.78329260  0.46951349  1
  F  F38  1  0.21670740  0.53088871  0.46951349  1
  F  F39  1  0.34585287  0.65414713  0.99503103  1
