# generated using pymatgen
data_K2Y4Sn2S11
_symmetry_space_group_name_H-M   'P 1'
_cell_length_a   8.69951057
_cell_length_b   8.69951057
_cell_length_c   28.33558239
_cell_angle_alpha   90.00000000
_cell_angle_beta   90.00000000
_cell_angle_gamma   90.00000000
_symmetry_Int_Tables_number   1
_chemical_formula_structural   K2Y4Sn2S11
_chemical_formula_sum   'K8 Y16 Sn8 S44'
_cell_volume   2144.47892974
_cell_formula_units_Z   4
loop_
 _symmetry_equiv_pos_site_id
 _symmetry_equiv_pos_as_xyz
  1  'x, y, z'
loop_
 _atom_site_type_symbol
 _atom_site_label
 _atom_site_symmetry_multiplicity
 _atom_site_fract_x
 _atom_site_fract_y
 _atom_site_fract_z
 _atom_site_occupancy
  K  K0  1  0.75000000  0.75000000  0.62743625  1
  K  K1  1  0.75000000  0.75000000  0.80393072  1
  K  K2  1  0.25000000  0.25000000  0.69606928  1
  K  K3  1  0.75000000  0.75000000  0.12743625  1
  K  K4  1  0.75000000  0.75000000  0.30393072  1
  K  K5  1  0.25000000  0.25000000  0.87256375  1
  K  K6  1  0.25000000  0.25000000  0.19606928  1
  K  K7  1  0.25000000  0.25000000  0.37256375  1
  Y  Y8  1  0.64361827  0.44881677  0.44554394  1
  Y  Y9  1  0.35638173  0.55118323  0.55445606  1
  Y  Y10  1  0.55118323  0.14361827  0.55445606  1
  Y  Y11  1  0.44881677  0.64361827  0.94554394  1
  Y  Y12  1  0.05118323  0.85638173  0.94554394  1
  Y  Y13  1  0.35638173  0.94881677  0.05445606  1
  Y  Y14  1  0.94881677  0.14361827  0.05445606  1
  Y  Y15  1  0.44881677  0.85638173  0.44554394  1
  Y  Y16  1  0.14361827  0.94881677  0.55445606  1
  Y  Y17  1  0.64361827  0.05118323  0.94554394  1
  Y  Y18  1  0.05118323  0.64361827  0.44554394  1
  Y  Y19  1  0.55118323  0.35638173  0.05445606  1
  Y  Y20  1  0.14361827  0.55118323  0.05445606  1
  Y  Y21  1  0.85638173  0.05118323  0.44554394  1
  Y  Y22  1  0.85638173  0.44881677  0.94554394  1
  Y  Y23  1  0.94881677  0.35638173  0.55445606  1
  Sn  Sn24  1  0.75000000  0.25000000  0.69062213  1
  Sn  Sn25  1  0.25000000  0.75000000  0.80937787  1
  Sn  Sn26  1  0.25000000  0.75000000  0.19062213  1
  Sn  Sn27  1  0.75000000  0.25000000  0.30937787  1
  Sn  Sn28  1  0.25000000  0.75000000  0.69062213  1
  Sn  Sn29  1  0.75000000  0.25000000  0.80937787  1
  Sn  Sn30  1  0.75000000  0.25000000  0.19062213  1
  Sn  Sn31  1  0.25000000  0.75000000  0.30937787  1
  S  S32  1  0.94005806  0.14468927  0.95506049  1
  S  S33  1  0.05994194  0.85531073  0.04493951  1
  S  S34  1  0.94005806  0.35531073  0.45506049  1
  S  S35  1  0.92565301  0.41090973  0.64796803  1
  S  S36  1  0.35531073  0.55994194  0.45506049  1
  S  S37  1  0.85531073  0.44005806  0.04493951  1
  S  S38  1  0.92565301  0.08909027  0.14796803  1
  S  S39  1  0.55994194  0.14468927  0.45506049  1
  S  S40  1  0.60261147  0.10261147  0.25000000  1
  S  S41  1  0.55994194  0.35531073  0.95506049  1
  S  S42  1  0.64468927  0.44005806  0.54493951  1
  S  S43  1  0.14468927  0.94005806  0.45506049  1
  S  S44  1  0.39738853  0.89738853  0.75000000  1
  S  S45  1  0.60261147  0.39738853  0.75000000  1
  S  S46  1  0.58909027  0.07434699  0.85203197  1
  S  S47  1  0.41090973  0.92565301  0.14796803  1
  S  S48  1  0.75000000  0.75000000  0.94145526  1
  S  S49  1  0.14468927  0.55994194  0.95506049  1
  S  S50  1  0.10261147  0.60261147  0.75000000  1
  S  S51  1  0.91090973  0.07434699  0.35203197  1
  S  S52  1  0.58909027  0.42565301  0.35203197  1
  S  S53  1  0.08909027  0.57434699  0.14796803  1
  S  S54  1  0.05994194  0.64468927  0.54493951  1
  S  S55  1  0.75000000  0.75000000  0.44145526  1
  S  S56  1  0.42565301  0.58909027  0.85203197  1
  S  S57  1  0.57434699  0.08909027  0.64796803  1
  S  S58  1  0.25000000  0.25000000  0.55854474  1
  S  S59  1  0.42565301  0.91090973  0.35203197  1
  S  S60  1  0.07434699  0.91090973  0.85203197  1
  S  S61  1  0.08909027  0.92565301  0.64796803  1
  S  S62  1  0.10261147  0.89738853  0.25000000  1
  S  S63  1  0.35531073  0.94005806  0.95506049  1
  S  S64  1  0.39738853  0.60261147  0.25000000  1
  S  S65  1  0.64468927  0.05994194  0.04493951  1
  S  S66  1  0.07434699  0.58909027  0.35203197  1
  S  S67  1  0.25000000  0.25000000  0.05854474  1
  S  S68  1  0.57434699  0.41090973  0.14796803  1
  S  S69  1  0.44005806  0.64468927  0.04493951  1
  S  S70  1  0.41090973  0.57434699  0.64796803  1
  S  S71  1  0.85531073  0.05994194  0.54493951  1
  S  S72  1  0.89738853  0.39738853  0.25000000  1
  S  S73  1  0.91090973  0.42565301  0.85203197  1
  S  S74  1  0.89738853  0.10261147  0.75000000  1
  S  S75  1  0.44005806  0.85531073  0.54493951  1
