# generated using pymatgen
data_Rb4Nb35Al2O70
_symmetry_space_group_name_H-M   'P 1'
_cell_length_a   7.94198282
_cell_length_b   7.94198324
_cell_length_c   26.96603579
_cell_angle_alpha   90.00000000
_cell_angle_beta   90.00000000
_cell_angle_gamma   119.99999817
_symmetry_Int_Tables_number   1
_chemical_formula_structural   Rb4Nb35Al2O70
_chemical_formula_sum   'Rb4 Nb35 Al2 O70'
_cell_volume   1473.00986656
_cell_formula_units_Z   1
loop_
 _symmetry_equiv_pos_site_id
 _symmetry_equiv_pos_as_xyz
  1  'x, y, z'
loop_
 _atom_site_type_symbol
 _atom_site_label
 _atom_site_symmetry_multiplicity
 _atom_site_fract_x
 _atom_site_fract_y
 _atom_site_fract_z
 _atom_site_occupancy
  Rb  Rb0  1  0.33333300  0.66666700  0.96434020  1
  Rb  Rb1  1  0.00000000  0.00000000  0.32198015  1
  Rb  Rb2  1  0.00000000  0.00000000  0.67801985  1
  Rb  Rb3  1  0.66666700  0.33333300  0.03565980  1
  Nb  Nb4  1  0.87114485  0.26774646  0.90751772  1
  Nb  Nb5  1  0.00000000  0.00000000  0.18633790  1
  Nb  Nb6  1  0.80729596  0.02540368  0.45638721  1
  Nb  Nb7  1  0.54880355  0.85947513  0.81616792  1
  Nb  Nb8  1  0.88826711  0.53059272  0.27033930  1
  Nb  Nb9  1  0.93000588  0.53056227  0.63287895  1
  Nb  Nb10  1  0.33333300  0.66666700  0.53718772  1
  Nb  Nb11  1  0.00000000  0.00000000  0.81366210  1
  Nb  Nb12  1  0.68932843  0.54880355  0.18383208  1
  Nb  Nb13  1  0.39944361  0.93000588  0.36712105  1
  Nb  Nb14  1  0.02540368  0.21810771  0.54361279  1
  Nb  Nb15  1  0.39660161  0.12885515  0.90751772  1
  Nb  Nb16  1  0.46943773  0.39944361  0.63287895  1
  Nb  Nb17  1  0.14052487  0.68932843  0.81616792  1
  Nb  Nb18  1  0.12885515  0.73225354  0.09248228  1
  Nb  Nb19  1  0.06999412  0.46943773  0.36712105  1
  Nb  Nb20  1  0.00000000  0.00000000  0.00000000  1
  Nb  Nb21  1  0.31067157  0.45119645  0.81616792  1
  Nb  Nb22  1  0.53056227  0.60055639  0.36712105  1
  Nb  Nb23  1  0.11173289  0.46940728  0.72966070  1
  Nb  Nb24  1  0.66666700  0.33333300  0.46281228  1
  Nb  Nb25  1  0.60055639  0.06999412  0.63287895  1
  Nb  Nb26  1  0.45119645  0.14052487  0.18383208  1
  Nb  Nb27  1  0.73225354  0.60339839  0.90751772  1
  Nb  Nb28  1  0.35767439  0.88826711  0.72966070  1
  Nb  Nb29  1  0.26774646  0.39660161  0.09248228  1
  Nb  Nb30  1  0.78189229  0.80729596  0.54361279  1
  Nb  Nb31  1  0.60339839  0.87114485  0.09248228  1
  Nb  Nb32  1  0.97459632  0.78189229  0.45638721  1
  Nb  Nb33  1  0.64232561  0.11173289  0.27033930  1
  Nb  Nb34  1  0.21810771  0.19270404  0.45638721  1
  Nb  Nb35  1  0.19270404  0.97459632  0.54361279  1
  Nb  Nb36  1  0.53059272  0.64232561  0.72966070  1
  Nb  Nb37  1  0.46940728  0.35767439  0.27033930  1
  Nb  Nb38  1  0.85947513  0.31067157  0.18383208  1
  Al  Al39  1  0.33333300  0.66666700  0.20664578  1
  Al  Al40  1  0.66666700  0.33333300  0.79335422  1
  O  O41  1  0.90038392  0.53856027  0.13793282  1
  O  O42  1  0.53856027  0.63817635  0.86206718  1
  O  O43  1  0.56999346  0.86326359  0.32836806  1
  O  O44  1  0.23637359  0.20180895  0.59001111  1
  O  O45  1  0.86924201  0.30264583  0.31829584  1
  O  O46  1  0.16086379  0.92371969  0.77115194  1
  O  O47  1  0.43000654  0.13673641  0.67163194  1
  O  O48  1  0.03456464  0.23637359  0.40998889  1
  O  O49  1  0.30264583  0.43340382  0.68170416  1
  O  O50  1  0.86326359  0.29327014  0.67163194  1
  O  O51  1  0.76285590  0.83913621  0.77115194  1
  O  O52  1  0.21002380  0.20465535  0.04453961  1
  O  O53  1  0.23714410  0.16086379  0.22884806  1
  O  O54  1  0.89301268  0.50514081  0.93741111  1
  O  O55  1  0.76362641  0.79819105  0.40998889  1
  O  O56  1  0.48945094  0.58187990  0.22735146  1
  O  O57  1  0.43340382  0.13075799  0.31829584  1
  O  O58  1  0.51054906  0.41812010  0.77264854  1
  O  O59  1  0.06434915  0.23853587  0.14443373  1
  O  O60  1  0.42732172  0.16320059  0.50015084  1
  O  O61  1  0.13673641  0.70672986  0.32836806  1
  O  O62  1  0.66666700  0.33333300  0.85948340  1
  O  O63  1  0.46143973  0.36182365  0.13793282  1
  O  O64  1  0.09961608  0.46143973  0.86206718  1
  O  O65  1  0.79534465  0.00536845  0.04453961  1
  O  O66  1  0.57267828  0.83679941  0.49984916  1
  O  O67  1  0.50514081  0.61212813  0.06258889  1
  O  O68  1  0.29327014  0.43000654  0.32836806  1
  O  O69  1  0.49528625  0.40031547  0.41478458  1
  O  O70  1  0.96543536  0.76362641  0.59001111  1
  O  O71  1  0.66666700  0.33333300  0.59806263  1
  O  O72  1  0.63817635  0.09961608  0.13793282  1
  O  O73  1  0.70672986  0.56999346  0.67163194  1
  O  O74  1  0.10698732  0.49485919  0.06258889  1
  O  O75  1  0.56659618  0.86924201  0.68170416  1
  O  O76  1  0.79819105  0.03456464  0.59001111  1
  O  O77  1  0.61212813  0.10698732  0.93741111  1
  O  O78  1  0.38787187  0.89301268  0.06258889  1
  O  O79  1  0.13075799  0.69735417  0.68170416  1
  O  O80  1  0.58187990  0.09242895  0.77264854  1
  O  O81  1  0.90757105  0.48945094  0.77264854  1
  O  O82  1  0.83679941  0.26412114  0.50015084  1
  O  O83  1  0.33333300  0.66666700  0.40193737  1
  O  O84  1  0.50471375  0.59968453  0.58521542  1
  O  O85  1  0.82581328  0.06434915  0.85556627  1
  O  O86  1  0.23853587  0.17418672  0.85556627  1
  O  O87  1  0.40031547  0.90502922  0.58521542  1
  O  O88  1  0.17418672  0.93565085  0.14443373  1
  O  O89  1  0.59968453  0.09497078  0.41478458  1
  O  O90  1  0.26412114  0.42732172  0.49984916  1
  O  O91  1  0.69735417  0.56659618  0.31829584  1
  O  O92  1  0.07628031  0.23714410  0.77115194  1
  O  O93  1  0.99463155  0.78997620  0.04453961  1
  O  O94  1  0.78997620  0.79534465  0.95546039  1
  O  O95  1  0.36182365  0.90038392  0.86206718  1
  O  O96  1  0.73587886  0.57267828  0.50015084  1
  O  O97  1  0.00536845  0.21002380  0.95546039  1
  O  O98  1  0.76146413  0.82581328  0.14443373  1
  O  O99  1  0.16320059  0.73587886  0.49984916  1
  O  O100  1  0.90502922  0.50471375  0.41478458  1
  O  O101  1  0.20465535  0.99463155  0.95546039  1
  O  O102  1  0.09242895  0.51054906  0.22735146  1
  O  O103  1  0.49485919  0.38787187  0.93741111  1
  O  O104  1  0.83913621  0.07628031  0.22884806  1
  O  O105  1  0.33333300  0.66666700  0.14051660  1
  O  O106  1  0.20180895  0.96543536  0.40998889  1
  O  O107  1  0.41812010  0.90757105  0.22735146  1
  O  O108  1  0.93565085  0.76146413  0.85556627  1
  O  O109  1  0.09497078  0.49528625  0.58521542  1
  O  O110  1  0.92371969  0.76285590  0.22884806  1
