# generated using pymatgen
data_Na2Li3FeO4
_symmetry_space_group_name_H-M   'P 1'
_cell_length_a   6.65787698
_cell_length_b   8.03649089
_cell_length_c   8.39212501
_cell_angle_alpha   90.00000000
_cell_angle_beta   90.00000000
_cell_angle_gamma   90.00000000
_symmetry_Int_Tables_number   1
_chemical_formula_structural   Na2Li3FeO4
_chemical_formula_sum   'Na8 Li12 Fe4 O16'
_cell_volume   449.02876969
_cell_formula_units_Z   4
loop_
 _symmetry_equiv_pos_site_id
 _symmetry_equiv_pos_as_xyz
  1  'x, y, z'
loop_
 _atom_site_type_symbol
 _atom_site_label
 _atom_site_symmetry_multiplicity
 _atom_site_fract_x
 _atom_site_fract_y
 _atom_site_fract_z
 _atom_site_occupancy
  Fe  Fe0  1  0.00000000  0.77396737  0.87694536  1
  Fe  Fe1  1  0.00000000  0.22603263  0.12305464  1
  Fe  Fe2  1  0.50000000  0.27396737  0.62305464  1
  Fe  Fe3  1  0.50000000  0.72603263  0.37694536  1
  Na  Na4  1  0.00000000  0.25831593  0.75143731  1
  Na  Na5  1  0.00000000  0.74168407  0.24856269  1
  Na  Na6  1  0.50000000  0.75831593  0.74856269  1
  Na  Na7  1  0.50000000  0.24168407  0.25143731  1
  Na  Na8  1  0.73988188  0.50000000  0.00000000  1
  Na  Na9  1  0.76011812  0.00000000  0.50000000  1
  Na  Na10  1  0.26011812  0.50000000  0.00000000  1
  Na  Na11  1  0.23988188  0.00000000  0.50000000  1
  O  O12  1  0.00000000  0.56065720  0.77462759  1
  O  O13  1  0.00000000  0.43934280  0.22537241  1
  O  O14  1  0.50000000  0.06065720  0.72537241  1
  O  O15  1  0.50000000  0.93934280  0.27462759  1
  O  O16  1  0.75586023  0.80360271  0.98967610  1
  O  O17  1  0.75586023  0.19639729  0.01032390  1
  O  O18  1  0.74413977  0.30360271  0.51032390  1
  O  O19  1  0.74413977  0.69639729  0.48967610  1
  O  O20  1  0.24413977  0.19639729  0.01032390  1
  O  O21  1  0.24413977  0.80360271  0.98967610  1
  O  O22  1  0.25586023  0.69639729  0.48967610  1
  O  O23  1  0.25586023  0.30360271  0.51032390  1
  O  O24  1  0.00000000  0.95162928  0.72290547  1
  O  O25  1  0.00000000  0.04837072  0.27709453  1
  O  O26  1  0.50000000  0.45162928  0.77709453  1
  O  O27  1  0.50000000  0.54837072  0.22290547  1
  Li  Li28  1  0.75602218  0.48613477  0.35195605  1
  Li  Li29  1  0.75602218  0.51386523  0.64804395  1
  Li  Li30  1  0.74397782  0.98613477  0.14804395  1
  Li  Li31  1  0.74397782  0.01386523  0.85195605  1
  Li  Li32  1  0.24397782  0.51386523  0.64804395  1
  Li  Li33  1  0.24397782  0.48613477  0.35195605  1
  Li  Li34  1  0.25602218  0.01386523  0.85195605  1
  Li  Li35  1  0.25602218  0.98613477  0.14804395  1
  Li  Li36  1  0.00000000  0.26788301  0.41553765  1
  Li  Li37  1  0.00000000  0.73211699  0.58446235  1
  Li  Li38  1  0.50000000  0.76788301  0.08446235  1
  Li  Li39  1  0.50000000  0.23211699  0.91553765  1
