# generated using pymatgen
data_Na6P4Pb3S16
_symmetry_space_group_name_H-M   'P 1'
_cell_length_a   11.53424723
_cell_length_b   11.53424706
_cell_length_c   11.53424710
_cell_angle_alpha   116.81847884
_cell_angle_beta   116.81847842
_cell_angle_gamma   116.81847804
_symmetry_Int_Tables_number   1
_chemical_formula_structural   Na6P4Pb3S16
_chemical_formula_sum   'Na6 P4 Pb3 S16'
_cell_volume   695.92678318
_cell_formula_units_Z   1
loop_
 _symmetry_equiv_pos_site_id
 _symmetry_equiv_pos_as_xyz
  1  'x, y, z'
loop_
 _atom_site_type_symbol
 _atom_site_label
 _atom_site_symmetry_multiplicity
 _atom_site_fract_x
 _atom_site_fract_y
 _atom_site_fract_z
 _atom_site_occupancy
  Na  Na0  1  0.84950558  0.39811917  0.65513450  1
  Na  Na1  1  0.39811917  0.84950558  0.65513450  1
  Na  Na2  1  0.84950558  0.65513450  0.39811917  1
  Na  Na3  1  0.65513450  0.39811917  0.84950558  1
  Na  Na4  1  0.39811917  0.65513450  0.84950558  1
  Na  Na5  1  0.65513450  0.84950558  0.39811917  1
  P  P6  1  0.23467332  0.23467332  0.76085247  1
  P  P7  1  0.76085247  0.23467332  0.23467332  1
  P  P8  1  0.23467332  0.76085247  0.23467332  1
  P  P9  1  0.41913549  0.41913549  0.41913549  1
  Pb  Pb10  1  0.01177959  0.01177959  0.27766519  1
  Pb  Pb11  1  0.01177959  0.27766519  0.01177959  1
  Pb  Pb12  1  0.27766519  0.01177959  0.01177959  1
  S  S13  1  0.20459742  0.03367526  0.57124784  1
  S  S14  1  0.46746106  0.64048297  0.46746106  1
  S  S15  1  0.03367526  0.57124784  0.20459742  1
  S  S16  1  0.08973588  0.08973588  0.08973588  1
  S  S17  1  0.46746106  0.46746106  0.64048297  1
  S  S18  1  0.06163065  0.56967586  0.56967586  1
  S  S19  1  0.10387144  0.10387144  0.80686520  1
  S  S20  1  0.56967586  0.56967586  0.06163065  1
  S  S21  1  0.56967586  0.06163065  0.56967586  1
  S  S22  1  0.03367526  0.20459742  0.57124784  1
  S  S23  1  0.64048297  0.46746106  0.46746106  1
  S  S24  1  0.20459742  0.57124784  0.03367526  1
  S  S25  1  0.57124784  0.03367526  0.20459742  1
  S  S26  1  0.57124784  0.20459742  0.03367526  1
  S  S27  1  0.80686520  0.10387144  0.10387144  1
  S  S28  1  0.10387144  0.80686520  0.10387144  1
