# generated using pymatgen
data_Na2PtO3
_symmetry_space_group_name_H-M   'P 1'
_cell_length_a   5.57786928
_cell_length_b   5.57787494
_cell_length_c   10.06289181
_cell_angle_alpha   100.73805973
_cell_angle_beta   100.73793426
_cell_angle_gamma   109.12912093
_symmetry_Int_Tables_number   1
_chemical_formula_structural   Na2PtO3
_chemical_formula_sum   'Na8 Pt4 O12'
_cell_volume   280.10603498
_cell_formula_units_Z   4
loop_
 _symmetry_equiv_pos_site_id
 _symmetry_equiv_pos_as_xyz
  1  'x, y, z'
loop_
 _atom_site_type_symbol
 _atom_site_label
 _atom_site_symmetry_multiplicity
 _atom_site_fract_x
 _atom_site_fract_y
 _atom_site_fract_z
 _atom_site_occupancy
  Na  Na0  1  0.61922527  0.86920602  0.73841750  1
  Na  Na1  1  0.29525380  0.54520989  0.09040658  1
  Na  Na2  1  0.38077473  0.13079398  0.26158250  1
  Na  Na3  1  0.86920449  0.61922371  0.23841343  1
  Na  Na4  1  0.54521075  0.29525461  0.59040672  1
  Na  Na5  1  0.70474620  0.45479011  0.90959342  1
  Na  Na6  1  0.13079551  0.38077629  0.76158657  1
  Na  Na7  1  0.45478925  0.70474539  0.40959328  1
  Pt  Pt8  1  0.95857025  0.20859064  0.41717897  1
  Pt  Pt9  1  0.04142975  0.79140936  0.58282103  1
  Pt  Pt10  1  0.79140958  0.04142999  0.08282114  1
  Pt  Pt11  1  0.20859042  0.95857001  0.91717886  1
  O  O12  1  0.08371989  0.33373469  0.25000060  1
  O  O13  1  0.53257328  0.24069471  0.07072192  1
  O  O14  1  0.03814935  0.83004112  0.07073702  1
  O  O15  1  0.75930571  0.46742704  0.42927781  1
  O  O16  1  0.96185065  0.16995888  0.92926298  1
  O  O17  1  0.16995850  0.96185005  0.42926280  1
  O  O18  1  0.46742672  0.75930529  0.92927808  1
  O  O19  1  0.33373489  0.08371993  0.75000108  1
  O  O20  1  0.24069429  0.53257296  0.57072219  1
  O  O21  1  0.83004150  0.03814995  0.57073720  1
  O  O22  1  0.91628011  0.66626531  0.74999940  1
  O  O23  1  0.66626511  0.91628007  0.24999892  1
