# generated using pymatgen
data_La6B(NO2)3
_symmetry_space_group_name_H-M   'P 1'
_cell_length_a   3.68158268
_cell_length_b   11.00787777
_cell_length_c   12.65378486
_cell_angle_alpha   90.00000000
_cell_angle_beta   98.36470442
_cell_angle_gamma   90.00000000
_symmetry_Int_Tables_number   1
_chemical_formula_structural   La6B(NO2)3
_chemical_formula_sum   'La12 B2 N6 O12'
_cell_volume   507.35727037
_cell_formula_units_Z   2
loop_
 _symmetry_equiv_pos_site_id
 _symmetry_equiv_pos_as_xyz
  1  'x, y, z'
loop_
 _atom_site_type_symbol
 _atom_site_label
 _atom_site_symmetry_multiplicity
 _atom_site_fract_x
 _atom_site_fract_y
 _atom_site_fract_z
 _atom_site_occupancy
  La  La0  1  0.54755074  0.75000000  0.09510147  1
  La  La1  1  0.68719127  0.56924555  0.37438254  1
  La  La2  1  0.68719127  0.93075445  0.37438254  1
  La  La3  1  0.93205229  0.93457045  0.86410459  1
  La  La4  1  0.69925295  0.25000000  0.39850589  1
  La  La5  1  0.31280873  0.43075445  0.62561746  1
  La  La6  1  0.06794771  0.06542955  0.13589541  1
  La  La7  1  0.30074705  0.75000000  0.60149411  1
  La  La8  1  0.45244926  0.25000000  0.90489853  1
  La  La9  1  0.93205229  0.56542955  0.86410459  1
  La  La10  1  0.06794771  0.43457045  0.13589541  1
  La  La11  1  0.31280873  0.06924555  0.62561746  1
  B  B12  1  0.85963911  0.25000000  0.71927823  1
  B  B13  1  0.14036089  0.75000000  0.28072177  1
  N  N14  1  0.80061348  0.25000000  0.60122697  1
  N  N15  1  0.88927545  0.36608241  0.77855091  1
  N  N16  1  0.11072455  0.63391759  0.22144909  1
  N  N17  1  0.19938652  0.75000000  0.39877303  1
  N  N18  1  0.11072455  0.86608241  0.22144909  1
  N  N19  1  0.88927545  0.13391759  0.77855091  1
  O  O20  1  0.37650052  0.89359180  0.75300103  1
  O  O21  1  0.78257060  0.90812755  0.56514121  1
  O  O22  1  0.98706857  0.75000000  0.97413713  1
  O  O23  1  0.78257060  0.59187245  0.56514121  1
  O  O24  1  0.21742940  0.09187245  0.43485879  1
  O  O25  1  0.21742940  0.40812755  0.43485879  1
  O  O26  1  0.37650052  0.60640820  0.75300103  1
  O  O27  1  0.62349948  0.39359180  0.24699897  1
  O  O28  1  0.01293143  0.25000000  0.02586287  1
  O  O29  1  0.62349948  0.10640820  0.24699897  1
  O  O30  1  0.50000000  0.00000000  0.00000000  1
  O  O31  1  0.50000000  0.50000000  0.00000000  1
