# generated using pymatgen
data_Ba3Dy2(PS4)4
_symmetry_space_group_name_H-M   'P 1'
_cell_length_a   10.42251992
_cell_length_b   12.76390162
_cell_length_c   19.44652421
_cell_angle_alpha   90.00000000
_cell_angle_beta   90.00000000
_cell_angle_gamma   90.00000000
_symmetry_Int_Tables_number   1
_chemical_formula_structural   Ba3Dy2(PS4)4
_chemical_formula_sum   'Ba12 Dy8 P16 S64'
_cell_volume   2587.01037608
_cell_formula_units_Z   4
loop_
 _symmetry_equiv_pos_site_id
 _symmetry_equiv_pos_as_xyz
  1  'x, y, z'
loop_
 _atom_site_type_symbol
 _atom_site_label
 _atom_site_symmetry_multiplicity
 _atom_site_fract_x
 _atom_site_fract_y
 _atom_site_fract_z
 _atom_site_occupancy
  Ba  Ba0  1  0.21045850  0.60824208  0.22723292  1
  Ba  Ba1  1  0.11691535  0.25000000  0.00000000  1
  Ba  Ba2  1  0.61691535  0.25000000  0.50000000  1
  Ba  Ba3  1  0.21045850  0.89175792  0.77276708  1
  Ba  Ba4  1  0.28954150  0.10824208  0.27276708  1
  Ba  Ba5  1  0.28954150  0.39175792  0.72723292  1
  Ba  Ba6  1  0.71045850  0.60824208  0.27276708  1
  Ba  Ba7  1  0.71045850  0.89175792  0.72723292  1
  Ba  Ba8  1  0.38308465  0.75000000  0.50000000  1
  Ba  Ba9  1  0.88308465  0.75000000  0.00000000  1
  Ba  Ba10  1  0.78954150  0.10824208  0.22723292  1
  Ba  Ba11  1  0.78954150  0.39175792  0.77276708  1
  Dy  Dy12  1  0.62858125  0.38739250  0.07346202  1
  Dy  Dy13  1  0.87141875  0.88739250  0.42653798  1
  Dy  Dy14  1  0.12858125  0.38739250  0.42653798  1
  Dy  Dy15  1  0.37141875  0.61260750  0.92653798  1
  Dy  Dy16  1  0.62858125  0.11260750  0.92653798  1
  Dy  Dy17  1  0.12858125  0.11260750  0.57346202  1
  Dy  Dy18  1  0.37141875  0.88739250  0.07346202  1
  Dy  Dy19  1  0.87141875  0.61260750  0.57346202  1
  P  P20  1  0.99581634  0.13983196  0.39788850  1
  P  P21  1  0.43699711  0.04849806  0.63100004  1
  P  P22  1  0.06300289  0.95150194  0.13100004  1
  P  P23  1  0.49581634  0.13983196  0.10211150  1
  P  P24  1  0.93699711  0.45150194  0.13100004  1
  P  P25  1  0.00418366  0.86016804  0.60211150  1
  P  P26  1  0.49581634  0.36016804  0.89788850  1
  P  P27  1  0.06300289  0.54849806  0.86899996  1
  P  P28  1  0.50418366  0.63983196  0.10211150  1
  P  P29  1  0.56300289  0.95150194  0.36899996  1
  P  P30  1  0.43699711  0.45150194  0.36899996  1
  P  P31  1  0.99581634  0.36016804  0.60211150  1
  P  P32  1  0.00418366  0.63983196  0.39788850  1
  P  P33  1  0.93699711  0.04849806  0.86899996  1
  P  P34  1  0.50418366  0.86016804  0.89788850  1
  P  P35  1  0.56300289  0.54849806  0.63100004  1
  S  S36  1  0.99553297  0.51443857  0.33312554  1
  S  S37  1  0.67951458  0.16945288  0.06801318  1
  S  S38  1  0.38849947  0.09870437  0.01677075  1
  S  S39  1  0.11449015  0.10569914  0.85029504  1
  S  S40  1  0.38550985  0.89430086  0.35029504  1
  S  S41  1  0.11150053  0.59870437  0.48322925  1
  S  S42  1  0.61449015  0.10569914  0.64970496  1
  S  S43  1  0.56932706  0.38799621  0.64704808  1
  S  S44  1  0.61150053  0.59870437  0.01677075  1
  S  S45  1  0.82048542  0.66945288  0.43198682  1
  S  S46  1  0.29124024  0.38666001  0.30883881  1
  S  S47  1  0.00446703  0.48556143  0.66687446  1
  S  S48  1  0.93067294  0.61200379  0.14704808  1
  S  S49  1  0.12014266  0.91449021  0.03259906  1
  S  S50  1  0.70875976  0.61333999  0.69116119  1
  S  S51  1  0.79124024  0.38666001  0.19116119  1
  S  S52  1  0.87985734  0.08550979  0.96740094  1
  S  S53  1  0.56421042  0.76986165  0.15103515  1
  S  S54  1  0.79124024  0.11333999  0.80883881  1
  S  S55  1  0.93578958  0.23013835  0.65103515  1
  S  S56  1  0.38849947  0.40129563  0.98322925  1
  S  S57  1  0.29124024  0.11333999  0.69116119  1
  S  S58  1  0.88550985  0.60569914  0.85029504  1
  S  S59  1  0.88849947  0.40129563  0.51677075  1
  S  S60  1  0.99553297  0.98556143  0.66687446  1
  S  S61  1  0.49553297  0.51443857  0.16687446  1
  S  S62  1  0.88550985  0.89430086  0.14970496  1
  S  S63  1  0.17951458  0.16945288  0.43198682  1
  S  S64  1  0.43578958  0.26986165  0.15103515  1
  S  S65  1  0.37985734  0.08550979  0.53259906  1
  S  S66  1  0.00446703  0.01443857  0.33312554  1
  S  S67  1  0.43578958  0.23013835  0.84896485  1
  S  S68  1  0.61449015  0.39430086  0.35029504  1
  S  S69  1  0.87985734  0.41449021  0.03259906  1
  S  S70  1  0.20875976  0.88666001  0.19116119  1
  S  S71  1  0.62014266  0.91449021  0.46740094  1
  S  S72  1  0.62014266  0.58550979  0.53259906  1
  S  S73  1  0.50446703  0.01443857  0.16687446  1
  S  S74  1  0.11449015  0.39430086  0.14970496  1
  S  S75  1  0.88849947  0.09870437  0.48322925  1
  S  S76  1  0.37985734  0.41449021  0.46740094  1
  S  S77  1  0.06932706  0.38799621  0.85295192  1
  S  S78  1  0.06932706  0.11200379  0.14704808  1
  S  S79  1  0.56421042  0.73013835  0.84896485  1
  S  S80  1  0.93067294  0.88799621  0.85295192  1
  S  S81  1  0.49553297  0.98556143  0.83312554  1
  S  S82  1  0.50446703  0.48556143  0.83312554  1
  S  S83  1  0.43067294  0.88799621  0.64704808  1
  S  S84  1  0.61150053  0.90129563  0.98322925  1
  S  S85  1  0.32048542  0.66945288  0.06801318  1
  S  S86  1  0.06421042  0.76986165  0.34896485  1
  S  S87  1  0.38550985  0.60569914  0.64970496  1
  S  S88  1  0.43067294  0.61200379  0.35295192  1
  S  S89  1  0.82048542  0.83054712  0.56801318  1
  S  S90  1  0.32048542  0.83054712  0.93198682  1
  S  S91  1  0.17951458  0.33054712  0.56801318  1
  S  S92  1  0.12014266  0.58550979  0.96740094  1
  S  S93  1  0.06421042  0.73013835  0.65103515  1
  S  S94  1  0.93578958  0.26986165  0.34896485  1
  S  S95  1  0.67951458  0.33054712  0.93198682  1
  S  S96  1  0.20875976  0.61333999  0.80883881  1
  S  S97  1  0.70875976  0.88666001  0.30883881  1
  S  S98  1  0.56932706  0.11200379  0.35295192  1
  S  S99  1  0.11150053  0.90129563  0.51677075  1
