# generated using pymatgen
data_Na4Zr2Ti(CO4)4
_symmetry_space_group_name_H-M   'P 1'
_cell_length_a   6.15794266
_cell_length_b   6.15794268
_cell_length_c   18.19713104
_cell_angle_alpha   86.59703863
_cell_angle_beta   86.59703860
_cell_angle_gamma   66.25483382
_symmetry_Int_Tables_number   1
_chemical_formula_structural   Na4Zr2Ti(CO4)4
_chemical_formula_sum   'Na8 Zr4 Ti2 C8 O32'
_cell_volume   630.03631021
_cell_formula_units_Z   2
loop_
 _symmetry_equiv_pos_site_id
 _symmetry_equiv_pos_as_xyz
  1  'x, y, z'
loop_
 _atom_site_type_symbol
 _atom_site_label
 _atom_site_symmetry_multiplicity
 _atom_site_fract_x
 _atom_site_fract_y
 _atom_site_fract_z
 _atom_site_occupancy
  Na  Na0  1  0.66242404  0.54308139  0.91830850  1
  Na  Na1  1  0.21477439  0.04136802  0.93371563  1
  Na  Na2  1  0.54308139  0.66242404  0.41830850  1
  Na  Na3  1  0.33757596  0.45691861  0.08169150  1
  Na  Na4  1  0.78522561  0.95863198  0.06628437  1
  Na  Na5  1  0.45691861  0.33757596  0.58169150  1
  Na  Na6  1  0.95863198  0.78522561  0.56628437  1
  Na  Na7  1  0.04136802  0.21477439  0.43371563  1
  Zr  Zr8  1  0.61975569  0.99563122  0.74776992  1
  Zr  Zr9  1  0.00436878  0.38024431  0.75223008  1
  Zr  Zr10  1  0.99563122  0.61975569  0.24776992  1
  Zr  Zr11  1  0.38024431  0.00436878  0.25223008  1
  Ti  Ti12  1  0.69257331  0.30742669  0.25000000  1
  Ti  Ti13  1  0.30742669  0.69257331  0.75000000  1
  C  C14  1  0.07041920  0.74033294  0.38340978  1
  C  C15  1  0.74033294  0.07041920  0.88340978  1
  C  C16  1  0.50184769  0.79786813  0.60051617  1
  C  C17  1  0.25966706  0.92958080  0.11659022  1
  C  C18  1  0.49815231  0.20213187  0.39948383  1
  C  C19  1  0.79786813  0.50184769  0.10051617  1
  C  C20  1  0.20213187  0.49815231  0.89948383  1
  C  C21  1  0.92958080  0.25966706  0.61659022  1
  O  O22  1  0.72414970  0.58589737  0.03753593  1
  O  O23  1  0.38770589  0.05164695  0.12727307  1
  O  O24  1  0.61229411  0.94835305  0.87272693  1
  O  O25  1  0.80741548  0.09537772  0.94501638  1
  O  O26  1  0.16992765  0.78821740  0.32163390  1
  O  O27  1  0.78821740  0.16992765  0.82163390  1
  O  O28  1  0.65428976  0.27031306  0.36461309  1
  O  O29  1  0.36772976  0.36120349  0.73993189  1
  O  O30  1  0.27585030  0.41410263  0.96246407  1
  O  O31  1  0.27031306  0.65428976  0.86461309  1
  O  O32  1  0.42525574  0.05723568  0.36751159  1
  O  O33  1  0.74284780  0.98490354  0.23712001  1
  O  O34  1  0.72968694  0.34571024  0.13538691  1
  O  O35  1  0.90462228  0.19258452  0.55498362  1
  O  O36  1  0.58589737  0.72414970  0.53753593  1
  O  O37  1  0.94276432  0.57474426  0.13248841  1
  O  O38  1  0.34571024  0.72968694  0.63538691  1
  O  O39  1  0.25715220  0.01509646  0.76287999  1
  O  O40  1  0.57474426  0.94276432  0.63248841  1
  O  O41  1  0.19258452  0.90462228  0.05498362  1
  O  O42  1  0.21178260  0.83007235  0.17836610  1
  O  O43  1  0.01509646  0.25715220  0.26287999  1
  O  O44  1  0.05723568  0.42525574  0.86751159  1
  O  O45  1  0.63879651  0.63227024  0.76006811  1
  O  O46  1  0.05164695  0.38770589  0.62727307  1
  O  O47  1  0.36120349  0.36772976  0.23993189  1
  O  O48  1  0.63227024  0.63879651  0.26006811  1
  O  O49  1  0.83007235  0.21178260  0.67836610  1
  O  O50  1  0.41410263  0.27585030  0.46246407  1
  O  O51  1  0.98490354  0.74284780  0.73712001  1
  O  O52  1  0.09537772  0.80741548  0.44501638  1
  O  O53  1  0.94835305  0.61229411  0.37272693  1
