# generated using pymatgen
data_B3Pb6ClO10
_symmetry_space_group_name_H-M   'P 1'
_cell_length_a   7.18993141
_cell_length_b   11.26638776
_cell_length_c   17.50918020
_cell_angle_alpha   90.00000000
_cell_angle_beta   90.00000000
_cell_angle_gamma   90.00000000
_symmetry_Int_Tables_number   1
_chemical_formula_structural   B3Pb6ClO10
_chemical_formula_sum   'B12 Pb24 Cl4 O40'
_cell_volume   1418.32335459
_cell_formula_units_Z   4
loop_
 _symmetry_equiv_pos_site_id
 _symmetry_equiv_pos_as_xyz
  1  'x, y, z'
loop_
 _atom_site_type_symbol
 _atom_site_label
 _atom_site_symmetry_multiplicity
 _atom_site_fract_x
 _atom_site_fract_y
 _atom_site_fract_z
 _atom_site_occupancy
  B  B0  1  0.27782158  0.49737222  0.00378591  1
  B  B1  1  0.72217842  0.50262778  0.99621409  1
  B  B2  1  0.72217842  0.49737222  0.50378591  1
  B  B3  1  0.29590123  0.25000000  0.27511012  1
  B  B4  1  0.72217842  0.99737222  0.99621409  1
  B  B5  1  0.27782158  0.99737222  0.49621409  1
  B  B6  1  0.72217842  0.00262778  0.50378591  1
  B  B7  1  0.70409877  0.75000000  0.72488988  1
  B  B8  1  0.29590123  0.75000000  0.22488988  1
  B  B9  1  0.27782158  0.50262778  0.49621409  1
  B  B10  1  0.70409877  0.25000000  0.77511012  1
  B  B11  1  0.27782158  0.00262778  0.00378591  1
  Pb  Pb12  1  0.97213203  0.91752930  0.83945138  1
  Pb  Pb13  1  0.02786797  0.91752930  0.33945138  1
  Pb  Pb14  1  0.97213203  0.08247070  0.66054862  1
  Pb  Pb15  1  0.52708795  0.56662495  0.15507217  1
  Pb  Pb16  1  0.97213203  0.58247070  0.83945138  1
  Pb  Pb17  1  0.47291205  0.06662495  0.84492783  1
  Pb  Pb18  1  0.92463669  0.25000000  0.97270350  1
  Pb  Pb19  1  0.59023032  0.25000000  0.56113527  1
  Pb  Pb20  1  0.07536331  0.25000000  0.47270350  1
  Pb  Pb21  1  0.59023032  0.75000000  0.93886473  1
  Pb  Pb22  1  0.02786797  0.41752930  0.16054862  1
  Pb  Pb23  1  0.92463669  0.75000000  0.52729650  1
  Pb  Pb24  1  0.52708795  0.43337505  0.34492783  1
  Pb  Pb25  1  0.40976968  0.75000000  0.43886473  1
  Pb  Pb26  1  0.97213203  0.41752930  0.66054862  1
  Pb  Pb27  1  0.47291205  0.43337505  0.84492783  1
  Pb  Pb28  1  0.52708795  0.06662495  0.34492783  1
  Pb  Pb29  1  0.40976968  0.25000000  0.06113527  1
  Pb  Pb30  1  0.02786797  0.58247070  0.33945138  1
  Pb  Pb31  1  0.07536331  0.75000000  0.02729650  1
  Pb  Pb32  1  0.47291205  0.56662495  0.65507217  1
  Pb  Pb33  1  0.47291205  0.93337505  0.65507217  1
  Pb  Pb34  1  0.52708795  0.93337505  0.15507217  1
  Pb  Pb35  1  0.02786797  0.08247070  0.16054862  1
  Cl  Cl36  1  0.80038895  0.75000000  0.23683245  1
  Cl  Cl37  1  0.19961105  0.25000000  0.76316755  1
  Cl  Cl38  1  0.19961105  0.75000000  0.73683245  1
  Cl  Cl39  1  0.80038895  0.25000000  0.26316755  1
  O  O40  1  0.66618950  0.39377636  0.46630661  1
  O  O41  1  0.91225970  0.75000000  0.90997415  1
  O  O42  1  0.27454326  0.50583302  0.41609006  1
  O  O43  1  0.08774030  0.25000000  0.09002585  1
  O  O44  1  0.26542935  0.35960620  0.24333961  1
  O  O45  1  0.26542935  0.14039380  0.24333961  1
  O  O46  1  0.66618950  0.89377636  0.03369339  1
  O  O47  1  0.77212161  0.90287988  0.46343377  1
  O  O48  1  0.27454326  0.00583302  0.08390994  1
  O  O49  1  0.61457979  0.25000000  0.84857639  1
  O  O50  1  0.26542935  0.85960620  0.25666039  1
  O  O51  1  0.38542021  0.25000000  0.34857639  1
  O  O52  1  0.22787839  0.09712012  0.53656623  1
  O  O53  1  0.33381050  0.39377636  0.96630661  1
  O  O54  1  0.22787839  0.90287988  0.96343377  1
  O  O55  1  0.22787839  0.40287988  0.53656623  1
  O  O56  1  0.27454326  0.49416698  0.08390994  1
  O  O57  1  0.66618950  0.60622364  0.03369339  1
  O  O58  1  0.27454326  0.99416698  0.41609006  1
  O  O59  1  0.08774030  0.75000000  0.40997415  1
  O  O60  1  0.73457065  0.14039380  0.74333961  1
  O  O61  1  0.77212161  0.59712012  0.46343377  1
  O  O62  1  0.77212161  0.40287988  0.03656623  1
  O  O63  1  0.38542021  0.75000000  0.15142361  1
  O  O64  1  0.33381050  0.89377636  0.53369339  1
  O  O65  1  0.77212161  0.09712012  0.03656623  1
  O  O66  1  0.72545674  0.99416698  0.91609006  1
  O  O67  1  0.73457065  0.85960620  0.75666039  1
  O  O68  1  0.72545674  0.00583302  0.58390994  1
  O  O69  1  0.91225970  0.25000000  0.59002585  1
  O  O70  1  0.72545674  0.49416698  0.58390994  1
  O  O71  1  0.61457979  0.75000000  0.65142361  1
  O  O72  1  0.72545674  0.50583302  0.91609006  1
  O  O73  1  0.33381050  0.60622364  0.53369339  1
  O  O74  1  0.33381050  0.10622364  0.96630661  1
  O  O75  1  0.73457065  0.64039380  0.75666039  1
  O  O76  1  0.26542935  0.64039380  0.25666039  1
  O  O77  1  0.73457065  0.35960620  0.74333961  1
  O  O78  1  0.22787839  0.59712012  0.96343377  1
  O  O79  1  0.66618950  0.10622364  0.46630661  1
