# generated using pymatgen
data_KU2(PO4)3
_symmetry_space_group_name_H-M   'P 1'
_cell_length_a   9.92988248
_cell_length_b   9.92988314
_cell_length_c   9.92988231
_cell_angle_alpha   55.43019095
_cell_angle_beta   55.43018827
_cell_angle_gamma   55.43018997
_symmetry_Int_Tables_number   1
_chemical_formula_structural   KU2(PO4)3
_chemical_formula_sum   'K2 U4 P6 O24'
_cell_volume   618.85584436
_cell_formula_units_Z   2
loop_
 _symmetry_equiv_pos_site_id
 _symmetry_equiv_pos_as_xyz
  1  'x, y, z'
loop_
 _atom_site_type_symbol
 _atom_site_label
 _atom_site_symmetry_multiplicity
 _atom_site_fract_x
 _atom_site_fract_y
 _atom_site_fract_z
 _atom_site_occupancy
  K  K0  1  0.50000000  0.50000000  0.50000000  1
  K  K1  1  0.00000000  0.00000000  0.00000000  1
  U  U2  1  0.84971373  0.84971373  0.84971373  1
  U  U3  1  0.15028627  0.15028627  0.15028627  1
  U  U4  1  0.65028627  0.65028627  0.65028627  1
  U  U5  1  0.34971373  0.34971373  0.34971373  1
  P  P6  1  0.95618511  0.54381489  0.25000000  1
  P  P7  1  0.54381489  0.25000000  0.95618511  1
  P  P8  1  0.45618511  0.75000000  0.04381489  1
  P  P9  1  0.25000000  0.95618511  0.54381489  1
  P  P10  1  0.75000000  0.04381489  0.45618511  1
  P  P11  1  0.04381489  0.45618511  0.75000000  1
  O  O12  1  0.48591964  0.73194831  0.88281715  1
  O  O13  1  0.29100573  0.91485595  0.07209085  1
  O  O14  1  0.92790915  0.70899427  0.08514405  1
  O  O15  1  0.58514405  0.20899427  0.42790915  1
  O  O16  1  0.76805169  0.01408036  0.61718285  1
  O  O17  1  0.98591964  0.38281715  0.23194831  1
  O  O18  1  0.41485595  0.79100573  0.57209085  1
  O  O19  1  0.07209085  0.29100573  0.91485595  1
  O  O20  1  0.20899427  0.42790915  0.58514405  1
  O  O21  1  0.61718285  0.76805169  0.01408036  1
  O  O22  1  0.01408036  0.61718285  0.76805169  1
  O  O23  1  0.26805169  0.11718285  0.51408036  1
  O  O24  1  0.88281715  0.48591964  0.73194831  1
  O  O25  1  0.57209085  0.41485595  0.79100573  1
  O  O26  1  0.70899427  0.08514405  0.92790915  1
  O  O27  1  0.79100573  0.57209085  0.41485595  1
  O  O28  1  0.51408036  0.26805169  0.11718285  1
  O  O29  1  0.11718285  0.51408036  0.26805169  1
  O  O30  1  0.23194831  0.98591964  0.38281715  1
  O  O31  1  0.42790915  0.58514405  0.20899427  1
  O  O32  1  0.38281715  0.23194831  0.98591964  1
  O  O33  1  0.08514405  0.92790915  0.70899427  1
  O  O34  1  0.73194831  0.88281715  0.48591964  1
  O  O35  1  0.91485595  0.07209085  0.29100573  1
