# generated using pymatgen
data_Nb2TlPS10
_symmetry_space_group_name_H-M   'P 1'
_cell_length_a   7.25842267
_cell_length_b   7.74367047
_cell_length_c   13.08495915
_cell_angle_alpha   90.00000000
_cell_angle_beta   105.27219435
_cell_angle_gamma   90.00000000
_symmetry_Int_Tables_number   1
_chemical_formula_structural   Nb2TlPS10
_chemical_formula_sum   'Nb4 Tl2 P2 S20'
_cell_volume   709.49146889
_cell_formula_units_Z   2
loop_
 _symmetry_equiv_pos_site_id
 _symmetry_equiv_pos_as_xyz
  1  'x, y, z'
loop_
 _atom_site_type_symbol
 _atom_site_label
 _atom_site_symmetry_multiplicity
 _atom_site_fract_x
 _atom_site_fract_y
 _atom_site_fract_z
 _atom_site_occupancy
  Nb  Nb0  1  0.84246289  0.44413127  0.15894660  1
  Nb  Nb1  1  0.34246289  0.55586873  0.65894660  1
  Nb  Nb2  1  0.54714834  0.43789819  0.87019943  1
  Nb  Nb3  1  0.04714834  0.56210181  0.37019943  1
  Tl  Tl4  1  0.86971360  0.99278100  0.60775899  1
  Tl  Tl5  1  0.36971360  0.00721900  0.10775899  1
  P  P6  1  0.81912193  0.10692039  0.99127714  1
  P  P7  1  0.31912193  0.89307961  0.49127714  1
  S  S8  1  0.03774155  0.89306709  0.40098387  1
  S  S9  1  0.40545261  0.63884679  0.47295720  1
  S  S10  1  0.13926882  0.34103520  0.52382545  1
  S  S11  1  0.19365381  0.39135554  0.24873856  1
  S  S12  1  0.24977684  0.62366999  0.82531850  1
  S  S13  1  0.12860742  0.63907836  0.19734722  1
  S  S14  1  0.62860742  0.36092164  0.69734722  1
  S  S15  1  0.83550000  0.10603766  0.15126400  1
  S  S16  1  0.47232003  0.07658413  0.44624160  1
  S  S17  1  0.90545261  0.36115321  0.97295720  1
  S  S18  1  0.74977684  0.37633001  0.32531850  1
  S  S19  1  0.48419330  0.45234168  0.05429339  1
  S  S20  1  0.53774155  0.10693291  0.90098387  1
  S  S21  1  0.70546886  0.62726125  0.28152805  1
  S  S22  1  0.20546886  0.37273875  0.78152805  1
  S  S23  1  0.63926882  0.65896480  0.02382545  1
  S  S24  1  0.69365381  0.60864446  0.74873856  1
  S  S25  1  0.33550000  0.89396234  0.65126400  1
  S  S26  1  0.98419330  0.54765832  0.55429339  1
  S  S27  1  0.97232003  0.92341587  0.94624160  1
