# generated using pymatgen
data_CsIOF4
_symmetry_space_group_name_H-M   'P 1'
_cell_length_a   6.15364083
_cell_length_b   6.33031881
_cell_length_c   15.79925404
_cell_angle_alpha   90.00000000
_cell_angle_beta   90.00000000
_cell_angle_gamma   90.00000000
_symmetry_Int_Tables_number   1
_chemical_formula_structural   CsIOF4
_chemical_formula_sum   'Cs4 I4 O4 F16'
_cell_volume   615.45217257
_cell_formula_units_Z   4
loop_
 _symmetry_equiv_pos_site_id
 _symmetry_equiv_pos_as_xyz
  1  'x, y, z'
loop_
 _atom_site_type_symbol
 _atom_site_label
 _atom_site_symmetry_multiplicity
 _atom_site_fract_x
 _atom_site_fract_y
 _atom_site_fract_z
 _atom_site_occupancy
  Cs  Cs0  1  0.75000000  0.27931051  0.39677714  1
  Cs  Cs1  1  0.75000000  0.77931051  0.10322286  1
  Cs  Cs2  1  0.25000000  0.22068949  0.89677714  1
  Cs  Cs3  1  0.25000000  0.72068949  0.60322286  1
  I  I4  1  0.75000000  0.27425966  0.66046094  1
  I  I5  1  0.75000000  0.77425966  0.83953906  1
  I  I6  1  0.25000000  0.72574034  0.33953906  1
  I  I7  1  0.25000000  0.22574034  0.16046094  1
  O  O8  1  0.25000000  0.48944781  0.39957428  1
  O  O9  1  0.25000000  0.98944781  0.10042572  1
  O  O10  1  0.75000000  0.51055219  0.60042572  1
  O  O11  1  0.75000000  0.01055219  0.89957428  1
  F  F12  1  0.47832029  0.34776774  0.08412919  1
  F  F13  1  0.97832029  0.15223226  0.58412919  1
  F  F14  1  0.52167971  0.15223226  0.58412919  1
  F  F15  1  0.98163266  0.39789265  0.73752547  1
  F  F16  1  0.02167971  0.34776774  0.08412919  1
  F  F17  1  0.51836734  0.89789265  0.76247453  1
  F  F18  1  0.47832029  0.84776774  0.41587081  1
  F  F19  1  0.48163266  0.10210735  0.23752547  1
  F  F20  1  0.52167971  0.65223226  0.91587081  1
  F  F21  1  0.01836734  0.10210735  0.23752547  1
  F  F22  1  0.02167971  0.84776774  0.41587081  1
  F  F23  1  0.01836734  0.60210735  0.26247453  1
  F  F24  1  0.98163266  0.89789265  0.76247453  1
  F  F25  1  0.51836734  0.39789265  0.73752547  1
  F  F26  1  0.97832029  0.65223226  0.91587081  1
  F  F27  1  0.48163266  0.60210735  0.26247453  1
