# generated using pymatgen
data_YBi3F15
_symmetry_space_group_name_H-M   'P 1'
_cell_length_a   10.88849969
_cell_length_b   5.96275465
_cell_length_c   11.65615294
_cell_angle_alpha   90.00000000
_cell_angle_beta   90.00000000
_cell_angle_gamma   109.58585159
_symmetry_Int_Tables_number   1
_chemical_formula_structural   YBi3F15
_chemical_formula_sum   'Y2 Bi6 F30'
_cell_volume   712.99384690
_cell_formula_units_Z   2
loop_
 _symmetry_equiv_pos_site_id
 _symmetry_equiv_pos_as_xyz
  1  'x, y, z'
loop_
 _atom_site_type_symbol
 _atom_site_label
 _atom_site_symmetry_multiplicity
 _atom_site_fract_x
 _atom_site_fract_y
 _atom_site_fract_z
 _atom_site_occupancy
  Y  Y0  1  0.81792762  0.40219880  0.25000000  1
  Y  Y1  1  0.51540538  0.59780120  0.75000000  1
  Bi  Bi2  1  0.16666700  0.00000000  0.50000000  1
  Bi  Bi3  1  0.50766238  0.98041748  0.43823515  1
  Bi  Bi4  1  0.82567062  0.01958252  0.56176485  1
  Bi  Bi5  1  0.16666700  0.00000000  0.00000000  1
  Bi  Bi6  1  0.50766238  0.98041748  0.06176485  1
  Bi  Bi7  1  0.82567062  0.01958252  0.93823515  1
  F  F8  1  0.01560235  0.67744528  0.25000000  1
  F  F9  1  0.48866606  0.87008556  0.25000000  1
  F  F10  1  0.86057215  0.78808821  0.25000000  1
  F  F11  1  0.31773065  0.32255472  0.75000000  1
  F  F12  1  0.47276185  0.21191179  0.75000000  1
  F  F13  1  0.84466694  0.12991444  0.75000000  1
  F  F14  1  0.08110094  0.18691419  0.60358708  1
  F  F15  1  0.36329042  0.19809566  0.52543622  1
  F  F16  1  0.65941277  0.15132850  0.58003275  1
  F  F17  1  0.25223306  0.81308581  0.39641292  1
  F  F18  1  0.67392023  0.84867150  0.41996725  1
  F  F19  1  0.97004258  0.80190434  0.47456378  1
  F  F20  1  0.16579525  0.77110966  0.87249859  1
  F  F21  1  0.45089124  0.73100311  0.90359710  1
  F  F22  1  0.69190885  0.68364259  0.86346342  1
  F  F23  1  0.16753875  0.22889034  0.12750141  1
  F  F24  1  0.64142415  0.31635741  0.13653658  1
  F  F25  1  0.88244176  0.26899689  0.09640290  1
  F  F26  1  0.16753875  0.22889034  0.37249859  1
  F  F27  1  0.64142415  0.31635741  0.36346342  1
  F  F28  1  0.88244176  0.26899689  0.40359710  1
  F  F29  1  0.16579525  0.77110966  0.62750141  1
  F  F30  1  0.45089124  0.73100311  0.59640290  1
  F  F31  1  0.69190885  0.68364259  0.63653658  1
  F  F32  1  0.08110094  0.18691419  0.89641292  1
  F  F33  1  0.36329042  0.19809566  0.97456378  1
  F  F34  1  0.65941277  0.15132850  0.91996725  1
  F  F35  1  0.25223306  0.81308581  0.10358708  1
  F  F36  1  0.67392023  0.84867150  0.08003275  1
  F  F37  1  0.97004258  0.80190434  0.02543622  1
