# generated using pymatgen
data_ThSe2O7
_symmetry_space_group_name_H-M   'P 1'
_cell_length_a   7.14157205
_cell_length_b   9.16590228
_cell_length_c   9.66736981
_cell_angle_alpha   90.00000000
_cell_angle_beta   90.00000000
_cell_angle_gamma   103.27303569
_symmetry_Int_Tables_number   1
_chemical_formula_structural   ThSe2O7
_chemical_formula_sum   'Th4 Se8 O28'
_cell_volume   615.91149994
_cell_formula_units_Z   4
loop_
 _symmetry_equiv_pos_site_id
 _symmetry_equiv_pos_as_xyz
  1  'x, y, z'
loop_
 _atom_site_type_symbol
 _atom_site_label
 _atom_site_symmetry_multiplicity
 _atom_site_fract_x
 _atom_site_fract_y
 _atom_site_fract_z
 _atom_site_occupancy
  Th  Th0  1  0.79222989  0.13415397  0.46043021  1
  Th  Th1  1  0.79222989  0.63415397  0.03956979  1
  Th  Th2  1  0.20777011  0.86584603  0.53956979  1
  Th  Th3  1  0.20777011  0.36584603  0.96043021  1
  Se  Se4  1  0.32781232  0.24864000  0.59586552  1
  Se  Se5  1  0.32781232  0.74864000  0.90413448  1
  Se  Se6  1  0.12094246  0.01751405  0.18206393  1
  Se  Se7  1  0.87905754  0.48248595  0.68206393  1
  Se  Se8  1  0.67218768  0.75136000  0.40413448  1
  Se  Se9  1  0.12094246  0.51751405  0.31793607  1
  Se  Se10  1  0.87905754  0.98248595  0.81793607  1
  Se  Se11  1  0.67218768  0.25136000  0.09586552  1
  O  O12  1  0.04641524  0.86508164  0.08556089  1
  O  O13  1  0.74575029  0.52502128  0.81018804  1
  O  O14  1  0.10403938  0.62498598  0.94038217  1
  O  O15  1  0.44938294  0.60718329  0.93920293  1
  O  O16  1  0.04641524  0.36508164  0.41443911  1
  O  O17  1  0.55061706  0.39281671  0.06079707  1
  O  O18  1  0.33689048  0.25714534  0.77320855  1
  O  O19  1  0.74575029  0.02502128  0.68981196  1
  O  O20  1  0.73088698  0.85174033  0.91259168  1
  O  O21  1  0.25424971  0.97497872  0.31018804  1
  O  O22  1  0.33689048  0.75714534  0.72679145  1
  O  O23  1  0.66310952  0.24285466  0.27320855  1
  O  O24  1  0.94014694  0.59242626  0.26482985  1
  O  O25  1  0.05985306  0.90757374  0.76482985  1
  O  O26  1  0.89596062  0.37501402  0.05961783  1
  O  O27  1  0.25424971  0.47497872  0.18981196  1
  O  O28  1  0.55061706  0.89281671  0.43920293  1
  O  O29  1  0.26911302  0.14825967  0.08740832  1
  O  O30  1  0.26911302  0.64825967  0.41259168  1
  O  O31  1  0.10403938  0.12498598  0.55961783  1
  O  O32  1  0.73088698  0.35174033  0.58740832  1
  O  O33  1  0.44938294  0.10718329  0.56079707  1
  O  O34  1  0.89596062  0.87501402  0.44038217  1
  O  O35  1  0.95358476  0.63491836  0.58556089  1
  O  O36  1  0.05985306  0.40757374  0.73517015  1
  O  O37  1  0.95358476  0.13491836  0.91443911  1
  O  O38  1  0.94014694  0.09242626  0.23517015  1
  O  O39  1  0.66310952  0.74285466  0.22679145  1
