# generated using pymatgen
data_TaSCl7O
_symmetry_space_group_name_H-M   'P 1'
_cell_length_a   7.69484310
_cell_length_b   9.62364768
_cell_length_c   17.02002408
_cell_angle_alpha   90.00000000
_cell_angle_beta   90.00000000
_cell_angle_gamma   90.00000000
_symmetry_Int_Tables_number   1
_chemical_formula_structural   TaSCl7O
_chemical_formula_sum   'Ta4 S4 Cl28 O4'
_cell_volume   1260.37463447
_cell_formula_units_Z   4
loop_
 _symmetry_equiv_pos_site_id
 _symmetry_equiv_pos_as_xyz
  1  'x, y, z'
loop_
 _atom_site_type_symbol
 _atom_site_label
 _atom_site_symmetry_multiplicity
 _atom_site_fract_x
 _atom_site_fract_y
 _atom_site_fract_z
 _atom_site_occupancy
  Ta  Ta0  1  0.49984372  0.75000000  0.63506135  1
  Ta  Ta1  1  0.50015628  0.25000000  0.36493865  1
  Ta  Ta2  1  1.00015628  0.75000000  0.13506135  1
  Ta  Ta3  1  -0.00015628  0.25000000  0.86493865  1
  S  S4  1  0.66624730  0.25000000  0.16102732  1
  S  S5  1  0.33375270  0.75000000  0.83897268  1
  S  S6  1  0.83375270  0.25000000  0.66102732  1
  S  S7  1  0.16624730  0.75000000  0.33897268  1
  Cl  Cl8  1  0.51662825  0.41389409  0.12174571  1
  Cl  Cl9  1  0.48337175  0.58610591  0.87825429  1
  Cl  Cl10  1  0.47884732  0.99162962  0.64919371  1
  Cl  Cl11  1  0.24184299  0.25000000  0.78302510  1
  Cl  Cl12  1  0.51662825  0.08610591  0.12174571  1
  Cl  Cl13  1  0.71717146  0.25000000  0.91762992  1
  Cl  Cl14  1  0.97884732  0.49162962  0.85080629  1
  Cl  Cl15  1  0.02115268  0.50837038  0.14919371  1
  Cl  Cl16  1  0.48337175  0.91389409  0.87825429  1
  Cl  Cl17  1  0.85333355  0.75000000  0.01974985  1
  Cl  Cl18  1  0.14666645  0.25000000  0.98025015  1
  Cl  Cl19  1  0.52115268  0.00837038  0.35080629  1
  Cl  Cl20  1  0.02115268  0.99162962  0.14919371  1
  Cl  Cl21  1  0.01662825  0.58610591  0.37825429  1
  Cl  Cl22  1  0.52115268  0.49162962  0.35080629  1
  Cl  Cl23  1  0.28282854  0.75000000  0.08237008  1
  Cl  Cl24  1  0.74184299  0.75000000  0.71697490  1
  Cl  Cl25  1  0.01662825  0.91389409  0.37825429  1
  Cl  Cl26  1  0.98337175  0.41389409  0.62174571  1
  Cl  Cl27  1  0.21717146  0.75000000  0.58237008  1
  Cl  Cl28  1  0.35333355  0.25000000  0.48025015  1
  Cl  Cl29  1  0.64666645  0.75000000  0.51974985  1
  Cl  Cl30  1  0.25815701  0.25000000  0.28302510  1
  Cl  Cl31  1  0.97884732  0.00837038  0.85080629  1
  Cl  Cl32  1  0.75815701  0.75000000  0.21697490  1
  Cl  Cl33  1  0.47884732  0.50837038  0.64919371  1
  Cl  Cl34  1  0.98337175  0.08610591  0.62174571  1
  Cl  Cl35  1  0.78282854  0.25000000  0.41762992  1
  O  O36  1  0.15817050  0.75000000  0.25235588  1
  O  O37  1  0.84182950  0.25000000  0.74764412  1
  O  O38  1  0.65817050  0.25000000  0.24764412  1
  O  O39  1  0.34182950  0.75000000  0.75235588  1
