# generated using pymatgen
data_NaPr(SeO4)2
_symmetry_space_group_name_H-M   'P 1'
_cell_length_a   6.71381695
_cell_length_b   7.24292545
_cell_length_c   7.47785643
_cell_angle_alpha   80.82339621
_cell_angle_beta   83.05250631
_cell_angle_gamma   89.78079806
_symmetry_Int_Tables_number   1
_chemical_formula_structural   NaPr(SeO4)2
_chemical_formula_sum   'Na2 Pr2 Se4 O16'
_cell_volume   356.29664542
_cell_formula_units_Z   2
loop_
 _symmetry_equiv_pos_site_id
 _symmetry_equiv_pos_as_xyz
  1  'x, y, z'
loop_
 _atom_site_type_symbol
 _atom_site_label
 _atom_site_symmetry_multiplicity
 _atom_site_fract_x
 _atom_site_fract_y
 _atom_site_fract_z
 _atom_site_occupancy
  Na  Na0  1  0.93217762  0.31030494  0.27573460  1
  Na  Na1  1  0.06782238  0.68969506  0.72426540  1
  Pr  Pr2  1  0.35625942  0.19357374  0.80199658  1
  Pr  Pr3  1  0.64374058  0.80642626  0.19800342  1
  Se  Se4  1  0.86678472  0.18559742  0.78452327  1
  Se  Se5  1  0.56837577  0.71487485  0.71139230  1
  Se  Se6  1  0.43162423  0.28512515  0.28860770  1
  Se  Se7  1  0.13321528  0.81440258  0.21547673  1
  O  O8  1  0.56829640  0.09312553  0.31710657  1
  O  O9  1  0.25506713  0.74001403  0.39340742  1
  O  O10  1  0.03448320  0.01666347  0.76157305  1
  O  O11  1  0.59485026  0.46549959  0.24085957  1
  O  O12  1  0.32347108  0.88834250  0.04913595  1
  O  O13  1  0.96551680  0.98333653  0.23842695  1
  O  O14  1  0.99157638  0.64850594  0.15618842  1
  O  O15  1  0.40514974  0.53450041  0.75914043  1
  O  O16  1  0.67652892  0.11165750  0.95086405  1
  O  O17  1  0.00842362  0.35149406  0.84381158  1
  O  O18  1  0.43170360  0.90687447  0.68289343  1
  O  O19  1  0.71192938  0.71235960  0.87974362  1
  O  O20  1  0.72149607  0.70511733  0.51935571  1
  O  O21  1  0.74493287  0.25998597  0.60659258  1
  O  O22  1  0.28807062  0.28764040  0.12025638  1
  O  O23  1  0.27850393  0.29488267  0.48064429  1
