# generated using pymatgen
data_SnP2Cl8O3
_symmetry_space_group_name_H-M   'P 1'
_cell_length_a   8.98035521
_cell_length_b   9.24278057
_cell_length_c   11.04151332
_cell_angle_alpha   69.90646892
_cell_angle_beta   71.26402930
_cell_angle_gamma   65.38708949
_symmetry_Int_Tables_number   1
_chemical_formula_structural   SnP2Cl8O3
_chemical_formula_sum   'Sn2 P4 Cl16 O6'
_cell_volume   765.28111444
_cell_formula_units_Z   2
loop_
 _symmetry_equiv_pos_site_id
 _symmetry_equiv_pos_as_xyz
  1  'x, y, z'
loop_
 _atom_site_type_symbol
 _atom_site_label
 _atom_site_symmetry_multiplicity
 _atom_site_fract_x
 _atom_site_fract_y
 _atom_site_fract_z
 _atom_site_occupancy
  Sn  Sn0  1  0.90988921  0.79507842  0.23159267  1
  Sn  Sn1  1  0.09011079  0.20492158  0.76840733  1
  P  P2  1  0.79244735  0.20467550  0.06404583  1
  P  P3  1  0.22220784  0.80685637  0.36362851  1
  P  P4  1  0.20755265  0.79532450  0.93595417  1
  P  P5  1  0.77779216  0.19314363  0.63637149  1
  Cl  Cl6  1  0.54369233  0.26545454  0.08904490  1
  Cl  Cl7  1  0.78801556  0.20722772  0.45079396  1
  Cl  Cl8  1  0.04110087  0.50615641  0.29280500  1
  Cl  Cl9  1  0.45630767  0.73454546  0.91095510  1
  Cl  Cl10  1  0.24000130  0.18717592  0.91961078  1
  Cl  Cl11  1  0.28550982  0.00140192  0.25687679  1
  Cl  Cl12  1  0.31383406  0.16884193  0.58292068  1
  Cl  Cl13  1  0.81370111  0.39637015  0.09491658  1
  Cl  Cl14  1  0.41303628  0.61266822  0.31709476  1
  Cl  Cl15  1  0.18629889  0.60362985  0.90508342  1
  Cl  Cl16  1  0.71449018  0.99859808  0.74312321  1
  Cl  Cl17  1  0.58696372  0.38733178  0.68290524  1
  Cl  Cl18  1  0.68616594  0.83115807  0.41707932  1
  Cl  Cl19  1  0.75999870  0.81282408  0.08038922  1
  Cl  Cl20  1  0.21198444  0.79277228  0.54920604  1
  Cl  Cl21  1  0.95889913  0.49384359  0.70719500  1
  O  O22  1  0.94099227  0.18234822  0.65234020  1
  O  O23  1  0.85668899  0.05810475  0.17317904  1
  O  O24  1  0.14331101  0.94189525  0.82682096  1
  O  O25  1  0.05900773  0.81765178  0.34765980  1
  O  O26  1  0.13236756  0.80621509  0.07774645  1
  O  O27  1  0.86763244  0.19378491  0.92225355  1
