# generated using pymatgen
data_Ba2YTi3O7
_symmetry_space_group_name_H-M   'P 1'
_cell_length_a   3.97294993
_cell_length_b   4.01523909
_cell_length_c   11.49122959
_cell_angle_alpha   89.99998822
_cell_angle_beta   90.00008476
_cell_angle_gamma   89.99916797
_symmetry_Int_Tables_number   1
_chemical_formula_structural   Ba2YTi3O7
_chemical_formula_sum   'Ba2 Y1 Ti3 O7'
_cell_volume   183.31204580
_cell_formula_units_Z   1
loop_
 _symmetry_equiv_pos_site_id
 _symmetry_equiv_pos_as_xyz
  1  'x, y, z'
loop_
 _atom_site_type_symbol
 _atom_site_label
 _atom_site_symmetry_multiplicity
 _atom_site_fract_x
 _atom_site_fract_y
 _atom_site_fract_z
 _atom_site_occupancy
  Ba  Ba0  1  0.49999876  0.49999891  0.82496664  1
  Ba  Ba1  1  0.49999696  0.49999997  0.17505349  1
  Y  Y2  1  0.50000061  0.49999528  0.50003355  1
  Ti  Ti3  1  0.00000377  0.00001038  0.63639676  1
  Ti  Ti4  1  0.00001036  0.00000122  0.36358605  1
  Ti  Ti5  1  0.99999828  0.00000874  0.00000446  1
  O  O6  1  0.99999695  0.50000188  0.99999123  1
  O  O7  1  0.49999640  -0.00000075  0.63022132  1
  O  O8  1  0.49999785  0.99999165  0.36977531  1
  O  O9  1  0.00000038  0.49999720  0.63023179  1
  O  O10  1  0.00000157  0.49999698  0.36977881  1
  O  O11  1  0.99999680  -0.00000071  0.82828525  1
  O  O12  1  0.00000130  -0.00000075  0.17167433  1
