# generated using pymatgen
data_Mg10Ge3(H2O9)2
_symmetry_space_group_name_H-M   'P 1'
_cell_length_a   5.23150846
_cell_length_b   8.98686037
_cell_length_c   14.34582717
_cell_angle_alpha   90.00000000
_cell_angle_beta   90.00000000
_cell_angle_gamma   90.00000000
_symmetry_Int_Tables_number   1
_chemical_formula_structural   Mg10Ge3(H2O9)2
_chemical_formula_sum   'Mg20 Ge6 H8 O36'
_cell_volume   674.46671246
_cell_formula_units_Z   2
loop_
 _symmetry_equiv_pos_site_id
 _symmetry_equiv_pos_as_xyz
  1  'x, y, z'
loop_
 _atom_site_type_symbol
 _atom_site_label
 _atom_site_symmetry_multiplicity
 _atom_site_fract_x
 _atom_site_fract_y
 _atom_site_fract_z
 _atom_site_occupancy
  Mg  Mg0  1  0.50000000  0.73556253  0.00000000  1
  Mg  Mg1  1  0.33957332  0.91184195  0.17387737  1
  Mg  Mg2  1  0.83957332  0.41184195  0.32612263  1
  Mg  Mg3  1  0.34389812  0.23557686  0.32209639  1
  Mg  Mg4  1  0.00000000  0.58644463  0.50000000  1
  Mg  Mg5  1  0.16042668  0.41184195  0.67387737  1
  Mg  Mg6  1  0.00000000  0.25108779  0.00000000  1
  Mg  Mg7  1  0.65470709  0.58870291  0.67752892  1
  Mg  Mg8  1  0.15610188  0.73557686  0.82209639  1
  Mg  Mg9  1  0.50000000  0.08644463  0.00000000  1
  Mg  Mg10  1  0.00000000  0.57128273  0.00000000  1
  Mg  Mg11  1  0.15470709  0.08870291  0.82247108  1
  Mg  Mg12  1  0.00000000  0.23556253  0.50000000  1
  Mg  Mg13  1  0.84529291  0.08870291  0.17752892  1
  Mg  Mg14  1  0.66042668  0.91184195  0.82612263  1
  Mg  Mg15  1  0.50000000  0.75108779  0.50000000  1
  Mg  Mg16  1  0.34529291  0.58870291  0.32247108  1
  Mg  Mg17  1  0.50000000  0.07128273  0.50000000  1
  Mg  Mg18  1  0.84389812  0.73557686  0.17790361  1
  Mg  Mg19  1  0.65610188  0.23557686  0.67790361  1
  Ge  Ge20  1  0.50000000  0.41098202  0.50000000  1
  Ge  Ge21  1  0.48398770  0.41143374  0.87694429  1
  Ge  Ge22  1  0.00000000  0.91098202  0.00000000  1
  Ge  Ge23  1  0.01601230  0.91143374  0.37694429  1
  Ge  Ge24  1  0.98398770  0.91143374  0.62305571  1
  Ge  Ge25  1  0.51601230  0.41143374  0.12305571  1
  H  H26  1  0.42377132  0.81049834  0.69027397  1
  H  H27  1  0.92182024  0.51575963  0.80867704  1
  H  H28  1  0.92377132  0.31049834  0.80972603  1
  H  H29  1  0.07622868  0.31049834  0.19027397  1
  H  H30  1  0.57817976  0.01575963  0.30867704  1
  H  H31  1  0.07817976  0.51575963  0.19132296  1
  H  H32  1  0.57622868  0.81049834  0.30972603  1
  H  H33  1  0.42182024  0.01575963  0.69132296  1
  O  O34  1  0.68258440  0.91114080  0.08175842  1
  O  O35  1  0.82390364  0.07733973  0.58442853  1
  O  O36  1  0.68865977  0.91142311  0.41475367  1
  O  O37  1  0.82411343  0.74559031  0.58414931  1
  O  O38  1  0.52124267  0.75458777  0.25378318  1
  O  O39  1  0.97862212  0.57078329  0.75277528  1
  O  O40  1  0.01048879  0.91216467  0.25246805  1
  O  O41  1  0.65134638  0.56149914  0.42382026  1
  O  O42  1  0.47875733  0.75458777  0.74621682  1
  O  O43  1  0.32411343  0.24559031  0.91585069  1
  O  O44  1  0.67588657  0.24559031  0.08414931  1
  O  O45  1  0.15136561  0.76097790  0.07632991  1
  O  O46  1  0.31134023  0.91142311  0.58524633  1
  O  O47  1  0.32390364  0.57733973  0.91557147  1
  O  O48  1  0.47862212  0.07078329  0.74722472  1
  O  O49  1  0.02124267  0.25458777  0.24621682  1
  O  O50  1  0.31741560  0.91114080  0.91824158  1
  O  O51  1  0.65136561  0.26097790  0.42367009  1
  O  O52  1  0.34863439  0.26097790  0.57632991  1
  O  O53  1  0.98951121  0.91216467  0.74753195  1
  O  O54  1  0.48951121  0.41216467  0.75246805  1
  O  O55  1  0.18865977  0.41142311  0.08524633  1
  O  O56  1  0.84865362  0.06149914  0.92382026  1
  O  O57  1  0.81741560  0.41114080  0.58175842  1
  O  O58  1  0.81134023  0.41142311  0.91475367  1
  O  O59  1  0.34865362  0.56149914  0.57617974  1
  O  O60  1  0.17588657  0.74559031  0.41585069  1
  O  O61  1  0.18258440  0.41114080  0.41824158  1
  O  O62  1  0.02137788  0.57078329  0.24722472  1
  O  O63  1  0.15134638  0.06149914  0.07617974  1
  O  O64  1  0.17609636  0.07733973  0.41557147  1
  O  O65  1  0.84863439  0.76097790  0.92367009  1
  O  O66  1  0.97875733  0.25458777  0.75378318  1
  O  O67  1  0.52137788  0.07078329  0.25277528  1
  O  O68  1  0.51048879  0.41216467  0.24753195  1
  O  O69  1  0.67609636  0.57733973  0.08442853  1
