# generated using pymatgen
data_Ba6Na2Si4O15
_symmetry_space_group_name_H-M   'P 1'
_cell_length_a   7.97304697
_cell_length_b   9.65510868
_cell_length_c   11.67912968
_cell_angle_alpha   107.64198392
_cell_angle_beta   90.00000000
_cell_angle_gamma   90.00000000
_symmetry_Int_Tables_number   1
_chemical_formula_structural   Ba6Na2Si4O15
_chemical_formula_sum   'Ba12 Na4 Si8 O30'
_cell_volume   856.78267030
_cell_formula_units_Z   2
loop_
 _symmetry_equiv_pos_site_id
 _symmetry_equiv_pos_as_xyz
  1  'x, y, z'
loop_
 _atom_site_type_symbol
 _atom_site_label
 _atom_site_symmetry_multiplicity
 _atom_site_fract_x
 _atom_site_fract_y
 _atom_site_fract_z
 _atom_site_occupancy
  Ba  Ba0  1  0.97854846  0.66731259  0.91628986  1
  Ba  Ba1  1  0.99596516  0.34082376  0.58548081  1
  Ba  Ba2  1  0.50249906  0.99870777  0.22570778  1
  Ba  Ba3  1  0.99750094  0.99870777  0.72570778  1
  Ba  Ba4  1  0.00249906  0.00129223  0.27429222  1
  Ba  Ba5  1  0.47854846  0.33268741  0.58371014  1
  Ba  Ba6  1  0.52145154  0.66731259  0.41628986  1
  Ba  Ba7  1  0.02145154  0.33268741  0.08371014  1
  Ba  Ba8  1  0.00403484  0.65917624  0.41451919  1
  Ba  Ba9  1  0.49596516  0.65917624  0.91451919  1
  Ba  Ba10  1  0.50403484  0.34082376  0.08548081  1
  Ba  Ba11  1  0.49750094  0.00129223  0.77429222  1
  Na  Na12  1  0.24813027  0.67860822  0.66942368  1
  Na  Na13  1  0.74813027  0.32139178  0.83057632  1
  Na  Na14  1  0.25186973  0.67860822  0.16942368  1
  Na  Na15  1  0.75186973  0.32139178  0.33057632  1
  Si  Si16  1  0.25548382  0.37854527  0.34477453  1
  Si  Si17  1  0.74451618  0.62145473  0.65522547  1
  Si  Si18  1  0.20959380  0.96448475  0.99091563  1
  Si  Si19  1  0.29040620  0.96448475  0.49091563  1
  Si  Si20  1  0.24451618  0.37854527  0.84477453  1
  Si  Si21  1  0.79040620  0.03551525  0.00908437  1
  Si  Si22  1  0.75548382  0.62145473  0.15522547  1
  Si  Si23  1  0.70959380  0.03551525  0.50908437  1
  O  O24  1  0.92301248  0.71207448  0.68231555  1
  O  O25  1  0.30714401  0.11904033  0.02966297  1
  O  O26  1  0.42301248  0.28792552  0.81768445  1
  O  O27  1  0.75696564  0.13346259  0.14806594  1
  O  O28  1  0.57698752  0.71207448  0.18231555  1
  O  O29  1  0.93064684  0.71596550  0.17487504  1
  O  O30  1  0.75146847  0.51355243  0.01301606  1
  O  O31  1  0.23849662  0.48704273  0.75710313  1
  O  O32  1  0.75437394  0.13391387  0.91997122  1
  O  O33  1  0.69285599  0.88095967  0.97033703  1
  O  O34  1  0.24562606  0.86608613  0.08002878  1
  O  O35  1  0.26150338  0.48704273  0.25710313  1
  O  O36  1  0.25696564  0.86653741  0.35193406  1
  O  O37  1  0.19285599  0.11904033  0.52966297  1
  O  O38  1  0.24303436  0.86653741  0.85193406  1
  O  O39  1  0.74303436  0.13346259  0.64806594  1
  O  O40  1  0.25146847  0.48644757  0.48698394  1
  O  O41  1  0.25437394  0.86608613  0.58002878  1
  O  O42  1  0.74853153  0.51355243  0.51301606  1
  O  O43  1  0.76150338  0.51295727  0.24289687  1
  O  O44  1  0.73849662  0.51295727  0.74289687  1
  O  O45  1  0.43064684  0.28403450  0.32512496  1
  O  O46  1  0.74562606  0.13391387  0.41997122  1
  O  O47  1  0.56935316  0.71596550  0.67487504  1
  O  O48  1  0.07698752  0.28792552  0.31768445  1
  O  O49  1  0.00000000  0.00000000  0.00000000  1
  O  O50  1  0.80714401  0.88095967  0.47033703  1
  O  O51  1  0.24853153  0.48644757  0.98698394  1
  O  O52  1  0.06935316  0.28403450  0.82512496  1
  O  O53  1  0.50000000  0.00000000  0.50000000  1
