# generated using pymatgen
data_PdSCl
_symmetry_space_group_name_H-M   'P 1'
_cell_length_a   9.25453756
_cell_length_b   9.64481850
_cell_length_c   14.39622316
_cell_angle_alpha   90.00000000
_cell_angle_beta   91.93386739
_cell_angle_gamma   90.00000000
_symmetry_Int_Tables_number   1
_chemical_formula_structural   PdSCl
_chemical_formula_sum   'Pd16 S16 Cl16'
_cell_volume   1284.25104051
_cell_formula_units_Z   16
loop_
 _symmetry_equiv_pos_site_id
 _symmetry_equiv_pos_as_xyz
  1  'x, y, z'
loop_
 _atom_site_type_symbol
 _atom_site_label
 _atom_site_symmetry_multiplicity
 _atom_site_fract_x
 _atom_site_fract_y
 _atom_site_fract_z
 _atom_site_occupancy
  Pd  Pd0  1  0.02505644  0.20674784  0.98234840  1
  Pd  Pd1  1  0.39917720  0.09468158  0.32161949  1
  Pd  Pd2  1  0.52505644  0.29325216  0.48234840  1
  Pd  Pd3  1  0.10082280  0.59468158  0.17838051  1
  Pd  Pd4  1  0.66979162  0.87984369  0.36072004  1
  Pd  Pd5  1  0.20481859  0.92209653  0.47845559  1
  Pd  Pd6  1  0.83020838  0.37984369  0.13927996  1
  Pd  Pd7  1  0.60082280  0.90531842  0.67838051  1
  Pd  Pd8  1  0.47494356  0.70674784  0.51765160  1
  Pd  Pd9  1  0.79518141  0.07790347  0.52154441  1
  Pd  Pd10  1  0.33020838  0.12015631  0.63927996  1
  Pd  Pd11  1  0.97494356  0.79325216  0.01765160  1
  Pd  Pd12  1  0.29518141  0.42209653  0.02154441  1
  Pd  Pd13  1  0.89917720  0.40531842  0.82161949  1
  Pd  Pd14  1  0.16979162  0.62015631  0.86072004  1
  Pd  Pd15  1  0.70481859  0.57790347  0.97845559  1
  S  S16  1  0.27509878  0.40428895  0.86232973  1
  S  S17  1  0.32262144  0.65395958  0.98793914  1
  S  S18  1  0.09942803  0.26508574  0.83652219  1
  S  S19  1  0.59942803  0.23491426  0.33652219  1
  S  S20  1  0.22490122  0.90428895  0.63767027  1
  S  S21  1  0.72490122  0.59571105  0.13767027  1
  S  S22  1  0.40057197  0.76508574  0.66347781  1
  S  S23  1  0.82262144  0.84604042  0.48793914  1
  S  S24  1  0.77509878  0.09571105  0.36232973  1
  S  S25  1  0.19989848  0.76285783  0.08708005  1
  S  S26  1  0.30010152  0.26285783  0.41291995  1
  S  S27  1  0.90057197  0.73491426  0.16347781  1
  S  S28  1  0.67737856  0.34604042  0.01206086  1
  S  S29  1  0.17737856  0.15395958  0.51206086  1
  S  S30  1  0.80010152  0.23714217  0.91291995  1
  S  S31  1  0.69989848  0.73714217  0.58708005  1
  Cl  Cl32  1  0.47618716  0.06473907  0.77429190  1
  Cl  Cl33  1  0.17915549  0.96407526  0.31518638  1
  Cl  Cl34  1  0.76840288  0.32249080  0.54020479  1
  Cl  Cl35  1  0.23159712  0.67750920  0.45979521  1
  Cl  Cl36  1  0.73159712  0.82249080  0.95979521  1
  Cl  Cl37  1  0.57474397  0.65062403  0.37166146  1
  Cl  Cl38  1  0.52381284  0.93526093  0.22570810  1
  Cl  Cl39  1  0.07474397  0.84937597  0.87166146  1
  Cl  Cl40  1  0.42525603  0.34937597  0.62833854  1
  Cl  Cl41  1  0.26840288  0.17750920  0.04020479  1
  Cl  Cl42  1  0.97618716  0.43526093  0.27429190  1
  Cl  Cl43  1  0.67915549  0.53592474  0.81518638  1
  Cl  Cl44  1  0.82084451  0.03592474  0.68481362  1
  Cl  Cl45  1  0.32084451  0.46407526  0.18481362  1
  Cl  Cl46  1  0.92525603  0.15062403  0.12833854  1
  Cl  Cl47  1  0.02381284  0.56473907  0.72570810  1
