# generated using pymatgen
data_LiLa(PO3)4
_symmetry_space_group_name_H-M   'P 1'
_cell_length_a   7.21418017
_cell_length_b   9.14184298
_cell_length_c   9.14568773
_cell_angle_alpha   66.36572009
_cell_angle_beta   66.77123425
_cell_angle_gamma   66.76089167
_symmetry_Int_Tables_number   1
_chemical_formula_structural   LiLa(PO3)4
_chemical_formula_sum   'Li2 La2 P8 O24'
_cell_volume   487.34101067
_cell_formula_units_Z   2
loop_
 _symmetry_equiv_pos_site_id
 _symmetry_equiv_pos_as_xyz
  1  'x, y, z'
loop_
 _atom_site_type_symbol
 _atom_site_label
 _atom_site_symmetry_multiplicity
 _atom_site_fract_x
 _atom_site_fract_y
 _atom_site_fract_z
 _atom_site_occupancy
  Li  Li0  1  0.79697145  0.25000000  0.75000000  1
  Li  Li1  1  0.20302855  0.75000000  0.25000000  1
  La  La2  1  0.29844904  0.25000000  0.75000000  1
  La  La3  1  0.70155096  0.75000000  0.25000000  1
  P  P4  1  0.19431769  0.38542710  0.33584478  1
  P  P5  1  0.91558957  0.11457290  0.16415522  1
  P  P6  1  0.80568231  0.61457290  0.66415522  1
  P  P7  1  0.08441043  0.88542710  0.83584478  1
  P  P8  1  0.50869699  0.19961076  0.09825132  1
  P  P9  1  0.80655907  0.30038924  0.40174868  1
  P  P10  1  0.49130301  0.80038924  0.90174868  1
  P  P11  1  0.19344093  0.69961076  0.59825132  1
  O  O12  1  0.32980022  0.31892462  0.45009721  1
  O  O13  1  0.09882205  0.18107538  0.04990279  1
  O  O14  1  0.67019978  0.68107538  0.54990279  1
  O  O15  1  0.90117795  0.81892462  0.95009721  1
  O  O16  1  0.32917886  0.35387416  0.15695074  1
  O  O17  1  0.84000376  0.14612584  0.34304926  1
  O  O18  1  0.67082114  0.64612584  0.84304926  1
  O  O19  1  0.15999624  0.85387416  0.65695074  1
  O  O20  1  0.92521314  0.43193271  0.70356964  1
  O  O21  1  0.06071549  0.06806729  0.79643036  1
  O  O22  1  0.07478686  0.56806729  0.29643036  1
  O  O23  1  0.93928451  0.93193271  0.20356964  1
  O  O24  1  0.03942275  0.26941451  0.41078742  1
  O  O25  1  0.71962467  0.23058549  0.08921258  1
  O  O26  1  0.96057725  0.73058549  0.58921258  1
  O  O27  1  0.28037533  0.76941451  0.91078742  1
  O  O28  1  0.52247984  0.23076010  0.91999079  1
  O  O29  1  0.67323073  0.26923990  0.58000921  1
  O  O30  1  0.47752016  0.76923990  0.08000921  1
  O  O31  1  0.32676927  0.73076010  0.41999079  1
  O  O32  1  0.25474521  0.53675853  0.72389737  1
  O  O33  1  0.51540111  0.96324147  0.77610263  1
  O  O34  1  0.74525479  0.46324147  0.27610263  1
  O  O35  1  0.48459889  0.03675853  0.22389737  1
