# generated using pymatgen
data_Na3CrF6
_symmetry_space_group_name_H-M   'P 1'
_cell_length_a   5.57048778
_cell_length_b   5.80622632
_cell_length_c   8.05739055
_cell_angle_alpha   90.00000000
_cell_angle_beta   90.38301116
_cell_angle_gamma   90.00000000
_symmetry_Int_Tables_number   1
_chemical_formula_structural   Na3CrF6
_chemical_formula_sum   'Na6 Cr2 F12'
_cell_volume   260.59849124
_cell_formula_units_Z   2
loop_
 _symmetry_equiv_pos_site_id
 _symmetry_equiv_pos_as_xyz
  1  'x, y, z'
loop_
 _atom_site_type_symbol
 _atom_site_label
 _atom_site_symmetry_multiplicity
 _atom_site_fract_x
 _atom_site_fract_y
 _atom_site_fract_z
 _atom_site_occupancy
  Na  Na0  1  0.01728577  0.55733739  0.74438063  1
  Na  Na1  1  0.48271423  0.05733739  0.75561937  1
  Na  Na2  1  0.98271423  0.44266261  0.25561937  1
  Na  Na3  1  0.51728577  0.94266261  0.24438063  1
  Na  Na4  1  0.50000000  0.50000000  0.00000000  1
  Na  Na5  1  0.00000000  0.00000000  0.50000000  1
  Cr  Cr6  1  0.50000000  0.50000000  0.50000000  1
  Cr  Cr7  1  0.00000000  0.00000000  0.00000000  1
  F  F8  1  0.66832754  0.22235327  0.42706377  1
  F  F9  1  0.83167246  0.72235327  0.07293623  1
  F  F10  1  0.33167246  0.77764673  0.57293623  1
  F  F11  1  0.16832754  0.27764673  0.92706377  1
  F  F12  1  0.21483047  0.32135569  0.55260736  1
  F  F13  1  0.28516953  0.82135569  0.94739264  1
  F  F14  1  0.78516953  0.67864431  0.44739264  1
  F  F15  1  0.71483047  0.17864431  0.05260736  1
  F  F16  1  0.11838742  0.05739633  0.22541979  1
  F  F17  1  0.38161258  0.55739633  0.27458021  1
  F  F18  1  0.88161258  0.94260367  0.77458021  1
  F  F19  1  0.61838742  0.44260367  0.72541979  1
