# generated using pymatgen
data_Tl2Cr3O12
_symmetry_space_group_name_H-M   'P 1'
_cell_length_a   8.98157376
_cell_length_b   8.99359942
_cell_length_c   13.17270323
_cell_angle_alpha   90.00000000
_cell_angle_beta   90.00000000
_cell_angle_gamma   90.00000000
_symmetry_Int_Tables_number   1
_chemical_formula_structural   Tl2Cr3O12
_chemical_formula_sum   'Tl8 Cr12 O48'
_cell_volume   1064.04718821
_cell_formula_units_Z   4
loop_
 _symmetry_equiv_pos_site_id
 _symmetry_equiv_pos_as_xyz
  1  'x, y, z'
loop_
 _atom_site_type_symbol
 _atom_site_label
 _atom_site_symmetry_multiplicity
 _atom_site_fract_x
 _atom_site_fract_y
 _atom_site_fract_z
 _atom_site_occupancy
  O  O0  1  0.64792045  0.49546752  0.92459554  1
  O  O1  1  0.14792045  0.00453248  0.57540446  1
  O  O2  1  0.85207955  0.49546752  0.07540446  1
  O  O3  1  0.35207955  0.00453248  0.42459554  1
  O  O4  1  0.35207955  0.50453248  0.07540446  1
  O  O5  1  0.85207955  0.99546752  0.42459554  1
  O  O6  1  0.14792045  0.50453248  0.92459554  1
  O  O7  1  0.64792045  0.99546752  0.57540446  1
  O  O8  1  0.42130548  0.00247123  0.10219585  1
  O  O9  1  0.92130548  0.49752877  0.39780415  1
  O  O10  1  0.07869452  0.00247123  0.89780415  1
  O  O11  1  0.57869452  0.49752877  0.60219585  1
  O  O12  1  0.57869452  0.99752877  0.89780415  1
  O  O13  1  0.07869452  0.50247123  0.60219585  1
  O  O14  1  0.92130548  0.99752877  0.10219585  1
  O  O15  1  0.42130548  0.50247123  0.39780415  1
  O  O16  1  0.63945573  0.71265191  0.06945251  1
  O  O17  1  0.36054427  0.28734809  0.93054749  1
  O  O18  1  0.13945573  0.28734809  0.06945251  1
  O  O19  1  0.63945573  0.21265191  0.43054749  1
  O  O20  1  0.64424332  0.71738095  0.41649498  1
  O  O21  1  0.14424332  0.78261905  0.08350502  1
  O  O22  1  0.85575668  0.71738095  0.58350502  1
  O  O23  1  0.35575668  0.78261905  0.91649498  1
  O  O24  1  0.35575668  0.28261905  0.58350502  1
  O  O25  1  0.85575668  0.21738095  0.91649498  1
  O  O26  1  0.14424332  0.28261905  0.41649498  1
  O  O27  1  0.64424332  0.21738095  0.08350502  1
  O  O28  1  0.63903881  0.01793674  0.23979343  1
  O  O29  1  0.13903881  0.48206326  0.26020657  1
  O  O30  1  0.86096119  0.01793674  0.76020657  1
  O  O31  1  0.36096119  0.48206326  0.73979343  1
  O  O32  1  0.36096119  0.98206326  0.76020657  1
  O  O33  1  0.86096119  0.51793674  0.73979343  1
  O  O34  1  0.13903881  0.98206326  0.23979343  1
  O  O35  1  0.63903881  0.51793674  0.26020657  1
  O  O36  1  0.42827384  0.72857426  0.26038981  1
  O  O37  1  0.92827384  0.77142574  0.23961019  1
  O  O38  1  0.07172616  0.72857426  0.73961019  1
  O  O39  1  0.57172616  0.77142574  0.76038981  1
  O  O40  1  0.57172616  0.27142574  0.73961019  1
  O  O41  1  0.07172616  0.22857426  0.76038981  1
  O  O42  1  0.92827384  0.27142574  0.26038981  1
  O  O43  1  0.42827384  0.22857426  0.23961019  1
  O  O44  1  0.36054427  0.78734809  0.56945251  1
  O  O45  1  0.86054427  0.71265191  0.93054749  1
  O  O46  1  0.13945573  0.78734809  0.43054749  1
  O  O47  1  0.86054427  0.21265191  0.56945251  1
  Cr  Cr48  1  0.75000000  0.10232590  0.50000000  1
  Cr  Cr49  1  0.25000000  0.39767410  0.00000000  1
  Cr  Cr50  1  0.25000000  0.89767410  0.50000000  1
  Cr  Cr51  1  0.75000000  0.60232590  0.00000000  1
  Cr  Cr52  1  0.96634246  0.11440002  0.83135853  1
  Cr  Cr53  1  0.46634246  0.38559998  0.66864147  1
  Cr  Cr54  1  0.53365754  0.11440002  0.16864147  1
  Cr  Cr55  1  0.03365754  0.38559998  0.33135853  1
  Cr  Cr56  1  0.03365754  0.88559998  0.16864147  1
  Cr  Cr57  1  0.53365754  0.61440002  0.33135853  1
  Cr  Cr58  1  0.46634246  0.88559998  0.83135853  1
  Cr  Cr59  1  0.96634246  0.61440002  0.66864147  1
  Tl  Tl60  1  0.60273918  0.74625173  0.59262305  1
  Tl  Tl61  1  0.10273918  0.75374827  0.90737695  1
  Tl  Tl62  1  0.89726082  0.74625173  0.40737695  1
  Tl  Tl63  1  0.39726082  0.75374827  0.09262305  1
  Tl  Tl64  1  0.39726082  0.25374827  0.40737695  1
  Tl  Tl65  1  0.89726082  0.24625173  0.09262305  1
  Tl  Tl66  1  0.10273918  0.25374827  0.59262305  1
  Tl  Tl67  1  0.60273918  0.24625173  0.90737695  1
