# generated using pymatgen
data_Sb2IBr2F11
_symmetry_space_group_name_H-M   'P 1'
_cell_length_a   12.86802135
_cell_length_b   14.46686661
_cell_length_c   14.77406872
_cell_angle_alpha   90.00000000
_cell_angle_beta   90.00000000
_cell_angle_gamma   90.00000000
_symmetry_Int_Tables_number   1
_chemical_formula_structural   Sb2IBr2F11
_chemical_formula_sum   'Sb16 I8 Br16 F88'
_cell_volume   2750.33987065
_cell_formula_units_Z   8
loop_
 _symmetry_equiv_pos_site_id
 _symmetry_equiv_pos_as_xyz
  1  'x, y, z'
loop_
 _atom_site_type_symbol
 _atom_site_label
 _atom_site_symmetry_multiplicity
 _atom_site_fract_x
 _atom_site_fract_y
 _atom_site_fract_z
 _atom_site_occupancy
  Sb  Sb0  1  0.71200703  0.08476414  0.83503993  1
  Sb  Sb1  1  0.17480643  0.08545033  0.44878024  1
  Sb  Sb2  1  0.21200703  0.91523586  0.66496007  1
  Sb  Sb3  1  0.32519357  0.08545033  0.94878024  1
  Sb  Sb4  1  0.67480643  0.41454967  0.44878024  1
  Sb  Sb5  1  0.71200703  0.58476414  0.66496007  1
  Sb  Sb6  1  0.17480643  0.58545033  0.05121976  1
  Sb  Sb7  1  0.78799297  0.08476414  0.33503993  1
  Sb  Sb8  1  0.67480643  0.91454967  0.05121976  1
  Sb  Sb9  1  0.28799297  0.91523586  0.16496007  1
  Sb  Sb10  1  0.82519357  0.91454967  0.55121976  1
  Sb  Sb11  1  0.28799297  0.41523586  0.33503993  1
  Sb  Sb12  1  0.21200703  0.41523586  0.83503993  1
  Sb  Sb13  1  0.82519357  0.41454967  0.94878024  1
  Sb  Sb14  1  0.32519357  0.58545033  0.55121976  1
  Sb  Sb15  1  0.78799297  0.58476414  0.16496007  1
  I  I16  1  0.59790099  0.76171646  0.36074017  1
  I  I17  1  0.40209901  0.23828354  0.63925983  1
  I  I18  1  0.59790099  0.26171646  0.13925983  1
  I  I19  1  0.40209901  0.73828354  0.86074017  1
  I  I20  1  0.09790099  0.73828354  0.36074017  1
  I  I21  1  0.90209901  0.26171646  0.63925983  1
  I  I22  1  0.90209901  0.76171646  0.86074017  1
  I  I23  1  0.09790099  0.23828354  0.13925983  1
  Br  Br24  1  0.46916002  0.17972133  0.23299836  1
  Br  Br25  1  0.53083998  0.82027867  0.76700164  1
  Br  Br26  1  0.98242196  0.64030284  0.45280314  1
  Br  Br27  1  0.53083998  0.32027867  0.73299836  1
  Br  Br28  1  0.01757804  0.85969716  0.95280314  1
  Br  Br29  1  0.03083998  0.17972133  0.73299836  1
  Br  Br30  1  0.01757804  0.35969716  0.54719686  1
  Br  Br31  1  0.51757804  0.64030284  0.95280314  1
  Br  Br32  1  0.46916002  0.67972133  0.26700164  1
  Br  Br33  1  0.96916002  0.82027867  0.26700164  1
  Br  Br34  1  0.03083998  0.67972133  0.76700164  1
  Br  Br35  1  0.48242196  0.35969716  0.04719686  1
  Br  Br36  1  0.48242196  0.85969716  0.45280314  1
  Br  Br37  1  0.51757804  0.14030284  0.54719686  1
  Br  Br38  1  0.96916002  0.32027867  0.23299836  1
  Br  Br39  1  0.98242196  0.14030284  0.04719686  1
  F  F40  1  0.31092095  0.03846959  0.42869299  1
  F  F41  1  0.92434888  0.57453506  0.21274380  1
  F  F42  1  0.84564414  0.58750340  0.60922224  1
  F  F43  1  0.68907905  0.96153041  0.57130701  1
  F  F44  1  0.32968389  0.31167698  0.40481915  1
  F  F45  1  0.81092095  0.96153041  0.07130701  1
  F  F46  1  0.95812801  0.87507473  0.51155881  1
  F  F47  1  0.17031611  0.31167698  0.90481915  1
  F  F48  1  0.74188030  0.65752523  0.26653461  1
  F  F49  1  0.75811970  0.65752523  0.76653461  1
  F  F50  1  0.82101326  0.32828134  0.85245945  1
  F  F51  1  0.88320490  0.01255718  0.61960511  1
  F  F52  1  0.45812801  0.62492527  0.51155881  1
  F  F53  1  0.65435586  0.08750340  0.39077776  1
  F  F54  1  0.73547223  0.83185593  0.96280257  1
  F  F55  1  0.25811970  0.34247477  0.73346539  1
  F  F56  1  0.25362077  0.53116385  0.28249185  1
  F  F57  1  0.04187199  0.62492527  0.01155881  1
  F  F58  1  0.34564414  0.41249660  0.89077776  1
  F  F59  1  0.24637923  0.03116385  0.71750815  1
  F  F60  1  0.75362077  0.96883615  0.28249185  1
  F  F61  1  0.25362077  0.03116385  0.21750815  1
  F  F62  1  0.67031611  0.18832302  0.90481915  1
  F  F63  1  0.42434888  0.42546494  0.28725620  1
  F  F64  1  0.74188030  0.15752523  0.23346539  1
  F  F65  1  0.23547223  0.66814407  0.96280257  1
  F  F66  1  0.57565112  0.57453506  0.71274380  1
  F  F67  1  0.75362077  0.46883615  0.21750815  1
  F  F68  1  0.61679510  0.51255718  0.38039489  1
  F  F69  1  0.65435586  0.58750340  0.10922224  1
  F  F70  1  0.74637923  0.96883615  0.78249185  1
  F  F71  1  0.18907905  0.03846959  0.92869299  1
  F  F72  1  0.24188030  0.84247477  0.26653461  1
  F  F73  1  0.82968389  0.68832302  0.09518085  1
  F  F74  1  0.75811970  0.15752523  0.73346539  1
  F  F75  1  0.38320490  0.48744282  0.61960511  1
  F  F76  1  0.17898674  0.67171866  0.14754055  1
  F  F77  1  0.82101326  0.82828134  0.64754055  1
  F  F78  1  0.16310023  0.49233990  0.94438658  1
  F  F79  1  0.81092095  0.46153041  0.42869299  1
  F  F80  1  0.04187199  0.12492527  0.48844119  1
  F  F81  1  0.16310023  0.99233990  0.55561342  1
  F  F82  1  0.23547223  0.16814407  0.53719743  1
  F  F83  1  0.73547223  0.33185593  0.53719743  1
  F  F84  1  0.82968389  0.18832302  0.40481915  1
  F  F85  1  0.32968389  0.81167698  0.09518085  1
  F  F86  1  0.26452777  0.66814407  0.46280257  1
  F  F87  1  0.18907905  0.53846959  0.57130701  1
  F  F88  1  0.17031611  0.81167698  0.59518085  1
  F  F89  1  0.83689977  0.50766010  0.05561342  1
  F  F90  1  0.61679510  0.01255718  0.11960511  1
  F  F91  1  0.24188030  0.34247477  0.23346539  1
  F  F92  1  0.17898674  0.17171866  0.35245945  1
  F  F93  1  0.42434888  0.92546494  0.21274380  1
  F  F94  1  0.83689977  0.00766010  0.44438658  1
  F  F95  1  0.33689977  0.49233990  0.44438658  1
  F  F96  1  0.07565112  0.42546494  0.78725620  1
  F  F97  1  0.26452777  0.16814407  0.03719743  1
  F  F98  1  0.67031611  0.68832302  0.59518085  1
  F  F99  1  0.68907905  0.46153041  0.92869299  1
  F  F100  1  0.66310023  0.50766010  0.55561342  1
  F  F101  1  0.84564414  0.08750340  0.89077776  1
  F  F102  1  0.32101326  0.17171866  0.85245945  1
  F  F103  1  0.15435586  0.41249660  0.39077776  1
  F  F104  1  0.32101326  0.67171866  0.64754055  1
  F  F105  1  0.92434888  0.07453506  0.28725620  1
  F  F106  1  0.76452777  0.33185593  0.03719743  1
  F  F107  1  0.95812801  0.37507473  0.98844119  1
  F  F108  1  0.76452777  0.83185593  0.46280257  1
  F  F109  1  0.24637923  0.53116385  0.78249185  1
  F  F110  1  0.57565112  0.07453506  0.78725620  1
  F  F111  1  0.45812801  0.12492527  0.98844119  1
  F  F112  1  0.33689977  0.99233990  0.05561342  1
  F  F113  1  0.38320490  0.98744282  0.88039489  1
  F  F114  1  0.34564414  0.91249660  0.60922224  1
  F  F115  1  0.31092095  0.53846959  0.07130701  1
  F  F116  1  0.67898674  0.32828134  0.35245945  1
  F  F117  1  0.54187199  0.87507473  0.01155881  1
  F  F118  1  0.74637923  0.46883615  0.71750815  1
  F  F119  1  0.15435586  0.91249660  0.10922224  1
  F  F120  1  0.11679510  0.48744282  0.11960511  1
  F  F121  1  0.67898674  0.82828134  0.14754055  1
  F  F122  1  0.11679510  0.98744282  0.38039489  1
  F  F123  1  0.07565112  0.92546494  0.71274380  1
  F  F124  1  0.66310023  0.00766010  0.94438658  1
  F  F125  1  0.54187199  0.37507473  0.48844119  1
  F  F126  1  0.25811970  0.84247477  0.76653461  1
  F  F127  1  0.88320490  0.51255718  0.88039489  1
