# generated using pymatgen
data_NaAlAs2O7
_symmetry_space_group_name_H-M   'P 1'
_cell_length_a   7.03349242
_cell_length_b   8.28355622
_cell_length_c   9.70021394
_cell_angle_alpha   90.00000000
_cell_angle_beta   107.72566074
_cell_angle_gamma   90.00000000
_symmetry_Int_Tables_number   1
_chemical_formula_structural   NaAlAs2O7
_chemical_formula_sum   'Na4 Al4 As8 O28'
_cell_volume   538.32635730
_cell_formula_units_Z   4
loop_
 _symmetry_equiv_pos_site_id
 _symmetry_equiv_pos_as_xyz
  1  'x, y, z'
loop_
 _atom_site_type_symbol
 _atom_site_label
 _atom_site_symmetry_multiplicity
 _atom_site_fract_x
 _atom_site_fract_y
 _atom_site_fract_z
 _atom_site_occupancy
  Na  Na0  1  0.19370543  0.86126330  0.52883702  1
  Na  Na1  1  0.19370543  0.63873670  0.02883702  1
  Na  Na2  1  0.80629457  0.13873670  0.47116298  1
  Na  Na3  1  0.80629457  0.36126330  0.97116298  1
  Al  Al4  1  0.72045117  0.72457648  0.50595919  1
  Al  Al5  1  0.27954883  0.27542352  0.49404081  1
  Al  Al6  1  0.27954883  0.22457648  0.99404081  1
  Al  Al7  1  0.72045117  0.77542352  0.00595919  1
  As  As8  1  0.94246737  0.96318971  0.79827298  1
  As  As9  1  0.94246737  0.53681029  0.29827298  1
  As  As10  1  0.05753263  0.03681029  0.20172702  1
  As  As11  1  0.48600182  0.58756167  0.70803028  1
  As  As12  1  0.51399818  0.08756167  0.79196972  1
  As  As13  1  0.05753263  0.46318971  0.70172702  1
  As  As14  1  0.51399818  0.41243833  0.29196972  1
  As  As15  1  0.48600182  0.91243833  0.20803028  1
  O  O16  1  0.46776504  0.09821486  0.13460756  1
  O  O17  1  0.09867234  0.10643176  0.37453518  1
  O  O18  1  0.23231153  0.62564773  0.71283015  1
  O  O19  1  0.37366141  0.40819134  0.11505800  1
  O  O20  1  0.47894987  0.24353580  0.89753732  1
  O  O21  1  0.52105013  0.74353580  0.60246268  1
  O  O22  1  0.76768847  0.12564773  0.78716985  1
  O  O23  1  0.92724708  0.68429203  0.41711151  1
  O  O24  1  0.62633859  0.90819134  0.38494200  1
  O  O25  1  0.90132766  0.60643176  0.12546482  1
  O  O26  1  0.52105013  0.75646420  0.10246268  1
  O  O27  1  0.76768847  0.37435227  0.28716985  1
  O  O28  1  0.07275292  0.31570797  0.58288849  1
  O  O29  1  0.07275292  0.18429203  0.08288849  1
  O  O30  1  0.16636152  0.44149557  0.35341912  1
  O  O31  1  0.92724708  0.81570797  0.91711151  1
  O  O32  1  0.09867234  0.39356824  0.87453518  1
  O  O33  1  0.23231153  0.87435227  0.21283015  1
  O  O34  1  0.83363848  0.55850443  0.64658088  1
  O  O35  1  0.37366141  0.09180866  0.61505800  1
  O  O36  1  0.53223496  0.90178514  0.86539244  1
  O  O37  1  0.16636152  0.05850443  0.85341912  1
  O  O38  1  0.83363848  0.94149557  0.14658088  1
  O  O39  1  0.90132766  0.89356824  0.62546482  1
  O  O40  1  0.46776504  0.40178514  0.63460756  1
  O  O41  1  0.62633859  0.59180866  0.88494200  1
  O  O42  1  0.47894987  0.25646420  0.39753732  1
  O  O43  1  0.53223496  0.59821486  0.36539244  1
