# generated using pymatgen
data_Sr2AlGaCu2O7
_symmetry_space_group_name_H-M   'P 1'
_cell_length_a   5.29360871
_cell_length_b   5.40796630
_cell_length_c   12.19095257
_cell_angle_alpha   102.79858578
_cell_angle_beta   102.69494553
_cell_angle_gamma   89.91570626
_symmetry_Int_Tables_number   1
_chemical_formula_structural   Sr2AlGaCu2O7
_chemical_formula_sum   'Sr4 Al2 Ga2 Cu4 O14'
_cell_volume   331.59872452
_cell_formula_units_Z   2
loop_
 _symmetry_equiv_pos_site_id
 _symmetry_equiv_pos_as_xyz
  1  'x, y, z'
loop_
 _atom_site_type_symbol
 _atom_site_label
 _atom_site_symmetry_multiplicity
 _atom_site_fract_x
 _atom_site_fract_y
 _atom_site_fract_z
 _atom_site_occupancy
  Sr  Sr0  1  0.15193813  0.16393949  0.29986578  1
  Sr  Sr1  1  0.86088376  0.82998209  0.70009898  1
  Sr  Sr2  1  0.65119611  0.63285203  0.30005105  1
  Sr  Sr3  1  0.35984688  0.36437472  0.69982308  1
  Al  Al4  1  0.48641981  0.50864100  0.99942898  1
  Al  Al5  1  0.99265669  0.99043833  -0.00004158  1
  Ga  Ga6  1  0.21025746  0.81870664  0.50001821  1
  Ga  Ga7  1  0.71084205  0.17737570  0.50005268  1
  Cu  Cu8  1  0.44615659  0.94477574  0.88391266  1
  Cu  Cu9  1  0.05017566  0.55816085  0.11598577  1
  Cu  Cu10  1  0.94423517  0.43274812  0.88431114  1
  Cu  Cu11  1  0.55174714  0.05810859  0.11571808  1
  O  O12  1  0.72259133  0.37378330  0.10247136  1
  O  O13  1  0.85119659  0.85404132  0.50018637  1
  O  O14  1  0.22431926  0.23045135  0.10344238  1
  O  O15  1  0.85066897  0.35655523  0.64988729  1
  O  O16  1  0.77805600  0.11051773  0.88651313  1
  O  O17  1  0.27556357  0.26945266  0.88705328  1
  O  O18  1  0.35176370  0.14140684  0.49987194  1
  O  O19  1  0.13755126  0.76011013  0.89867566  1
  O  O20  1  0.63500146  0.62809286  0.89677009  1
  O  O21  1  0.34981778  0.78970366  0.65020325  1
  O  O22  1  0.19524189  0.63930759  0.34993491  1
  O  O23  1  0.69698689  0.20742337  0.35004010  1
  O  O24  1  0.87696050  0.88210793  0.11285419  1
  O  O25  1  0.37704536  0.73202574  0.11417622  1
