# generated using pymatgen
data_Na2Zn5(PO4)4
_symmetry_space_group_name_H-M   'P 1'
_cell_length_a   8.63336688
_cell_length_b   10.54917093
_cell_length_c   16.79497883
_cell_angle_alpha   90.00000000
_cell_angle_beta   90.00000000
_cell_angle_gamma   90.00000000
_symmetry_Int_Tables_number   1
_chemical_formula_structural   Na2Zn5(PO4)4
_chemical_formula_sum   'Na8 Zn20 P16 O64'
_cell_volume   1529.60039466
_cell_formula_units_Z   4
loop_
 _symmetry_equiv_pos_site_id
 _symmetry_equiv_pos_as_xyz
  1  'x, y, z'
loop_
 _atom_site_type_symbol
 _atom_site_label
 _atom_site_symmetry_multiplicity
 _atom_site_fract_x
 _atom_site_fract_y
 _atom_site_fract_z
 _atom_site_occupancy
  Na  Na0  1  0.76231484  0.33336246  0.70448617  1
  Na  Na1  1  0.73768516  0.16663754  0.20448617  1
  Na  Na2  1  0.76231484  0.66663754  0.79551383  1
  Na  Na3  1  0.73768516  0.83336246  0.29551383  1
  Na  Na4  1  0.26231484  0.16663754  0.70448617  1
  Na  Na5  1  0.26231484  0.83336246  0.79551383  1
  Na  Na6  1  0.23768516  0.66663754  0.29551383  1
  Na  Na7  1  0.23768516  0.33336246  0.20448617  1
  Zn  Zn8  1  0.61177799  0.65975443  0.57918955  1
  Zn  Zn9  1  0.42093363  0.16469618  0.05368856  1
  Zn  Zn10  1  0.61177799  0.34024557  0.92081045  1
  Zn  Zn11  1  0.07906637  0.33530382  0.55368856  1
  Zn  Zn12  1  0.07906637  0.66469618  0.94631144  1
  Zn  Zn13  1  0.19513314  0.50000000  0.75000000  1
  Zn  Zn14  1  0.38822201  0.65975443  0.07918955  1
  Zn  Zn15  1  0.42093363  0.83530382  0.44631144  1
  Zn  Zn16  1  0.57906637  0.83530382  0.94631144  1
  Zn  Zn17  1  0.30486686  0.00000000  0.25000000  1
  Zn  Zn18  1  0.69513314  0.00000000  0.75000000  1
  Zn  Zn19  1  0.88822201  0.15975443  0.42081045  1
  Zn  Zn20  1  0.92093363  0.66469618  0.44631144  1
  Zn  Zn21  1  0.92093363  0.33530382  0.05368856  1
  Zn  Zn22  1  0.57906637  0.16469618  0.55368856  1
  Zn  Zn23  1  0.80486686  0.50000000  0.25000000  1
  Zn  Zn24  1  0.11177799  0.84024557  0.57918955  1
  Zn  Zn25  1  0.38822201  0.34024557  0.42081045  1
  Zn  Zn26  1  0.88822201  0.84024557  0.07918955  1
  Zn  Zn27  1  0.11177799  0.15975443  0.92081045  1
  P  P28  1  0.44575567  0.09385651  0.86710101  1
  P  P29  1  0.55424433  0.90614349  0.13289899  1
  P  P30  1  0.05424433  0.59385651  0.13289899  1
  P  P31  1  0.55424433  0.09385651  0.36710101  1
  P  P32  1  0.44575567  0.90614349  0.63289899  1
  P  P33  1  0.59470450  0.58880570  0.39374436  1
  P  P34  1  0.94575567  0.59385651  0.63289899  1
  P  P35  1  0.09470450  0.08880570  0.10625564  1
  P  P36  1  0.90529550  0.91119430  0.89374436  1
  P  P37  1  0.59470450  0.41119430  0.10625564  1
  P  P38  1  0.94575567  0.40614349  0.86710101  1
  P  P39  1  0.40529550  0.58880570  0.89374436  1
  P  P40  1  0.05424433  0.40614349  0.36710101  1
  P  P41  1  0.40529550  0.41119430  0.60625564  1
  P  P42  1  0.90529550  0.08880570  0.60625564  1
  P  P43  1  0.09470450  0.91119430  0.39374436  1
  O  O44  1  0.55645286  0.33168233  0.60606591  1
  O  O45  1  0.80536634  0.87971025  0.81951393  1
  O  O46  1  0.44354714  0.33168233  0.10606591  1
  O  O47  1  0.00191680  0.32601145  0.94136816  1
  O  O48  1  0.22319355  0.63077276  0.15598971  1
  O  O49  1  0.80536634  0.12028975  0.68048607  1
  O  O50  1  0.06441564  0.05346365  0.39778591  1
  O  O51  1  0.55372913  0.95085073  0.38753516  1
  O  O52  1  0.27680645  0.13077276  0.84401029  1
  O  O53  1  0.43558436  0.44653635  0.89778591  1
  O  O54  1  0.00191680  0.67398855  0.55863184  1
  O  O55  1  0.99808320  0.67398855  0.05863184  1
  O  O56  1  0.55372913  0.04914927  0.11246484  1
  O  O57  1  0.44627087  0.04914927  0.61246484  1
  O  O58  1  0.49808320  0.82601145  0.05863184  1
  O  O59  1  0.80332935  0.13296647  0.53198085  1
  O  O60  1  0.44627087  0.95085073  0.88753516  1
  O  O61  1  0.93558436  0.05346365  0.89778591  1
  O  O62  1  0.55222957  0.87266878  0.70310886  1
  O  O63  1  0.43558436  0.55346365  0.60221409  1
  O  O64  1  0.72319355  0.86922724  0.15598971  1
  O  O65  1  0.30332935  0.63296647  0.96801915  1
  O  O66  1  0.49808320  0.17398855  0.44136816  1
  O  O67  1  0.94627087  0.54914927  0.88753516  1
  O  O68  1  0.05372913  0.54914927  0.38753516  1
  O  O69  1  0.94354714  0.16831767  0.10606591  1
  O  O70  1  0.94777043  0.62733122  0.20310886  1
  O  O71  1  0.99808320  0.32601145  0.44136816  1
  O  O72  1  0.30536634  0.37971025  0.68048607  1
  O  O73  1  0.30332935  0.36703353  0.53198085  1
  O  O74  1  0.05222957  0.37266878  0.79689114  1
  O  O75  1  0.69463366  0.62028975  0.31951393  1
  O  O76  1  0.44354714  0.66831767  0.39393409  1
  O  O77  1  0.80332935  0.86703353  0.96801915  1
  O  O78  1  0.44777043  0.87266878  0.20310886  1
  O  O79  1  0.05222957  0.62733122  0.70310886  1
  O  O80  1  0.69667065  0.63296647  0.46801915  1
  O  O81  1  0.19667065  0.13296647  0.03198085  1
  O  O82  1  0.56441564  0.44653635  0.39778591  1
  O  O83  1  0.72319355  0.13077276  0.34401029  1
  O  O84  1  0.93558436  0.94653635  0.60221409  1
  O  O85  1  0.19667065  0.86703353  0.46801915  1
  O  O86  1  0.05645286  0.83168233  0.89393409  1
  O  O87  1  0.94777043  0.37266878  0.29689114  1
  O  O88  1  0.56441564  0.55346365  0.10221409  1
  O  O89  1  0.69667065  0.36703353  0.03198085  1
  O  O90  1  0.50191680  0.17398855  0.94136816  1
  O  O91  1  0.05372913  0.45085073  0.11246484  1
  O  O92  1  0.77680645  0.63077276  0.65598971  1
  O  O93  1  0.05645286  0.16831767  0.60606591  1
  O  O94  1  0.22319355  0.36922724  0.34401029  1
  O  O95  1  0.94627087  0.45085073  0.61246484  1
  O  O96  1  0.55645286  0.66831767  0.89393409  1
  O  O97  1  0.69463366  0.37971025  0.18048607  1
  O  O98  1  0.19463366  0.12028975  0.18048607  1
  O  O99  1  0.94354714  0.83168233  0.39393409  1
  O  O100  1  0.77680645  0.36922724  0.84401029  1
  O  O101  1  0.50191680  0.82601145  0.55863184  1
  O  O102  1  0.19463366  0.87971025  0.31951393  1
  O  O103  1  0.44777043  0.12733122  0.29689114  1
  O  O104  1  0.30536634  0.62028975  0.81951393  1
  O  O105  1  0.55222957  0.12733122  0.79689114  1
  O  O106  1  0.06441564  0.94653635  0.10221409  1
  O  O107  1  0.27680645  0.86922724  0.65598971  1
