# generated using pymatgen
data_Na5Y(CO3)4
_symmetry_space_group_name_H-M   'P 1'
_cell_length_a   8.87630620
_cell_length_b   10.20851696
_cell_length_c   12.36584079
_cell_angle_alpha   90.00000000
_cell_angle_beta   90.26813303
_cell_angle_gamma   90.00000000
_symmetry_Int_Tables_number   1
_chemical_formula_structural   Na5Y(CO3)4
_chemical_formula_sum   'Na20 Y4 C16 O48'
_cell_volume   1120.50506779
_cell_formula_units_Z   4
loop_
 _symmetry_equiv_pos_site_id
 _symmetry_equiv_pos_as_xyz
  1  'x, y, z'
loop_
 _atom_site_type_symbol
 _atom_site_label
 _atom_site_symmetry_multiplicity
 _atom_site_fract_x
 _atom_site_fract_y
 _atom_site_fract_z
 _atom_site_occupancy
  Na  Na0  1  0.54666095  0.62553847  0.07461618  1
  Na  Na1  1  0.80451235  0.37430741  0.78842811  1
  Na  Na2  1  0.01297863  0.82311901  0.36549716  1
  Na  Na3  1  0.42323419  0.92028376  0.59870738  1
  Na  Na4  1  0.41554524  0.87299448  0.89488059  1
  Na  Na5  1  0.30451235  0.12569259  0.78842811  1
  Na  Na6  1  0.57676581  0.07971624  0.40129262  1
  Na  Na7  1  0.69548765  0.87430741  0.21157189  1
  Na  Na8  1  0.91554524  0.62700552  0.89488059  1
  Na  Na9  1  0.51297863  0.67688099  0.36549716  1
  Na  Na10  1  0.95333905  0.12553847  0.92538382  1
  Na  Na11  1  0.58445476  0.12700552  0.10511941  1
  Na  Na12  1  0.92323419  0.57971624  0.59870738  1
  Na  Na13  1  0.07676581  0.42028376  0.40129262  1
  Na  Na14  1  0.04666095  0.87446153  0.07461618  1
  Na  Na15  1  0.98702137  0.17688099  0.63450284  1
  Na  Na16  1  0.19548765  0.62569259  0.21157189  1
  Na  Na17  1  0.48702137  0.32311901  0.63450284  1
  Na  Na18  1  0.45333905  0.37446153  0.92538382  1
  Na  Na19  1  0.08445476  0.37299448  0.10511941  1
  Y  Y20  1  0.71464941  0.37630204  0.27639708  1
  Y  Y21  1  0.28535059  0.62369796  0.72360292  1
  Y  Y22  1  0.21464941  0.12369796  0.27639708  1
  Y  Y23  1  0.78535059  0.87630204  0.72360292  1
  C  C24  1  0.73802178  0.86576994  0.49626382  1
  C  C25  1  0.76197822  0.36576994  0.50373618  1
  C  C26  1  0.85731789  0.61841908  0.21830646  1
  C  C27  1  0.75527183  0.39152857  0.01321074  1
  C  C28  1  0.11148571  0.86632788  0.72227858  1
  C  C29  1  0.88851429  0.13367212  0.27772142  1
  C  C30  1  0.26197822  0.13423006  0.50373618  1
  C  C31  1  0.23802178  0.63423006  0.49626382  1
  C  C32  1  0.61148571  0.63367212  0.72227858  1
  C  C33  1  0.14268211  0.38158092  0.78169354  1
  C  C34  1  0.25527183  0.10847143  0.01321074  1
  C  C35  1  0.38851429  0.36632788  0.27772142  1
  C  C36  1  0.64268211  0.11841908  0.78169354  1
  C  C37  1  0.74472817  0.89152857  0.98678926  1
  C  C38  1  0.35731789  0.88158092  0.21830646  1
  C  C39  1  0.24472817  0.60847143  0.98678926  1
  O  O40  1  0.61991174  0.83669755  0.01312836  1
  O  O41  1  0.82387279  0.84754048  0.90391404  1
  O  O42  1  0.32387279  0.65245952  0.90391404  1
  O  O43  1  0.25645417  0.86800097  0.73150389  1
  O  O44  1  0.54293096  0.74694544  0.72881327  1
  O  O45  1  0.04293096  0.75305456  0.72881327  1
  O  O46  1  0.43591493  0.98982678  0.22281971  1
  O  O47  1  0.65049674  0.29899768  0.46196219  1
  O  O48  1  0.24354583  0.36800097  0.26849611  1
  O  O49  1  0.79916215  0.98855682  0.04249846  1
  O  O50  1  0.29916215  0.51144318  0.04249846  1
  O  O51  1  0.06408507  0.48982678  0.77718029  1
  O  O52  1  0.03189516  0.97021873  0.70690587  1
  O  O53  1  0.31116578  0.15177612  0.59986091  1
  O  O54  1  0.81116578  0.34822388  0.59986091  1
  O  O55  1  0.84950326  0.79899768  0.53803781  1
  O  O56  1  0.34950326  0.70100232  0.53803781  1
  O  O57  1  0.74354583  0.13199903  0.26849611  1
  O  O58  1  0.28895203  0.39425046  0.77087359  1
  O  O59  1  0.20083785  0.01144318  0.95750154  1
  O  O60  1  0.67627242  0.95481161  0.55964106  1
  O  O61  1  0.93591493  0.51017322  0.22281971  1
  O  O62  1  0.53189516  0.52978127  0.70690587  1
  O  O63  1  0.15049674  0.20100232  0.46196219  1
  O  O64  1  0.91855392  0.73096583  0.20603997  1
  O  O65  1  0.58144608  0.23096583  0.79396003  1
  O  O66  1  0.32372758  0.04518839  0.44035894  1
  O  O67  1  0.11991174  0.66330245  0.01312836  1
  O  O68  1  0.70083785  0.48855682  0.95750154  1
  O  O69  1  0.17612721  0.15245952  0.09608596  1
  O  O70  1  0.68883422  0.84822388  0.40013909  1
  O  O71  1  0.21104797  0.89425046  0.22912641  1
  O  O72  1  0.41855392  0.76903417  0.20603997  1
  O  O73  1  0.96810484  0.02978127  0.29309413  1
  O  O74  1  0.75645417  0.63199903  0.73150389  1
  O  O75  1  0.38008826  0.16330245  0.98687164  1
  O  O76  1  0.56408507  0.01017322  0.77718029  1
  O  O77  1  0.18883422  0.65177612  0.40013909  1
  O  O78  1  0.67612721  0.34754048  0.09608596  1
  O  O79  1  0.71104797  0.60574954  0.22912641  1
  O  O80  1  0.08144608  0.26903417  0.79396003  1
  O  O81  1  0.82372758  0.45481161  0.44035894  1
  O  O82  1  0.46810484  0.47021873  0.29309413  1
  O  O83  1  0.45706904  0.25305456  0.27118673  1
  O  O84  1  0.17627242  0.54518839  0.55964106  1
  O  O85  1  0.88008826  0.33669755  0.98687164  1
  O  O86  1  0.95706904  0.24694544  0.27118673  1
  O  O87  1  0.78895203  0.10574954  0.77087359  1
