# generated using pymatgen
data_MoSeS2Cl5
_symmetry_space_group_name_H-M   'P 1'
_cell_length_a   9.79180550
_cell_length_b   10.14954736
_cell_length_c   13.82138302
_cell_angle_alpha   70.92138477
_cell_angle_beta   69.28095410
_cell_angle_gamma   61.16638820
_symmetry_Int_Tables_number   1
_chemical_formula_structural   MoSeS2Cl5
_chemical_formula_sum   'Mo4 Se4 S8 Cl20'
_cell_volume   1104.83369858
_cell_formula_units_Z   4
loop_
 _symmetry_equiv_pos_site_id
 _symmetry_equiv_pos_as_xyz
  1  'x, y, z'
loop_
 _atom_site_type_symbol
 _atom_site_label
 _atom_site_symmetry_multiplicity
 _atom_site_fract_x
 _atom_site_fract_y
 _atom_site_fract_z
 _atom_site_occupancy
  Mo  Mo0  1  0.76048516  0.58905694  0.26235308  1
  Mo  Mo1  1  0.23951484  0.41094306  0.73764692  1
  Mo  Mo2  1  0.38797185  0.08900040  0.76233493  1
  Mo  Mo3  1  0.61202815  0.91099960  0.23766507  1
  Se  Se4  1  0.92508607  0.56539680  0.73757562  1
  Se  Se5  1  0.07491393  0.43460320  0.26242438  1
  Se  Se6  1  0.77236104  0.06522394  0.23766226  1
  Se  Se7  1  0.22763896  0.93477606  0.76233774  1
  S  S8  1  0.74892061  0.73497112  0.37706635  1
  S  S9  1  0.13911001  0.23503489  0.87698817  1
  S  S10  1  0.25107939  0.26502888  0.62293365  1
  S  S11  1  0.46133729  0.26825132  0.60900608  1
  S  S12  1  0.33872446  0.23158505  0.89102488  1
  S  S13  1  0.86088999  0.76496511  0.12301183  1
  S  S14  1  0.53866271  0.73174868  0.39099392  1
  S  S15  1  0.66127554  0.76841495  0.10897512  1
  Cl  Cl16  1  0.65780297  0.00548933  0.77483605  1
  Cl  Cl17  1  0.85576011  0.98585385  0.38668135  1
  Cl  Cl18  1  0.86804948  0.47620988  0.63481766  1
  Cl  Cl19  1  0.52100598  0.89369350  0.65053329  1
  Cl  Cl20  1  0.37976876  0.87112978  0.90931544  1
  Cl  Cl21  1  0.93444083  0.39369722  0.15052364  1
  Cl  Cl22  1  0.13195052  0.52379012  0.36518234  1
  Cl  Cl23  1  0.34219703  0.99451067  0.22516395  1
  Cl  Cl24  1  0.56172433  0.50562586  0.27471771  1
  Cl  Cl25  1  0.22802348  0.51384953  0.11346523  1
  Cl  Cl26  1  0.77197652  0.48615047  0.88653477  1
  Cl  Cl27  1  0.06555917  0.60630278  0.84947636  1
  Cl  Cl28  1  0.14423989  0.01414615  0.61331865  1
  Cl  Cl29  1  0.16038877  0.62886601  0.59063955  1
  Cl  Cl30  1  0.62023124  0.12887022  0.09068456  1
  Cl  Cl31  1  0.47899402  0.10630650  0.34946671  1
  Cl  Cl32  1  0.83961123  0.37113399  0.40936045  1
  Cl  Cl33  1  0.97885919  0.02390522  0.86512267  1
  Cl  Cl34  1  0.02114081  0.97609478  0.13487733  1
  Cl  Cl35  1  0.43827567  0.49437414  0.72528229  1
