# generated using pymatgen
data_CdHg2SO6
_symmetry_space_group_name_H-M   'P 1'
_cell_length_a   6.88530849
_cell_length_b   7.37493793
_cell_length_c   7.57599541
_cell_angle_alpha   73.02816674
_cell_angle_beta   66.89294223
_cell_angle_gamma   63.57784710
_symmetry_Int_Tables_number   1
_chemical_formula_structural   CdHg2SO6
_chemical_formula_sum   'Cd2 Hg4 S2 O12'
_cell_volume   313.64656263
_cell_formula_units_Z   2
loop_
 _symmetry_equiv_pos_site_id
 _symmetry_equiv_pos_as_xyz
  1  'x, y, z'
loop_
 _atom_site_type_symbol
 _atom_site_label
 _atom_site_symmetry_multiplicity
 _atom_site_fract_x
 _atom_site_fract_y
 _atom_site_fract_z
 _atom_site_occupancy
  Cd  Cd0  1  0.66905346  0.87023620  0.77557744  1
  Cd  Cd1  1  0.33094654  0.12976380  0.22442256  1
  Hg  Hg2  1  0.15746885  0.35971721  0.78304740  1
  Hg  Hg3  1  0.34077362  0.63649970  0.21755851  1
  Hg  Hg4  1  0.65922638  0.36350030  0.78244149  1
  Hg  Hg5  1  0.84253115  0.64028279  0.21695260  1
  S  S6  1  0.20763143  0.86442324  0.69487931  1
  S  S7  1  0.79236857  0.13557676  0.30512069  1
  O  O8  1  0.03063457  0.11126276  0.17762688  1
  O  O9  1  0.96936543  0.88873724  0.82237312  1
  O  O10  1  0.54868912  0.80163309  0.13619065  1
  O  O11  1  0.34138185  0.82507001  0.82721211  1
  O  O12  1  0.45131088  0.19836691  0.86380935  1
  O  O13  1  0.79593450  0.93921239  0.43832091  1
  O  O14  1  0.85052445  0.53126265  0.73314665  1
  O  O15  1  0.20406550  0.06078761  0.56167909  1
  O  O16  1  0.14947555  0.46873735  0.26685335  1
  O  O17  1  0.69000958  0.30931465  0.41515862  1
  O  O18  1  0.30999042  0.69068535  0.58484138  1
  O  O19  1  0.65861815  0.17492999  0.17278789  1
