# generated using pymatgen
data_KTiPS5
_symmetry_space_group_name_H-M   'P 1'
_cell_length_a   6.57846728
_cell_length_b   7.17023685
_cell_length_c   9.68504049
_cell_angle_alpha   111.72614371
_cell_angle_beta   98.04526084
_cell_angle_gamma   90.00000367
_symmetry_Int_Tables_number   1
_chemical_formula_structural   KTiPS5
_chemical_formula_sum   'K2 Ti2 P2 S10'
_cell_volume   419.53954229
_cell_formula_units_Z   2
loop_
 _symmetry_equiv_pos_site_id
 _symmetry_equiv_pos_as_xyz
  1  'x, y, z'
loop_
 _atom_site_type_symbol
 _atom_site_label
 _atom_site_symmetry_multiplicity
 _atom_site_fract_x
 _atom_site_fract_y
 _atom_site_fract_z
 _atom_site_occupancy
  K  K0  1  0.73468208  0.23096627  0.46193253  1
  K  K1  1  0.26531792  0.76903373  0.53806747  1
  Ti  Ti2  1  0.50000000  0.77813827  1.00000000  1
  Ti  Ti3  1  0.50000000  0.22186173  0.00000000  1
  P  P4  1  0.70813839  0.63191935  0.26383870  1
  P  P5  1  0.29186161  0.36808065  0.73616130  1
  S  S6  1  0.17676966  0.64693784  0.82948863  1
  S  S7  1  0.24516927  0.25565530  0.51131059  1
  S  S8  1  0.82323034  0.35306216  0.17051137  1
  S  S9  1  0.39888596  0.58397991  0.16795982  1
  S  S10  1  0.82323034  0.81744921  0.17051137  1
  S  S11  1  0.33094739  0.06006326  0.12012652  1
  S  S12  1  0.66905261  0.93993674  0.87987348  1
  S  S13  1  0.60111404  0.41602009  0.83204018  1
  S  S14  1  0.17676966  0.18255079  0.82948863  1
  S  S15  1  0.75483073  0.74434470  0.48868941  1
