# generated using pymatgen
data_K3Sm(AsS4)2
_symmetry_space_group_name_H-M   'P 1'
_cell_length_a   9.06354008
_cell_length_b   10.25813603
_cell_length_c   10.97742022
_cell_angle_alpha   107.44116819
_cell_angle_beta   102.89919940
_cell_angle_gamma   113.93923694
_symmetry_Int_Tables_number   1
_chemical_formula_structural   K3Sm(AsS4)2
_chemical_formula_sum   'K6 Sm2 As4 S16'
_cell_volume   817.38218745
_cell_formula_units_Z   2
loop_
 _symmetry_equiv_pos_site_id
 _symmetry_equiv_pos_as_xyz
  1  'x, y, z'
loop_
 _atom_site_type_symbol
 _atom_site_label
 _atom_site_symmetry_multiplicity
 _atom_site_fract_x
 _atom_site_fract_y
 _atom_site_fract_z
 _atom_site_occupancy
  K  K0  1  0.25467528  0.00467528  0.00935055  1
  K  K1  1  0.48931036  0.73931036  0.47862071  1
  K  K2  1  0.50000000  0.50000000  0.00000000  1
  K  K3  1  0.51068964  0.26068964  0.52137929  1
  K  K4  1  0.74532472  0.99532472  0.99064945  1
  K  K5  1  0.00000000  0.50000000  0.00000000  1
  Sm  Sm6  1  0.99284133  0.24284133  0.48568265  1
  Sm  Sm7  1  0.00715867  0.75715867  0.51431735  1
  As  As8  1  0.99137381  0.09418481  0.75135112  1
  As  As9  1  0.74002269  0.34283369  0.24864888  1
  As  As10  1  0.25997731  0.65716631  0.75135112  1
  As  As11  1  0.00862619  0.90581519  0.24864888  1
  S  S12  1  0.36155096  0.73356865  0.97306645  1
  S  S13  1  0.13637567  0.15720652  0.29013385  1
  S  S14  1  0.34775195  0.50331919  0.64390047  1
  S  S15  1  0.88848452  0.76050220  0.02693355  1
  S  S16  1  0.34624182  0.86707268  0.70986615  1
  S  S17  1  0.20385148  0.85941872  0.35609953  1
  S  S18  1  0.97099483  0.52901422  0.65444783  1
  S  S19  1  0.81654700  0.87456639  0.34555217  1
  S  S20  1  0.65224805  0.49668081  0.35609953  1
  S  S21  1  0.02900517  0.47098578  0.34555217  1
  S  S22  1  0.18345300  0.12543361  0.65444783  1
  S  S23  1  0.79614852  0.14058128  0.64390047  1
  S  S24  1  0.63844904  0.26643135  0.02693355  1
  S  S25  1  0.11151548  0.23949780  0.97306645  1
  S  S26  1  0.65375818  0.13292732  0.29013385  1
  S  S27  1  0.86362433  0.84279348  0.70986615  1
