# generated using pymatgen
data_Cs4Ba(PO3)6
_symmetry_space_group_name_H-M   'P 1'
_cell_length_a   11.74606890
_cell_length_b   11.74606854
_cell_length_c   9.26490802
_cell_angle_alpha   90.00000000
_cell_angle_beta   90.00000000
_cell_angle_gamma   120.00000100
_symmetry_Int_Tables_number   1
_chemical_formula_structural   Cs4Ba(PO3)6
_chemical_formula_sum   'Cs8 Ba2 P12 O36'
_cell_volume   1107.02343365
_cell_formula_units_Z   2
loop_
 _symmetry_equiv_pos_site_id
 _symmetry_equiv_pos_as_xyz
  1  'x, y, z'
loop_
 _atom_site_type_symbol
 _atom_site_label
 _atom_site_symmetry_multiplicity
 _atom_site_fract_x
 _atom_site_fract_y
 _atom_site_fract_z
 _atom_site_occupancy
  Cs  Cs0  1  0.00758432  0.23693463  0.00917811  1
  Cs  Cs1  1  0.23693463  0.00758432  0.50917811  1
  Cs  Cs2  1  0.99241568  0.22935030  0.50917811  1
  Cs  Cs3  1  0.76306537  0.77064970  0.00917811  1
  Cs  Cs4  1  0.77064970  0.76306537  0.50917811  1
  Cs  Cs5  1  0.22935030  0.99241568  0.00917811  1
  Cs  Cs6  1  0.66666700  0.33333300  0.74983159  1
  Cs  Cs7  1  0.33333300  0.66666700  0.24983159  1
  Ba  Ba8  1  0.33333300  0.66666700  0.75936579  1
  Ba  Ba9  1  0.66666700  0.33333300  0.25936579  1
  P  P10  1  0.54496184  0.99660998  0.49434897  1
  P  P11  1  0.28571901  0.30879374  0.74625555  1
  P  P12  1  0.45503816  0.45164814  0.99434897  1
  P  P13  1  0.30879374  0.28571901  0.24625555  1
  P  P14  1  0.99660998  0.54496184  0.99434897  1
  P  P15  1  0.69120626  0.97692527  0.74625555  1
  P  P16  1  0.71428099  0.02307473  0.24625555  1
  P  P17  1  0.00339002  0.54835186  0.49434897  1
  P  P18  1  0.02307473  0.71428099  0.74625555  1
  P  P19  1  0.45164814  0.45503816  0.49434897  1
  P  P20  1  0.54835186  0.00339002  0.99434897  1
  P  P21  1  0.97692527  0.69120626  0.24625555  1
  O  O22  1  0.67582409  0.02289757  0.58481614  1
  O  O23  1  0.02289757  0.67582409  0.08481614  1
  O  O24  1  0.95246643  0.57690996  0.83919373  1
  O  O25  1  0.37555647  0.42309004  0.33919373  1
  O  O26  1  0.34707348  0.32417591  0.58481614  1
  O  O27  1  0.32417591  0.34707348  0.08481614  1
  O  O28  1  0.57690996  0.95246643  0.33919373  1
  O  O29  1  0.57677894  0.45500183  0.04912821  1
  O  O30  1  0.42322106  0.87822289  0.54912821  1
  O  O31  1  0.95372717  0.78977896  0.77456233  1
  O  O32  1  0.97710243  0.65292652  0.58481614  1
  O  O33  1  0.12593204  0.54890276  0.98073111  1
  O  O34  1  0.12177711  0.54499817  0.54912821  1
  O  O35  1  0.78977896  0.95372717  0.27456233  1
  O  O36  1  0.16394821  0.21022104  0.27456233  1
  O  O37  1  0.87406796  0.42297072  0.48073111  1
  O  O38  1  0.38898855  0.21941705  0.26198673  1
  O  O39  1  0.65292652  0.97710243  0.08481614  1
  O  O40  1  0.45109724  0.57702928  0.98073111  1
  O  O41  1  0.87822289  0.42322106  0.04912821  1
  O  O42  1  0.57702928  0.45109724  0.48073111  1
  O  O43  1  0.45500183  0.57677894  0.54912821  1
  O  O44  1  0.21022104  0.16394821  0.77456233  1
  O  O45  1  0.04753357  0.62444353  0.33919373  1
  O  O46  1  0.61101145  0.83042850  0.76198673  1
  O  O47  1  0.54890276  0.12593204  0.48073111  1
  O  O48  1  0.54499817  0.12177711  0.04912821  1
  O  O49  1  0.78058295  0.16957150  0.26198673  1
  O  O50  1  0.16957150  0.78058295  0.76198673  1
  O  O51  1  0.62444353  0.04753357  0.83919373  1
  O  O52  1  0.83042850  0.61101145  0.26198673  1
  O  O53  1  0.42297072  0.87406796  0.98073111  1
  O  O54  1  0.42309004  0.37555647  0.83919373  1
  O  O55  1  0.21941705  0.38898855  0.76198673  1
  O  O56  1  0.04627283  0.83605179  0.27456233  1
  O  O57  1  0.83605179  0.04627283  0.77456233  1
