# generated using pymatgen
data_Sr2GaBi2O7
_symmetry_space_group_name_H-M   'P 1'
_cell_length_a   6.06880033
_cell_length_b   6.29140339
_cell_length_c   11.78919345
_cell_angle_alpha   105.63104411
_cell_angle_beta   104.89816831
_cell_angle_gamma   90.00816050
_symmetry_Int_Tables_number   1
_chemical_formula_structural   Sr2GaBi2O7
_chemical_formula_sum   'Sr4 Ga2 Bi4 O14'
_cell_volume   417.74058613
_cell_formula_units_Z   2
loop_
 _symmetry_equiv_pos_site_id
 _symmetry_equiv_pos_as_xyz
  1  'x, y, z'
loop_
 _atom_site_type_symbol
 _atom_site_label
 _atom_site_symmetry_multiplicity
 _atom_site_fract_x
 _atom_site_fract_y
 _atom_site_fract_z
 _atom_site_occupancy
  Sr  Sr0  1  0.15316983  0.18580911  0.30794293  1
  Sr  Sr1  1  0.84532922  0.81475045  0.69217133  1
  Sr  Sr2  1  0.65339002  0.62139020  0.30787564  1
  Sr  Sr3  1  0.34486536  0.37907870  0.69215871  1
  Ga  Ga4  1  0.20726533  0.84527446  0.50006417  1
  Ga  Ga5  1  0.70734793  0.15531240  0.50001837  1
  Bi  Bi6  1  0.42298368  0.93011992  0.84337580  1
  Bi  Bi7  1  0.08049667  0.58406418  0.15747533  1
  Bi  Bi8  1  0.92258797  0.41644656  0.84258524  1
  Bi  Bi9  1  0.58007810  0.07044910  0.15666943  1
  O  O10  1  0.83051262  0.33815120  0.16521135  1
  O  O11  1  0.89090949  0.90751049  0.50006654  1
  O  O12  1  0.32954465  0.32820961  0.16552207  1
  O  O13  1  0.83434543  0.38519078  0.63995266  1
  O  O14  1  0.65079997  0.14878976  0.79329355  1
  O  O15  1  0.14931591  0.14900335  0.79341845  1
  O  O16  1  0.39095266  0.09303522  0.49997597  1
  O  O17  1  0.16375844  0.67251987  0.83485243  1
  O  O18  1  0.66463699  0.66209413  0.83445882  1
  O  O19  1  0.33358693  0.75673031  0.64028787  1
  O  O20  1  0.19377758  0.61526741  0.36004980  1
  O  O21  1  0.69410831  0.24376358  0.35974239  1
  O  O22  1  0.85787397  0.85169677  0.20669807  1
  O  O23  1  0.35629694  0.85144746  0.20659806  1
