# generated using pymatgen
data_NaLaP2O7
_symmetry_space_group_name_H-M   'P 1'
_cell_length_a   5.36282698
_cell_length_b   8.75664182
_cell_length_c   12.82193985
_cell_angle_alpha   90.00000000
_cell_angle_beta   90.00000000
_cell_angle_gamma   90.00000000
_symmetry_Int_Tables_number   1
_chemical_formula_structural   NaLaP2O7
_chemical_formula_sum   'Na4 La4 P8 O28'
_cell_volume   602.12284723
_cell_formula_units_Z   4
loop_
 _symmetry_equiv_pos_site_id
 _symmetry_equiv_pos_as_xyz
  1  'x, y, z'
loop_
 _atom_site_type_symbol
 _atom_site_label
 _atom_site_symmetry_multiplicity
 _atom_site_fract_x
 _atom_site_fract_y
 _atom_site_fract_z
 _atom_site_occupancy
  Na  Na0  1  0.75000000  0.37889164  0.42087515  1
  Na  Na1  1  0.25000000  0.12110836  0.92087515  1
  Na  Na2  1  0.25000000  0.62110836  0.57912485  1
  Na  Na3  1  0.75000000  0.87889164  0.07912485  1
  La  La4  1  0.75000000  0.81695824  0.76414659  1
  La  La5  1  0.75000000  0.31695824  0.73585341  1
  La  La6  1  0.25000000  0.18304176  0.23585341  1
  La  La7  1  0.25000000  0.68304176  0.26414659  1
  P  P8  1  0.75000000  0.48330792  0.18108653  1
  P  P9  1  0.25000000  0.51669208  0.81891347  1
  P  P10  1  0.75000000  0.73371651  0.46683933  1
  P  P11  1  0.25000000  0.76628349  0.96683933  1
  P  P12  1  0.75000000  0.98330792  0.31891347  1
  P  P13  1  0.25000000  0.26628349  0.53316067  1
  P  P14  1  0.75000000  0.23371651  0.03316067  1
  P  P15  1  0.25000000  0.01669208  0.68108653  1
  O  O16  1  0.25000000  0.84373898  0.67504578  1
  O  O17  1  0.25000000  0.26752680  0.41460299  1
  O  O18  1  0.75000000  0.15626102  0.32495422  1
  O  O19  1  0.99159007  0.92783898  0.26548889  1
  O  O20  1  0.00840993  0.07216102  0.73451111  1
  O  O21  1  0.00840993  0.57216102  0.76548889  1
  O  O22  1  0.48572928  0.83957273  0.92101419  1
  O  O23  1  0.50840993  0.92783898  0.26548889  1
  O  O24  1  0.50840993  0.42783898  0.23451111  1
  O  O25  1  0.99159007  0.42783898  0.23451111  1
  O  O26  1  0.75000000  0.65626102  0.17504578  1
  O  O27  1  0.01427072  0.33957273  0.57898581  1
  O  O28  1  0.01427072  0.83957273  0.92101419  1
  O  O29  1  0.75000000  0.91469066  0.43611010  1
  O  O30  1  0.51427072  0.66042727  0.42101419  1
  O  O31  1  0.25000000  0.58530934  0.93611010  1
  O  O32  1  0.98572928  0.16042727  0.07898581  1
  O  O33  1  0.75000000  0.41469066  0.06388990  1
  O  O34  1  0.49159007  0.07216102  0.73451111  1
  O  O35  1  0.51427072  0.16042727  0.07898581  1
  O  O36  1  0.75000000  0.73247320  0.58539701  1
  O  O37  1  0.48572928  0.33957273  0.57898581  1
  O  O38  1  0.25000000  0.08530934  0.56388990  1
  O  O39  1  0.25000000  0.76752680  0.08539701  1
  O  O40  1  0.25000000  0.34373898  0.82495422  1
  O  O41  1  0.49159007  0.57216102  0.76548889  1
  O  O42  1  0.75000000  0.23247320  0.91460299  1
  O  O43  1  0.98572928  0.66042727  0.42101419  1
