# generated using pymatgen
data_Na3Si3SnO9F
_symmetry_space_group_name_H-M   'P 1'
_cell_length_a   6.60520764
_cell_length_b   8.87128094
_cell_length_c   8.87128138
_cell_angle_alpha   105.93828700
_cell_angle_beta   102.83980875
_cell_angle_gamma   102.83981655
_symmetry_Int_Tables_number   1
_chemical_formula_structural   Na3Si3SnO9F
_chemical_formula_sum   'Na6 Si6 Sn2 O18 F2'
_cell_volume   464.57067929
_cell_formula_units_Z   2
loop_
 _symmetry_equiv_pos_site_id
 _symmetry_equiv_pos_as_xyz
  1  'x, y, z'
loop_
 _atom_site_type_symbol
 _atom_site_label
 _atom_site_symmetry_multiplicity
 _atom_site_fract_x
 _atom_site_fract_y
 _atom_site_fract_z
 _atom_site_occupancy
  Na  Na0  1  0.73729629  0.48951092  0.48951092  1
  Na  Na1  1  0.08181552  0.60621273  0.87719834  1
  Na  Na2  1  0.08181552  0.87719834  0.60621273  1
  Na  Na3  1  0.26270371  0.51048908  0.51048908  1
  Na  Na4  1  0.91818448  0.39378727  0.12280166  1
  Na  Na5  1  0.91818448  0.12280166  0.39378727  1
  Si  Si6  1  0.39653039  0.09173784  0.31274145  1
  Si  Si7  1  0.60346961  0.68725855  0.90826216  1
  Si  Si8  1  0.60346961  0.90826216  0.68725855  1
  Si  Si9  1  0.00000000  0.78623555  0.21376445  1
  Si  Si10  1  1.00000000  0.21376445  0.78623555  1
  Si  Si11  1  0.39653039  0.31274145  0.09173784  1
  Sn  Sn12  1  0.50000000  0.72454586  0.27545414  1
  Sn  Sn13  1  0.50000000  0.27545414  0.72454586  1
  O  O14  1  0.16095450  0.22648138  0.67258239  1
  O  O15  1  0.86099059  0.01701699  0.72545213  1
  O  O16  1  0.86099059  0.72545213  0.01701699  1
  O  O17  1  0.13900941  0.98298301  0.27454787  1
  O  O18  1  0.55371166  0.97501600  0.32395230  1
  O  O19  1  0.83904550  0.32741761  0.77351862  1
  O  O20  1  0.53825917  0.74916378  0.52071752  1
  O  O21  1  0.53825917  0.52071752  0.74916378  1
  O  O22  1  0.46174083  0.47928248  0.25083622  1
  O  O23  1  0.16095450  0.67258239  0.22648138  1
  O  O24  1  0.44628834  0.02498400  0.67604770  1
  O  O25  1  0.59351050  0.84080552  0.84080552  1
  O  O26  1  0.44628834  0.67604770  0.02498400  1
  O  O27  1  0.46174083  0.25083622  0.47928248  1
  O  O28  1  0.55371166  0.32395230  0.97501600  1
  O  O29  1  0.83904550  0.77351862  0.32741761  1
  O  O30  1  0.13900941  0.27454787  0.98298301  1
  O  O31  1  0.40648950  0.15919448  0.15919448  1
  F  F32  1  0.06884439  0.64907367  0.64907367  1
  F  F33  1  0.93115561  0.35092633  0.35092633  1
