# generated using pymatgen
data_K2NaTlO3
_symmetry_space_group_name_H-M   'P 1'
_cell_length_a   6.52136676
_cell_length_b   7.02618505
_cell_length_c   12.11741844
_cell_angle_alpha   90.00000000
_cell_angle_beta   95.24492521
_cell_angle_gamma   90.00000000
_symmetry_Int_Tables_number   1
_chemical_formula_structural   K2NaTlO3
_chemical_formula_sum   'K8 Na4 Tl4 O12'
_cell_volume   552.89939972
_cell_formula_units_Z   4
loop_
 _symmetry_equiv_pos_site_id
 _symmetry_equiv_pos_as_xyz
  1  'x, y, z'
loop_
 _atom_site_type_symbol
 _atom_site_label
 _atom_site_symmetry_multiplicity
 _atom_site_fract_x
 _atom_site_fract_y
 _atom_site_fract_z
 _atom_site_occupancy
  K  K0  1  0.42149926  0.83365081  0.85264993  1
  K  K1  1  0.06954584  0.35966558  0.14189075  1
  K  K2  1  0.93045416  0.85966558  0.35810925  1
  K  K3  1  0.42149926  0.66634919  0.35264993  1
  K  K4  1  0.57850074  0.33365081  0.64735007  1
  K  K5  1  0.93045416  0.64033442  0.85810925  1
  K  K6  1  0.57850074  0.16634919  0.14735007  1
  K  K7  1  0.06954584  0.14033442  0.64189075  1
  Na  Na8  1  0.64089664  0.87493740  0.58664116  1
  Na  Na9  1  0.35910336  0.12506260  0.41335884  1
  Na  Na10  1  0.35910336  0.37493740  0.91335884  1
  Na  Na11  1  0.64089664  0.62506260  0.08664116  1
  Tl  Tl12  1  0.85246088  0.37400554  0.40935302  1
  Tl  Tl13  1  0.85246088  0.12599446  0.90935302  1
  Tl  Tl14  1  0.14753912  0.87400554  0.09064698  1
  Tl  Tl15  1  0.14753912  0.62599446  0.59064698  1
  O  O16  1  0.75492537  0.50663147  0.25527811  1
  O  O17  1  0.28395960  0.88168422  0.53539359  1
  O  O18  1  0.28395960  0.61831578  0.03539359  1
  O  O19  1  0.71604040  0.38168422  0.96460641  1
  O  O20  1  0.19404700  0.09971200  0.95794916  1
  O  O21  1  0.80595300  0.90028800  0.04205084  1
  O  O22  1  0.80595300  0.59971200  0.54205084  1
  O  O23  1  0.75492537  0.99336853  0.75527811  1
  O  O24  1  0.24507463  0.49336853  0.74472189  1
  O  O25  1  0.24507463  0.00663147  0.24472189  1
  O  O26  1  0.71604040  0.11831578  0.46460641  1
  O  O27  1  0.19404700  0.40028800  0.45794916  1
