# generated using pymatgen
data_K2RuNCl5O
_symmetry_space_group_name_H-M   'P 1'
_cell_length_a   7.05910742
_cell_length_b   10.58472509
_cell_length_c   13.64137855
_cell_angle_alpha   90.00000000
_cell_angle_beta   90.00000000
_cell_angle_gamma   90.00000000
_symmetry_Int_Tables_number   1
_chemical_formula_structural   K2RuNCl5O
_chemical_formula_sum   'K8 Ru4 N4 Cl20 O4'
_cell_volume   1019.26622727
_cell_formula_units_Z   4
loop_
 _symmetry_equiv_pos_site_id
 _symmetry_equiv_pos_as_xyz
  1  'x, y, z'
loop_
 _atom_site_type_symbol
 _atom_site_label
 _atom_site_symmetry_multiplicity
 _atom_site_fract_x
 _atom_site_fract_y
 _atom_site_fract_z
 _atom_site_occupancy
  K  K0  1  0.64529777  0.24974632  0.10437523  1
  K  K1  1  0.85470223  0.75025368  0.60437523  1
  K  K2  1  0.64621994  0.75018940  0.10275632  1
  K  K3  1  0.14529777  0.25025368  0.89562477  1
  K  K4  1  0.35378006  0.25018940  0.39724368  1
  K  K5  1  0.85378006  0.24981060  0.60275632  1
  K  K6  1  0.35470223  0.74974632  0.39562477  1
  K  K7  1  0.14621994  0.74981060  0.89724368  1
  Ru  Ru8  1  0.32889209  0.99826966  0.64204797  1
  Ru  Ru9  1  0.67110791  0.49826966  0.85795203  1
  Ru  Ru10  1  0.82889209  0.50173034  0.35795203  1
  Ru  Ru11  1  0.17110791  0.00173034  0.14204797  1
  N  N12  1  0.98879854  0.50268163  0.26083691  1
  N  N13  1  0.51120146  0.49731837  0.76083691  1
  N  N14  1  0.01120146  0.00268163  0.23916309  1
  N  N15  1  0.48879854  0.99731837  0.73916309  1
  Cl  Cl16  1  0.91046394  0.00062192  0.02773850  1
  Cl  Cl17  1  0.31649317  0.22479225  0.63654433  1
  Cl  Cl18  1  0.37650250  0.00116012  0.00348521  1
  Cl  Cl19  1  0.31767018  0.77159591  0.63540691  1
  Cl  Cl20  1  0.68232982  0.27159591  0.86459309  1
  Cl  Cl21  1  0.58953606  0.99937808  0.52773850  1
  Cl  Cl22  1  0.62349750  0.50116012  0.49651479  1
  Cl  Cl23  1  0.81649317  0.27520775  0.36345567  1
  Cl  Cl24  1  0.55141677  0.50206078  0.25508235  1
  Cl  Cl25  1  0.87650250  0.49883988  0.99651479  1
  Cl  Cl26  1  0.41046394  0.49937808  0.97226150  1
  Cl  Cl27  1  0.18232982  0.22840409  0.13540691  1
  Cl  Cl28  1  0.44858323  1.00206078  0.24491765  1
  Cl  Cl29  1  0.08953606  0.50062192  0.47226150  1
  Cl  Cl30  1  0.68350683  0.72479225  0.86345567  1
  Cl  Cl31  1  0.18350683  0.77520775  0.13654433  1
  Cl  Cl32  1  0.94858323  0.49793922  0.75508235  1
  Cl  Cl33  1  0.05141677  -0.00206078  0.74491765  1
  Cl  Cl34  1  0.12349750  0.99883988  0.50348521  1
  Cl  Cl35  1  0.81767018  0.72840409  0.36459309  1
  O  O36  1  0.89502038  0.00396939  0.29989025  1
  O  O37  1  0.60497962  0.99603061  0.79989025  1
  O  O38  1  0.10497962  0.50396939  0.20010975  1
  O  O39  1  0.39502038  0.49603061  0.70010975  1
