# generated using pymatgen
data_RbGd(PO3)4
_symmetry_space_group_name_H-M   'P 1'
_cell_length_a   9.05160438
_cell_length_b   10.51824398
_cell_length_c   11.12019914
_cell_angle_alpha   106.42815882
_cell_angle_beta   90.00000000
_cell_angle_gamma   90.00000000
_symmetry_Int_Tables_number   1
_chemical_formula_structural   RbGd(PO3)4
_chemical_formula_sum   'Rb4 Gd4 P16 O48'
_cell_volume   1015.49844835
_cell_formula_units_Z   4
loop_
 _symmetry_equiv_pos_site_id
 _symmetry_equiv_pos_as_xyz
  1  'x, y, z'
loop_
 _atom_site_type_symbol
 _atom_site_label
 _atom_site_symmetry_multiplicity
 _atom_site_fract_x
 _atom_site_fract_y
 _atom_site_fract_z
 _atom_site_occupancy
  Rb  Rb0  1  0.06768637  0.80522657  0.04180274  1
  Rb  Rb1  1  0.43231363  0.30522657  0.54180274  1
  Rb  Rb2  1  0.93231363  0.19477343  0.95819726  1
  Rb  Rb3  1  0.56768637  0.69477343  0.45819726  1
  Gd  Gd4  1  0.77318125  0.00109378  0.31686285  1
  Gd  Gd5  1  0.27318125  0.49890622  0.18313715  1
  Gd  Gd6  1  0.22681875  0.99890622  0.68313715  1
  Gd  Gd7  1  0.72681875  0.50109378  0.81686285  1
  P  P8  1  0.89260828  0.32391974  0.52250280  1
  P  P9  1  0.39260828  0.17608026  0.97749720  1
  P  P10  1  0.10739172  0.67608026  0.47749720  1
  P  P11  1  0.40722885  0.85393211  0.24095815  1
  P  P12  1  0.09277115  0.35393211  0.74095815  1
  P  P13  1  0.59277115  0.14606789  0.75904185  1
  P  P14  1  0.67219462  0.46019078  0.13733640  1
  P  P15  1  0.17219462  0.03980922  0.36266360  1
  P  P16  1  0.02623085  0.25134151  0.27737266  1
  P  P17  1  0.82780538  0.96019078  0.63733640  1
  P  P18  1  0.60739172  0.82391974  0.02250280  1
  P  P19  1  0.52623085  0.24865849  0.22262734  1
  P  P20  1  0.47376915  0.75134151  0.77737266  1
  P  P21  1  0.90722885  0.64606789  0.25904185  1
  P  P22  1  0.32780538  0.53980922  0.86266360  1
  P  P23  1  0.97376915  0.74865849  0.72262734  1
  O  O24  1  0.20995753  0.56886073  0.40629808  1
  O  O25  1  0.54515379  0.85860838  0.89872609  1
  O  O26  1  0.08425710  0.85415272  0.78411129  1
  O  O27  1  0.20776835  0.47581068  0.75334732  1
  O  O28  1  0.15761608  0.18520483  0.33957973  1
  O  O29  1  0.95484621  0.35860838  0.39872609  1
  O  O30  1  0.79223165  0.52418932  0.24665268  1
  O  O31  1  0.45138960  0.83104089  0.09623436  1
  O  O32  1  0.04515379  0.64139162  0.60127391  1
  O  O33  1  0.34238392  0.68520483  0.83957973  1
  O  O34  1  0.54861040  0.16895911  0.90376564  1
  O  O35  1  0.75843859  0.93776779  0.51080578  1
  O  O36  1  0.91574290  0.14584728  0.21588871  1
  O  O37  1  0.74156141  0.43776779  0.01080578  1
  O  O38  1  0.32273562  0.73621631  0.25409229  1
  O  O39  1  0.16287890  0.81599257  0.51694162  1
  O  O40  1  0.58425710  0.64584728  0.71588871  1
  O  O41  1  0.83712110  0.18400743  0.48305838  1
  O  O42  1  0.25843859  0.56223221  0.98919422  1
  O  O43  1  0.33712110  0.31599257  0.01694162  1
  O  O44  1  0.24156141  0.06223221  0.48919422  1
  O  O45  1  0.70995753  0.93113927  0.09370192  1
  O  O46  1  0.46129467  0.09995704  0.67582147  1
  O  O47  1  0.29223165  0.97581068  0.25334732  1
  O  O48  1  0.40589065  0.82878983  0.69734907  1
  O  O49  1  0.79004247  0.43113927  0.59370192  1
  O  O50  1  0.70776835  0.02418932  0.74665268  1
  O  O51  1  0.96129467  0.40004296  0.82417853  1
  O  O52  1  0.95138960  0.66895911  0.40376564  1
  O  O53  1  0.03128064  0.96306104  0.32856211  1
  O  O54  1  0.03870533  0.59995704  0.17582147  1
  O  O55  1  0.96871936  0.03693896  0.67143789  1
  O  O56  1  0.84238392  0.81479517  0.66042027  1
  O  O57  1  0.90589065  0.67121017  0.80265093  1
  O  O58  1  0.46871936  0.46306104  0.82856211  1
  O  O59  1  0.09410935  0.32878983  0.19734907  1
  O  O60  1  0.66287890  0.68400743  0.98305838  1
  O  O61  1  0.59410935  0.17121017  0.30265093  1
  O  O62  1  0.65761608  0.31479517  0.16042027  1
  O  O63  1  0.04861040  0.33104089  0.59623436  1
  O  O64  1  0.82273562  0.76378369  0.24590771  1
  O  O65  1  0.17726438  0.23621631  0.75409229  1
  O  O66  1  0.53870533  0.90004296  0.32417853  1
  O  O67  1  0.41574290  0.35415272  0.28411129  1
  O  O68  1  0.67726438  0.26378369  0.74590771  1
  O  O69  1  0.29004247  0.06886073  0.90629808  1
  O  O70  1  0.53128064  0.53693896  0.17143789  1
  O  O71  1  0.45484621  0.14139162  0.10127391  1
