# generated using pymatgen
data_Nd3Si2S8I
_symmetry_space_group_name_H-M   'P 1'
_cell_length_a   7.86917366
_cell_length_b   8.92661699
_cell_length_c   10.88263244
_cell_angle_alpha   97.31352357
_cell_angle_beta   90.00000000
_cell_angle_gamma   116.15303378
_symmetry_Int_Tables_number   1
_chemical_formula_structural   Nd3Si2S8I
_chemical_formula_sum   'Nd6 Si4 S16 I2'
_cell_volume   679.25155455
_cell_formula_units_Z   2
loop_
 _symmetry_equiv_pos_site_id
 _symmetry_equiv_pos_as_xyz
  1  'x, y, z'
loop_
 _atom_site_type_symbol
 _atom_site_label
 _atom_site_symmetry_multiplicity
 _atom_site_fract_x
 _atom_site_fract_y
 _atom_site_fract_z
 _atom_site_occupancy
  Nd  Nd0  1  0.40045212  0.00000000  0.75000000  1
  Nd  Nd1  1  0.07610958  0.39874573  0.68144748  1
  Nd  Nd2  1  0.32263615  0.39874573  0.18144748  1
  Nd  Nd3  1  0.67736385  0.60125427  0.81855252  1
  Nd  Nd4  1  0.92389042  0.60125427  0.31855252  1
  Nd  Nd5  1  0.59954788  0.00000000  0.25000000  1
  Si  Si6  1  0.37757762  0.68089988  0.47109123  1
  Si  Si7  1  0.69667774  0.31910012  0.02890877  1
  Si  Si8  1  0.30332226  0.68089988  0.97109123  1
  Si  Si9  1  0.62242238  0.31910012  0.52890877  1
  S  S10  1  0.25206874  0.70147810  0.16282742  1
  S  S11  1  0.14922384  0.43654934  0.41401484  1
  S  S12  1  0.44940935  0.70147810  0.66282742  1
  S  S13  1  0.60090387  0.71045371  0.35251514  1
  S  S14  1  0.55059065  0.29852190  0.33717258  1
  S  S15  1  0.27671858  0.86337703  0.45808185  1
  S  S16  1  0.39909613  0.28954629  0.64748486  1
  S  S17  1  0.28732550  0.43654934  0.91401484  1
  S  S18  1  0.74793126  0.29852190  0.83717258  1
  S  S19  1  0.71267450  0.56345066  0.08598516  1
  S  S20  1  0.72328142  0.13662297  0.54191815  1
  S  S21  1  0.58665845  0.86337703  0.95808185  1
  S  S22  1  0.89045016  0.28954629  0.14748486  1
  S  S23  1  0.10954984  0.71045371  0.85251514  1
  S  S24  1  0.85077616  0.56345066  0.58598516  1
  S  S25  1  0.41334155  0.13662297  0.04191815  1
  I  I26  1  0.98636618  0.00000000  0.75000000  1
  I  I27  1  0.01363382  0.00000000  0.25000000  1
