# generated using pymatgen
data_Sb2POF13
_symmetry_space_group_name_H-M   'P 1'
_cell_length_a   7.46993648
_cell_length_b   10.57379996
_cell_length_c   15.04660014
_cell_angle_alpha   90.00000000
_cell_angle_beta   90.00000000
_cell_angle_gamma   97.45466153
_symmetry_Int_Tables_number   1
_chemical_formula_structural   Sb2POF13
_chemical_formula_sum   'Sb8 P4 O4 F52'
_cell_volume   1178.41985187
_cell_formula_units_Z   4
loop_
 _symmetry_equiv_pos_site_id
 _symmetry_equiv_pos_as_xyz
  1  'x, y, z'
loop_
 _atom_site_type_symbol
 _atom_site_label
 _atom_site_symmetry_multiplicity
 _atom_site_fract_x
 _atom_site_fract_y
 _atom_site_fract_z
 _atom_site_occupancy
  Sb  Sb0  1  0.86211290  0.03992816  0.25657013  1
  Sb  Sb1  1  0.13788710  0.96007184  0.74342987  1
  Sb  Sb2  1  0.78340821  0.78931156  0.56262992  1
  Sb  Sb3  1  0.78340821  0.28931156  0.93737008  1
  Sb  Sb4  1  0.86211290  0.53992816  0.24342987  1
  Sb  Sb5  1  0.13788710  0.46007184  0.75657013  1
  Sb  Sb6  1  0.21659179  0.21068844  0.43737008  1
  Sb  Sb7  1  0.21659179  0.71068844  0.06262992  1
  P  P8  1  0.76364457  0.83754244  0.87049299  1
  P  P9  1  0.76364457  0.33754244  0.62950701  1
  P  P10  1  0.23635543  0.66245756  0.37049299  1
  P  P11  1  0.23635543  0.16245756  0.12950701  1
  O  O12  1  0.06462787  0.64099763  0.32051855  1
  O  O13  1  0.93537213  0.35900237  0.67948145  1
  O  O14  1  0.06462787  0.14099763  0.17948145  1
  O  O15  1  0.93537213  0.85900237  0.82051855  1
  F  F16  1  0.96995998  0.07633611  0.72505421  1
  F  F17  1  0.41863414  0.78087386  0.99459002  1
  F  F18  1  0.67665006  0.19974354  0.63462432  1
  F  F19  1  0.01342075  0.86033984  0.63995670  1
  F  F20  1  0.13719432  0.37230405  0.41628408  1
  F  F21  1  0.38063351  0.58322386  0.33902832  1
  F  F22  1  0.32334994  0.30025646  0.13462432  1
  F  F23  1  0.94731003  0.31240705  0.03431950  1
  F  F24  1  0.66091301  0.27459582  0.82606160  1
  F  F25  1  0.96995998  0.57633611  0.77494579  1
  F  F26  1  0.31028713  0.53902313  0.83709577  1
  F  F27  1  0.68971287  0.46097687  0.16290423  1
  F  F28  1  0.05268997  0.68759295  0.96568050  1
  F  F29  1  0.86280568  0.12769595  0.91628408  1
  F  F30  1  0.94731003  0.81240705  0.46568050  1
  F  F31  1  0.13719432  0.87230405  0.08371592  1
  F  F32  1  0.61936649  0.91677614  0.83902832  1
  F  F33  1  0.86280568  0.62769595  0.58371592  1
  F  F34  1  0.41863414  0.28087386  0.50540998  1
  F  F35  1  0.25716496  0.31501551  0.74157020  1
  F  F36  1  0.01342075  0.36033984  0.86004330  1
  F  F37  1  0.33908699  0.72540418  0.17393840  1
  F  F38  1  0.78657910  0.86644997  0.96918470  1
  F  F39  1  0.68971287  0.96097687  0.33709577  1
  F  F40  1  0.21342090  0.63355003  0.46918470  1
  F  F41  1  0.31028713  0.03902313  0.66290423  1
  F  F42  1  0.58136586  0.21912614  0.00540998  1
  F  F43  1  0.03004002  0.42366389  0.22505421  1
  F  F44  1  0.26069383  0.53928257  0.05288532  1
  F  F45  1  0.23772411  0.03948082  0.84760974  1
  F  F46  1  0.98657925  0.13966016  0.36004330  1
  F  F47  1  0.73930617  0.96071743  0.55288532  1
  F  F48  1  0.76227589  0.46051918  0.34760974  1
  F  F49  1  0.21342090  0.13355003  0.03081530  1
  F  F50  1  0.32334994  0.80025646  0.36537568  1
  F  F51  1  0.38063351  0.08322386  0.16097168  1
  F  F52  1  0.26069383  0.03928257  0.44711468  1
  F  F53  1  0.23772411  0.53948082  0.65239026  1
  F  F54  1  0.98657925  0.63966016  0.13995670  1
  F  F55  1  0.03004002  0.92366389  0.27494579  1
  F  F56  1  0.66091301  0.77459582  0.67393840  1
  F  F57  1  0.74283504  0.68498449  0.25842980  1
  F  F58  1  0.73930617  0.46071743  0.94711468  1
  F  F59  1  0.67665006  0.69974354  0.86537568  1
  F  F60  1  0.61936649  0.41677614  0.66097168  1
  F  F61  1  0.78657910  0.36644997  0.53081530  1
  F  F62  1  0.25716496  0.81501551  0.75842980  1
  F  F63  1  0.33908699  0.22540418  0.32606160  1
  F  F64  1  0.74283504  0.18498449  0.24157020  1
  F  F65  1  0.58136586  0.71912614  0.49459002  1
  F  F66  1  0.76227589  0.96051918  0.15239026  1
  F  F67  1  0.05268997  0.18759295  0.53431950  1
