# generated using pymatgen
data_K2Ge2PbS6
_symmetry_space_group_name_H-M   'P 1'
_cell_length_a   8.70638891
_cell_length_b   8.70638966
_cell_length_c   9.15311292
_cell_angle_alpha   90.04584814
_cell_angle_beta   90.04584827
_cell_angle_gamma   114.12648590
_symmetry_Int_Tables_number   1
_chemical_formula_structural   K2Ge2PbS6
_chemical_formula_sum   'K4 Ge4 Pb2 S12'
_cell_volume   633.20822269
_cell_formula_units_Z   2
loop_
 _symmetry_equiv_pos_site_id
 _symmetry_equiv_pos_as_xyz
  1  'x, y, z'
loop_
 _atom_site_type_symbol
 _atom_site_label
 _atom_site_symmetry_multiplicity
 _atom_site_fract_x
 _atom_site_fract_y
 _atom_site_fract_z
 _atom_site_occupancy
  K  K0  1  0.46189762  0.73636016  0.51826022  1
  K  K1  1  0.53810238  0.26363984  0.48173978  1
  K  K2  1  0.26363984  0.53810238  0.98173978  1
  K  K3  1  0.73636016  0.46189762  0.01826022  1
  Ge  Ge4  1  0.34406634  0.02379779  0.05929234  1
  Ge  Ge5  1  0.65593366  0.97620221  0.94070766  1
  Ge  Ge6  1  0.97620221  0.65593366  0.44070766  1
  Ge  Ge7  1  0.02379779  0.34406634  0.55929234  1
  Pb  Pb8  1  0.98867053  0.01132947  0.25000000  1
  Pb  Pb9  1  0.01132947  0.98867053  0.75000000  1
  S  S10  1  0.24977327  0.34623647  0.66530524  1
  S  S11  1  0.47864575  0.08051612  0.83734884  1
  S  S12  1  0.65376353  0.75022673  0.83469476  1
  S  S13  1  0.08051612  0.47864575  0.33734884  1
  S  S14  1  0.75022673  0.65376353  0.33469476  1
  S  S15  1  0.82355061  0.08926397  0.53807035  1
  S  S16  1  0.91073603  0.17644939  0.96192965  1
  S  S17  1  0.08926397  0.82355061  0.03807035  1
  S  S18  1  0.52135425  0.91948388  0.16265116  1
  S  S19  1  0.91948388  0.52135425  0.66265116  1
  S  S20  1  0.17644939  0.91073603  0.46192965  1
  S  S21  1  0.34623647  0.24977327  0.16530524  1
