# generated using pymatgen
data_NbP4(S2Cl)5
_symmetry_space_group_name_H-M   'P 1'
_cell_length_a   10.30219385
_cell_length_b   11.72848916
_cell_length_c   12.32645106
_cell_angle_alpha   70.66984245
_cell_angle_beta   67.72385810
_cell_angle_gamma   67.63666459
_symmetry_Int_Tables_number   1
_chemical_formula_structural   NbP4(S2Cl)5
_chemical_formula_sum   'Nb2 P8 S20 Cl10'
_cell_volume   1243.85006281
_cell_formula_units_Z   2
loop_
 _symmetry_equiv_pos_site_id
 _symmetry_equiv_pos_as_xyz
  1  'x, y, z'
loop_
 _atom_site_type_symbol
 _atom_site_label
 _atom_site_symmetry_multiplicity
 _atom_site_fract_x
 _atom_site_fract_y
 _atom_site_fract_z
 _atom_site_occupancy
  Nb  Nb0  1  0.95791305  0.87146265  0.65614089  1
  Nb  Nb1  1  0.04208695  0.12853735  0.34385911  1
  P  P2  1  0.30497740  0.34935523  0.83667479  1
  P  P3  1  0.37757642  0.27125888  0.56790621  1
  P  P4  1  0.70055947  0.94424343  0.16349652  1
  P  P5  1  0.69502260  0.65064477  0.16332521  1
  P  P6  1  0.29944053  0.05575657  0.83650348  1
  P  P7  1  0.02479781  0.32408604  0.76307273  1
  P  P8  1  0.97520219  0.67591396  0.23692727  1
  P  P9  1  0.62242358  0.72874112  0.43209379  1
  S  S10  1  0.65709898  0.12017693  0.08524324  1
  S  S11  1  0.07349148  0.12974648  0.84821008  1
  S  S12  1  0.84861320  0.65479450  0.41968242  1
  S  S13  1  0.57509638  0.92285209  0.34653985  1
  S  S14  1  0.18026126  0.60832394  0.22602568  1
  S  S15  1  0.92116295  0.57758872  0.15118568  1
  S  S16  1  0.81973874  0.39167606  0.77397432  1
  S  S17  1  0.42490362  0.07714791  0.65346015  1
  S  S18  1  0.34290102  0.87982307  0.91475676  1
  S  S19  1  0.92650852  0.87025352  0.15178992  1
  S  S20  1  0.50943330  0.70935906  0.59838839  1
  S  S21  1  0.64760296  0.84485473  0.07824121  1
  S  S22  1  0.35162808  0.43915092  0.91540000  1
  S  S23  1  0.07883705  0.42241128  0.84881432  1
  S  S24  1  0.64837192  0.56084908  0.08460000  1
  S  S25  1  0.49056670  0.29064094  0.40161161  1
  S  S26  1  0.43067892  0.37001647  0.65374565  1
  S  S27  1  0.15138680  0.34520550  0.58031758  1
  S  S28  1  0.35239704  0.15514527  0.92175879  1
  S  S29  1  0.56932108  0.62998353  0.34625435  1
  Cl  Cl30  1  0.80009115  0.04822087  0.73460571  1
  Cl  Cl31  1  0.13227748  0.01153984  0.53224904  1
  Cl  Cl32  1  0.21665629  0.23200535  0.26875101  1
  Cl  Cl33  1  0.87392141  0.27560026  0.45808038  1
  Cl  Cl34  1  0.92446710  0.20599115  0.19845548  1
  Cl  Cl35  1  0.12607859  0.72439974  0.54191962  1
  Cl  Cl36  1  0.19990885  0.95177913  0.26539429  1
  Cl  Cl37  1  0.86772252  0.98846016  0.46775096  1
  Cl  Cl38  1  0.07553290  0.79400885  0.80154452  1
  Cl  Cl39  1  0.78334371  0.76799465  0.73124899  1
