# generated using pymatgen
data_Cs2Sn2Hg3S8
_symmetry_space_group_name_H-M   'P 1'
_cell_length_a   6.96670259
_cell_length_b   8.14256860
_cell_length_c   9.53380961
_cell_angle_alpha   108.22884345
_cell_angle_beta   92.89387275
_cell_angle_gamma   108.64864881
_symmetry_Int_Tables_number   1
_chemical_formula_structural   Cs2Sn2Hg3S8
_chemical_formula_sum   'Cs2 Sn2 Hg3 S8'
_cell_volume   479.85671447
_cell_formula_units_Z   1
loop_
 _symmetry_equiv_pos_site_id
 _symmetry_equiv_pos_as_xyz
  1  'x, y, z'
loop_
 _atom_site_type_symbol
 _atom_site_label
 _atom_site_symmetry_multiplicity
 _atom_site_fract_x
 _atom_site_fract_y
 _atom_site_fract_z
 _atom_site_occupancy
  Cs  Cs0  1  0.11108776  0.45748141  0.74617319  1
  Cs  Cs1  1  0.88891224  0.54251859  0.25382681  1
  Sn  Sn2  1  0.74289096  0.83843635  0.74090965  1
  Sn  Sn3  1  0.25710904  0.16156365  0.25909035  1
  Hg  Hg4  1  0.33279719  0.08210969  0.88330878  1
  Hg  Hg5  1  0.50000000  0.00000000  0.50000000  1
  Hg  Hg6  1  0.66720281  0.91789031  0.11669122  1
  S  S7  1  0.92639352  0.13597131  0.33954585  1
  S  S8  1  0.33707750  0.35416113  0.10671258  1
  S  S9  1  0.49874698  0.29190796  0.49641399  1
  S  S10  1  0.72046490  0.13432034  0.88127443  1
  S  S11  1  0.50125302  0.70809204  0.50358601  1
  S  S12  1  0.27953510  0.86567966  0.11872557  1
  S  S13  1  0.07360648  0.86402869  0.66045415  1
  S  S14  1  0.66292250  0.64583887  0.89328742  1
