# generated using pymatgen
data_Na2ZrGe2O7
_symmetry_space_group_name_H-M   'P 1'
_cell_length_a   5.70858512
_cell_length_b   6.75715514
_cell_length_c   9.26486271
_cell_angle_alpha   70.47846057
_cell_angle_beta   88.72967999
_cell_angle_gamma   86.89572010
_symmetry_Int_Tables_number   1
_chemical_formula_structural   Na2ZrGe2O7
_chemical_formula_sum   'Na4 Zr2 Ge4 O14'
_cell_volume   336.33979388
_cell_formula_units_Z   2
loop_
 _symmetry_equiv_pos_site_id
 _symmetry_equiv_pos_as_xyz
  1  'x, y, z'
loop_
 _atom_site_type_symbol
 _atom_site_label
 _atom_site_symmetry_multiplicity
 _atom_site_fract_x
 _atom_site_fract_y
 _atom_site_fract_z
 _atom_site_occupancy
  Na  Na0  1  0.76584286  0.65525753  0.50411449  1
  Na  Na1  1  0.72958703  0.90202751  0.11638994  1
  Na  Na2  1  0.23415714  0.34474247  0.49588551  1
  Na  Na3  1  0.27041297  0.09797249  0.88361006  1
  Zr  Zr4  1  0.77065162  0.29822545  0.27632234  1
  Zr  Zr5  1  0.22934838  0.70177455  0.72367766  1
  Ge  Ge6  1  0.30480721  0.94643119  0.33521427  1
  Ge  Ge7  1  0.22447552  0.64376807  0.14455135  1
  Ge  Ge8  1  0.69519279  0.05356881  0.66478573  1
  Ge  Ge9  1  0.77552448  0.35623193  0.85544865  1
  O  O10  1  0.54231115  0.51958778  0.75816341  1
  O  O11  1  0.71697740  0.09533317  0.84925559  1
  O  O12  1  0.94948027  0.58529953  0.23533761  1
  O  O13  1  0.74260482  0.28882390  0.51307049  1
  O  O14  1  0.39519293  0.99637998  0.66388389  1
  O  O15  1  0.60480707  0.00362002  0.33611611  1
  O  O16  1  0.25739518  0.71117610  0.48692951  1
  O  O17  1  0.89920994  0.85175010  0.66758384  1
  O  O18  1  0.10079006  0.14824990  0.33241616  1
  O  O19  1  0.78993438  0.29738256  0.05343443  1
  O  O20  1  0.05051973  0.41470047  0.76466239  1
  O  O21  1  0.21006562  0.70261744  0.94656557  1
  O  O22  1  0.28302260  0.90466683  0.15074441  1
  O  O23  1  0.45768885  0.48041222  0.24183659  1
