# generated using pymatgen
data_Y3CuSiS7
_symmetry_space_group_name_H-M   'P 1'
_cell_length_a   9.92602368
_cell_length_b   9.92602339
_cell_length_c   5.70726330
_cell_angle_alpha   90.00000000
_cell_angle_beta   90.00000000
_cell_angle_gamma   120.00000100
_symmetry_Int_Tables_number   1
_chemical_formula_structural   Y3CuSiS7
_chemical_formula_sum   'Y6 Cu2 Si2 S14'
_cell_volume   486.97777068
_cell_formula_units_Z   2
loop_
 _symmetry_equiv_pos_site_id
 _symmetry_equiv_pos_as_xyz
  1  'x, y, z'
loop_
 _atom_site_type_symbol
 _atom_site_label
 _atom_site_symmetry_multiplicity
 _atom_site_fract_x
 _atom_site_fract_y
 _atom_site_fract_z
 _atom_site_occupancy
  Y  Y0  1  0.12814413  0.35697466  0.74322759  1
  Y  Y1  1  0.87185587  0.64302534  0.24322759  1
  Y  Y2  1  0.22883053  0.87185587  0.74322759  1
  Y  Y3  1  0.35697466  0.22883053  0.24322759  1
  Y  Y4  1  0.77116947  0.12814413  0.24322759  1
  Y  Y5  1  0.64302534  0.77116947  0.74322759  1
  Cu  Cu6  1  0.00000000  0.00000000  0.70274847  1
  Cu  Cu7  1  0.00000000  0.00000000  0.20274847  1
  Si  Si8  1  0.66666700  0.33333300  0.83088115  1
  Si  Si9  1  0.33333300  0.66666700  0.33088115  1
  S  S10  1  0.25753444  0.16409658  0.71884596  1
  S  S11  1  0.41588445  0.52301645  0.48084806  1
  S  S12  1  0.33333300  0.66666700  0.96070555  1
  S  S13  1  0.16409658  0.90656214  0.21884596  1
  S  S14  1  0.47698355  0.89286801  0.48084806  1
  S  S15  1  0.58411555  0.47698355  0.98084806  1
  S  S16  1  0.52301645  0.10713199  0.98084806  1
  S  S17  1  0.83590342  0.09343786  0.71884596  1
  S  S18  1  0.90656214  0.74246556  0.71884596  1
  S  S19  1  0.66666700  0.33333300  0.46070555  1
  S  S20  1  0.89286801  0.41588445  0.98084806  1
  S  S21  1  0.09343786  0.25753444  0.21884596  1
  S  S22  1  0.10713199  0.58411555  0.48084806  1
  S  S23  1  0.74246556  0.83590342  0.21884596  1
