# generated using pymatgen
data_CaLaCrSbO6
_symmetry_space_group_name_H-M   'P 1'
_cell_length_a   5.66513038
_cell_length_b   5.87611954
_cell_length_c   7.89676635
_cell_angle_alpha   90.00000000
_cell_angle_beta   90.24720297
_cell_angle_gamma   90.00000000
_symmetry_Int_Tables_number   1
_chemical_formula_structural   CaLaCrSbO6
_chemical_formula_sum   'Ca2 La2 Cr2 Sb2 O12'
_cell_volume   262.87287680
_cell_formula_units_Z   2
loop_
 _symmetry_equiv_pos_site_id
 _symmetry_equiv_pos_as_xyz
  1  'x, y, z'
loop_
 _atom_site_type_symbol
 _atom_site_label
 _atom_site_symmetry_multiplicity
 _atom_site_fract_x
 _atom_site_fract_y
 _atom_site_fract_z
 _atom_site_occupancy
  Ca  Ca0  1  0.48623319  0.44512985  0.75051142  1
  Ca  Ca1  1  0.98623319  0.05487015  0.25051142  1
  La  La2  1  0.01304756  0.94851259  0.74949470  1
  La  La3  1  0.51304756  0.55148741  0.24949470  1
  Cr  Cr4  1  0.50059923  0.00214920  0.49916135  1
  Cr  Cr5  1  0.00059923  0.49785080  0.99916135  1
  Sb  Sb6  1  0.50027097  0.00248160  0.00095375  1
  Sb  Sb7  1  0.00027097  0.49751840  0.50095375  1
  O  O8  1  0.09747005  0.46421671  0.25416415  1
  O  O9  1  0.21858999  0.18940938  0.94927781  1
  O  O10  1  0.19350391  0.21162355  0.55185926  1
  O  O11  1  0.30889973  0.71205622  0.94702427  1
  O  O12  1  0.28481282  0.68408692  0.55176035  1
  O  O13  1  0.39657054  0.96806044  0.24579394  1
  O  O14  1  0.59747005  0.03578329  0.75416415  1
  O  O15  1  0.71858999  0.31059062  0.44927781  1
  O  O16  1  0.69350391  0.28837645  0.05185926  1
  O  O17  1  0.80889973  0.78794378  0.44702427  1
  O  O18  1  0.78481282  0.81591308  0.05176035  1
  O  O19  1  0.89657054  0.53193956  0.74579394  1
