# generated using pymatgen
data_Ba4Al2O7
_symmetry_space_group_name_H-M   'P 1'
_cell_length_a   8.23831749
_cell_length_b   8.23831812
_cell_length_c   27.58331120
_cell_angle_alpha   90.00000000
_cell_angle_beta   90.00000000
_cell_angle_gamma   92.28803317
_symmetry_Int_Tables_number   1
_chemical_formula_structural   Ba4Al2O7
_chemical_formula_sum   'Ba32 Al16 O56'
_cell_volume   1870.58352649
_cell_formula_units_Z   8
loop_
 _symmetry_equiv_pos_site_id
 _symmetry_equiv_pos_as_xyz
  1  'x, y, z'
loop_
 _atom_site_type_symbol
 _atom_site_label
 _atom_site_symmetry_multiplicity
 _atom_site_fract_x
 _atom_site_fract_y
 _atom_site_fract_z
 _atom_site_occupancy
  Ba  Ba0  1  0.53294430  0.02906777  0.08850916  1
  Ba  Ba1  1  0.20052625  0.20052625  0.00000000  1
  Ba  Ba2  1  0.50581850  0.49418150  0.60374539  1
  Ba  Ba3  1  0.00134286  0.99865714  0.56933539  1
  Ba  Ba4  1  0.74437454  0.25562546  0.33234282  1
  Ba  Ba5  1  0.00581850  0.99418150  0.89625461  1
  Ba  Ba6  1  0.03041457  0.46958543  0.75000000  1
  Ba  Ba7  1  0.96705570  0.47093223  0.58850916  1
  Ba  Ba8  1  0.46958543  0.03041457  0.25000000  1
  Ba  Ba9  1  0.53041457  0.96958543  0.75000000  1
  Ba  Ba10  1  0.70052625  0.70052625  0.50000000  1
  Ba  Ba11  1  0.99865714  0.00134286  0.43066461  1
  Ba  Ba12  1  0.47379752  0.52620248  0.25060184  1
  Ba  Ba13  1  0.24437454  0.75562546  0.16765718  1
  Ba  Ba14  1  0.47093223  0.96705570  0.41149084  1
  Ba  Ba15  1  0.52620248  0.47379752  0.74939816  1
  Ba  Ba16  1  0.02620248  0.97379752  0.75060184  1
  Ba  Ba17  1  0.99418150  0.00581850  0.10374539  1
  Ba  Ba18  1  0.97379752  0.02620248  0.24939816  1
  Ba  Ba19  1  0.25562546  0.74437454  0.66765718  1
  Ba  Ba20  1  0.75562546  0.24437454  0.83234282  1
  Ba  Ba21  1  0.52906777  0.03294430  0.58850916  1
  Ba  Ba22  1  0.49865714  0.50134286  0.06933539  1
  Ba  Ba23  1  0.97093223  0.46705570  0.08850916  1
  Ba  Ba24  1  0.46705570  0.97093223  0.91149084  1
  Ba  Ba25  1  0.29947375  0.29947375  0.50000000  1
  Ba  Ba26  1  0.50134286  0.49865714  0.93066461  1
  Ba  Ba27  1  0.02906777  0.53294430  0.91149084  1
  Ba  Ba28  1  0.03294430  0.52906777  0.41149084  1
  Ba  Ba29  1  0.96958543  0.53041457  0.25000000  1
  Ba  Ba30  1  0.79947375  0.79947375  0.00000000  1
  Ba  Ba31  1  0.49418150  0.50581850  0.39625461  1
  Al  Al32  1  0.69445576  0.30554424  0.17444949  1
  Al  Al33  1  0.23313697  0.23381346  0.34131981  1
  Al  Al34  1  0.76686303  0.76618654  0.65868019  1
  Al  Al35  1  0.73313697  0.73381346  0.15868019  1
  Al  Al36  1  0.26290886  0.73709114  0.00853199  1
  Al  Al37  1  0.26618654  0.26686303  0.15868019  1
  Al  Al38  1  0.80554424  0.19445576  0.67444949  1
  Al  Al39  1  0.76618654  0.76686303  0.34131981  1
  Al  Al40  1  0.19445576  0.80554424  0.32555051  1
  Al  Al41  1  0.73709114  0.26290886  0.99146801  1
  Al  Al42  1  0.76290886  0.23709114  0.49146801  1
  Al  Al43  1  0.23709114  0.76290886  0.50853199  1
  Al  Al44  1  0.30554424  0.69445576  0.82555051  1
  Al  Al45  1  0.23381346  0.23313697  0.65868019  1
  Al  Al46  1  0.73381346  0.73313697  0.84131981  1
  Al  Al47  1  0.26686303  0.26618654  0.84131981  1
  O  O48  1  0.24819027  0.75180973  0.76642765  1
  O  O49  1  0.78418168  0.21581832  0.12401974  1
  O  O50  1  0.25191125  0.74808875  0.07388833  1
  O  O51  1  0.51929321  0.72970077  0.83100793  1
  O  O52  1  0.02627619  0.72660839  0.49102608  1
  O  O53  1  0.44597207  0.18346108  0.81828109  1
  O  O54  1  0.25180973  0.74819027  0.26642765  1
  O  O55  1  0.47372381  0.77339161  0.99102608  1
  O  O56  1  0.73336019  0.75843312  0.40591278  1
  O  O57  1  0.22660839  0.52627619  0.99102608  1
  O  O58  1  0.57795093  0.69591697  0.68340841  1
  O  O59  1  0.87250170  0.12749830  0.01881442  1
  O  O60  1  0.77029923  0.98070679  0.66899207  1
  O  O61  1  0.71581832  0.28418168  0.62401974  1
  O  O62  1  0.75191125  0.24808875  0.42611167  1
  O  O63  1  0.75843312  0.73336019  0.59408722  1
  O  O64  1  0.98070679  0.77029923  0.33100793  1
  O  O65  1  0.55402793  0.81653892  0.18171891  1
  O  O66  1  0.72970077  0.51929321  0.16899207  1
  O  O67  1  0.21581832  0.78418168  0.87598026  1
  O  O68  1  0.27029923  0.48070679  0.83100793  1
  O  O69  1  0.74808875  0.25191125  0.92611167  1
  O  O70  1  0.18346108  0.44597207  0.18171891  1
  O  O71  1  0.68346108  0.94597207  0.31828109  1
  O  O72  1  0.80408303  0.92204907  0.81659159  1
  O  O73  1  0.19591697  0.07795093  0.18340841  1
  O  O74  1  0.23336019  0.25843312  0.09408722  1
  O  O75  1  0.07795093  0.19591697  0.81659159  1
  O  O76  1  0.81653892  0.55402793  0.81828109  1
  O  O77  1  0.22970077  0.01929321  0.33100793  1
  O  O78  1  0.31653892  0.05402793  0.68171891  1
  O  O79  1  0.77339161  0.47372381  0.00897392  1
  O  O80  1  0.97372381  0.27339161  0.50897392  1
  O  O81  1  0.26663981  0.24156688  0.59408722  1
  O  O82  1  0.37250170  0.62749830  0.48118558  1
  O  O83  1  0.12749830  0.87250170  0.98118558  1
  O  O84  1  0.75180973  0.24819027  0.23357235  1
  O  O85  1  0.74156688  0.76663981  0.09408722  1
  O  O86  1  0.25843312  0.23336019  0.90591278  1
  O  O87  1  0.52627619  0.22660839  0.00897392  1
  O  O88  1  0.27339161  0.97372381  0.49102608  1
  O  O89  1  0.76663981  0.74156688  0.90591278  1
  O  O90  1  0.01929321  0.22970077  0.66899207  1
  O  O91  1  0.92204907  0.80408303  0.18340841  1
  O  O92  1  0.74819027  0.25180973  0.73357235  1
  O  O93  1  0.05402793  0.31653892  0.31828109  1
  O  O94  1  0.24156688  0.26663981  0.40591278  1
  O  O95  1  0.24808875  0.75191125  0.57388833  1
  O  O96  1  0.62749830  0.37250170  0.51881442  1
  O  O97  1  0.42204907  0.30408303  0.31659159  1
  O  O98  1  0.30408303  0.42204907  0.68340841  1
  O  O99  1  0.28418168  0.71581832  0.37598026  1
  O  O100  1  0.94597207  0.68346108  0.68171891  1
  O  O101  1  0.72660839  0.02627619  0.50897392  1
  O  O102  1  0.69591697  0.57795093  0.31659159  1
  O  O103  1  0.48070679  0.27029923  0.16899207  1
