# generated using pymatgen
data_Na3MnF6
_symmetry_space_group_name_H-M   'P 1'
_cell_length_a   5.56275589
_cell_length_b   5.75684240
_cell_length_c   8.27391245
_cell_angle_alpha   90.00000000
_cell_angle_beta   91.73761827
_cell_angle_gamma   90.00000000
_symmetry_Int_Tables_number   1
_chemical_formula_structural   Na3MnF6
_chemical_formula_sum   'Na6 Mn2 F12'
_cell_volume   264.84118058
_cell_formula_units_Z   2
loop_
 _symmetry_equiv_pos_site_id
 _symmetry_equiv_pos_as_xyz
  1  'x, y, z'
loop_
 _atom_site_type_symbol
 _atom_site_label
 _atom_site_symmetry_multiplicity
 _atom_site_fract_x
 _atom_site_fract_y
 _atom_site_fract_z
 _atom_site_occupancy
  Na  Na0  1  0.00644246  0.44510210  0.24839801  1
  Na  Na1  1  0.49355754  0.94510210  0.25160199  1
  Na  Na2  1  0.99355754  0.55489790  0.75160199  1
  Na  Na3  1  0.50644246  0.05489790  0.74839801  1
  Na  Na4  1  0.50000000  0.50000000  0.00000000  1
  Na  Na5  1  0.00000000  0.00000000  0.50000000  1
  Mn  Mn6  1  0.50000000  0.50000000  0.50000000  1
  Mn  Mn7  1  0.00000000  0.00000000  0.00000000  1
  F  F8  1  0.66096901  0.77934894  0.56727986  1
  F  F9  1  0.83903099  0.27934894  0.93272014  1
  F  F10  1  0.33903099  0.22065106  0.43272014  1
  F  F11  1  0.16096901  0.72065106  0.06727986  1
  F  F12  1  0.21839061  0.67195897  0.44136565  1
  F  F13  1  0.28160939  0.17195897  0.05863435  1
  F  F14  1  0.78160939  0.32804103  0.55863435  1
  F  F15  1  0.71839061  0.82804103  0.94136565  1
  F  F16  1  0.11799088  0.93814729  0.76364091  1
  F  F17  1  0.38200912  0.43814729  0.73635909  1
  F  F18  1  0.88200912  0.06185271  0.23635909  1
  F  F19  1  0.61799088  0.56185271  0.26364091  1
