# generated using pymatgen
data_Tl4V5CdClO15
_symmetry_space_group_name_H-M   'P 1'
_cell_length_a   5.71441908
_cell_length_b   9.27444189
_cell_length_c   9.27444189
_cell_angle_alpha   90.00000000
_cell_angle_beta   90.00000000
_cell_angle_gamma   90.00000000
_symmetry_Int_Tables_number   1
_chemical_formula_structural   Tl4V5CdClO15
_chemical_formula_sum   'Tl4 V5 Cd1 Cl1 O15'
_cell_volume   491.52731361
_cell_formula_units_Z   1
loop_
 _symmetry_equiv_pos_site_id
 _symmetry_equiv_pos_as_xyz
  1  'x, y, z'
loop_
 _atom_site_type_symbol
 _atom_site_label
 _atom_site_symmetry_multiplicity
 _atom_site_fract_x
 _atom_site_fract_y
 _atom_site_fract_z
 _atom_site_occupancy
  Tl  Tl0  1  0.92012233  0.31321881  0.83418740  1
  Tl  Tl1  1  0.92012233  0.68678119  0.16581260  1
  Tl  Tl2  1  0.92012233  0.83418740  0.68678119  1
  Tl  Tl3  1  0.92012233  0.16581260  0.31321881  1
  V  V4  1  0.44698353  0.61943032  0.85651696  1
  V  V5  1  0.44698353  0.85651696  0.38056968  1
  V  V6  1  0.44698353  0.14348304  0.61943032  1
  V  V7  1  0.47174900  0.50000000  0.50000000  1
  V  V8  1  0.44698353  0.38056968  0.14348304  1
  Cd  Cd9  1  0.48917317  0.00000000  0.00000000  1
  Cl  Cl10  1  0.03416608  0.00000000  0.00000000  1
  O  O11  1  0.15480721  0.37563645  0.14531188  1
  O  O12  1  0.55063373  0.50000000  0.00000000  1
  O  O13  1  0.15480721  0.85468812  0.37563645  1
  O  O14  1  0.15480721  0.62436355  0.85468812  1
  O  O15  1  0.56053946  0.21128912  0.11640003  1
  O  O16  1  0.56053946  0.11640003  0.78871088  1
  O  O17  1  0.55958078  0.69055068  0.44788368  1
  O  O18  1  0.56053946  0.78871088  0.88359997  1
  O  O19  1  0.55958078  0.30944932  0.55211632  1
  O  O20  1  0.55958078  0.44788368  0.30944932  1
  O  O21  1  0.15480721  0.14531188  0.62436355  1
  O  O22  1  0.55063373  0.00000000  0.50000000  1
  O  O23  1  0.55958078  0.55211632  0.69055068  1
  O  O24  1  0.56053946  0.88359997  0.21128912  1
  O  O25  1  0.18855103  0.50000000  0.50000000  1
