# generated using pymatgen
data_BaTlVO4
_symmetry_space_group_name_H-M   'P 1'
_cell_length_a   6.01378718
_cell_length_b   8.02223357
_cell_length_c   10.63140934
_cell_angle_alpha   90.00000000
_cell_angle_beta   90.00000000
_cell_angle_gamma   90.00000000
_symmetry_Int_Tables_number   1
_chemical_formula_structural   BaTlVO4
_chemical_formula_sum   'Ba4 Tl4 V4 O16'
_cell_volume   512.90176959
_cell_formula_units_Z   4
loop_
 _symmetry_equiv_pos_site_id
 _symmetry_equiv_pos_as_xyz
  1  'x, y, z'
loop_
 _atom_site_type_symbol
 _atom_site_label
 _atom_site_symmetry_multiplicity
 _atom_site_fract_x
 _atom_site_fract_y
 _atom_site_fract_z
 _atom_site_occupancy
  Ba  Ba0  1  0.75000000  0.99591135  0.20215189  1
  Ba  Ba1  1  0.25000000  0.00408865  0.79784811  1
  Ba  Ba2  1  0.75000000  0.49591135  0.29784811  1
  Ba  Ba3  1  0.25000000  0.50408865  0.70215189  1
  Tl  Tl4  1  0.75000000  0.17139668  0.57262494  1
  Tl  Tl5  1  0.25000000  0.82860332  0.42737506  1
  Tl  Tl6  1  0.75000000  0.67139668  0.92737506  1
  Tl  Tl7  1  0.25000000  0.32860332  0.07262494  1
  V  V8  1  0.75000000  0.72223776  0.58026136  1
  V  V9  1  0.25000000  0.27776224  0.41973864  1
  V  V10  1  0.75000000  0.22223776  0.91973864  1
  V  V11  1  0.25000000  0.77776224  0.08026136  1
  O  O12  1  0.75000000  0.29499727  0.07548479  1
  O  O13  1  0.25000000  0.70500273  0.92451521  1
  O  O14  1  0.75000000  0.79499727  0.42451521  1
  O  O15  1  0.25000000  0.20500273  0.57548479  1
  O  O16  1  0.75000000  0.00557843  0.92680504  1
  O  O17  1  0.25000000  0.99442157  0.07319496  1
  O  O18  1  0.75000000  0.50557843  0.57319496  1
  O  O19  1  0.25000000  0.49442157  0.42680504  1
  O  O20  1  0.99278133  0.28771982  0.84376718  1
  O  O21  1  0.49278133  0.71228018  0.15623282  1
  O  O22  1  0.50721867  0.78771982  0.65623282  1
  O  O23  1  0.00721867  0.21228018  0.34376718  1
  O  O24  1  0.00721867  0.71228018  0.15623282  1
  O  O25  1  0.50721867  0.28771982  0.84376718  1
  O  O26  1  0.49278133  0.21228018  0.34376718  1
  O  O27  1  0.99278133  0.78771982  0.65623282  1
