# generated using pymatgen
data_La10S14O
_symmetry_space_group_name_H-M   'P 1'
_cell_length_a   14.92933420
_cell_length_b   14.92933414
_cell_length_c   14.92933463
_cell_angle_alpha   93.63403914
_cell_angle_beta   117.92454045
_cell_angle_gamma   117.92453850
_symmetry_Int_Tables_number   1
_chemical_formula_structural   La10S14O
_chemical_formula_sum   'La40 S56 O4'
_cell_volume   2421.45911908
_cell_formula_units_Z   4
loop_
 _symmetry_equiv_pos_site_id
 _symmetry_equiv_pos_as_xyz
  1  'x, y, z'
loop_
 _atom_site_type_symbol
 _atom_site_label
 _atom_site_symmetry_multiplicity
 _atom_site_fract_x
 _atom_site_fract_y
 _atom_site_fract_z
 _atom_site_occupancy
  La  La0  1  0.60041843  0.01901198  0.67471814  1
  La  La1  1  0.51924687  0.50962344  0.25962344  1
  La  La2  1  0.15570617  0.07429971  0.17471814  1
  La  La3  1  0.62387280  0.31410051  0.42551385  1
  La  La4  1  0.15570617  0.58140645  0.98098802  1
  La  La5  1  0.11141334  0.42551385  0.30164104  1
  La  La6  1  0.37612720  0.19022771  0.80164104  1
  La  La7  1  0.01924687  0.75962344  0.00962344  1
  La  La8  1  0.75000000  0.25962344  0.24037656  1
  La  La9  1  0.34429383  0.51901198  0.91859355  1
  La  La10  1  0.10041843  0.42570029  0.58140645  1
  La  La11  1  0.25000000  0.74037656  0.75962344  1
  La  La12  1  0.37612720  0.68589949  0.57448615  1
  La  La13  1  0.75000000  0.99037656  0.50962344  1
  La  La14  1  0.65570617  0.67471814  0.57429971  1
  La  La15  1  0.12387280  0.92551385  0.81410051  1
  La  La16  1  0.38858666  0.69022771  0.31410051  1
  La  La17  1  0.38858666  0.19835896  0.07448615  1
  La  La18  1  0.98075313  0.24037656  0.99037656  1
  La  La19  1  0.60041843  0.08140645  0.92570029  1
  La  La20  1  0.87612720  0.07448615  0.18589949  1
  La  La21  1  0.65570617  0.48098802  0.08140645  1
  La  La22  1  0.89958157  0.82528186  0.48098802  1
  La  La23  1  0.39958157  0.98098802  0.32528186  1
  La  La24  1  0.87612720  0.30164104  0.69022771  1
  La  La25  1  0.25000000  0.00962344  0.49037656  1
  La  La26  1  0.84429383  0.92570029  0.82528186  1
  La  La27  1  0.39958157  0.91859355  0.07429971  1
  La  La28  1  0.61141334  0.30977229  0.68589949  1
  La  La29  1  0.61141334  0.80164104  0.92551385  1
  La  La30  1  0.88858666  0.81410051  0.19022771  1
  La  La31  1  0.88858666  0.57448615  0.69835896  1
  La  La32  1  0.48075313  0.49037656  0.74037656  1
  La  La33  1  0.89958157  0.57429971  0.41859355  1
  La  La34  1  0.84429383  0.41859355  0.01901198  1
  La  La35  1  0.62387280  0.80977229  0.19835896  1
  La  La36  1  0.11141334  0.18589949  0.80977229  1
  La  La37  1  0.34429383  0.32528186  0.42570029  1
  La  La38  1  0.10041843  0.17471814  0.51901198  1
  La  La39  1  0.12387280  0.69835896  0.30977229  1
  S  S40  1  0.64732823  0.39732823  0.25000000  1
  S  S41  1  0.85267177  0.25000000  0.10267177  1
  S  S42  1  0.08483907  0.06390982  0.33447410  1
  S  S43  1  0.77056428  0.02092925  0.93609018  1
  S  S44  1  0.90761835  0.52737044  0.88564301  1
  S  S45  1  0.10922965  0.24273982  0.20997891  1
  S  S46  1  0.41516093  0.74963503  0.97907075  1
  S  S47  1  0.59238165  0.61435699  0.97262956  1
  S  S48  1  0.91516093  0.93609018  0.66552590  1
  S  S49  1  0.64172742  0.11435699  0.52197533  1
  S  S50  1  0.35827258  0.88564301  0.47802467  1
  S  S51  1  0.64172742  0.02737044  0.11975209  1
  S  S52  1  0.46723908  0.86648983  0.75726018  1
  S  S53  1  0.39077035  0.60074926  0.13351017  1
  S  S54  1  0.60922965  0.70997891  0.74273982  1
  S  S55  1  0.72943572  0.66552590  0.25036497  1
  S  S56  1  0.85267177  0.10267177  0.75000000  1
  S  S57  1  0.14172742  0.61975209  0.52737044  1
  S  S58  1  0.14732823  0.75000000  0.89732823  1
  S  S59  1  0.35827258  0.97262956  0.88024791  1
  S  S60  1  0.10922965  0.36648983  0.89925074  1
  S  S61  1  0.03276092  0.79002109  0.39925074  1
  S  S62  1  0.58483907  0.83447410  0.56390982  1
  S  S63  1  0.35267177  0.25000000  0.60267177  1
  S  S64  1  0.27056428  0.33447410  0.74963503  1
  S  S65  1  0.39077035  0.29002109  0.25726018  1
  S  S66  1  0.08483907  0.52092925  0.75036497  1
  S  S67  1  0.53276092  0.89925074  0.29002109  1
  S  S68  1  0.03276092  0.74273982  0.63351017  1
  S  S69  1  0.09238165  0.11975209  0.97802467  1
  S  S70  1  0.85827258  0.38024791  0.47262956  1
  S  S71  1  0.89077035  0.63351017  0.10074926  1
  S  S72  1  0.77056428  0.24963503  0.83447410  1
  S  S73  1  0.09238165  0.47262956  0.11435699  1
  S  S74  1  0.14732823  0.89732823  0.25000000  1
  S  S75  1  0.40761835  0.38564301  0.02737044  1
  S  S76  1  0.60922965  0.39925074  0.86648983  1
  S  S77  1  0.96723908  0.20997891  0.60074926  1
  S  S78  1  0.90761835  0.88024791  0.02197533  1
  S  S79  1  0.91516093  0.47907075  0.24963503  1
  S  S80  1  0.72943572  0.56390982  0.47907075  1
  S  S81  1  0.64732823  0.75000000  0.39732823  1
  S  S82  1  0.14172742  0.02197533  0.61435699  1
  S  S83  1  0.89077035  0.75726018  0.79002109  1
  S  S84  1  0.96723908  0.25726018  0.36648983  1
  S  S85  1  0.53276092  0.13351017  0.24273982  1
  S  S86  1  0.58483907  0.25036497  0.02092925  1
  S  S87  1  0.22943572  0.97907075  0.06390982  1
  S  S88  1  0.41516093  0.16552590  0.43609018  1
  S  S89  1  0.46723908  0.10074926  0.70997891  1
  S  S90  1  0.35267177  0.60267177  0.75000000  1
  S  S91  1  0.40761835  0.52197533  0.38024791  1
  S  S92  1  0.59238165  0.47802467  0.61975209  1
  S  S93  1  0.22943572  0.75036497  0.16552590  1
  S  S94  1  0.85827258  0.97802467  0.38564301  1
  S  S95  1  0.27056428  0.43609018  0.52092925  1
  O  O96  1  0.75000000  0.37500000  0.62500000  1
  O  O97  1  0.25000000  0.12500000  0.87500000  1
  O  O98  1  0.75000000  0.87500000  0.12500000  1
  O  O99  1  0.25000000  0.62500000  0.37500000  1
