# generated using pymatgen
data_BaFeF5
_symmetry_space_group_name_H-M   'P 1'
_cell_length_a   8.03170736
_cell_length_b   9.69269557
_cell_length_c   11.57203553
_cell_angle_alpha   93.73373074
_cell_angle_beta   90.00000000
_cell_angle_gamma   90.00000000
_symmetry_Int_Tables_number   1
_chemical_formula_structural   BaFeF5
_chemical_formula_sum   'Ba8 Fe8 F40'
_cell_volume   898.95803265
_cell_formula_units_Z   8
loop_
 _symmetry_equiv_pos_site_id
 _symmetry_equiv_pos_as_xyz
  1  'x, y, z'
loop_
 _atom_site_type_symbol
 _atom_site_label
 _atom_site_symmetry_multiplicity
 _atom_site_fract_x
 _atom_site_fract_y
 _atom_site_fract_z
 _atom_site_occupancy
  Ba  Ba0  1  0.78427008  0.68674766  0.35569692  1
  Ba  Ba1  1  0.28427008  0.81325234  0.14430308  1
  Ba  Ba2  1  0.21572992  0.31325234  0.64430308  1
  Ba  Ba3  1  0.71572992  0.18674766  0.85569692  1
  Ba  Ba4  1  0.71819788  0.22846685  0.45511541  1
  Ba  Ba5  1  0.21819788  0.27153315  0.04488459  1
  Ba  Ba6  1  0.28180212  0.77153315  0.54488459  1
  Ba  Ba7  1  0.78180212  0.72846685  0.95511541  1
  Fe  Fe8  1  0.70851910  0.37117557  0.15996842  1
  Fe  Fe9  1  0.20851910  0.12882443  0.34003158  1
  Fe  Fe10  1  0.29148090  0.62882443  0.84003158  1
  Fe  Fe11  1  0.79148090  0.87117557  0.65996842  1
  Fe  Fe12  1  0.80594604  0.99322244  0.18448058  1
  Fe  Fe13  1  0.30594604  0.50677756  0.31551942  1
  Fe  Fe14  1  0.19405396  0.00677756  0.81551942  1
  Fe  Fe15  1  0.69405396  0.49322244  0.68448058  1
  F  F16  1  0.05915858  0.17825425  0.83344075  1
  F  F17  1  0.55915858  0.32174575  0.66655925  1
  F  F18  1  0.94084142  0.82174575  0.16655925  1
  F  F19  1  0.44084142  0.67825425  0.33344075  1
  F  F20  1  0.51926613  0.40704066  0.27902219  1
  F  F21  1  0.01926613  0.09295934  0.22097781  1
  F  F22  1  0.48073387  0.59295934  0.72097781  1
  F  F23  1  0.98073387  0.90704066  0.77902219  1
  F  F24  1  0.54913142  0.31184993  0.04213660  1
  F  F25  1  0.04913142  0.18815007  0.45786340  1
  F  F26  1  0.45086858  0.68815007  0.95786340  1
  F  F27  1  0.95086858  0.81184993  0.54213660  1
  F  F28  1  0.61699721  0.86843771  0.15166976  1
  F  F29  1  0.11699721  0.63156229  0.34833024  1
  F  F30  1  0.38300279  0.13156229  0.84833024  1
  F  F31  1  0.88300279  0.36843771  0.65166976  1
  F  F32  1  0.80447980  0.67494605  0.71373923  1
  F  F33  1  0.30447980  0.82505395  0.78626077  1
  F  F34  1  0.19552020  0.32505395  0.28626077  1
  F  F35  1  0.69552020  0.17494605  0.21373923  1
  F  F36  1  0.72922655  0.46940135  0.84734388  1
  F  F37  1  0.22922655  0.03059865  0.65265612  1
  F  F38  1  0.27077345  0.53059865  0.15265612  1
  F  F39  1  0.77077345  0.96940135  0.34734388  1
  F  F40  1  0.65767953  0.90886293  0.79732307  1
  F  F41  1  0.15767953  0.59113707  0.70267693  1
  F  F42  1  0.34232047  0.09113707  0.20267693  1
  F  F43  1  0.84232047  0.40886293  0.29732307  1
  F  F44  1  0.61366889  0.82145504  0.55289642  1
  F  F45  1  0.11366889  0.67854496  0.94710358  1
  F  F46  1  0.38633111  0.17854496  0.44710358  1
  F  F47  1  0.88633111  0.32145504  0.05289642  1
  F  F48  1  0.78203408  0.06464730  0.63293644  1
  F  F49  1  0.28203408  0.43535270  0.86706356  1
  F  F50  1  0.21796592  0.93535270  0.36706356  1
  F  F51  1  0.71796592  0.56464730  0.13293644  1
  F  F52  1  0.31237165  0.48606603  0.47992735  1
  F  F53  1  0.81237165  0.01393397  0.02007265  1
  F  F54  1  0.68762835  0.51393397  0.52007265  1
  F  F55  1  0.18762835  0.98606603  0.97992735  1
