# generated using pymatgen
data_HfNi5(BO5)2
_symmetry_space_group_name_H-M   'P 1'
_cell_length_a   6.16226020
_cell_length_b   9.39898644
_cell_length_c   12.41325383
_cell_angle_alpha   90.00000000
_cell_angle_beta   90.00000000
_cell_angle_gamma   90.00000000
_symmetry_Int_Tables_number   1
_chemical_formula_structural   HfNi5(BO5)2
_chemical_formula_sum   'Hf4 Ni20 B8 O40'
_cell_volume   718.96324932
_cell_formula_units_Z   4
loop_
 _symmetry_equiv_pos_site_id
 _symmetry_equiv_pos_as_xyz
  1  'x, y, z'
loop_
 _atom_site_type_symbol
 _atom_site_label
 _atom_site_symmetry_multiplicity
 _atom_site_fract_x
 _atom_site_fract_y
 _atom_site_fract_z
 _atom_site_occupancy
  Hf  Hf0  1  0.25000000  0.24067405  0.61587665  1
  Hf  Hf1  1  0.75000000  0.25932595  0.11587665  1
  Hf  Hf2  1  0.25000000  0.74067405  0.88412335  1
  Hf  Hf3  1  0.75000000  0.75932595  0.38412335  1
  Ni  Ni4  1  0.50476714  0.50111260  0.71758504  1
  Ni  Ni5  1  0.75000000  0.49281915  0.50288318  1
  Ni  Ni6  1  0.75000000  0.73788500  0.88580559  1
  Ni  Ni7  1  0.99523286  0.50111260  0.71758504  1
  Ni  Ni8  1  0.49523286  0.99888740  0.21758504  1
  Ni  Ni9  1  0.25000000  0.26211500  0.11419441  1
  Ni  Ni10  1  0.99523286  0.00111260  0.78241496  1
  Ni  Ni11  1  0.50476714  0.00111260  0.78241496  1
  Ni  Ni12  1  0.49523286  0.49888740  0.28241496  1
  Ni  Ni13  1  0.00476714  0.99888740  0.21758504  1
  Ni  Ni14  1  0.00476714  0.49888740  0.28241496  1
  Ni  Ni15  1  0.00000000  0.00000000  0.50000000  1
  Ni  Ni16  1  0.25000000  0.76211500  0.38580559  1
  Ni  Ni17  1  0.25000000  0.00718085  0.00288318  1
  Ni  Ni18  1  0.75000000  0.99281915  0.99711682  1
  Ni  Ni19  1  0.25000000  0.50718085  0.49711682  1
  Ni  Ni20  1  0.50000000  0.50000000  0.00000000  1
  Ni  Ni21  1  0.00000000  0.50000000  0.00000000  1
  Ni  Ni22  1  0.75000000  0.23788500  0.61419441  1
  Ni  Ni23  1  0.50000000  0.00000000  0.50000000  1
  B  B24  1  0.25000000  0.77669705  0.63523057  1
  B  B25  1  0.25000000  0.27669705  0.86476943  1
  B  B26  1  0.75000000  0.22330295  0.36476943  1
  B  B27  1  0.75000000  0.72330295  0.13523057  1
  B  B28  1  0.75000000  0.77212595  0.64415149  1
  B  B29  1  0.25000000  0.22787405  0.35584851  1
  B  B30  1  0.75000000  0.27212595  0.85584851  1
  B  B31  1  0.25000000  0.72787405  0.14415149  1
  O  O32  1  0.00632558  0.38837410  0.57656480  1
  O  O33  1  0.75000000  0.64923797  0.23388168  1
  O  O34  1  0.25000000  0.65448484  0.04508451  1
  O  O35  1  0.75000000  0.34551516  0.95491549  1
  O  O36  1  0.75000000  0.34830730  0.76081335  1
  O  O37  1  0.99367442  0.61162590  0.42343520  1
  O  O38  1  0.25000000  0.65169270  0.23918665  1
  O  O39  1  0.99648970  0.39717351  0.14365140  1
  O  O40  1  0.25000000  0.12955837  0.86052083  1
  O  O41  1  0.25000000  0.15448484  0.45491549  1
  O  O42  1  0.75000000  0.87044163  0.13947917  1
  O  O43  1  0.49367442  0.88837410  0.92343520  1
  O  O44  1  0.75000000  0.37044163  0.36052083  1
  O  O45  1  0.50632558  0.61162590  0.42343520  1
  O  O46  1  0.00351030  0.10282649  0.64365140  1
  O  O47  1  0.99367442  0.11162590  0.07656480  1
  O  O48  1  0.00351030  0.60282649  0.85634860  1
  O  O49  1  0.75000000  0.84830730  0.73918665  1
  O  O50  1  0.50351030  0.89717351  0.35634860  1
  O  O51  1  0.49648970  0.60282649  0.85634860  1
  O  O52  1  0.75000000  0.62444435  0.64359482  1
  O  O53  1  0.75000000  0.64669892  0.04004409  1
  O  O54  1  0.75000000  0.84551516  0.54508451  1
  O  O55  1  0.25000000  0.87555565  0.14359482  1
  O  O56  1  0.25000000  0.62955837  0.63947917  1
  O  O57  1  0.00632558  0.88837410  0.92343520  1
  O  O58  1  0.25000000  0.35076203  0.76611832  1
  O  O59  1  0.49367442  0.38837410  0.57656480  1
  O  O60  1  0.49648970  0.10282649  0.64365140  1
  O  O61  1  0.50351030  0.39717351  0.14365140  1
  O  O62  1  0.75000000  0.12444435  0.85640518  1
  O  O63  1  0.25000000  0.85330108  0.54004409  1
  O  O64  1  0.25000000  0.35330108  0.95995591  1
  O  O65  1  0.99648970  0.89717351  0.35634860  1
  O  O66  1  0.25000000  0.37555565  0.35640518  1
  O  O67  1  0.25000000  0.85076203  0.73388168  1
  O  O68  1  0.50632558  0.11162590  0.07656480  1
  O  O69  1  0.25000000  0.15169270  0.26081335  1
  O  O70  1  0.75000000  0.14923797  0.26611832  1
  O  O71  1  0.75000000  0.14669892  0.45995591  1
