# generated using pymatgen
data_CaMn2O4
_symmetry_space_group_name_H-M   'P 1'
_cell_length_a   6.39550951
_cell_length_b   6.23870798
_cell_length_c   6.23870799
_cell_angle_alpha   59.99999563
_cell_angle_beta   60.80777493
_cell_angle_gamma   60.80777239
_symmetry_Int_Tables_number   1
_chemical_formula_structural   CaMn2O4
_chemical_formula_sum   'Ca2 Mn4 O8'
_cell_volume   178.13343526
_cell_formula_units_Z   2
loop_
 _symmetry_equiv_pos_site_id
 _symmetry_equiv_pos_as_xyz
  1  'x, y, z'
loop_
 _atom_site_type_symbol
 _atom_site_label
 _atom_site_symmetry_multiplicity
 _atom_site_fract_x
 _atom_site_fract_y
 _atom_site_fract_z
 _atom_site_occupancy
  Ca  Ca0  1  0.96868779  0.01043707  0.01043707  1
  Ca  Ca1  1  0.12680541  0.62439786  0.62439786  1
  Mn  Mn2  1  0.27712196  0.24095935  0.24095935  1
  Mn  Mn3  1  0.62357287  0.12159502  0.62741656  1
  Mn  Mn4  1  0.62357287  0.62741656  0.12159502  1
  Mn  Mn5  1  0.62357287  0.62741656  0.62741656  1
  O  O6  1  0.43248707  0.36965341  0.36965341  1
  O  O7  1  0.43248707  0.36965341  0.82820510  1
  O  O8  1  0.43248707  0.82820510  0.36965341  1
  O  O9  1  0.87358034  0.37547355  0.37547355  1
  O  O10  1  0.39780045  0.86739918  0.86739918  1
  O  O11  1  0.81261008  0.43856124  0.87441434  1
  O  O12  1  0.81261008  0.87441434  0.43856124  1
  O  O13  1  0.81261008  0.87441434  0.87441434  1
