# generated using pymatgen
data_K6NbAs3O
_symmetry_space_group_name_H-M   'P 1'
_cell_length_a   11.16751709
_cell_length_b   11.16751709
_cell_length_c   11.16751709
_cell_angle_alpha   90.00000000
_cell_angle_beta   90.00000000
_cell_angle_gamma   90.00000000
_symmetry_Int_Tables_number   1
_chemical_formula_structural   K6NbAs3O
_chemical_formula_sum   'K24 Nb4 As12 O4'
_cell_volume   1392.73944972
_cell_formula_units_Z   4
loop_
 _symmetry_equiv_pos_site_id
 _symmetry_equiv_pos_as_xyz
  1  'x, y, z'
loop_
 _atom_site_type_symbol
 _atom_site_label
 _atom_site_symmetry_multiplicity
 _atom_site_fract_x
 _atom_site_fract_y
 _atom_site_fract_z
 _atom_site_occupancy
  K  K0  1  0.78541161  0.36542469  0.53583604  1
  K  K1  1  0.13721485  0.36278515  0.63721485  1
  K  K2  1  0.46416396  0.28541161  0.13457531  1
  K  K3  1  0.86278515  0.86278515  0.86278515  1
  K  K4  1  0.68170498  0.31829502  0.81829502  1
  K  K5  1  0.31829502  0.81829502  0.68170498  1
  K  K6  1  0.53583604  0.78541161  0.36542469  1
  K  K7  1  0.81829502  0.68170498  0.31829502  1
  K  K8  1  0.36278515  0.63721485  0.13721485  1
  K  K9  1  0.15222523  0.84777477  0.34777477  1
  K  K10  1  0.65222523  0.65222523  0.65222523  1
  K  K11  1  0.28541161  0.13457531  0.46416396  1
  K  K12  1  0.21458839  0.86542469  0.96416396  1
  K  K13  1  0.71458839  0.63457531  0.03583604  1
  K  K14  1  0.63457531  0.03583604  0.71458839  1
  K  K15  1  0.13457531  0.46416396  0.28541161  1
  K  K16  1  0.96416396  0.21458839  0.86542469  1
  K  K17  1  0.34777477  0.15222523  0.84777477  1
  K  K18  1  0.86542469  0.96416396  0.21458839  1
  K  K19  1  0.84777477  0.34777477  0.15222523  1
  K  K20  1  0.03583604  0.71458839  0.63457531  1
  K  K21  1  0.36542469  0.53583604  0.78541161  1
  K  K22  1  0.18170498  0.18170498  0.18170498  1
  K  K23  1  0.63721485  0.13721485  0.36278515  1
  Nb  Nb24  1  0.42999701  0.42999701  0.42999701  1
  Nb  Nb25  1  0.57000299  0.92999701  0.07000299  1
  Nb  Nb26  1  0.07000299  0.57000299  0.92999701  1
  Nb  Nb27  1  0.92999701  0.07000299  0.57000299  1
  As  As28  1  0.30576307  0.61334032  0.48015777  1
  As  As29  1  0.98015777  0.19423693  0.38665968  1
  As  As30  1  0.51984223  0.80576307  0.88665968  1
  As  As31  1  0.69423693  0.11334032  0.01984223  1
  As  As32  1  0.19423693  0.38665968  0.98015777  1
  As  As33  1  0.01984223  0.69423693  0.11334032  1
  As  As34  1  0.61334032  0.48015777  0.30576307  1
  As  As35  1  0.38665968  0.98015777  0.19423693  1
  As  As36  1  0.80576307  0.88665968  0.51984223  1
  As  As37  1  0.88665968  0.51984223  0.80576307  1
  As  As38  1  0.11334032  0.01984223  0.69423693  1
  As  As39  1  0.48015777  0.30576307  0.61334032  1
  O  O40  1  0.16606178  0.66606178  0.83393822  1
  O  O41  1  0.33393822  0.33393822  0.33393822  1
  O  O42  1  0.66606178  0.83393822  0.16606178  1
  O  O43  1  0.83393822  0.16606178  0.66606178  1
