# generated using pymatgen
data_NaAu(SO4)2
_symmetry_space_group_name_H-M   'P 1'
_cell_length_a   4.79769693
_cell_length_b   8.55040088
_cell_length_c   8.61016485
_cell_angle_alpha   90.00000000
_cell_angle_beta   90.00000000
_cell_angle_gamma   95.28741655
_symmetry_Int_Tables_number   1
_chemical_formula_structural   NaAu(SO4)2
_chemical_formula_sum   'Na2 Au2 S4 O16'
_cell_volume   351.70526596
_cell_formula_units_Z   2
loop_
 _symmetry_equiv_pos_site_id
 _symmetry_equiv_pos_as_xyz
  1  'x, y, z'
loop_
 _atom_site_type_symbol
 _atom_site_label
 _atom_site_symmetry_multiplicity
 _atom_site_fract_x
 _atom_site_fract_y
 _atom_site_fract_z
 _atom_site_occupancy
  Na  Na0  1  0.50000000  0.50000000  0.00000000  1
  Na  Na1  1  0.00000000  0.00000000  0.50000000  1
  Au  Au2  1  0.00000000  0.00000000  0.00000000  1
  Au  Au3  1  0.50000000  0.50000000  0.50000000  1
  S  S4  1  0.50668028  0.11319670  0.79288537  1
  S  S5  1  0.00668028  0.61319670  0.70711463  1
  S  S6  1  0.49331972  0.88680330  0.20711463  1
  S  S7  1  0.99331972  0.38680330  0.29288537  1
  O  O8  1  0.83041458  0.46698454  0.63976649  1
  O  O9  1  0.16958542  0.53301546  0.36023351  1
  O  O10  1  0.33041458  0.96698454  0.86023351  1
  O  O11  1  0.80875780  0.06098818  0.79838176  1
  O  O12  1  0.69124220  0.43901182  0.29838176  1
  O  O13  1  0.02426466  0.25057682  0.38815141  1
  O  O14  1  0.19124220  0.93901182  0.20161824  1
  O  O15  1  0.66958542  0.03301546  0.13976649  1
  O  O16  1  0.44850171  0.12622738  0.62811926  1
  O  O17  1  0.97573534  0.74942318  0.61184859  1
  O  O18  1  0.52426466  0.75057682  0.11184859  1
  O  O19  1  0.94850171  0.62622738  0.87188074  1
  O  O20  1  0.30875780  0.56098818  0.70161824  1
  O  O21  1  0.55149829  0.87377262  0.37188074  1
  O  O22  1  0.47573534  0.24942318  0.88815141  1
  O  O23  1  0.05149829  0.37377262  0.12811926  1
