# generated using pymatgen
data_Ba2Fe2Se2OF2
_symmetry_space_group_name_H-M   'P 1'
_cell_length_a   4.26499243
_cell_length_b   4.26487934
_cell_length_c   10.43555647
_cell_angle_alpha   101.78234610
_cell_angle_beta   101.78279121
_cell_angle_gamma   89.99650878
_symmetry_Int_Tables_number   1
_chemical_formula_structural   Ba2Fe2Se2OF2
_chemical_formula_sum   'Ba2 Fe2 Se2 O1 F2'
_cell_volume   181.73275683
_cell_formula_units_Z   1
loop_
 _symmetry_equiv_pos_site_id
 _symmetry_equiv_pos_as_xyz
  1  'x, y, z'
loop_
 _atom_site_type_symbol
 _atom_site_label
 _atom_site_symmetry_multiplicity
 _atom_site_fract_x
 _atom_site_fract_y
 _atom_site_fract_z
 _atom_site_occupancy
  Se  Se0  1  0.90972832  0.90973925  0.81977634  1
  Ba  Ba1  1  0.32986322  0.32986746  0.65980590  1
  F  F2  1  0.25001166  0.75001356  0.50000884  1
  F  F3  1  0.74998394  0.24998442  0.49998736  1
  Ba  Ba4  1  0.67013312  0.67013149  0.34019116  1
  Fe  Fe5  1  0.99999627  0.50000279  0.99999284  1
  Se  Se6  1  0.09026933  0.09026050  0.18022059  1
  O  O7  1  0.49999882  0.50000038  0.99999855  1
  Fe  Fe8  1  0.50001532  0.00000016  0.00001843  1
