# generated using pymatgen
data_Sr3Fe2(SeO3)6
_symmetry_space_group_name_H-M   'P 1'
_cell_length_a   14.35921052
_cell_length_b   14.35921109
_cell_length_c   14.35921064
_cell_angle_alpha   36.19377067
_cell_angle_beta   36.19376758
_cell_angle_gamma   36.19376768
_symmetry_Int_Tables_number   1
_chemical_formula_structural   Sr3Fe2(SeO3)6
_chemical_formula_sum   'Sr6 Fe4 Se12 O36'
_cell_volume   923.74194045
_cell_formula_units_Z   2
loop_
 _symmetry_equiv_pos_site_id
 _symmetry_equiv_pos_as_xyz
  1  'x, y, z'
loop_
 _atom_site_type_symbol
 _atom_site_label
 _atom_site_symmetry_multiplicity
 _atom_site_fract_x
 _atom_site_fract_y
 _atom_site_fract_z
 _atom_site_occupancy
  Sr  Sr0  1  0.66165397  0.83834603  0.25000000  1
  Sr  Sr1  1  0.83834603  0.25000000  0.66165397  1
  Sr  Sr2  1  0.33834603  0.16165397  0.75000000  1
  Sr  Sr3  1  0.16165397  0.75000000  0.33834603  1
  Sr  Sr4  1  0.75000000  0.33834603  0.16165397  1
  Sr  Sr5  1  0.25000000  0.66165397  0.83834603  1
  Fe  Fe6  1  0.50000000  0.50000000  0.50000000  1
  Fe  Fe7  1  0.00000000  0.00000000  0.00000000  1
  Fe  Fe8  1  0.25000000  0.25000000  0.25000000  1
  Fe  Fe9  1  0.75000000  0.75000000  0.75000000  1
  Se  Se10  1  0.19339583  0.91204354  0.48299729  1
  Se  Se11  1  0.51700271  0.80660417  0.08795646  1
  Se  Se12  1  0.30660417  0.01700271  0.58795646  1
  Se  Se13  1  0.48299729  0.19339583  0.91204354  1
  Se  Se14  1  0.01700271  0.58795646  0.30660417  1
  Se  Se15  1  0.91204354  0.48299729  0.19339583  1
  Se  Se16  1  0.69339583  0.98299729  0.41204354  1
  Se  Se17  1  0.08795646  0.51700271  0.80660417  1
  Se  Se18  1  0.41204354  0.69339583  0.98299729  1
  Se  Se19  1  0.80660417  0.08795646  0.51700271  1
  Se  Se20  1  0.98299729  0.41204354  0.69339583  1
  Se  Se21  1  0.58795646  0.30660417  0.01700271  1
  O  O22  1  0.84663968  0.55131817  0.43717826  1
  O  O23  1  0.68356300  0.66245253  0.99462436  1
  O  O24  1  0.56282174  0.15336032  0.44868183  1
  O  O25  1  0.34663968  0.93717826  0.05131817  1
  O  O26  1  0.57233236  0.33289584  0.68801071  1
  O  O27  1  0.92766764  0.81198929  0.16710416  1
  O  O28  1  0.65336032  0.06282174  0.94868183  1
  O  O29  1  0.33754747  0.00537564  0.31643700  1
  O  O30  1  0.06282174  0.94868183  0.65336032  1
  O  O31  1  0.83289584  0.07233236  0.18801071  1
  O  O32  1  0.83754747  0.81643700  0.50537564  1
  O  O33  1  0.49462436  0.16245253  0.18356300  1
  O  O34  1  0.66710416  0.31198929  0.42766764  1
  O  O35  1  0.66245253  0.99462436  0.68356300  1
  O  O36  1  0.33289584  0.68801071  0.57233236  1
  O  O37  1  0.81643700  0.50537564  0.83754747  1
  O  O38  1  0.15336032  0.44868183  0.56282174  1
  O  O39  1  0.68801071  0.57233236  0.33289584  1
  O  O40  1  0.42766764  0.66710416  0.31198929  1
  O  O41  1  0.43717826  0.84663968  0.55131817  1
  O  O42  1  0.93717826  0.05131817  0.34663968  1
  O  O43  1  0.00537564  0.31643700  0.33754747  1
  O  O44  1  0.44868183  0.56282174  0.15336032  1
  O  O45  1  0.05131817  0.34663968  0.93717826  1
  O  O46  1  0.16245253  0.18356300  0.49462436  1
  O  O47  1  0.18356300  0.49462436  0.16245253  1
  O  O48  1  0.31643700  0.33754747  0.00537564  1
  O  O49  1  0.16710416  0.92766764  0.81198929  1
  O  O50  1  0.55131817  0.43717826  0.84663968  1
  O  O51  1  0.18801071  0.83289584  0.07233236  1
  O  O52  1  0.94868183  0.65336032  0.06282174  1
  O  O53  1  0.07233236  0.18801071  0.83289584  1
  O  O54  1  0.50537564  0.83754747  0.81643700  1
  O  O55  1  0.99462436  0.68356300  0.66245253  1
  O  O56  1  0.81198929  0.16710416  0.92766764  1
  O  O57  1  0.31198929  0.42766764  0.66710416  1
