# generated using pymatgen
data_TmMoClO4
_symmetry_space_group_name_H-M   'P 1'
_cell_length_a   6.26139731
_cell_length_b   6.26139690
_cell_length_c   6.87600960
_cell_angle_alpha   75.76437517
_cell_angle_beta   75.76437603
_cell_angle_gamma   70.65584379
_symmetry_Int_Tables_number   1
_chemical_formula_structural   TmMoClO4
_chemical_formula_sum   'Tm2 Mo2 Cl2 O8'
_cell_volume   242.52680943
_cell_formula_units_Z   2
loop_
 _symmetry_equiv_pos_site_id
 _symmetry_equiv_pos_as_xyz
  1  'x, y, z'
loop_
 _atom_site_type_symbol
 _atom_site_label
 _atom_site_symmetry_multiplicity
 _atom_site_fract_x
 _atom_site_fract_y
 _atom_site_fract_z
 _atom_site_occupancy
  Tm  Tm0  1  0.22167963  0.22167963  0.88725989  1
  Tm  Tm1  1  0.77832037  0.77832037  0.11274011  1
  Mo  Mo2  1  0.63777074  0.63777074  0.73094695  1
  Mo  Mo3  1  0.36222926  0.36222926  0.26905305  1
  Cl  Cl4  1  0.01035317  0.01035317  0.23160749  1
  Cl  Cl5  1  0.98964683  0.98964683  0.76839251  1
  O  O6  1  0.29350807  0.29350807  0.53795625  1
  O  O7  1  0.70649193  0.70649193  0.46204375  1
  O  O8  1  0.49215753  0.10625214  0.15370795  1
  O  O9  1  0.54503791  0.54503791  0.19963252  1
  O  O10  1  0.89374786  0.50784247  0.84629205  1
  O  O11  1  0.10625214  0.49215753  0.15370795  1
  O  O12  1  0.45496209  0.45496209  0.80036748  1
  O  O13  1  0.50784247  0.89374786  0.84629205  1
