# generated using pymatgen
data_K2HoPWO8
_symmetry_space_group_name_H-M   'P 1'
_cell_length_a   6.95333566
_cell_length_b   12.23658779
_cell_length_c   12.23658683
_cell_angle_alpha   60.09929361
_cell_angle_beta   73.49370408
_cell_angle_gamma   73.49370489
_symmetry_Int_Tables_number   1
_chemical_formula_structural   K2HoPWO8
_chemical_formula_sum   'K8 Ho4 P4 W4 O32'
_cell_volume   852.55750009
_cell_formula_units_Z   4
loop_
 _symmetry_equiv_pos_site_id
 _symmetry_equiv_pos_as_xyz
  1  'x, y, z'
loop_
 _atom_site_type_symbol
 _atom_site_label
 _atom_site_symmetry_multiplicity
 _atom_site_fract_x
 _atom_site_fract_y
 _atom_site_fract_z
 _atom_site_occupancy
  K  K0  1  0.37378415  0.07757021  0.23534112  1
  K  K1  1  0.31330451  0.73534112  0.57757021  1
  K  K2  1  0.18669549  0.42242979  0.26465888  1
  K  K3  1  0.81330451  0.57757021  0.73534112  1
  K  K4  1  0.62621585  0.92242979  0.76465888  1
  K  K5  1  0.87378415  0.23534112  0.07757021  1
  K  K6  1  0.12621585  0.76465888  0.92242979  1
  K  K7  1  0.68669549  0.26465888  0.42242979  1
  Ho  Ho8  1  0.75000000  0.67437335  0.32562665  1
  Ho  Ho9  1  0.25000000  0.32562665  0.67437335  1
  Ho  Ho10  1  0.25000000  0.82562665  0.17437335  1
  Ho  Ho11  1  0.75000000  0.17437335  0.82562665  1
  P  P12  1  0.75000000  0.92971637  0.07028363  1
  P  P13  1  0.25000000  0.57028363  0.42971637  1
  P  P14  1  0.25000000  0.07028363  0.92971637  1
  P  P15  1  0.75000000  0.42971637  0.57028363  1
  W  W16  1  0.33574467  0.41425533  0.91425533  1
  W  W17  1  0.66425533  0.58574467  0.08574467  1
  W  W18  1  0.83574467  0.91425533  0.41425533  1
  W  W19  1  0.16425533  0.08574467  0.58574467  1
  O  O20  1  0.79381371  0.94464459  0.93291624  1
  O  O21  1  0.20618629  0.05535541  0.06708376  1
  O  O22  1  0.56949796  0.85618421  0.15839783  1
  O  O23  1  0.77382318  0.65091541  0.91782521  1
  O  O24  1  0.40122398  0.66783293  0.10635314  1
  O  O25  1  0.41592001  0.65839783  0.35618421  1
  O  O26  1  0.15743620  0.15091541  0.41782521  1
  O  O27  1  0.17137454  0.55535541  0.56708376  1
  O  O28  1  0.67137454  0.56708376  0.55535541  1
  O  O29  1  0.06949796  0.15839783  0.85618421  1
  O  O30  1  0.27382318  0.91782521  0.65091541  1
  O  O31  1  0.22617682  0.34908459  0.08217479  1
  O  O32  1  0.93050204  0.84160217  0.14381579  1
  O  O33  1  0.84256380  0.84908459  0.58217479  1
  O  O34  1  0.32862546  0.43291624  0.44464459  1
  O  O35  1  0.70618629  0.06708376  0.05535541  1
  O  O36  1  0.59877602  0.33216707  0.89364686  1
  O  O37  1  0.58407999  0.34160217  0.64381579  1
  O  O38  1  0.43050204  0.14381579  0.84160217  1
  O  O39  1  0.17540905  0.39364686  0.83216707  1
  O  O40  1  0.09877602  0.89364686  0.33216707  1
  O  O41  1  0.67540905  0.83216707  0.39364686  1
  O  O42  1  0.32459095  0.16783293  0.60635314  1
  O  O43  1  0.82459095  0.60635314  0.16783293  1
  O  O44  1  0.90122398  0.10635314  0.66783293  1
  O  O45  1  0.82862546  0.44464459  0.43291624  1
  O  O46  1  0.72617682  0.08217479  0.34908459  1
  O  O47  1  0.65743620  0.41782521  0.15091541  1
  O  O48  1  0.08407999  0.64381579  0.34160217  1
  O  O49  1  0.91592001  0.35618421  0.65839783  1
  O  O50  1  0.29381371  0.93291624  0.94464459  1
  O  O51  1  0.34256380  0.58217479  0.84908459  1
