# generated using pymatgen
data_CaV2O4
_symmetry_space_group_name_H-M   'P 1'
_cell_length_a   6.38461854
_cell_length_b   6.23210408
_cell_length_c   6.23210375
_cell_angle_alpha   59.99999456
_cell_angle_beta   60.78710740
_cell_angle_gamma   60.78710998
_symmetry_Int_Tables_number   1
_chemical_formula_structural   CaV2O4
_chemical_formula_sum   'Ca2 V4 O8'
_cell_volume   177.40056454
_cell_formula_units_Z   2
loop_
 _symmetry_equiv_pos_site_id
 _symmetry_equiv_pos_as_xyz
  1  'x, y, z'
loop_
 _atom_site_type_symbol
 _atom_site_label
 _atom_site_symmetry_multiplicity
 _atom_site_fract_x
 _atom_site_fract_y
 _atom_site_fract_z
 _atom_site_occupancy
  Ca  Ca0  1  0.99113859  0.00295347  0.00295347  1
  Ca  Ca1  1  0.12523932  0.62492023  0.62492023  1
  V  V2  1  0.26295823  0.24568059  0.24568059  1
  V  V3  1  0.62493068  0.11667041  0.62919946  1
  V  V4  1  0.62493068  0.62919946  0.11667040  1
  V  V5  1  0.62493068  0.62919946  0.62919946  1
  O  O6  1  0.41044469  0.36722194  0.36722194  1
  O  O7  1  0.41044469  0.36722194  0.85510942  1
  O  O8  1  0.41044469  0.85510942  0.36722194  1
  O  O9  1  0.88317451  0.37227550  0.37227550  1
  O  O10  1  0.41320246  0.86226585  0.86226585  1
  O  O11  1  0.82272125  0.42953192  0.87387391  1
  O  O12  1  0.82272125  0.87387391  0.42953192  1
  O  O13  1  0.82272125  0.87387391  0.87387391  1
