# generated using pymatgen
data_Mn13Al4Si2(SbO14)2
_symmetry_space_group_name_H-M   'P 1'
_cell_length_a   5.65602332
_cell_length_b   9.20199757
_cell_length_c   11.96960755
_cell_angle_alpha   87.46637930
_cell_angle_beta   76.33373993
_cell_angle_gamma   79.21634931
_symmetry_Int_Tables_number   1
_chemical_formula_structural   Mn13Al4Si2(SbO14)2
_chemical_formula_sum   'Mn13 Al4 Si2 Sb2 O28'
_cell_volume   594.65130024
_cell_formula_units_Z   1
loop_
 _symmetry_equiv_pos_site_id
 _symmetry_equiv_pos_as_xyz
  1  'x, y, z'
loop_
 _atom_site_type_symbol
 _atom_site_label
 _atom_site_symmetry_multiplicity
 _atom_site_fract_x
 _atom_site_fract_y
 _atom_site_fract_z
 _atom_site_occupancy
  Mn  Mn0  1  0.93004370  0.64395749  0.70688390  1
  Mn  Mn1  1  0.65239660  0.34901830  0.14067100  1
  Mn  Mn2  1  0.36307140  0.35604251  0.70688390  1
  Mn  Mn3  1  0.06995630  0.35604251  0.29311610  1
  Mn  Mn4  1  0.34760340  0.65098170  0.85932900  1
  Mn  Mn5  1  0.28686083  0.00000000  0.42627835  1
  Mn  Mn6  1  0.20693241  0.65098170  0.14067100  1
  Mn  Mn7  1  0.00000000  0.00000000  0.00000000  1
  Mn  Mn8  1  0.42731889  0.00000000  0.14536221  1
  Mn  Mn9  1  0.79306759  0.34901830  0.85932900  1
  Mn  Mn10  1  0.63692860  0.64395749  0.29311610  1
  Mn  Mn11  1  0.57268111  0.00000000  0.85463779  1
  Mn  Mn12  1  0.71313917  0.00000000  0.57372165  1
  Al  Al13  1  0.04804577  0.68135843  0.43026345  1
  Al  Al14  1  0.52169078  0.31864157  0.43026345  1
  Al  Al15  1  0.95195423  0.31864157  0.56973655  1
  Al  Al16  1  0.47830922  0.68135843  0.56973655  1
  Si  Si17  1  0.23552310  0.31056531  0.00000000  1
  Si  Si18  1  0.76447690  0.68943469  1.00000000  1
  Sb  Sb19  1  0.85892869  0.00000000  0.28214162  1
  Sb  Sb20  1  0.14107131  0.00000000  0.71785838  1
  O  O21  1  0.67571996  0.40067740  0.30410152  1
  O  O22  1  0.19319458  0.35281149  0.45156217  1
  O  O23  1  0.94182362  0.35084833  1.00000000  1
  O  O24  1  0.31391152  0.12820722  0.00000000  1
  O  O25  1  0.80680542  0.64718851  0.54843783  1
  O  O26  1  0.32428004  0.59932260  0.69589848  1
  O  O27  1  0.01863409  0.11834307  0.58518038  1
  O  O28  1  0.98136591  0.88165693  0.41481962  1
  O  O29  1  0.68608848  0.87179278  0.00000000  1
  O  O30  1  0.11581723  0.88514702  0.15575084  1
  O  O31  1  0.28583345  0.37942274  0.11720958  1
  O  O32  1  0.02017752  0.59932260  0.30410152  1
  O  O33  1  0.39618553  0.88165693  0.58518038  1
  O  O34  1  0.72843193  0.11485298  0.15575084  1
  O  O35  1  0.59695697  0.62057726  0.11720958  1
  O  O36  1  0.05817638  0.64915167  0.00000000  1
  O  O37  1  0.27156807  0.88514702  0.84424916  1
  O  O38  1  0.88418277  0.11485298  0.84424916  1
  O  O39  1  0.60381447  0.11834307  0.41481962  1
  O  O40  1  0.11736097  0.12021980  0.29076031  1
  O  O41  1  0.88263903  0.87978020  0.70923969  1
  O  O42  1  0.40304303  0.37942274  0.88279042  1
  O  O43  1  0.40812128  0.12021980  0.70923969  1
  O  O44  1  0.64475676  0.35281149  0.54843783  1
  O  O45  1  0.71416655  0.62057726  0.88279042  1
  O  O46  1  0.59187872  0.87978020  0.29076031  1
  O  O47  1  0.97982248  0.40067740  0.69589848  1
  O  O48  1  0.35524324  0.64718851  0.45156217  1
