# generated using pymatgen
data_Rb2MoAs2O9
_symmetry_space_group_name_H-M   'P 1'
_cell_length_a   7.79360945
_cell_length_b   7.66609263
_cell_length_c   9.23294700
_cell_angle_alpha   77.63476398
_cell_angle_beta   70.16862992
_cell_angle_gamma   87.98526161
_symmetry_Int_Tables_number   1
_chemical_formula_structural   Rb2MoAs2O9
_chemical_formula_sum   'Rb4 Mo2 As4 O18'
_cell_volume   506.46199051
_cell_formula_units_Z   2
loop_
 _symmetry_equiv_pos_site_id
 _symmetry_equiv_pos_as_xyz
  1  'x, y, z'
loop_
 _atom_site_type_symbol
 _atom_site_label
 _atom_site_symmetry_multiplicity
 _atom_site_fract_x
 _atom_site_fract_y
 _atom_site_fract_z
 _atom_site_occupancy
  Rb  Rb0  1  0.25256975  0.91635666  0.36545717  1
  Rb  Rb1  1  0.83135354  0.18956667  0.11882654  1
  Rb  Rb2  1  0.74743025  0.08364334  0.63454283  1
  Rb  Rb3  1  0.16864646  0.81043333  0.88117346  1
  Mo  Mo4  1  0.23667956  0.42611668  0.25473116  1
  Mo  Mo5  1  0.76332044  0.57388332  0.74526884  1
  As  As6  1  0.34801036  0.31660984  0.90183218  1
  As  As7  1  0.65198964  0.68339016  0.09816782  1
  As  As8  1  0.83595628  0.67229210  0.35767507  1
  As  As9  1  0.16404372  0.32770790  0.64232493  1
  O  O10  1  0.94750976  0.73090516  0.66456859  1
  O  O11  1  0.22235923  0.48295935  0.46266973  1
  O  O12  1  0.42189613  0.28699158  0.23273396  1
  O  O13  1  0.57810387  0.71300842  0.76726604  1
  O  O14  1  0.05985750  0.65513623  0.24542451  1
  O  O15  1  0.58074844  0.33083013  0.83940562  1
  O  O16  1  0.77764077  0.51704065  0.53733027  1
  O  O17  1  0.70336297  0.56899190  0.27054771  1
  O  O18  1  0.94014250  0.34486377  0.75457549  1
  O  O19  1  0.24865561  0.11286062  0.97520539  1
  O  O20  1  0.75134439  0.88713938  0.02479461  1
  O  O21  1  0.78068171  0.88086204  0.37560547  1
  O  O22  1  0.24676077  0.46140647  0.02748707  1
  O  O23  1  0.29663703  0.43100810  0.72945229  1
  O  O24  1  0.05249024  0.26909484  0.33543141  1
  O  O25  1  0.41925156  0.66916987  0.16059438  1
  O  O26  1  0.21931829  0.11913796  0.62439453  1
  O  O27  1  0.75323923  0.53859353  0.97251293  1
