# generated using pymatgen
data_NaNiAsO4
_symmetry_space_group_name_H-M   'P 1'
_cell_length_a   9.36057912
_cell_length_b   9.36057906
_cell_length_c   9.36057844
_cell_angle_alpha   31.14700262
_cell_angle_beta   31.14700319
_cell_angle_gamma   31.14700287
_symmetry_Int_Tables_number   1
_chemical_formula_structural   NaNiAsO4
_chemical_formula_sum   'Na2 Ni2 As2 O8'
_cell_volume   194.69885521
_cell_formula_units_Z   2
loop_
 _symmetry_equiv_pos_site_id
 _symmetry_equiv_pos_as_xyz
  1  'x, y, z'
loop_
 _atom_site_type_symbol
 _atom_site_label
 _atom_site_symmetry_multiplicity
 _atom_site_fract_x
 _atom_site_fract_y
 _atom_site_fract_z
 _atom_site_occupancy
  Na  Na0  1  0.71267442  0.71267442  0.71267442  1
  Na  Na1  1  0.28732558  0.28732558  0.28732558  1
  Ni  Ni2  1  0.83576043  0.83576043  0.83576043  1
  Ni  Ni3  1  0.16423957  0.16423957  0.16423957  1
  As  As4  1  0.43394256  0.43394256  0.43394256  1
  As  As5  1  0.56605744  0.56605744  0.56605744  1
  O  O6  1  0.46437834  0.77899668  0.11956604  1
  O  O7  1  0.53562166  0.22100332  0.88043396  1
  O  O8  1  0.11956604  0.46437834  0.77899668  1
  O  O9  1  0.77899668  0.11956604  0.46437834  1
  O  O10  1  0.37087675  0.37087675  0.37087675  1
  O  O11  1  0.22100332  0.88043396  0.53562166  1
  O  O12  1  0.62912325  0.62912325  0.62912325  1
  O  O13  1  0.88043396  0.53562166  0.22100332  1
