# generated using pymatgen
data_CsMo2P3O13
_symmetry_space_group_name_H-M   'P 1'
_cell_length_a   7.84029986
_cell_length_b   8.63192451
_cell_length_c   9.16652144
_cell_angle_alpha   90.00000000
_cell_angle_beta   100.78353972
_cell_angle_gamma   90.00000000
_symmetry_Int_Tables_number   1
_chemical_formula_structural   CsMo2P3O13
_chemical_formula_sum   'Cs2 Mo4 P6 O26'
_cell_volume   609.40660108
_cell_formula_units_Z   2
loop_
 _symmetry_equiv_pos_site_id
 _symmetry_equiv_pos_as_xyz
  1  'x, y, z'
loop_
 _atom_site_type_symbol
 _atom_site_label
 _atom_site_symmetry_multiplicity
 _atom_site_fract_x
 _atom_site_fract_y
 _atom_site_fract_z
 _atom_site_occupancy
  Cs  Cs0  1  0.50000000  0.22851921  0.75000000  1
  Cs  Cs1  1  0.50000000  0.77148079  0.25000000  1
  Mo  Mo2  1  0.20935810  0.23477693  0.06765231  1
  Mo  Mo3  1  0.79064190  0.23477693  0.43234769  1
  Mo  Mo4  1  0.20935810  0.76522307  0.56765231  1
  Mo  Mo5  1  0.79064190  0.76522307  0.93234769  1
  P  P6  1  0.14796530  0.56016021  0.86220020  1
  P  P7  1  0.14796530  0.43983979  0.36220020  1
  P  P8  1  0.00000000  0.95537157  0.25000000  1
  P  P9  1  0.00000000  0.04462843  0.75000000  1
  P  P10  1  0.85203470  0.56016021  0.63779980  1
  P  P11  1  0.85203470  0.43983979  0.13779980  1
  O  O12  1  0.00000000  0.46513996  0.75000000  1
  O  O13  1  0.58336477  0.83432828  0.91898451  1
  O  O14  1  0.94556352  0.67181565  0.55066576  1
  O  O15  1  0.05443648  0.32818435  0.44933424  1
  O  O16  1  0.26045659  0.64121073  0.76503900  1
  O  O17  1  0.26045659  0.35878927  0.26503900  1
  O  O18  1  0.74157902  0.43882477  0.54142728  1
  O  O19  1  0.88277762  0.05260643  0.33114123  1
  O  O20  1  0.41663523  0.83432828  0.58101549  1
  O  O21  1  0.41663523  0.16567172  0.08101549  1
  O  O22  1  0.87846631  0.14886520  0.63966222  1
  O  O23  1  0.11722238  0.05260643  0.16885877  1
  O  O24  1  0.12153369  0.14886520  0.86033778  1
  O  O25  1  0.12153369  0.85113480  0.36033778  1
  O  O26  1  0.11722238  0.94739357  0.66885877  1
  O  O27  1  0.94556352  0.32818435  0.05066576  1
  O  O28  1  0.25842098  0.43882477  0.95857272  1
  O  O29  1  0.87846631  0.85113480  0.13966222  1
  O  O30  1  0.58336477  0.16567172  0.41898451  1
  O  O31  1  0.00000000  0.53486004  0.25000000  1
  O  O32  1  0.05443648  0.67181565  0.94933424  1
  O  O33  1  0.25842098  0.56117523  0.45857272  1
  O  O34  1  0.73954341  0.64121073  0.73496100  1
  O  O35  1  0.74157902  0.56117523  0.04142728  1
  O  O36  1  0.73954341  0.35878927  0.23496100  1
  O  O37  1  0.88277762  0.94739357  0.83114123  1
