# generated using pymatgen
data_RbV(PO4)2
_symmetry_space_group_name_H-M   'P 1'
_cell_length_a   4.76137682
_cell_length_b   9.16336983
_cell_length_c   16.79611916
_cell_angle_alpha   90.00000000
_cell_angle_beta   93.02741634
_cell_angle_gamma   90.00000000
_symmetry_Int_Tables_number   1
_chemical_formula_structural   RbV(PO4)2
_chemical_formula_sum   'Rb4 V4 P8 O32'
_cell_volume   731.79625172
_cell_formula_units_Z   4
loop_
 _symmetry_equiv_pos_site_id
 _symmetry_equiv_pos_as_xyz
  1  'x, y, z'
loop_
 _atom_site_type_symbol
 _atom_site_label
 _atom_site_symmetry_multiplicity
 _atom_site_fract_x
 _atom_site_fract_y
 _atom_site_fract_z
 _atom_site_occupancy
  Rb  Rb0  1  0.39128394  0.64697201  0.08564623  1
  Rb  Rb1  1  0.60871606  0.14697201  0.41435377  1
  Rb  Rb2  1  0.60871606  0.35302799  0.91435377  1
  Rb  Rb3  1  0.39128394  0.85302799  0.58564623  1
  V  V4  1  0.40563700  0.56801018  0.33665672  1
  V  V5  1  0.40563700  0.93198982  0.83665672  1
  V  V6  1  0.59436300  0.06801018  0.16334328  1
  V  V7  1  0.59436300  0.43198982  0.66334328  1
  P  P8  1  0.07840938  0.21953073  0.59864530  1
  P  P9  1  0.14179531  0.89149739  0.25642346  1
  P  P10  1  0.85820469  0.39149739  0.24357654  1
  P  P11  1  0.92159062  0.71953073  0.90135470  1
  P  P12  1  0.85820469  0.10850261  0.74357654  1
  P  P13  1  0.07840938  0.28046927  0.09864530  1
  P  P14  1  0.14179531  0.60850261  0.75642346  1
  P  P15  1  0.92159062  0.78046927  0.40135470  1
  O  O16  1  0.89770678  0.55957297  0.69908719  1
  O  O17  1  0.84334667  0.33600154  0.59219206  1
  O  O18  1  0.60962508  0.50099466  0.24542199  1
  O  O19  1  0.78524007  0.23282971  0.25590205  1
  O  O20  1  0.55128054  0.03953029  0.90285233  1
  O  O21  1  0.33603700  0.27400610  0.65037854  1
  O  O22  1  0.95637514  0.41329856  0.15292189  1
  O  O23  1  0.85368763  0.65339255  0.97918194  1
  O  O24  1  0.44871946  0.96046971  0.09714767  1
  O  O25  1  0.15665333  0.66399846  0.40780794  1
  O  O26  1  0.14631237  0.15339255  0.52081806  1
  O  O27  1  0.15665333  0.83600154  0.90780794  1
  O  O28  1  0.44871946  0.53953029  0.59714767  1
  O  O29  1  0.55128054  0.46046971  0.40285233  1
  O  O30  1  0.89770678  0.94042703  0.19908719  1
  O  O31  1  0.95637514  0.08670144  0.65292189  1
  O  O32  1  0.33603700  0.22599390  0.15037854  1
  O  O33  1  0.60962508  0.99900534  0.74542199  1
  O  O34  1  0.21475993  0.76717029  0.74409795  1
  O  O35  1  0.85368763  0.84660745  0.47918194  1
  O  O36  1  0.66396300  0.72599390  0.34962146  1
  O  O37  1  0.21475993  0.73282971  0.24409795  1
  O  O38  1  0.10229322  0.05957297  0.80091281  1
  O  O39  1  0.66396300  0.77400610  0.84962146  1
  O  O40  1  0.04362486  0.91329856  0.34707811  1
  O  O41  1  0.39037492  0.00099466  0.25457801  1
  O  O42  1  0.14631237  0.34660745  0.02081806  1
  O  O43  1  0.84334667  0.16399846  0.09219206  1
  O  O44  1  0.04362486  0.58670144  0.84707811  1
  O  O45  1  0.10229322  0.44042703  0.30091281  1
  O  O46  1  0.78524007  0.26717029  0.75590205  1
  O  O47  1  0.39037492  0.49900534  0.75457801  1
