# generated using pymatgen
data_K2P2WO9
_symmetry_space_group_name_H-M   'P 1'
_cell_length_a   8.17484635
_cell_length_b   8.17484669
_cell_length_c   15.75990868
_cell_angle_alpha   82.36293412
_cell_angle_beta   82.36293389
_cell_angle_gamma   60.50531813
_symmetry_Int_Tables_number   1
_chemical_formula_structural   K2P2WO9
_chemical_formula_sum   'K8 P8 W4 O36'
_cell_volume   905.79692069
_cell_formula_units_Z   4
loop_
 _symmetry_equiv_pos_site_id
 _symmetry_equiv_pos_as_xyz
  1  'x, y, z'
loop_
 _atom_site_type_symbol
 _atom_site_label
 _atom_site_symmetry_multiplicity
 _atom_site_fract_x
 _atom_site_fract_y
 _atom_site_fract_z
 _atom_site_occupancy
  K  K0  1  0.42620257  0.27529735  0.47351023  1
  K  K1  1  0.27529735  0.42620257  0.97351023  1
  K  K2  1  0.49394790  0.79795623  0.26184114  1
  K  K3  1  0.20204377  0.50605210  0.23815886  1
  K  K4  1  0.50605210  0.20204377  0.73815886  1
  K  K5  1  0.57379743  0.72470265  0.52648977  1
  K  K6  1  0.79795623  0.49394790  0.76184114  1
  K  K7  1  0.72470265  0.57379743  0.02648977  1
  P  P8  1  0.79119304  0.95390976  0.34497605  1
  P  P9  1  0.23168061  0.84237799  0.07761444  1
  P  P10  1  0.15762201  0.76831939  0.42238556  1
  P  P11  1  0.04609024  0.20880696  0.15502395  1
  P  P12  1  0.20880696  0.04609024  0.65502395  1
  P  P13  1  0.95390976  0.79119304  0.84497605  1
  P  P14  1  0.76831939  0.15762201  0.92238556  1
  P  P15  1  0.84237799  0.23168061  0.57761444  1
  W  W16  1  0.96988643  0.25457686  0.36437452  1
  W  W17  1  0.25457686  0.96988643  0.86437452  1
  W  W18  1  0.03011357  0.74542314  0.63562548  1
  W  W19  1  0.74542314  0.03011357  0.13562548  1
  O  O20  1  0.37177246  0.67930893  0.13095064  1
  O  O21  1  0.81159443  0.47480717  0.31505983  1
  O  O22  1  0.96611632  0.13780498  0.91550314  1
  O  O23  1  0.18840557  0.52519283  0.68494017  1
  O  O24  1  0.14209253  0.09870469  0.75063432  1
  O  O25  1  0.31286359  0.83011178  0.98174588  1
  O  O26  1  0.61659940  0.94366878  0.37963768  1
  O  O27  1  0.21413373  0.03611549  0.10347343  1
  O  O28  1  0.96388451  0.78586627  0.39652657  1
  O  O29  1  0.32069107  0.62822754  0.36904936  1
  O  O30  1  0.21490050  0.85952412  0.64354253  1
  O  O31  1  0.03611549  0.21413373  0.60347343  1
  O  O32  1  0.90129531  0.85790747  0.74936568  1
  O  O33  1  0.78509950  0.14047588  0.35645747  1
  O  O34  1  0.83011178  0.31286359  0.48174588  1
  O  O35  1  0.16988822  0.68713641  0.51825412  1
  O  O36  1  0.05633122  0.38340060  0.12036232  1
  O  O37  1  0.52519283  0.18840557  0.18494017  1
  O  O38  1  0.03388368  0.86219502  0.08449686  1
  O  O39  1  0.29703989  0.15284542  0.88597569  1
  O  O40  1  0.15284542  0.29703989  0.38597569  1
  O  O41  1  0.78586627  0.96388451  0.89652657  1
  O  O42  1  0.67930893  0.37177246  0.63095064  1
  O  O43  1  0.70296011  0.84715458  0.11402431  1
  O  O44  1  0.84715458  0.70296011  0.61402431  1
  O  O45  1  0.68713641  0.16988822  0.01825412  1
  O  O46  1  0.14047588  0.78509950  0.85645747  1
  O  O47  1  0.94366878  0.61659940  0.87963768  1
  O  O48  1  0.86219502  0.03388368  0.58449686  1
  O  O49  1  0.85790747  0.90129531  0.24936568  1
  O  O50  1  0.38340060  0.05633122  0.62036232  1
  O  O51  1  0.13780498  0.96611632  0.41550314  1
  O  O52  1  0.62822754  0.32069107  0.86904936  1
  O  O53  1  0.09870469  0.14209253  0.25063432  1
  O  O54  1  0.47480717  0.81159443  0.81505983  1
  O  O55  1  0.85952412  0.21490050  0.14354253  1
