# generated using pymatgen
data_K2CrSO7
_symmetry_space_group_name_H-M   'P 1'
_cell_length_a   7.52305371
_cell_length_b   7.53030040
_cell_length_c   13.19239104
_cell_angle_alpha   91.45457844
_cell_angle_beta   90.00000000
_cell_angle_gamma   90.00000000
_symmetry_Int_Tables_number   1
_chemical_formula_structural   K2CrSO7
_chemical_formula_sum   'K8 Cr4 S4 O28'
_cell_volume   747.11939620
_cell_formula_units_Z   4
loop_
 _symmetry_equiv_pos_site_id
 _symmetry_equiv_pos_as_xyz
  1  'x, y, z'
loop_
 _atom_site_type_symbol
 _atom_site_label
 _atom_site_symmetry_multiplicity
 _atom_site_fract_x
 _atom_site_fract_y
 _atom_site_fract_z
 _atom_site_occupancy
  K  K0  1  0.11942186  0.13211535  0.15592791  1
  K  K1  1  0.29261768  0.82245654  0.36416037  1
  K  K2  1  0.61942186  0.36788465  0.34407209  1
  K  K3  1  0.20738232  0.32245654  0.86416037  1
  K  K4  1  0.70738232  0.17754346  0.63583963  1
  K  K5  1  0.79261768  0.67754346  0.13583963  1
  K  K6  1  0.88057814  0.86788465  0.84407209  1
  K  K7  1  0.38057814  0.63211535  0.65592791  1
  Cr  Cr8  1  0.16866054  0.32689387  0.41950835  1
  Cr  Cr9  1  0.83133946  0.67310613  0.58049165  1
  Cr  Cr10  1  0.66866054  0.17310613  0.08049165  1
  Cr  Cr11  1  0.33133946  0.82689387  0.91950835  1
  S  S12  1  0.79115194  0.88638602  0.38353777  1
  S  S13  1  0.29115194  0.61361398  0.11646223  1
  S  S14  1  0.20884806  0.11361398  0.61646223  1
  S  S15  1  0.70884806  0.38638602  0.88353777  1
  O  O16  1  0.78452674  0.30912429  0.15315835  1
  O  O17  1  0.42560365  0.56368034  0.19073774  1
  O  O18  1  0.40793886  0.70753269  0.03040133  1
  O  O19  1  0.66715361  0.75047109  0.34392628  1
  O  O20  1  0.29696008  0.49286494  0.45448213  1
  O  O21  1  0.28452674  0.19087571  0.34684165  1
  O  O22  1  0.92560365  0.93631966  0.30926226  1
  O  O23  1  0.70303992  0.50713506  0.54551787  1
  O  O24  1  0.50344513  0.89757825  0.85879350  1
  O  O25  1  0.09206114  0.20753269  0.53040133  1
  O  O26  1  0.20070592  0.46293336  0.06663040  1
  O  O27  1  0.57439635  0.43631966  0.80926226  1
  O  O28  1  0.70070592  0.03706664  0.43336960  1
  O  O29  1  0.83284639  0.25047109  0.84392628  1
  O  O30  1  0.20303992  0.99286494  0.95448213  1
  O  O31  1  0.79929408  0.53706664  0.93336960  1
  O  O32  1  0.49655487  0.10242175  0.14120650  1
  O  O33  1  0.59206114  0.29246731  0.96959867  1
  O  O34  1  0.00344513  0.60242175  0.64120650  1
  O  O35  1  0.16715361  0.74952891  0.15607372  1
  O  O36  1  0.21547326  0.69087571  0.84684165  1
  O  O37  1  0.29929408  0.96293336  0.56663040  1
  O  O38  1  0.99655487  0.39757825  0.35879350  1
  O  O39  1  0.07439635  0.06368034  0.69073774  1
  O  O40  1  0.90793886  0.79246731  0.46959867  1
  O  O41  1  0.79696008  0.00713506  0.04551787  1
  O  O42  1  0.33284639  0.24952891  0.65607372  1
  O  O43  1  0.71547326  0.80912429  0.65315835  1
