# generated using pymatgen
data_ZnCu2P2O9
_symmetry_space_group_name_H-M   'P 1'
_cell_length_a   6.12679600
_cell_length_b   7.08626147
_cell_length_c   14.76007685
_cell_angle_alpha   89.94081882
_cell_angle_beta   89.97176282
_cell_angle_gamma   90.00610930
_symmetry_Int_Tables_number   1
_chemical_formula_structural   ZnCu2P2O9
_chemical_formula_sum   'Zn4 Cu8 P8 O36'
_cell_volume   640.82423048
_cell_formula_units_Z   4
loop_
 _symmetry_equiv_pos_site_id
 _symmetry_equiv_pos_as_xyz
  1  'x, y, z'
loop_
 _atom_site_type_symbol
 _atom_site_label
 _atom_site_symmetry_multiplicity
 _atom_site_fract_x
 _atom_site_fract_y
 _atom_site_fract_z
 _atom_site_occupancy
  Zn  Zn0  1  0.75010394  0.89944078  0.77852857  1
  Zn  Zn1  1  0.75021560  0.60194961  0.27853715  1
  Zn  Zn2  1  0.24979183  0.39827637  0.72147059  1
  Zn  Zn3  1  0.24989885  0.10070091  0.22151116  1
  Cu  Cu4  1  0.74944880  0.35566292  0.88063619  1
  Cu  Cu5  1  0.25054533  0.64427365  0.11933805  1
  Cu  Cu6  1  0.24968463  0.85554689  0.61924475  1
  Cu  Cu7  1  0.75032074  0.14437713  0.38078325  1
  Cu  Cu8  1  0.49997094  0.00000255  0.99997746  1
  Cu  Cu9  1  0.50000738  0.49997894  0.49998597  1
  Cu  Cu10  1  0.00000321  0.49998360  0.49998370  1
  Cu  Cu11  1  0.00001554  0.00000802  0.99997680  1
  P  P12  1  0.24982432  0.36839245  0.92970626  1
  P  P13  1  0.75017035  0.63165059  0.07030749  1
  P  P14  1  0.74992247  0.86843431  0.57018046  1
  P  P15  1  0.25008005  0.13155127  0.42975047  1
  P  P16  1  0.74991061  0.38148141  0.70302115  1
  P  P17  1  0.75007871  0.11813562  0.20331554  1
  P  P18  1  0.24991915  0.88178716  0.79677392  1
  P  P19  1  0.25009603  0.61837452  0.29694991  1
  O  O20  1  0.03643411  0.61502315  0.35356023  1
  O  O21  1  0.53633412  0.38519466  0.64655176  1
  O  O22  1  0.96362390  0.11501463  0.14662629  1
  O  O23  1  0.46352179  0.88470975  0.85319414  1
  O  O24  1  0.96352637  0.38508166  0.64645201  1
  O  O25  1  0.46371808  0.61490462  0.35345670  1
  O  O26  1  0.03638204  0.88507401  0.85345651  1
  O  O27  1  0.53647549  0.11537592  0.14689125  1
  O  O28  1  0.24976893  0.32877536  0.47887112  1
  O  O29  1  0.75023675  0.67107414  0.52111449  1
  O  O30  1  0.74982107  0.82927123  0.02121666  1
  O  O31  1  0.25017592  0.17086764  0.97888166  1
  O  O32  1  0.74929079  0.12840427  0.95286776  1
  O  O33  1  0.25069923  0.87171404  0.04708627  1
  O  O34  1  0.24972031  0.62806584  0.54706939  1
  O  O35  1  0.75029103  0.37201517  0.45294233  1
  O  O36  1  0.74993175  0.19800186  0.76336384  1
  O  O37  1  0.25006630  0.80185178  0.23651897  1
  O  O38  1  0.24930289  0.69852356  0.73636365  1
  O  O39  1  0.75069379  0.30140995  0.26376450  1
  O  O40  1  0.43885068  0.12842272  0.35970432  1
  O  O41  1  0.93833282  0.87195034  0.64039967  1
  O  O42  1  0.56177950  0.62841249  0.14060841  1
  O  O43  1  0.06099652  0.37156806  0.85968953  1
  O  O44  1  0.56101872  0.87165980  0.64022463  1
  O  O45  1  0.06180617  0.12813174  0.35952808  1
  O  O46  1  0.43823777  0.37151677  0.85938973  1
  O  O47  1  0.93896740  0.62835760  0.14031230  1
  O  O48  1  0.74989243  0.47458210  0.00256993  1
  O  O49  1  0.24985986  0.04653451  0.72579328  1
  O  O50  1  0.24998767  0.45393377  0.22593345  1
  O  O51  1  0.75001165  0.54572639  0.77414438  1
  O  O52  1  0.75018848  0.02584343  0.50247079  1
  O  O53  1  0.24981144  0.97405905  0.49743253  1
  O  O54  1  0.25011197  0.52564978  0.99734355  1
  O  O55  1  0.75014378  0.95328151  0.27422502  1
