# generated using pymatgen
data_Gd2WO6
_symmetry_space_group_name_H-M   'P 1'
_cell_length_a   5.34936074
_cell_length_b   9.27052573
_cell_length_c   10.12302775
_cell_angle_alpha   90.00000000
_cell_angle_beta   90.00000000
_cell_angle_gamma   90.00000000
_symmetry_Int_Tables_number   1
_chemical_formula_structural   Gd2WO6
_chemical_formula_sum   'Gd8 W4 O24'
_cell_volume   502.01498048
_cell_formula_units_Z   4
loop_
 _symmetry_equiv_pos_site_id
 _symmetry_equiv_pos_as_xyz
  1  'x, y, z'
loop_
 _atom_site_type_symbol
 _atom_site_label
 _atom_site_symmetry_multiplicity
 _atom_site_fract_x
 _atom_site_fract_y
 _atom_site_fract_z
 _atom_site_occupancy
  O  O0  1  0.25353790  0.08826022  0.50649892  1
  O  O1  1  0.75353790  0.41173978  0.49350108  1
  O  O2  1  0.74646210  0.58826022  0.99350108  1
  O  O3  1  0.24646210  0.91173978  0.00649892  1
  O  O4  1  0.72908126  0.11449828  0.56785550  1
  O  O5  1  0.22908126  0.38550172  0.43214450  1
  O  O6  1  0.27091874  0.61449828  0.93214450  1
  O  O7  1  0.77091874  0.88550172  0.06785550  1
  O  O8  1  0.18440218  0.86411191  0.68016998  1
  O  O9  1  0.68440218  0.63588809  0.31983002  1
  O  O10  1  0.81559782  0.36411191  0.81983002  1
  O  O11  1  0.31559782  0.13588809  0.18016998  1
  O  O12  1  0.18898673  0.85980053  0.26206246  1
  O  O13  1  0.68898673  0.64019947  0.73793754  1
  O  O14  1  0.81101327  0.35980053  0.23793754  1
  O  O15  1  0.31101327  0.14019947  0.76206246  1
  O  O16  1  0.82814715  0.04808718  0.29564124  1
  O  O17  1  0.32814715  0.45191282  0.70435876  1
  O  O18  1  0.17185285  0.54808718  0.20435876  1
  O  O19  1  0.67185285  0.95191282  0.79564124  1
  O  O20  1  0.91506407  0.15493072  0.03078649  1
  O  O21  1  0.41506407  0.34506928  0.96921351  1
  O  O22  1  0.08493593  0.65493072  0.46921351  1
  O  O23  1  0.58493593  0.84506928  0.53078649  1
  Gd  Gd24  1  0.48083761  0.60376125  0.53590888  1
  Gd  Gd25  1  0.98083761  0.89623875  0.46409112  1
  Gd  Gd26  1  0.51916239  0.10376125  0.96409112  1
  Gd  Gd27  1  0.01916239  0.39623875  0.03590888  1
  Gd  Gd28  1  0.96252084  0.78130364  0.86939793  1
  Gd  Gd29  1  0.46252084  0.71869636  0.13060207  1
  Gd  Gd30  1  0.03747916  0.28130364  0.63060207  1
  Gd  Gd31  1  0.53747916  0.21869636  0.36939793  1
  W  W32  1  0.46100964  0.99609765  0.65041235  1
  W  W33  1  0.96100964  0.50390235  0.34958765  1
  W  W34  1  0.53899036  0.49609765  0.84958765  1
  W  W35  1  0.03899036  0.00390235  0.15041235  1
