# generated using pymatgen
data_RbMn4(PO4)3
_symmetry_space_group_name_H-M   'P 1'
_cell_length_a   6.53298694
_cell_length_b   10.04498244
_cell_length_c   16.97967606
_cell_angle_alpha   90.00000000
_cell_angle_beta   90.00000000
_cell_angle_gamma   90.00000000
_symmetry_Int_Tables_number   1
_chemical_formula_structural   RbMn4(PO4)3
_chemical_formula_sum   'Rb4 Mn16 P12 O48'
_cell_volume   1114.26983165
_cell_formula_units_Z   4
loop_
 _symmetry_equiv_pos_site_id
 _symmetry_equiv_pos_as_xyz
  1  'x, y, z'
loop_
 _atom_site_type_symbol
 _atom_site_label
 _atom_site_symmetry_multiplicity
 _atom_site_fract_x
 _atom_site_fract_y
 _atom_site_fract_z
 _atom_site_occupancy
  Rb  Rb0  1  0.00000000  0.70675548  0.53283802  1
  Rb  Rb1  1  0.50000000  0.79324452  0.03283802  1
  Rb  Rb2  1  0.00000000  0.29324452  0.46716198  1
  Rb  Rb3  1  0.50000000  0.20675548  0.96716198  1
  Mn  Mn4  1  0.00000000  0.02041905  0.86049613  1
  Mn  Mn5  1  0.74860955  0.24827564  0.20367726  1
  Mn  Mn6  1  0.00000000  0.53990418  0.09564326  1
  Mn  Mn7  1  0.50000000  0.52041905  0.63950387  1
  Mn  Mn8  1  0.50000000  0.03990418  0.40435674  1
  Mn  Mn9  1  0.50000000  0.96009582  0.59564326  1
  Mn  Mn10  1  0.00000000  0.97958095  0.13950387  1
  Mn  Mn11  1  0.74860955  0.75172436  0.79632274  1
  Mn  Mn12  1  0.00000000  0.46009582  0.90435674  1
  Mn  Mn13  1  0.24860955  0.74827564  0.29632274  1
  Mn  Mn14  1  0.50000000  0.47958095  0.36049613  1
  Mn  Mn15  1  0.25139045  0.24827564  0.20367726  1
  Mn  Mn16  1  0.75139045  0.25172436  0.70367726  1
  Mn  Mn17  1  0.25139045  0.75172436  0.79632274  1
  Mn  Mn18  1  0.24860955  0.25172436  0.70367726  1
  Mn  Mn19  1  0.75139045  0.74827564  0.29632274  1
  P  P20  1  0.50000000  0.53984510  0.16843351  1
  P  P21  1  0.50000000  0.46015490  0.83156649  1
  P  P22  1  0.50000000  0.71394025  0.46306005  1
  P  P23  1  0.00000000  0.96015490  0.66843351  1
  P  P24  1  0.00000000  0.54103275  0.71704722  1
  P  P25  1  0.00000000  0.45896725  0.28295278  1
  P  P26  1  0.00000000  0.21394025  0.03693995  1
  P  P27  1  0.50000000  0.95896725  0.21704722  1
  P  P28  1  0.00000000  0.03984510  0.33156649  1
  P  P29  1  0.00000000  0.78605975  0.96306005  1
  P  P30  1  0.50000000  0.04103275  0.78295278  1
  P  P31  1  0.50000000  0.28605975  0.53693995  1
  O  O32  1  0.68919745  0.32970599  0.58760365  1
  O  O33  1  0.00000000  0.11436334  0.68503220  1
  O  O34  1  0.31080255  0.32970599  0.58760365  1
  O  O35  1  0.80316687  0.40839243  0.32309332  1
  O  O36  1  0.30627435  0.58140004  0.12401494  1
  O  O37  1  0.50000000  0.61436334  0.81496780  1
  O  O38  1  0.50000000  0.61242591  0.25271105  1
  O  O39  1  0.50000000  0.11367612  0.22671028  1
  O  O40  1  0.18919745  0.17029401  0.08760365  1
  O  O41  1  0.30316687  0.09160757  0.82309332  1
  O  O42  1  0.00000000  0.88563666  0.31496780  1
  O  O43  1  0.00000000  0.88757409  0.75271105  1
  O  O44  1  0.80316687  0.59160757  0.67690668  1
  O  O45  1  0.69372565  0.58140004  0.12401494  1
  O  O46  1  0.69683313  0.90839243  0.17690668  1
  O  O47  1  0.50000000  0.10557165  0.69734592  1
  O  O48  1  0.50000000  0.35406415  0.45640139  1
  O  O49  1  0.50000000  0.64593585  0.54359861  1
  O  O50  1  0.68919745  0.67029401  0.41239635  1
  O  O51  1  0.00000000  0.61367612  0.27328972  1
  O  O52  1  0.00000000  0.38632388  0.72671028  1
  O  O53  1  0.69683313  0.09160757  0.82309332  1
  O  O54  1  0.00000000  0.60557165  0.80265408  1
  O  O55  1  0.50000000  0.88632388  0.77328972  1
  O  O56  1  0.81080255  0.17029401  0.08760365  1
  O  O57  1  0.00000000  0.14593585  0.95640139  1
  O  O58  1  0.50000000  0.89442835  0.30265408  1
  O  O59  1  0.00000000  0.63298158  0.97808867  1
  O  O60  1  0.19683313  0.59160757  0.67690668  1
  O  O61  1  0.30316687  0.90839243  0.17690668  1
  O  O62  1  0.19372565  0.08140004  0.37598506  1
  O  O63  1  0.80627435  0.91859996  0.62401494  1
  O  O64  1  0.80627435  0.08140004  0.37598506  1
  O  O65  1  0.50000000  0.86701842  0.47808867  1
  O  O66  1  0.00000000  0.39442835  0.19734592  1
  O  O67  1  0.69372565  0.41859996  0.87598506  1
  O  O68  1  0.50000000  0.13298158  0.52191133  1
  O  O69  1  0.81080255  0.82970599  0.91239635  1
  O  O70  1  0.50000000  0.38563666  0.18503220  1
  O  O71  1  0.18919745  0.82970599  0.91239635  1
  O  O72  1  0.00000000  0.11242591  0.24728895  1
  O  O73  1  0.30627435  0.41859996  0.87598506  1
  O  O74  1  0.00000000  0.85406415  0.04359861  1
  O  O75  1  0.00000000  0.36701842  0.02191133  1
  O  O76  1  0.50000000  0.38757409  0.74728895  1
  O  O77  1  0.31080255  0.67029401  0.41239635  1
  O  O78  1  0.19372565  0.91859996  0.62401494  1
  O  O79  1  0.19683313  0.40839243  0.32309332  1
