# generated using pymatgen
data_Ca3Fe2(SeO3)6
_symmetry_space_group_name_H-M   'P 1'
_cell_length_a   14.18355736
_cell_length_b   14.18355743
_cell_length_c   14.18355774
_cell_angle_alpha   35.49032033
_cell_angle_beta   35.49031998
_cell_angle_gamma   35.49032075
_symmetry_Int_Tables_number   1
_chemical_formula_structural   Ca3Fe2(SeO3)6
_chemical_formula_sum   'Ca6 Fe4 Se12 O36'
_cell_volume   859.44362046
_cell_formula_units_Z   2
loop_
 _symmetry_equiv_pos_site_id
 _symmetry_equiv_pos_as_xyz
  1  'x, y, z'
loop_
 _atom_site_type_symbol
 _atom_site_label
 _atom_site_symmetry_multiplicity
 _atom_site_fract_x
 _atom_site_fract_y
 _atom_site_fract_z
 _atom_site_occupancy
  Ca  Ca0  1  0.15941848  0.75000000  0.34058152  1
  Ca  Ca1  1  0.65941848  0.84058152  0.25000000  1
  Ca  Ca2  1  0.34058152  0.15941848  0.75000000  1
  Ca  Ca3  1  0.75000000  0.34058152  0.15941848  1
  Ca  Ca4  1  0.25000000  0.65941848  0.84058152  1
  Ca  Ca5  1  0.84058152  0.25000000  0.65941848  1
  Fe  Fe6  1  0.50000000  0.50000000  0.50000000  1
  Fe  Fe7  1  0.25000000  0.25000000  0.25000000  1
  Fe  Fe8  1  0.75000000  0.75000000  0.75000000  1
  Fe  Fe9  1  0.00000000  0.00000000  0.00000000  1
  Se  Se10  1  0.08872655  0.50621066  0.81363851  1
  Se  Se11  1  0.18636149  0.91127345  0.49378934  1
  Se  Se12  1  0.58872655  0.31363851  0.00621066  1
  Se  Se13  1  0.49378934  0.18636149  0.91127345  1
  Se  Se14  1  0.50621066  0.81363851  0.08872655  1
  Se  Se15  1  0.99378934  0.41127345  0.68636149  1
  Se  Se16  1  0.81363851  0.08872655  0.50621066  1
  Se  Se17  1  0.41127345  0.68636149  0.99378934  1
  Se  Se18  1  0.68636149  0.99378934  0.41127345  1
  Se  Se19  1  0.31363851  0.00621066  0.58872655  1
  Se  Se20  1  0.91127345  0.49378934  0.18636149  1
  Se  Se21  1  0.00621066  0.58872655  0.31363851  1
  O  O22  1  0.31525807  0.34413627  0.99899980  1
  O  O23  1  0.18474193  0.50100020  0.15586373  1
  O  O24  1  0.59424187  0.32103950  0.67825783  1
  O  O25  1  0.04881658  0.33628022  0.94111567  1
  O  O26  1  0.44111567  0.83628022  0.54881658  1
  O  O27  1  0.17896050  0.90575813  0.82174217  1
  O  O28  1  0.33628022  0.94111567  0.04881658  1
  O  O29  1  0.68474193  0.65586373  0.00100020  1
  O  O30  1  0.45118342  0.55888433  0.16371978  1
  O  O31  1  0.99899980  0.31525807  0.34413627  1
  O  O32  1  0.17825783  0.82103950  0.09424187  1
  O  O33  1  0.15586373  0.18474193  0.50100020  1
  O  O34  1  0.55888433  0.16371978  0.45118342  1
  O  O35  1  0.34413627  0.99899980  0.31525807  1
  O  O36  1  0.65586373  0.00100020  0.68474193  1
  O  O37  1  0.32103950  0.67825783  0.59424187  1
  O  O38  1  0.94111567  0.04881658  0.33628022  1
  O  O39  1  0.50100020  0.15586373  0.18474193  1
  O  O40  1  0.95118342  0.66371978  0.05888433  1
  O  O41  1  0.09424187  0.17825783  0.82103950  1
  O  O42  1  0.67825783  0.59424187  0.32103950  1
  O  O43  1  0.90575813  0.82174217  0.17896050  1
  O  O44  1  0.84413627  0.81525807  0.49899980  1
  O  O45  1  0.32174217  0.40575813  0.67896050  1
  O  O46  1  0.40575813  0.67896050  0.32174217  1
  O  O47  1  0.83628022  0.54881658  0.44111567  1
  O  O48  1  0.49899980  0.84413627  0.81525807  1
  O  O49  1  0.66371978  0.05888433  0.95118342  1
  O  O50  1  0.67896050  0.32174217  0.40575813  1
  O  O51  1  0.16371978  0.45118342  0.55888433  1
  O  O52  1  0.81525807  0.49899980  0.84413627  1
  O  O53  1  0.00100020  0.68474193  0.65586373  1
  O  O54  1  0.05888433  0.95118342  0.66371978  1
  O  O55  1  0.54881658  0.44111567  0.83628022  1
  O  O56  1  0.82174217  0.17896050  0.90575813  1
  O  O57  1  0.82103950  0.09424187  0.17825783  1
