# generated using pymatgen
data_SmMoO4F
_symmetry_space_group_name_H-M   'P 1'
_cell_length_a   5.35258851
_cell_length_b   6.86824592
_cell_length_c   12.64376603
_cell_angle_alpha   90.00000000
_cell_angle_beta   90.00000000
_cell_angle_gamma   112.76009129
_symmetry_Int_Tables_number   1
_chemical_formula_structural   SmMoO4F
_chemical_formula_sum   'Sm4 Mo4 O16 F4'
_cell_volume   428.62711123
_cell_formula_units_Z   4
loop_
 _symmetry_equiv_pos_site_id
 _symmetry_equiv_pos_as_xyz
  1  'x, y, z'
loop_
 _atom_site_type_symbol
 _atom_site_label
 _atom_site_symmetry_multiplicity
 _atom_site_fract_x
 _atom_site_fract_y
 _atom_site_fract_z
 _atom_site_occupancy
  Sm  Sm0  1  0.63826649  0.79960220  0.05269335  1
  Sm  Sm1  1  0.63826649  0.29960220  0.44730665  1
  Sm  Sm2  1  0.36173351  0.70039780  0.55269335  1
  Sm  Sm3  1  0.36173351  0.20039780  0.94730665  1
  Mo  Mo4  1  0.92249089  0.86998673  0.35728541  1
  Mo  Mo5  1  0.07750911  0.13001327  0.64271459  1
  Mo  Mo6  1  0.07750911  0.63001327  0.85728541  1
  Mo  Mo7  1  0.92249089  0.36998673  0.14271459  1
  O  O8  1  0.30496531  0.04008545  0.56619679  1
  O  O9  1  0.69503469  0.95991455  0.43380321  1
  O  O10  1  0.19254853  0.70585589  0.72598268  1
  O  O11  1  0.23394385  0.08727249  0.34727644  1
  O  O12  1  0.80745147  0.29414411  0.27401732  1
  O  O13  1  0.19254853  0.20585589  0.77401732  1
  O  O14  1  0.76605615  0.41272751  0.84727644  1
  O  O15  1  0.76605615  0.91272751  0.65272356  1
  O  O16  1  0.99211061  0.16513581  0.06930941  1
  O  O17  1  0.69503469  0.45991455  0.06619679  1
  O  O18  1  0.99211061  0.66513581  0.43069059  1
  O  O19  1  0.80745147  0.79414411  0.22598268  1
  O  O20  1  0.23394385  0.58727249  0.15272356  1
  O  O21  1  0.00788939  0.83486419  0.93069059  1
  O  O22  1  0.00788939  0.33486419  0.56930941  1
  O  O23  1  0.30496531  0.54008545  0.93380321  1
  F  F24  1  0.55166903  0.46532469  0.59764181  1
  F  F25  1  0.44833097  0.53467531  0.40235819  1
  F  F26  1  0.44833097  0.03467531  0.09764181  1
  F  F27  1  0.55166903  0.96532469  0.90235819  1
