# generated using pymatgen
data_BaVCu4P4O17
_symmetry_space_group_name_H-M   'P 1'
_cell_length_a   7.34686636
_cell_length_b   9.73455564
_cell_length_c   9.73455564
_cell_angle_alpha   90.00000000
_cell_angle_beta   90.00000000
_cell_angle_gamma   90.00000000
_symmetry_Int_Tables_number   1
_chemical_formula_structural   BaVCu4P4O17
_chemical_formula_sum   'Ba2 V2 Cu8 P8 O34'
_cell_volume   696.20061663
_cell_formula_units_Z   2
loop_
 _symmetry_equiv_pos_site_id
 _symmetry_equiv_pos_as_xyz
  1  'x, y, z'
loop_
 _atom_site_type_symbol
 _atom_site_label
 _atom_site_symmetry_multiplicity
 _atom_site_fract_x
 _atom_site_fract_y
 _atom_site_fract_z
 _atom_site_occupancy
  Ba  Ba0  1  0.00000000  0.00000000  0.00000000  1
  Ba  Ba1  1  0.00000000  0.50000000  0.50000000  1
  V  V2  1  0.95635264  0.50000000  0.00000000  1
  V  V3  1  0.04364736  0.00000000  0.50000000  1
  Cu  Cu4  1  0.40350791  0.48628371  0.23799798  1
  Cu  Cu5  1  0.59649209  0.23799798  0.48628371  1
  Cu  Cu6  1  0.40350791  0.73799798  0.01371629  1
  Cu  Cu7  1  0.40350791  0.51371629  0.76200202  1
  Cu  Cu8  1  0.59649209  0.01371629  0.73799798  1
  Cu  Cu9  1  0.40350791  0.26200202  0.98628371  1
  Cu  Cu10  1  0.59649209  0.76200202  0.51371629  1
  Cu  Cu11  1  0.59649209  0.98628371  0.26200202  1
  P  P12  1  0.73377545  0.69061290  0.21824760  1
  P  P13  1  0.73377545  0.71824760  0.80938710  1
  P  P14  1  0.26622455  0.80938710  0.71824760  1
  P  P15  1  0.73377545  0.28175240  0.19061290  1
  P  P16  1  0.73377545  0.30938710  0.78175240  1
  P  P17  1  0.26622455  0.19061290  0.28175240  1
  P  P18  1  0.26622455  0.21824760  0.69061290  1
  P  P19  1  0.26622455  0.78175240  0.30938710  1
  O  O20  1  0.17935635  0.50000000  0.00000000  1
  O  O21  1  0.26314510  0.83926856  0.87392757  1
  O  O22  1  0.89610315  0.65856924  0.89512754  1
  O  O23  1  0.24239462  0.34299719  0.32067655  1
  O  O24  1  0.24239462  0.17932345  0.84299719  1
  O  O25  1  0.89610315  0.39512754  0.84143076  1
  O  O26  1  0.24239462  0.65700281  0.67932345  1
  O  O27  1  0.82064365  0.00000000  0.50000000  1
  O  O28  1  0.75760538  0.67932345  0.65700281  1
  O  O29  1  0.75760538  0.15700281  0.82067655  1
  O  O30  1  0.10389685  0.89512754  0.65856924  1
  O  O31  1  0.89610315  0.34143076  0.10487246  1
  O  O32  1  0.75760538  0.32067655  0.34299719  1
  O  O33  1  0.75760538  0.84299719  0.17932345  1
  O  O34  1  0.73685490  0.33926856  0.62607243  1
  O  O35  1  0.10389685  0.10487246  0.34143076  1
  O  O36  1  0.26314510  0.16073144  0.12607243  1
  O  O37  1  0.73685490  0.87392757  0.83926856  1
  O  O38  1  0.55141062  0.65309510  0.86363971  1
  O  O39  1  0.44858938  0.13636029  0.34690490  1
  O  O40  1  0.26314510  0.62607243  0.33926856  1
  O  O41  1  0.55141062  0.36363971  0.84690490  1
  O  O42  1  0.44858938  0.86363971  0.65309510  1
  O  O43  1  0.89610315  0.60487246  0.15856924  1
  O  O44  1  0.73685490  0.12607243  0.16073144  1
  O  O45  1  0.73685490  0.66073144  0.37392757  1
  O  O46  1  0.24239462  0.82067655  0.15700281  1
  O  O47  1  0.44858938  0.84690490  0.36363971  1
  O  O48  1  0.10389685  0.84143076  0.39512754  1
  O  O49  1  0.26314510  0.37392757  0.66073144  1
  O  O50  1  0.44858938  0.15309510  0.63636029  1
  O  O51  1  0.55141062  0.34690490  0.13636029  1
  O  O52  1  0.10389685  0.15856924  0.60487246  1
  O  O53  1  0.55141062  0.63636029  0.15309510  1
