# generated using pymatgen
data_ErMoClO4
_symmetry_space_group_name_H-M   'P 1'
_cell_length_a   6.28371339
_cell_length_b   6.28371325
_cell_length_c   6.89364096
_cell_angle_alpha   75.85189337
_cell_angle_beta   75.85189366
_cell_angle_gamma   70.72365196
_symmetry_Int_Tables_number   1
_chemical_formula_structural   ErMoClO4
_chemical_formula_sum   'Er2 Mo2 Cl2 O8'
_cell_volume   245.12335002
_cell_formula_units_Z   2
loop_
 _symmetry_equiv_pos_site_id
 _symmetry_equiv_pos_as_xyz
  1  'x, y, z'
loop_
 _atom_site_type_symbol
 _atom_site_label
 _atom_site_symmetry_multiplicity
 _atom_site_fract_x
 _atom_site_fract_y
 _atom_site_fract_z
 _atom_site_occupancy
  Er  Er0  1  0.22160815  0.22160815  0.88751430  1
  Er  Er1  1  0.77839185  0.77839185  0.11248570  1
  Mo  Mo2  1  0.63782723  0.63782723  0.73087105  1
  Mo  Mo3  1  0.36217277  0.36217277  0.26912895  1
  Cl  Cl4  1  0.01023841  0.01023841  0.23213293  1
  Cl  Cl5  1  0.98976159  0.98976159  0.76786707  1
  O  O6  1  0.50833511  0.89251057  0.84644793  1
  O  O7  1  0.49166489  0.10748943  0.15355207  1
  O  O8  1  0.10748943  0.49166489  0.15355207  1
  O  O9  1  0.54420955  0.54420955  0.20077030  1
  O  O10  1  0.29337251  0.29337251  0.53723072  1
  O  O11  1  0.89251057  0.50833511  0.84644793  1
  O  O12  1  0.70662749  0.70662749  0.46276928  1
  O  O13  1  0.45579045  0.45579045  0.79922970  1
