# generated using pymatgen
data_VHg4P2O9
_symmetry_space_group_name_H-M   'P 1'
_cell_length_a   7.20584858
_cell_length_b   9.23692116
_cell_length_c   16.98867961
_cell_angle_alpha   90.00000000
_cell_angle_beta   90.00000000
_cell_angle_gamma   90.00000000
_symmetry_Int_Tables_number   1
_chemical_formula_structural   VHg4P2O9
_chemical_formula_sum   'V4 Hg16 P8 O36'
_cell_volume   1130.76405529
_cell_formula_units_Z   4
loop_
 _symmetry_equiv_pos_site_id
 _symmetry_equiv_pos_as_xyz
  1  'x, y, z'
loop_
 _atom_site_type_symbol
 _atom_site_label
 _atom_site_symmetry_multiplicity
 _atom_site_fract_x
 _atom_site_fract_y
 _atom_site_fract_z
 _atom_site_occupancy
  V  V0  1  0.13010181  0.76690559  0.25000000  1
  V  V1  1  0.36989819  0.26690559  0.75000000  1
  V  V2  1  0.86989819  0.23309441  0.75000000  1
  V  V3  1  0.63010181  0.73309441  0.25000000  1
  Hg  Hg4  1  0.63534232  0.75153051  0.58031258  1
  Hg  Hg5  1  0.12932116  0.46967006  0.59562358  1
  Hg  Hg6  1  0.86465768  0.25153051  0.08031258  1
  Hg  Hg7  1  0.87067884  0.53032994  0.40437642  1
  Hg  Hg8  1  0.13534232  0.74846949  0.91968742  1
  Hg  Hg9  1  0.37067884  0.96967006  0.09562358  1
  Hg  Hg10  1  0.62932116  0.03032994  0.90437642  1
  Hg  Hg11  1  0.36465768  0.24846949  0.41968742  1
  Hg  Hg12  1  0.36465768  0.24846949  0.08031258  1
  Hg  Hg13  1  0.62932116  0.03032994  0.59562358  1
  Hg  Hg14  1  0.13534232  0.74846949  0.58031258  1
  Hg  Hg15  1  0.86465768  0.25153051  0.41968742  1
  Hg  Hg16  1  0.12932116  0.46967006  0.90437642  1
  Hg  Hg17  1  0.87067884  0.53032994  0.09562358  1
  Hg  Hg18  1  0.63534232  0.75153051  0.91968742  1
  Hg  Hg19  1  0.37067884  0.96967006  0.40437642  1
  P  P20  1  0.35666845  0.60991649  0.11313527  1
  P  P21  1  0.14333155  0.10991649  0.88686473  1
  P  P22  1  0.64333155  0.39008351  0.61313527  1
  P  P23  1  0.35666845  0.60991649  0.38686473  1
  P  P24  1  0.14333155  0.10991649  0.61313527  1
  P  P25  1  0.85666845  0.89008351  0.38686473  1
  P  P26  1  0.64333155  0.39008351  0.88686473  1
  P  P27  1  0.85666845  0.89008351  0.11313527  1
  O  O28  1  0.96823009  0.09818617  0.66627867  1
  O  O29  1  0.68035028  0.88112036  0.33392683  1
  O  O30  1  0.68035028  0.88112036  0.16607317  1
  O  O31  1  0.64013985  0.17583222  0.75000000  1
  O  O32  1  0.66172508  0.52414806  0.55903101  1
  O  O33  1  0.13137839  0.24236436  0.94408970  1
  O  O34  1  0.85986015  0.67583222  0.25000000  1
  O  O35  1  0.86862161  0.75763564  0.05591030  1
  O  O36  1  0.81964972  0.38112036  0.66607317  1
  O  O37  1  0.33827492  0.47585194  0.05903101  1
  O  O38  1  0.14013985  0.32416778  0.75000000  1
  O  O39  1  0.46823009  0.40181383  0.83372133  1
  O  O40  1  0.16172508  0.97585194  0.55903101  1
  O  O41  1  0.31964972  0.11887964  0.83392683  1
  O  O42  1  0.86862161  0.75763564  0.44408970  1
  O  O43  1  0.35986015  0.82416778  0.25000000  1
  O  O44  1  0.36862161  0.74236436  0.44408970  1
  O  O45  1  0.63137839  0.25763564  0.94408970  1
  O  O46  1  0.83827492  0.02414806  0.05903101  1
  O  O47  1  0.18035028  0.61887964  0.33392683  1
  O  O48  1  0.18035028  0.61887964  0.16607317  1
  O  O49  1  0.31964972  0.11887964  0.66607317  1
  O  O50  1  0.16172508  0.97585194  0.94096899  1
  O  O51  1  0.03176991  0.90181383  0.33372133  1
  O  O52  1  0.81964972  0.38112036  0.83392683  1
  O  O53  1  0.46823009  0.40181383  0.66627867  1
  O  O54  1  0.53176991  0.59818617  0.16627867  1
  O  O55  1  0.53176991  0.59818617  0.33372133  1
  O  O56  1  0.03176991  0.90181383  0.16627867  1
  O  O57  1  0.83827492  0.02414806  0.44096899  1
  O  O58  1  0.66172508  0.52414806  0.94096899  1
  O  O59  1  0.33827492  0.47585194  0.44096899  1
  O  O60  1  0.13137839  0.24236436  0.55591030  1
  O  O61  1  0.63137839  0.25763564  0.55591030  1
  O  O62  1  0.96823009  0.09818617  0.83372133  1
  O  O63  1  0.36862161  0.74236436  0.05591030  1
