# generated using pymatgen
data_FeP2HO7
_symmetry_space_group_name_H-M   'P 1'
_cell_length_a   4.96486167
_cell_length_b   8.21907896
_cell_length_c   12.92191339
_cell_angle_alpha   90.00000000
_cell_angle_beta   90.00000000
_cell_angle_gamma   98.44441741
_symmetry_Int_Tables_number   1
_chemical_formula_structural   FeP2HO7
_chemical_formula_sum   'Fe4 P8 H4 O28'
_cell_volume   521.58265994
_cell_formula_units_Z   4
loop_
 _symmetry_equiv_pos_site_id
 _symmetry_equiv_pos_as_xyz
  1  'x, y, z'
loop_
 _atom_site_type_symbol
 _atom_site_label
 _atom_site_symmetry_multiplicity
 _atom_site_fract_x
 _atom_site_fract_y
 _atom_site_fract_z
 _atom_site_occupancy
  Fe  Fe0  1  0.90269102  0.99279127  0.62468406  1
  Fe  Fe1  1  0.40269102  0.49279127  0.87531594  1
  Fe  Fe2  1  0.59730898  0.50720873  0.12468406  1
  Fe  Fe3  1  0.09730898  0.00720873  0.37531594  1
  P  P4  1  0.97111918  0.74639083  0.82662371  1
  P  P5  1  0.34341444  0.75067242  0.54029894  1
  P  P6  1  0.15658556  0.74932758  0.04029894  1
  P  P7  1  0.52888082  0.75360917  0.32662371  1
  P  P8  1  0.47111918  0.24639083  0.67337629  1
  P  P9  1  0.02888082  0.25360917  0.17337629  1
  P  P10  1  0.65658556  0.24932758  0.45970106  1
  P  P11  1  0.84341444  0.25067242  0.95970106  1
  H  H12  1  0.66579416  0.10182345  0.82609667  1
  H  H13  1  0.33420584  0.89817655  0.17390333  1
  H  H14  1  0.83420584  0.39817655  0.32609667  1
  H  H15  1  0.16579416  0.60182345  0.67390333  1
  O  O16  1  0.87183723  0.39646649  0.20209018  1
  O  O17  1  0.82298025  0.10502945  0.47869676  1
  O  O18  1  0.82571409  0.81049319  0.35173568  1
  O  O19  1  0.88329075  0.17029932  0.07005852  1
  O  O20  1  0.32779626  0.89682934  0.09552222  1
  O  O21  1  0.11528281  0.30555316  0.90867880  1
  O  O22  1  0.88471719  0.69444684  0.09132120  1
  O  O23  1  0.12816277  0.60353351  0.79790982  1
  O  O24  1  0.38329075  0.67029932  0.42994148  1
  O  O25  1  0.67220374  0.10317066  0.90447778  1
  O  O26  1  0.17701975  0.89497055  0.52130324  1
  O  O27  1  0.61528281  0.80555316  0.59132120  1
  O  O28  1  0.82779626  0.39682934  0.40447778  1
  O  O29  1  0.51974098  0.38242242  0.75363604  1
  O  O30  1  0.67701975  0.39497055  0.97869676  1
  O  O31  1  0.01974098  0.88242242  0.74636396  1
  O  O32  1  0.37183723  0.89646649  0.29790982  1
  O  O33  1  0.38471719  0.19444684  0.40867880  1
  O  O34  1  0.98025902  0.11757758  0.25363604  1
  O  O35  1  0.32298025  0.60502945  0.02130324  1
  O  O36  1  0.48025902  0.61757758  0.24636396  1
  O  O37  1  0.11670925  0.82970068  0.92994148  1
  O  O38  1  0.17428591  0.18950681  0.64826432  1
  O  O39  1  0.67428591  0.68950681  0.85173568  1
  O  O40  1  0.32571409  0.31049319  0.14826432  1
  O  O41  1  0.62816277  0.10353351  0.70209018  1
  O  O42  1  0.61670925  0.32970068  0.57005852  1
  O  O43  1  0.17220374  0.60317066  0.59552222  1
