# generated using pymatgen
data_MgV2PbO7
_symmetry_space_group_name_H-M   'P 1'
_cell_length_a   6.96238387
_cell_length_b   11.70902064
_cell_length_c   15.27935970
_cell_angle_alpha   90.00000000
_cell_angle_beta   90.00000000
_cell_angle_gamma   97.92785841
_symmetry_Int_Tables_number   1
_chemical_formula_structural   MgV2PbO7
_chemical_formula_sum   'Mg8 V16 Pb8 O56'
_cell_volume   1233.70966374
_cell_formula_units_Z   8
loop_
 _symmetry_equiv_pos_site_id
 _symmetry_equiv_pos_as_xyz
  1  'x, y, z'
loop_
 _atom_site_type_symbol
 _atom_site_label
 _atom_site_symmetry_multiplicity
 _atom_site_fract_x
 _atom_site_fract_y
 _atom_site_fract_z
 _atom_site_occupancy
  Mg  Mg0  1  0.98857429  0.23977335  0.75092180  1
  Mg  Mg1  1  0.62417955  0.06279958  0.67678332  1
  Mg  Mg2  1  0.37582045  0.93720042  0.32321668  1
  Mg  Mg3  1  0.01142571  0.26022665  0.25092180  1
  Mg  Mg4  1  0.98857429  0.73977335  0.74907820  1
  Mg  Mg5  1  0.37582045  0.43720042  0.17678332  1
  Mg  Mg6  1  0.62417955  0.56279958  0.82321668  1
  Mg  Mg7  1  0.01142571  0.76022665  0.24907820  1
  V  V8  1  0.50891860  0.23069956  0.30416244  1
  V  V9  1  0.37077587  0.14611675  0.49336867  1
  V  V10  1  0.84378016  0.97979558  0.86302348  1
  V  V11  1  0.15621984  0.52020442  0.36302348  1
  V  V12  1  0.62922413  0.35388325  0.99336867  1
  V  V13  1  0.88820169  0.99534376  0.35718858  1
  V  V14  1  0.84378016  0.47979558  0.63697652  1
  V  V15  1  0.49108140  0.26930044  0.80416244  1
  V  V16  1  0.50891860  0.73069956  0.19583756  1
  V  V17  1  0.49108140  0.76930044  0.69583756  1
  V  V18  1  0.37077587  0.64611675  0.00663133  1
  V  V19  1  0.15621984  0.02020442  0.13697652  1
  V  V20  1  0.11179831  0.00465624  0.64281142  1
  V  V21  1  0.88820169  0.49534376  0.14281142  1
  V  V22  1  0.11179831  0.50465624  0.85718858  1
  V  V23  1  0.62922413  0.85388325  0.50663133  1
  Pb  Pb24  1  0.65919013  0.05377558  0.12536442  1
  Pb  Pb25  1  0.89026124  0.77819739  0.01868917  1
  Pb  Pb26  1  0.10973876  0.22180261  0.98131083  1
  Pb  Pb27  1  0.34080987  0.94622442  0.87463558  1
  Pb  Pb28  1  0.89026124  0.27819739  0.48131083  1
  Pb  Pb29  1  0.10973876  0.72180261  0.51868917  1
  Pb  Pb30  1  0.65919013  0.55377558  0.37463558  1
  Pb  Pb31  1  0.34080987  0.44622442  0.62536442  1
  O  O32  1  0.29937182  0.78521300  0.76433491  1
  O  O33  1  0.68977804  0.96706004  0.29099604  1
  O  O34  1  0.32513380  0.28671440  0.24956633  1
  O  O35  1  0.06251833  0.90573354  0.33324132  1
  O  O36  1  0.70062818  0.21478700  0.23566509  1
  O  O37  1  0.93748167  0.59426646  0.83324132  1
  O  O38  1  0.26627339  0.26644394  0.50910560  1
  O  O39  1  0.98168763  0.63881043  0.14723779  1
  O  O40  1  0.93748167  0.09426646  0.66675868  1
  O  O41  1  0.29937182  0.28521300  0.73566509  1
  O  O42  1  0.67486620  0.21328560  0.74956633  1
  O  O43  1  0.75582629  0.95834826  0.96800011  1
  O  O44  1  0.32513380  0.78671440  0.25043367  1
  O  O45  1  0.24417371  0.04165174  0.03199989  1
  O  O46  1  0.57912673  0.89366372  0.62044947  1
  O  O47  1  0.35139873  0.53375804  0.29037232  1
  O  O48  1  0.98168763  0.13881043  0.35276221  1
  O  O49  1  0.01405405  0.38476725  0.35527940  1
  O  O50  1  0.67486620  0.71328560  0.75043367  1
  O  O51  1  0.75582629  0.45834826  0.53199989  1
  O  O52  1  0.73372661  0.73355606  0.49089440  1
  O  O53  1  0.64860127  0.46624196  0.70962768  1
  O  O54  1  0.01405405  0.88476725  0.14472060  1
  O  O55  1  0.31022196  0.03293996  0.70900396  1
  O  O56  1  0.39835150  0.67544315  0.61649419  1
  O  O57  1  0.57912673  0.39366372  0.87955053  1
  O  O58  1  0.98594595  0.11523275  0.85527940  1
  O  O59  1  0.42087327  0.60633628  0.12044947  1
  O  O60  1  0.20076549  0.52863020  0.96899427  1
  O  O61  1  0.01166376  0.63078169  0.34688154  1
  O  O62  1  0.98833624  0.36921831  0.65311846  1
  O  O63  1  0.98833624  0.86921831  0.84688154  1
  O  O64  1  0.98594595  0.61523275  0.64472060  1
  O  O65  1  0.60164850  0.82455685  0.11649419  1
  O  O66  1  0.60164850  0.32455685  0.38350581  1
  O  O67  1  0.01831237  0.86118957  0.64723779  1
  O  O68  1  0.79923451  0.47136980  0.03100573  1
  O  O69  1  0.20076549  0.02863020  0.53100573  1
  O  O70  1  0.73372661  0.23355606  0.00910560  1
  O  O71  1  0.24417371  0.54165174  0.46800011  1
  O  O72  1  0.42955477  0.35137392  0.05870069  1
  O  O73  1  0.39835150  0.17544315  0.88350581  1
  O  O74  1  0.42087327  0.10633628  0.37955053  1
  O  O75  1  0.68977804  0.46706004  0.20900396  1
  O  O76  1  0.06251833  0.40573354  0.16675868  1
  O  O77  1  0.01831237  0.36118957  0.85276221  1
  O  O78  1  0.64860127  0.96624196  0.79037232  1
  O  O79  1  0.01166376  0.13078169  0.15311846  1
  O  O80  1  0.79923451  0.97136980  0.46899427  1
  O  O81  1  0.57044523  0.14862608  0.55870069  1
  O  O82  1  0.26627339  0.76644394  0.99089440  1
  O  O83  1  0.70062818  0.71478700  0.26433491  1
  O  O84  1  0.31022196  0.53293996  0.79099604  1
  O  O85  1  0.57044523  0.64862608  0.94129931  1
  O  O86  1  0.35139873  0.03375804  0.20962768  1
  O  O87  1  0.42955477  0.85137392  0.44129931  1
