# generated using pymatgen
data_TlCr3O8
_symmetry_space_group_name_H-M   'P 1'
_cell_length_a   5.30419886
_cell_length_b   5.30419869
_cell_length_c   7.97219731
_cell_angle_alpha   92.53775355
_cell_angle_beta   92.53775366
_cell_angle_gamma   62.82405745
_symmetry_Int_Tables_number   1
_chemical_formula_structural   TlCr3O8
_chemical_formula_sum   'Tl1 Cr3 O8'
_cell_volume   199.26504975
_cell_formula_units_Z   1
loop_
 _symmetry_equiv_pos_site_id
 _symmetry_equiv_pos_as_xyz
  1  'x, y, z'
loop_
 _atom_site_type_symbol
 _atom_site_label
 _atom_site_symmetry_multiplicity
 _atom_site_fract_x
 _atom_site_fract_y
 _atom_site_fract_z
 _atom_site_occupancy
  Tl  Tl0  1  0.00000000  0.00000000  0.00000000  1
  Cr  Cr1  1  0.36140002  0.36140002  0.70427274  1
  Cr  Cr2  1  0.63859998  0.63859998  0.29572726  1
  Cr  Cr3  1  0.00000000  0.00000000  0.50000000  1
  O  O4  1  0.71508029  0.21291179  0.67475134  1
  O  O5  1  0.78708821  0.28491971  0.32524866  1
  O  O6  1  0.21284566  0.21284566  0.57332425  1
  O  O7  1  0.78715434  0.78715434  0.42667575  1
  O  O8  1  0.31535992  0.31535992  0.89887707  1
  O  O9  1  0.68464008  0.68464008  0.10112293  1
  O  O10  1  0.28491971  0.78708821  0.32524866  1
  O  O11  1  0.21291179  0.71508029  0.67475134  1
