# generated using pymatgen
data_Y2WO6
_symmetry_space_group_name_H-M   'P 1'
_cell_length_a   5.41262748
_cell_length_b   7.72644290
_cell_length_c   11.51074933
_cell_angle_alpha   104.39881778
_cell_angle_beta   90.00000000
_cell_angle_gamma   90.00000000
_symmetry_Int_Tables_number   1
_chemical_formula_structural   Y2WO6
_chemical_formula_sum   'Y8 W4 O24'
_cell_volume   466.26256533
_cell_formula_units_Z   4
loop_
 _symmetry_equiv_pos_site_id
 _symmetry_equiv_pos_as_xyz
  1  'x, y, z'
loop_
 _atom_site_type_symbol
 _atom_site_label
 _atom_site_symmetry_multiplicity
 _atom_site_fract_x
 _atom_site_fract_y
 _atom_site_fract_z
 _atom_site_occupancy
  Y  Y0  1  0.18643904  0.20517552  0.07771488  1
  Y  Y1  1  0.26109065  0.00000000  0.75000000  1
  Y  Y2  1  0.73890935  0.00000000  0.25000000  1
  Y  Y3  1  0.31624527  0.50000000  0.75000000  1
  Y  Y4  1  0.18643904  0.79482448  0.42228512  1
  Y  Y5  1  0.68375473  0.50000000  0.25000000  1
  Y  Y6  1  0.81356096  0.79482448  0.92228512  1
  Y  Y7  1  0.81356096  0.20517552  0.57771488  1
  W  W8  1  0.74554318  0.27665292  0.88538328  1
  W  W9  1  0.25445682  0.27665292  0.38538328  1
  W  W10  1  0.74554318  0.72334708  0.61461672  1
  W  W11  1  0.25445682  0.72334708  0.11461672  1
  O  O12  1  0.84956725  0.63556601  0.45253229  1
  O  O13  1  0.47009290  0.15154431  0.93068514  1
  O  O14  1  0.84956725  0.36443399  0.04746771  1
  O  O15  1  0.01868600  0.70896570  0.72755605  1
  O  O16  1  0.98131400  0.70896570  0.22755605  1
  O  O17  1  0.15043275  0.63556601  0.95253229  1
  O  O18  1  0.63754421  0.50906676  0.88619032  1
  O  O19  1  0.52990710  0.84845569  0.06931486  1
  O  O20  1  0.15043275  0.36443399  0.54746771  1
  O  O21  1  0.01868600  0.29103430  0.77244395  1
  O  O22  1  0.45763070  0.78977518  0.27187197  1
  O  O23  1  0.04294640  0.06050173  0.39498580  1
  O  O24  1  0.47009290  0.84845569  0.56931486  1
  O  O25  1  0.98131400  0.29103430  0.27244395  1
  O  O26  1  0.95705360  0.93949827  0.60501420  1
  O  O27  1  0.54236930  0.78977518  0.77187197  1
  O  O28  1  0.54236930  0.21022482  0.72812803  1
  O  O29  1  0.04294640  0.93949827  0.10501420  1
  O  O30  1  0.63754421  0.49093324  0.61380968  1
  O  O31  1  0.36245579  0.49093324  0.11380968  1
  O  O32  1  0.45763070  0.21022482  0.22812803  1
  O  O33  1  0.36245579  0.50906676  0.38619032  1
  O  O34  1  0.52990710  0.15154431  0.43068514  1
  O  O35  1  0.95705360  0.06050173  0.89498580  1
