# generated using pymatgen
data_Rb2UCr(IO6)2
_symmetry_space_group_name_H-M   'P 1'
_cell_length_a   7.45067769
_cell_length_b   11.54242737
_cell_length_c   16.40635595
_cell_angle_alpha   107.01720438
_cell_angle_beta   90.00000000
_cell_angle_gamma   90.00000000
_symmetry_Int_Tables_number   1
_chemical_formula_structural   Rb2UCr(IO6)2
_chemical_formula_sum   'Rb8 U4 Cr4 I8 O48'
_cell_volume   1349.15386371
_cell_formula_units_Z   4
loop_
 _symmetry_equiv_pos_site_id
 _symmetry_equiv_pos_as_xyz
  1  'x, y, z'
loop_
 _atom_site_type_symbol
 _atom_site_label
 _atom_site_symmetry_multiplicity
 _atom_site_fract_x
 _atom_site_fract_y
 _atom_site_fract_z
 _atom_site_occupancy
  Rb  Rb0  1  0.25147465  0.50064739  0.44438387  1
  Rb  Rb1  1  0.24965956  0.25255550  0.13964633  1
  Rb  Rb2  1  0.74852535  0.49935261  0.55561613  1
  Rb  Rb3  1  0.75034044  0.74744450  0.86035367  1
  Rb  Rb4  1  0.75147465  0.49935261  0.05561613  1
  Rb  Rb5  1  0.74965956  0.74744450  0.36035367  1
  Rb  Rb6  1  0.25034044  0.25255550  0.63964633  1
  Rb  Rb7  1  0.24852535  0.50064739  0.94438387  1
  U  U8  1  0.48765475  0.83553404  0.13231537  1
  U  U9  1  0.98765475  0.16446596  0.36768463  1
  U  U10  1  0.01234525  0.83553404  0.63231537  1
  U  U11  1  0.51234525  0.16446596  0.86768463  1
  Cr  Cr12  1  0.73803334  0.07731571  0.05321786  1
  Cr  Cr13  1  0.76196666  0.07731571  0.55321786  1
  Cr  Cr14  1  0.26196666  0.92268429  0.94678214  1
  Cr  Cr15  1  0.23803334  0.92268429  0.44678214  1
  I  I16  1  0.51750912  0.83335977  0.60648175  1
  I  I17  1  0.01750912  0.16664023  0.89351825  1
  I  I18  1  0.71809811  0.39620889  0.77618950  1
  I  I19  1  0.48249088  0.16664023  0.39351825  1
  I  I20  1  0.28190189  0.60379111  0.22381050  1
  I  I21  1  0.98249088  0.83335977  0.10648175  1
  I  I22  1  0.78190189  0.39620889  0.27618950  1
  I  I23  1  0.21809811  0.60379111  0.72381050  1
  O  O24  1  0.29166991  0.91909084  0.04986572  1
  O  O25  1  0.82381807  0.21324388  0.83851116  1
  O  O26  1  0.89178872  0.48790358  0.21737645  1
  O  O27  1  0.97525827  0.70489989  0.01191868  1
  O  O28  1  0.68247458  0.93666577  0.06243511  1
  O  O29  1  0.52270528  0.29730276  0.78208520  1
  O  O30  1  0.97729472  0.29730276  0.28208520  1
  O  O31  1  0.98082428  0.03191906  0.27481912  1
  O  O32  1  0.37938635  0.81616130  0.88182308  1
  O  O33  1  0.17618193  0.78675612  0.16148884  1
  O  O34  1  0.20479261  0.21126260  0.83429586  1
  O  O35  1  0.18247458  0.06333423  0.43756489  1
  O  O36  1  0.67618193  0.21324388  0.33851116  1
  O  O37  1  0.79166991  0.08090916  0.45013428  1
  O  O38  1  0.47729472  0.70269724  0.21791480  1
  O  O39  1  0.02270528  0.70269724  0.71791480  1
  O  O40  1  0.99640886  0.29747266  0.46107256  1
  O  O41  1  0.78492240  0.50042949  0.38254715  1
  O  O42  1  0.81752542  0.93666577  0.56243511  1
  O  O43  1  0.00359114  0.70252734  0.53892744  1
  O  O44  1  0.79520739  0.78873740  0.16570414  1
  O  O45  1  0.70833009  0.08090916  0.95013428  1
  O  O46  1  0.47525827  0.29510011  0.48808132  1
  O  O47  1  0.48082428  0.96808094  0.22518088  1
  O  O48  1  0.87938635  0.18383870  0.61817692  1
  O  O49  1  0.52474173  0.70489989  0.51191868  1
  O  O50  1  0.44855317  0.90124655  0.42192569  1
  O  O51  1  0.29520739  0.21126260  0.33429586  1
  O  O52  1  0.49640886  0.70252734  0.03892744  1
  O  O53  1  0.60821128  0.48790358  0.71737645  1
  O  O54  1  0.39178872  0.51209642  0.28262355  1
  O  O55  1  0.31752542  0.06333423  0.93756489  1
  O  O56  1  0.32381807  0.78675612  0.66148884  1
  O  O57  1  0.21507760  0.49957051  0.61745285  1
  O  O58  1  0.02474173  0.29510011  0.98808132  1
  O  O59  1  0.50359114  0.29747266  0.96107256  1
  O  O60  1  0.51917572  0.03191906  0.77481912  1
  O  O61  1  0.12061365  0.81616130  0.38182308  1
  O  O62  1  0.01917572  0.96808094  0.72518088  1
  O  O63  1  0.10821128  0.51209642  0.78262355  1
  O  O64  1  0.20833009  0.91909084  0.54986572  1
  O  O65  1  0.62061365  0.18383870  0.11817692  1
  O  O66  1  0.55144683  0.09875345  0.57807431  1
  O  O67  1  0.28492240  0.49957051  0.11745285  1
  O  O68  1  0.05144683  0.90124655  0.92192569  1
  O  O69  1  0.94855317  0.09875345  0.07807431  1
  O  O70  1  0.70479261  0.78873740  0.66570414  1
  O  O71  1  0.71507760  0.50042949  0.88254715  1
