# generated using pymatgen
data_Sr2VO4
_symmetry_space_group_name_H-M   'P 1'
_cell_length_a   5.90434877
_cell_length_b   10.23618586
_cell_length_c   14.25889439
_cell_angle_alpha   90.00000000
_cell_angle_beta   90.00000000
_cell_angle_gamma   90.00000000
_symmetry_Int_Tables_number   1
_chemical_formula_structural   Sr2VO4
_chemical_formula_sum   'Sr16 V8 O32'
_cell_volume   861.77922158
_cell_formula_units_Z   8
loop_
 _symmetry_equiv_pos_site_id
 _symmetry_equiv_pos_as_xyz
  1  'x, y, z'
loop_
 _atom_site_type_symbol
 _atom_site_label
 _atom_site_symmetry_multiplicity
 _atom_site_fract_x
 _atom_site_fract_y
 _atom_site_fract_z
 _atom_site_occupancy
  Sr  Sr0  1  0.80681824  0.14199595  0.79405150  1
  Sr  Sr1  1  0.30979063  0.91779691  0.87966775  1
  Sr  Sr2  1  0.22540611  0.27263095  0.45033595  1
  Sr  Sr3  1  0.30681824  0.64199595  0.70594850  1
  Sr  Sr4  1  0.77459389  0.77263095  0.54966405  1
  Sr  Sr5  1  0.72970678  0.49581158  0.37004687  1
  Sr  Sr6  1  0.69020937  0.41779691  0.12033225  1
  Sr  Sr7  1  0.69318176  0.14199595  0.29405150  1
  Sr  Sr8  1  0.72540611  0.77263095  0.04966405  1
  Sr  Sr9  1  0.80979063  0.41779691  0.62033225  1
  Sr  Sr10  1  0.77029322  0.49581158  0.87004687  1
  Sr  Sr11  1  0.22970678  0.99581158  0.12995313  1
  Sr  Sr12  1  0.19020937  0.91779691  0.37966775  1
  Sr  Sr13  1  0.19318176  0.64199595  0.20594850  1
  Sr  Sr14  1  0.27459389  0.27263095  0.95033595  1
  Sr  Sr15  1  0.27029322  0.99581158  0.62995313  1
  V  V16  1  0.22249788  0.62624178  0.97262551  1
  V  V17  1  0.80424322  0.78680845  0.77678995  1
  V  V18  1  0.69575678  0.78680845  0.27678995  1
  V  V19  1  0.30424322  0.28680845  0.72321005  1
  V  V20  1  0.27750212  0.62624178  0.47262551  1
  V  V21  1  0.72249788  0.12624178  0.52737449  1
  V  V22  1  0.77750212  0.12624178  0.02737449  1
  V  V23  1  0.19575678  0.28680845  0.22321005  1
  O  O24  1  0.96412847  0.55654235  0.02625175  1
  O  O25  1  0.49465468  0.42397325  0.74285257  1
  O  O26  1  0.04981413  0.34812419  0.79190953  1
  O  O27  1  0.03587153  0.05654235  0.97374825  1
  O  O28  1  0.56484595  0.00308790  0.01154752  1
  O  O29  1  0.06484595  0.50308790  0.48845248  1
  O  O30  1  0.85820133  0.73942141  0.37859348  1
  O  O31  1  0.45018587  0.34812419  0.29190953  1
  O  O32  1  0.86690644  0.64311448  0.69881541  1
  O  O33  1  0.35820133  0.23942141  0.12140652  1
  O  O34  1  0.78623225  0.26861786  0.45260749  1
  O  O35  1  0.63309356  0.64311448  0.19881541  1
  O  O36  1  0.93515405  0.00308790  0.51154752  1
  O  O37  1  0.62074605  0.19083294  0.63875091  1
  O  O38  1  0.99465468  0.92397325  0.75714743  1
  O  O39  1  0.28623225  0.76861786  0.04739251  1
  O  O40  1  0.50534532  0.92397325  0.25714743  1
  O  O41  1  0.71376775  0.26861786  0.95260749  1
  O  O42  1  0.95018587  0.84812419  0.20809047  1
  O  O43  1  0.87925395  0.19083294  0.13875091  1
  O  O44  1  0.54981413  0.84812419  0.70809047  1
  O  O45  1  0.37925395  0.69083294  0.36124909  1
  O  O46  1  0.36690644  0.14311448  0.80118459  1
  O  O47  1  0.13309356  0.14311448  0.30118459  1
  O  O48  1  0.64179867  0.73942141  0.87859348  1
  O  O49  1  0.53587153  0.55654235  0.52625175  1
  O  O50  1  0.21376775  0.76861786  0.54739251  1
  O  O51  1  0.14179867  0.23942141  0.62140652  1
  O  O52  1  0.43515405  0.50308790  0.98845248  1
  O  O53  1  0.00534532  0.42397325  0.24285257  1
  O  O54  1  0.12074605  0.69083294  0.86124909  1
  O  O55  1  0.46412847  0.05654235  0.47374825  1
