# generated using pymatgen
data_AlMoP2O9
_symmetry_space_group_name_H-M   'P 1'
_cell_length_a   8.87723993
_cell_length_b   8.98554102
_cell_length_c   8.98554102
_cell_angle_alpha   90.00000000
_cell_angle_beta   90.00000000
_cell_angle_gamma   90.00000000
_symmetry_Int_Tables_number   1
_chemical_formula_structural   AlMoP2O9
_chemical_formula_sum   'Al4 Mo4 P8 O36'
_cell_volume   716.74788520
_cell_formula_units_Z   4
loop_
 _symmetry_equiv_pos_site_id
 _symmetry_equiv_pos_as_xyz
  1  'x, y, z'
loop_
 _atom_site_type_symbol
 _atom_site_label
 _atom_site_symmetry_multiplicity
 _atom_site_fract_x
 _atom_site_fract_y
 _atom_site_fract_z
 _atom_site_occupancy
  Al  Al0  1  0.00000000  0.75000000  0.25000000  1
  Al  Al1  1  0.00000000  0.25000000  0.75000000  1
  Al  Al2  1  0.50000000  0.25000000  0.75000000  1
  Al  Al3  1  0.50000000  0.75000000  0.25000000  1
  Mo  Mo4  1  0.81837243  0.75000000  0.75000000  1
  Mo  Mo5  1  0.31837243  0.75000000  0.75000000  1
  Mo  Mo6  1  0.68162757  0.25000000  0.25000000  1
  Mo  Mo7  1  0.18162757  0.25000000  0.25000000  1
  P  P8  1  0.75000000  0.06800927  0.93199073  1
  P  P9  1  0.25000000  0.43199073  0.93199073  1
  P  P10  1  0.75000000  0.56800927  0.06800927  1
  P  P11  1  0.25000000  0.93199073  0.06800927  1
  P  P12  1  0.75000000  0.93199073  0.43199073  1
  P  P13  1  0.25000000  0.56800927  0.43199073  1
  P  P14  1  0.75000000  0.43199073  0.56800927  1
  P  P15  1  0.25000000  0.06800927  0.56800927  1
  O  O16  1  0.60877719  0.12391129  0.85152235  1
  O  O17  1  0.01085558  0.75000000  0.75000000  1
  O  O18  1  0.10877719  0.85152235  0.12391129  1
  O  O19  1  0.39122281  0.14847765  0.62391129  1
  O  O20  1  0.73315825  0.39753332  0.08854196  1
  O  O21  1  0.26684175  0.60246668  0.91145804  1
  O  O22  1  0.23315825  0.39753332  0.41145804  1
  O  O23  1  0.98914442  0.25000000  0.25000000  1
  O  O24  1  0.89122281  0.62391129  0.14847765  1
  O  O25  1  0.73315825  0.10246668  0.41145804  1
  O  O26  1  0.89122281  0.14847765  0.87608871  1
  O  O27  1  0.39122281  0.87608871  0.14847765  1
  O  O28  1  0.51085558  0.75000000  0.75000000  1
  O  O29  1  0.89122281  0.35152235  0.62391129  1
  O  O30  1  0.76684175  0.89753332  0.91145804  1
  O  O31  1  0.76684175  0.60246668  0.58854196  1
  O  O32  1  0.60877719  0.64847765  0.12391129  1
  O  O33  1  0.39122281  0.35152235  0.87608871  1
  O  O34  1  0.89122281  0.87608871  0.35152235  1
  O  O35  1  0.76684175  0.58854196  0.89753332  1
  O  O36  1  0.48914442  0.25000000  0.25000000  1
  O  O37  1  0.73315825  0.41145804  0.39753332  1
  O  O38  1  0.26684175  0.89753332  0.58854196  1
  O  O39  1  0.73315825  0.08854196  0.10246668  1
  O  O40  1  0.26684175  0.58854196  0.60246668  1
  O  O41  1  0.39122281  0.62391129  0.35152235  1
  O  O42  1  0.60877719  0.85152235  0.37608871  1
  O  O43  1  0.10877719  0.12391129  0.64847765  1
  O  O44  1  0.26684175  0.91145804  0.89753332  1
  O  O45  1  0.10877719  0.64847765  0.37608871  1
  O  O46  1  0.23315825  0.41145804  0.10246668  1
  O  O47  1  0.10877719  0.37608871  0.85152235  1
  O  O48  1  0.23315825  0.08854196  0.39753332  1
  O  O49  1  0.23315825  0.10246668  0.08854196  1
  O  O50  1  0.60877719  0.37608871  0.64847765  1
  O  O51  1  0.76684175  0.91145804  0.60246668  1
