# generated using pymatgen
data_SrV4(Bi3O10)2
_symmetry_space_group_name_H-M   'P 1'
_cell_length_a   7.24236810
_cell_length_b   8.10277784
_cell_length_c   9.44310607
_cell_angle_alpha   106.41981815
_cell_angle_beta   93.87832122
_cell_angle_gamma   112.54415270
_symmetry_Int_Tables_number   1
_chemical_formula_structural   SrV4(Bi3O10)2
_chemical_formula_sum   'Sr1 V4 Bi6 O20'
_cell_volume   481.14633144
_cell_formula_units_Z   1
loop_
 _symmetry_equiv_pos_site_id
 _symmetry_equiv_pos_as_xyz
  1  'x, y, z'
loop_
 _atom_site_type_symbol
 _atom_site_label
 _atom_site_symmetry_multiplicity
 _atom_site_fract_x
 _atom_site_fract_y
 _atom_site_fract_z
 _atom_site_occupancy
  Sr  Sr0  1  0.00000000  0.50000000  0.00000000  1
  V  V1  1  0.05234923  0.77583662  0.75737053  1
  V  V2  1  0.65491026  0.10548072  0.74042915  1
  V  V3  1  0.94765077  0.22416338  0.24262947  1
  V  V4  1  0.34508974  0.89451928  0.25957085  1
  Bi  Bi5  1  0.65552461  0.37399019  0.48124813  1
  Bi  Bi6  1  0.42839292  0.29835418  0.07873869  1
  Bi  Bi7  1  0.34447539  0.62600981  0.51875187  1
  Bi  Bi8  1  0.20047298  0.21208485  0.67345073  1
  Bi  Bi9  1  0.79952702  0.78791515  0.32654927  1
  Bi  Bi10  1  0.57160708  0.70164582  0.92126131  1
  O  O11  1  0.83492242  0.97473177  0.16589753  1
  O  O12  1  0.52965647  0.87098663  0.37063957  1
  O  O13  1  0.76531317  0.31647020  0.24415782  1
  O  O14  1  0.37679490  0.13173506  0.31115640  1
  O  O15  1  0.94324199  0.70505745  0.56899524  1
  O  O16  1  0.05675801  0.29494255  0.43100476  1
  O  O17  1  0.35423065  0.80249296  0.07252496  1
  O  O18  1  0.64576935  0.19750704  0.92747504  1
  O  O19  1  0.89628707  0.25457082  0.72658732  1
  O  O20  1  0.55012902  0.53123047  0.36629221  1
  O  O21  1  0.10371293  0.74542918  0.27341268  1
  O  O22  1  0.44987098  0.46876953  0.63370779  1
  O  O23  1  0.23468683  0.68352980  0.75584218  1
  O  O24  1  0.66875376  0.58812461  0.10101759  1
  O  O25  1  0.47034353  0.12901337  0.62936043  1
  O  O26  1  0.33124624  0.41187539  0.89898241  1
  O  O27  1  0.86994481  0.66733057  0.85405518  1
  O  O28  1  0.62320510  0.86826494  0.68884360  1
  O  O29  1  0.16507758  0.02526823  0.83410247  1
  O  O30  1  0.13005519  0.33266943  0.14594482  1
