# generated using pymatgen
data_YI
_symmetry_space_group_name_H-M   'P 1'
_cell_length_a   3.95595435
_cell_length_b   3.95599190
_cell_length_c   11.07947584
_cell_angle_alpha   90.00000001
_cell_angle_beta   89.99892959
_cell_angle_gamma   120.00031097
_symmetry_Int_Tables_number   1
_chemical_formula_structural   YI
_chemical_formula_sum   'Y2 I2'
_cell_volume   150.16030802
_cell_formula_units_Z   2
loop_
 _symmetry_equiv_pos_site_id
 _symmetry_equiv_pos_as_xyz
  1  'x, y, z'
loop_
 _atom_site_type_symbol
 _atom_site_label
 _atom_site_symmetry_multiplicity
 _atom_site_fract_x
 _atom_site_fract_y
 _atom_site_fract_z
 _atom_site_occupancy
  Y  Y0  1  0.66665958  0.33332979  0.37327253  1
  Y  Y1  1  0.33334042  0.66667021  0.62672747  1
  I  I2  1  0.33332740  0.66666370  0.18002490  1
  I  I3  1  0.66667260  0.33333630  0.81997510  1
