# generated using pymatgen
data_AgBiTe3Pb
_symmetry_space_group_name_H-M   'P 1'
_cell_length_a   4.48537477
_cell_length_b   6.37699269
_cell_length_c   7.75269001
_cell_angle_alpha   65.71497107
_cell_angle_beta   73.18523343
_cell_angle_gamma   90.00000000
_symmetry_Int_Tables_number   1
_chemical_formula_structural   AgBiTe3Pb
_chemical_formula_sum   'Ag1 Bi1 Te3 Pb1'
_cell_volume   191.67997197
_cell_formula_units_Z   1
loop_
 _symmetry_equiv_pos_site_id
 _symmetry_equiv_pos_as_xyz
  1  'x, y, z'
loop_
 _atom_site_type_symbol
 _atom_site_label
 _atom_site_symmetry_multiplicity
 _atom_site_fract_x
 _atom_site_fract_y
 _atom_site_fract_z
 _atom_site_occupancy
  Ag  Ag0  1  0.00013543  0.00013543  0.99972914  1
  Bi  Bi1  1  0.67139395  0.67139395  0.65721311  1
  Te  Te2  1  0.00688285  0.50688285  0.98623430  1
  Te  Te3  1  0.34063595  0.84063595  0.31872710  1
  Te  Te4  1  0.65389086  0.15389086  0.69221928  1
  Pb  Pb5  1  0.32706097  0.32706097  0.34587707  1
