# generated using pymatgen
data_RbV(IO4)2
_symmetry_space_group_name_H-M   'P 1'
_cell_length_a   5.35695958
_cell_length_b   8.18956035
_cell_length_c   10.10594388
_cell_angle_alpha   70.76878380
_cell_angle_beta   91.15513318
_cell_angle_gamma   88.69284059
_symmetry_Int_Tables_number   1
_chemical_formula_structural   RbV(IO4)2
_chemical_formula_sum   'Rb2 V2 I4 O16'
_cell_volume   418.32973738
_cell_formula_units_Z   2
loop_
 _symmetry_equiv_pos_site_id
 _symmetry_equiv_pos_as_xyz
  1  'x, y, z'
loop_
 _atom_site_type_symbol
 _atom_site_label
 _atom_site_symmetry_multiplicity
 _atom_site_fract_x
 _atom_site_fract_y
 _atom_site_fract_z
 _atom_site_occupancy
  Rb  Rb0  1  0.74120449  0.80882740  0.91435957  1
  Rb  Rb1  1  0.25879551  0.19117260  0.08564043  1
  V  V2  1  0.23309204  0.63586880  0.69498990  1
  V  V3  1  0.76690796  0.36413120  0.30501010  1
  I  I4  1  0.33079858  0.14764297  0.55852045  1
  I  I5  1  0.25934931  0.62906106  0.23316136  1
  I  I6  1  0.74065069  0.37093894  0.76683864  1
  I  I7  1  0.66920142  0.85235703  0.44147955  1
  O  O8  1  0.66482026  0.73906615  0.31169664  1
  O  O9  1  0.63362305  0.03296685  0.61053367  1
  O  O10  1  0.93176168  0.34446676  0.45214508  1
  O  O11  1  0.78134201  0.17297057  0.91211488  1
  O  O12  1  0.48241184  0.46898046  0.83908052  1
  O  O13  1  0.56221241  0.67056836  0.60006451  1
  O  O14  1  0.99571867  0.49141045  0.82578697  1
  O  O15  1  0.36637695  0.96703315  0.38946633  1
  O  O16  1  0.21865799  0.82702943  0.08788512  1
  O  O17  1  0.43778759  0.32943164  0.39993549  1
  O  O18  1  0.19797867  0.81958662  0.73056568  1
  O  O19  1  0.51758816  0.53101954  0.16091948  1
  O  O20  1  0.00428133  0.50858955  0.17421303  1
  O  O21  1  0.06823832  0.65553324  0.54785492  1
  O  O22  1  0.33517974  0.26093385  0.68830336  1
  O  O23  1  0.80202133  0.18041338  0.26943432  1
