# generated using pymatgen
data_Ca5V3O12F
_symmetry_space_group_name_H-M   'P 1'
_cell_length_a   7.02664023
_cell_length_b   9.86008497
_cell_length_c   9.87772187
_cell_angle_alpha   119.86716784
_cell_angle_beta   90.68101879
_cell_angle_gamma   90.20097544
_symmetry_Int_Tables_number   1
_chemical_formula_structural   Ca5V3O12F
_chemical_formula_sum   'Ca10 V6 O24 F2'
_cell_volume   593.38861239
_cell_formula_units_Z   2
loop_
 _symmetry_equiv_pos_site_id
 _symmetry_equiv_pos_as_xyz
  1  'x, y, z'
loop_
 _atom_site_type_symbol
 _atom_site_label
 _atom_site_symmetry_multiplicity
 _atom_site_fract_x
 _atom_site_fract_y
 _atom_site_fract_z
 _atom_site_occupancy
  Ca  Ca0  1  0.75610014  0.76597256  0.00451314  1
  Ca  Ca1  1  0.99730483  0.33545036  0.68497984  1
  Ca  Ca2  1  0.24877160  0.75572776  0.76143215  1
  Ca  Ca3  1  0.50255209  0.33529060  0.65377284  1
  Ca  Ca4  1  0.75122840  0.24427224  0.23856785  1
  Ca  Ca5  1  0.24389986  0.23402744  0.99548686  1
  Ca  Ca6  1  0.25694917  0.00440546  0.24465934  1
  Ca  Ca7  1  0.49744791  0.66470940  0.34622716  1
  Ca  Ca8  1  0.00269517  0.66454964  0.31502016  1
  Ca  Ca9  1  0.74305083  0.99559454  0.75534066  1
  V  V10  1  0.75801060  0.97423673  0.36960546  1
  V  V11  1  0.26367658  0.60109564  0.97274396  1
  V  V12  1  0.75505119  0.62911286  0.60209000  1
  V  V13  1  0.73632342  0.39890336  0.02725604  1
  V  V14  1  0.24494881  0.37088714  0.39791000  1
  V  V15  1  0.24198940  0.02576327  0.63039454  1
  O  O16  1  0.73388019  0.87062636  0.47079982  1
  O  O17  1  0.95662465  0.90044407  0.25227321  1
  O  O18  1  0.22303229  0.47002013  0.60227710  1
  O  O19  1  0.55211952  0.33135883  0.09430045  1
  O  O20  1  0.26493576  0.39542205  0.87071502  1
  O  O21  1  0.23043612  0.82497591  0.50797345  1
  O  O22  1  0.45352389  0.26498837  0.35883220  1
  O  O23  1  0.42676588  0.07072631  0.76362172  1
  O  O24  1  0.27024310  0.68440774  0.17442160  1
  O  O25  1  0.54647611  0.73501163  0.64116780  1
  O  O26  1  0.26611981  0.12937364  0.52920018  1
  O  O27  1  0.24748064  0.49306680  0.31885994  1
  O  O28  1  0.72975690  0.31559226  0.82557840  1
  O  O29  1  0.73506424  0.60457795  0.12928498  1
  O  O30  1  0.93183390  0.77002881  0.69233217  1
  O  O31  1  0.77696771  0.52997987  0.39772290  1
  O  O32  1  0.05962111  0.65761990  0.91519179  1
  O  O33  1  0.06816610  0.22997119  0.30766783  1
  O  O34  1  0.57323412  0.92927369  0.23637828  1
  O  O35  1  0.75251936  0.50693320  0.68114006  1
  O  O36  1  0.04337535  0.09955593  0.74772679  1
  O  O37  1  0.94037889  0.34238010  0.08480821  1
  O  O38  1  0.76956388  0.17502409  0.49202655  1
  O  O39  1  0.44788048  0.66864117  0.90569955  1
  F  F40  1  0.24913997  0.99546614  0.00067463  1
  F  F41  1  0.75086003  0.00453386  0.99932537  1
