# generated using pymatgen
data_SmMoClO4
_symmetry_space_group_name_H-M   'P 1'
_cell_length_a   6.43232510
_cell_length_b   6.43232481
_cell_length_c   7.00646995
_cell_angle_alpha   76.38562865
_cell_angle_beta   76.38562923
_cell_angle_gamma   71.06176666
_symmetry_Int_Tables_number   1
_chemical_formula_structural   SmMoClO4
_chemical_formula_sum   'Sm2 Mo2 Cl2 O8'
_cell_volume   262.47884002
_cell_formula_units_Z   2
loop_
 _symmetry_equiv_pos_site_id
 _symmetry_equiv_pos_as_xyz
  1  'x, y, z'
loop_
 _atom_site_type_symbol
 _atom_site_label
 _atom_site_symmetry_multiplicity
 _atom_site_fract_x
 _atom_site_fract_y
 _atom_site_fract_z
 _atom_site_occupancy
  Sm  Sm0  1  0.22173407  0.22173407  0.88679758  1
  Sm  Sm1  1  0.77826593  0.77826593  0.11320242  1
  Mo  Mo2  1  0.63744442  0.63744442  0.73168532  1
  Mo  Mo3  1  0.36255558  0.36255558  0.26831468  1
  Cl  Cl4  1  0.01106066  0.01106066  0.23504392  1
  Cl  Cl5  1  0.98893934  0.98893934  0.76495608  1
  O  O6  1  0.11611841  0.49016815  0.15118547  1
  O  O7  1  0.70676693  0.70676693  0.46932980  1
  O  O8  1  0.46022811  0.46022811  0.79337486  1
  O  O9  1  0.29323307  0.29323307  0.53067020  1
  O  O10  1  0.53977189  0.53977189  0.20662514  1
  O  O11  1  0.50983185  0.88388159  0.84881453  1
  O  O12  1  0.88388159  0.50983185  0.84881453  1
  O  O13  1  0.49016815  0.11611841  0.15118547  1
