# generated using pymatgen
data_SrVClO3
_symmetry_space_group_name_H-M   'P 1'
_cell_length_a   5.33427156
_cell_length_b   7.08569140
_cell_length_c   10.24580941
_cell_angle_alpha   90.00000000
_cell_angle_beta   90.00000000
_cell_angle_gamma   90.00000000
_symmetry_Int_Tables_number   1
_chemical_formula_structural   SrVClO3
_chemical_formula_sum   'Sr4 V4 Cl4 O12'
_cell_volume   387.26087997
_cell_formula_units_Z   4
loop_
 _symmetry_equiv_pos_site_id
 _symmetry_equiv_pos_as_xyz
  1  'x, y, z'
loop_
 _atom_site_type_symbol
 _atom_site_label
 _atom_site_symmetry_multiplicity
 _atom_site_fract_x
 _atom_site_fract_y
 _atom_site_fract_z
 _atom_site_occupancy
  Sr  Sr0  1  0.75000000  0.90303746  0.81126403  1
  Sr  Sr1  1  0.75000000  0.59696254  0.31126403  1
  Sr  Sr2  1  0.25000000  0.09696254  0.18873597  1
  Sr  Sr3  1  0.25000000  0.40303746  0.68873597  1
  V  V4  1  0.75000000  0.05816811  0.46233423  1
  V  V5  1  0.75000000  0.44183189  0.96233423  1
  V  V6  1  0.25000000  0.55816811  0.03766577  1
  V  V7  1  0.25000000  0.94183189  0.53766577  1
  Cl  Cl8  1  0.25000000  0.43265819  0.39184884  1
  Cl  Cl9  1  0.25000000  0.06734181  0.89184884  1
  Cl  Cl10  1  0.75000000  0.93265819  0.10815116  1
  Cl  Cl11  1  0.75000000  0.56734181  0.60815116  1
  O  O12  1  0.75000000  0.26136361  0.86138068  1
  O  O13  1  0.00599820  0.90410627  0.40025812  1
  O  O14  1  0.49400180  0.90410627  0.40025812  1
  O  O15  1  0.99400180  0.09589373  0.59974188  1
  O  O16  1  0.75000000  0.23863639  0.36138068  1
  O  O17  1  0.25000000  0.73863639  0.13861932  1
  O  O18  1  0.49400180  0.59589373  0.90025812  1
  O  O19  1  0.50599820  0.09589373  0.59974188  1
  O  O20  1  0.00599820  0.59589373  0.90025812  1
  O  O21  1  0.25000000  0.76136361  0.63861932  1
  O  O22  1  0.99400180  0.40410627  0.09974188  1
  O  O23  1  0.50599820  0.40410627  0.09974188  1
