# generated using pymatgen
data_La2MnVO6
_symmetry_space_group_name_H-M   'P 1'
_cell_length_a   5.68904247
_cell_length_b   5.63277746
_cell_length_c   8.04295254
_cell_angle_alpha   89.79766591
_cell_angle_beta   90.00000000
_cell_angle_gamma   90.00000000
_symmetry_Int_Tables_number   1
_chemical_formula_structural   La2MnVO6
_chemical_formula_sum   'La4 Mn2 V2 O12'
_cell_volume   257.73569342
_cell_formula_units_Z   2
loop_
 _symmetry_equiv_pos_site_id
 _symmetry_equiv_pos_as_xyz
  1  'x, y, z'
loop_
 _atom_site_type_symbol
 _atom_site_label
 _atom_site_symmetry_multiplicity
 _atom_site_fract_x
 _atom_site_fract_y
 _atom_site_fract_z
 _atom_site_occupancy
  La  La0  1  0.45409250  0.49156272  0.75087573  1
  La  La1  1  0.54590750  0.50843728  0.24912427  1
  La  La2  1  0.95409250  0.00843728  0.74912427  1
  La  La3  1  0.04590750  0.99156272  0.25087573  1
  Mn  Mn4  1  0.00000000  0.50000000  0.00000000  1
  Mn  Mn5  1  0.50000000  0.00000000  0.50000000  1
  V  V6  1  0.00000000  0.50000000  0.50000000  1
  V  V7  1  0.50000000  0.00000000  0.00000000  1
  O  O8  1  0.97472764  0.40743584  0.26040016  1
  O  O9  1  0.30772851  0.71713071  0.04618158  1
  O  O10  1  0.52527236  0.90743584  0.76040016  1
  O  O11  1  0.02527236  0.59256416  0.73959984  1
  O  O12  1  0.72056496  0.30773604  0.55157127  1
  O  O13  1  0.77943504  0.80773604  0.05157127  1
  O  O14  1  0.47472764  0.09256416  0.23959984  1
  O  O15  1  0.22056496  0.19226396  0.94842873  1
  O  O16  1  0.80772851  0.78286929  0.45381842  1
  O  O17  1  0.27943504  0.69226396  0.44842873  1
  O  O18  1  0.69227149  0.28286929  0.95381842  1
  O  O19  1  0.19227149  0.21713071  0.54618158  1
