# generated using pymatgen
data_K2YbMoPO8
_symmetry_space_group_name_H-M   'P 1'
_cell_length_a   6.98895150
_cell_length_b   12.30937368
_cell_length_c   12.30937332
_cell_angle_alpha   60.42066515
_cell_angle_beta   73.50765478
_cell_angle_gamma   73.50764940
_symmetry_Int_Tables_number   1
_chemical_formula_structural   K2YbMoPO8
_chemical_formula_sum   'K8 Yb4 Mo4 P4 O32'
_cell_volume   869.84764490
_cell_formula_units_Z   4
loop_
 _symmetry_equiv_pos_site_id
 _symmetry_equiv_pos_as_xyz
  1  'x, y, z'
loop_
 _atom_site_type_symbol
 _atom_site_label
 _atom_site_symmetry_multiplicity
 _atom_site_fract_x
 _atom_site_fract_y
 _atom_site_fract_z
 _atom_site_occupancy
  Yb  Yb0  1  0.25000000  0.18007853  0.31992147  1
  Yb  Yb1  1  0.75000000  0.31992147  0.18007853  1
  Yb  Yb2  1  0.25000000  0.68007853  0.81992147  1
  Yb  Yb3  1  0.75000000  0.81992147  0.68007853  1
  K  K4  1  0.81754809  0.24035120  0.57419220  1
  K  K5  1  0.63209149  0.25964880  0.92580780  1
  K  K6  1  0.36790851  0.74035120  0.07419220  1
  K  K7  1  0.86790851  0.57419220  0.24035120  1
  K  K8  1  0.13209149  0.42580780  0.75964880  1
  K  K9  1  0.31754809  0.07419220  0.74035120  1
  K  K10  1  0.68245191  0.92580780  0.25964880  1
  K  K11  1  0.18245191  0.75964880  0.42580780  1
  Mo  Mo12  1  0.16407341  0.08592659  0.08592659  1
  Mo  Mo13  1  0.33592659  0.41407341  0.41407341  1
  Mo  Mo14  1  0.83592659  0.91407341  0.91407341  1
  Mo  Mo15  1  0.66407341  0.58592659  0.58592659  1
  P  P16  1  0.25000000  0.43226200  0.06773800  1
  P  P17  1  0.75000000  0.06773800  0.43226200  1
  P  P18  1  0.75000000  0.56773800  0.93226200  1
  P  P19  1  0.25000000  0.93226200  0.56773800  1
  O  O20  1  0.56614710  0.65279434  0.86561472  1
  O  O21  1  0.82324834  0.66182027  0.61102282  1
  O  O22  1  0.58455617  0.13438528  0.34720566  1
  O  O23  1  0.91544383  0.15279434  0.36561472  1
  O  O24  1  0.08455617  0.84720566  0.63438528  1
  O  O25  1  0.83171129  0.93280735  0.44359641  1
  O  O26  1  0.90390857  0.16182027  0.11102282  1
  O  O27  1  0.66828871  0.05640359  0.56719265  1
  O  O28  1  0.33171129  0.94359641  0.43280735  1
  O  O29  1  0.70811505  0.55640359  0.06719265  1
  O  O30  1  0.73682258  0.84811791  0.08068168  1
  O  O31  1  0.16828871  0.06719265  0.55640359  1
  O  O32  1  0.06614710  0.36561472  0.15279434  1
  O  O33  1  0.83437883  0.08068168  0.84811791  1
  O  O34  1  0.43385290  0.34720566  0.13438528  1
  O  O35  1  0.93385290  0.63438528  0.84720566  1
  O  O36  1  0.16562117  0.91931832  0.15188209  1
  O  O37  1  0.41544383  0.86561472  0.65279434  1
  O  O38  1  0.32324834  0.11102282  0.16182027  1
  O  O39  1  0.23682258  0.58068168  0.34811791  1
  O  O40  1  0.79188495  0.43280735  0.94359641  1
  O  O41  1  0.33437883  0.34811791  0.58068168  1
  O  O42  1  0.29188495  0.44359641  0.93280735  1
  O  O43  1  0.76317742  0.41931832  0.65188209  1
  O  O44  1  0.67675166  0.88897718  0.83817973  1
  O  O45  1  0.09609143  0.83817973  0.88897718  1
  O  O46  1  0.40390857  0.61102282  0.66182027  1
  O  O47  1  0.20811505  0.56719265  0.05640359  1
  O  O48  1  0.17675166  0.33817973  0.38897718  1
  O  O49  1  0.26317742  0.15188209  0.91931832  1
  O  O50  1  0.59609143  0.38897718  0.33817973  1
  O  O51  1  0.66562117  0.65188209  0.41931832  1
