# generated using pymatgen
data_LiMoIO6
_symmetry_space_group_name_H-M   'P 1'
_cell_length_a   5.43192310
_cell_length_b   5.50279223
_cell_length_c   9.10741587
_cell_angle_alpha   107.07263454
_cell_angle_beta   90.00000000
_cell_angle_gamma   90.00000000
_symmetry_Int_Tables_number   1
_chemical_formula_structural   LiMoIO6
_chemical_formula_sum   'Li2 Mo2 I2 O12'
_cell_volume   260.23128577
_cell_formula_units_Z   2
loop_
 _symmetry_equiv_pos_site_id
 _symmetry_equiv_pos_as_xyz
  1  'x, y, z'
loop_
 _atom_site_type_symbol
 _atom_site_label
 _atom_site_symmetry_multiplicity
 _atom_site_fract_x
 _atom_site_fract_y
 _atom_site_fract_z
 _atom_site_occupancy
  Li  Li0  1  0.68746017  1.00147529  0.41609453  1
  Li  Li1  1  0.18746017  -0.00147529  0.58390547  1
  Mo  Mo2  1  0.38817849  0.76379106  0.03282978  1
  Mo  Mo3  1  0.88817849  0.23620894  0.96717022  1
  I  I4  1  0.61759937  0.62624048  0.66128722  1
  I  I5  1  0.11759937  0.37375952  0.33871278  1
  O  O6  1  0.01322945  0.65020224  0.49240231  1
  O  O7  1  0.51374145  0.85767468  0.21834275  1
  O  O8  1  0.34377690  0.64349935  0.78615705  1
  O  O9  1  0.03227458  0.11832899  0.41792223  1
  O  O10  1  0.16842903  0.02067290  0.04583267  1
  O  O11  1  0.66842903  0.97932710  0.95416733  1
  O  O12  1  0.84377690  0.35650065  0.21384295  1
  O  O13  1  0.51322945  0.34979776  0.50759769  1
  O  O14  1  0.67919156  0.48806233  0.95728184  1
  O  O15  1  0.53227458  0.88167101  0.58207777  1
  O  O16  1  0.17919156  0.51193767  0.04271816  1
  O  O17  1  0.01374145  0.14232532  0.78165725  1
