# generated using pymatgen
data_RbFeO2
_symmetry_space_group_name_H-M   'P 1'
_cell_length_a   5.82768123
_cell_length_b   11.72609895
_cell_length_c   16.68361380
_cell_angle_alpha   90.00000000
_cell_angle_beta   90.00000000
_cell_angle_gamma   90.00000000
_symmetry_Int_Tables_number   1
_chemical_formula_structural   RbFeO2
_chemical_formula_sum   'Rb16 Fe16 O32'
_cell_volume   1140.09087794
_cell_formula_units_Z   16
loop_
 _symmetry_equiv_pos_site_id
 _symmetry_equiv_pos_as_xyz
  1  'x, y, z'
loop_
 _atom_site_type_symbol
 _atom_site_label
 _atom_site_symmetry_multiplicity
 _atom_site_fract_x
 _atom_site_fract_y
 _atom_site_fract_z
 _atom_site_occupancy
  Rb  Rb0  1  0.30034732  0.23940191  0.81464896  1
  Rb  Rb1  1  0.80034732  0.26059809  0.18535104  1
  Rb  Rb2  1  0.24820598  0.51083725  0.43800533  1
  Rb  Rb3  1  0.75179402  0.01083725  0.06199467  1
  Rb  Rb4  1  0.24820598  0.98916275  0.93800533  1
  Rb  Rb5  1  0.74820598  0.51083725  0.06199467  1
  Rb  Rb6  1  0.80034732  0.23940191  0.68535104  1
  Rb  Rb7  1  0.19965268  0.73940191  0.81464896  1
  Rb  Rb8  1  0.25179402  0.01083725  0.43800533  1
  Rb  Rb9  1  0.19965268  0.76059809  0.31464896  1
  Rb  Rb10  1  0.74820598  0.98916275  0.56199467  1
  Rb  Rb11  1  0.69965268  0.73940191  0.68535104  1
  Rb  Rb12  1  0.69965268  0.76059809  0.18535104  1
  Rb  Rb13  1  0.30034732  0.26059809  0.31464896  1
  Rb  Rb14  1  0.75179402  0.48916275  0.56199467  1
  Rb  Rb15  1  0.25179402  0.48916275  0.93800533  1
  Fe  Fe16  1  0.21473270  0.73904191  0.56363115  1
  Fe  Fe17  1  0.21473270  0.76095809  0.06363115  1
  Fe  Fe18  1  0.28526730  0.26095809  0.06363115  1
  Fe  Fe19  1  0.75459110  0.49443283  0.81126545  1
  Fe  Fe20  1  0.24540890  0.50556717  0.18873455  1
  Fe  Fe21  1  0.24540890  0.99443283  0.68873455  1
  Fe  Fe22  1  0.28526730  0.23904191  0.56363115  1
  Fe  Fe23  1  0.78526730  0.23904191  0.93636885  1
  Fe  Fe24  1  0.74540890  0.99443283  0.81126545  1
  Fe  Fe25  1  0.78526730  0.26095809  0.43636885  1
  Fe  Fe26  1  0.75459110  0.00556717  0.31126545  1
  Fe  Fe27  1  0.71473270  0.76095809  0.43636885  1
  Fe  Fe28  1  0.74540890  0.50556717  0.31126545  1
  Fe  Fe29  1  0.25459110  0.49443283  0.68873455  1
  Fe  Fe30  1  0.71473270  0.73904191  0.93636885  1
  Fe  Fe31  1  0.25459110  0.00556717  0.18873455  1
  O  O32  1  0.80654149  0.15764836  0.34840513  1
  O  O33  1  0.05761166  0.02045986  0.78095148  1
  O  O34  1  0.69345851  0.65764836  0.34840513  1
  O  O35  1  0.83207058  0.90244624  0.39590602  1
  O  O36  1  0.91777242  0.71048002  0.51894429  1
  O  O37  1  0.66792942  0.09755376  0.89590602  1
  O  O38  1  0.58222758  0.21048002  0.51894429  1
  O  O39  1  0.94238834  0.97954014  0.21904852  1
  O  O40  1  0.69345851  0.84235164  0.84840513  1
  O  O41  1  0.91777242  0.78951998  0.01894429  1
  O  O42  1  0.94238834  0.52045986  0.71904852  1
  O  O43  1  0.19345851  0.65764836  0.15159487  1
  O  O44  1  0.16792942  0.09755376  0.60409398  1
  O  O45  1  0.55761166  0.47954014  0.21904852  1
  O  O46  1  0.58222758  0.28951998  0.01894429  1
  O  O47  1  0.83207058  0.59755376  0.89590602  1
  O  O48  1  0.16792942  0.40244624  0.10409398  1
  O  O49  1  0.44238834  0.52045986  0.78095148  1
  O  O50  1  0.41777242  0.78951998  0.48105571  1
  O  O51  1  0.05761166  0.47954014  0.28095148  1
  O  O52  1  0.41777242  0.71048002  0.98105571  1
  O  O53  1  0.44238834  0.97954014  0.28095148  1
  O  O54  1  0.33207058  0.90244624  0.10409398  1
  O  O55  1  0.66792942  0.40244624  0.39590602  1
  O  O56  1  0.30654149  0.15764836  0.15159487  1
  O  O57  1  0.30654149  0.34235164  0.65159487  1
  O  O58  1  0.33207058  0.59755376  0.60409398  1
  O  O59  1  0.19345851  0.84235164  0.65159487  1
  O  O60  1  0.08222758  0.21048002  0.98105571  1
  O  O61  1  0.80654149  0.34235164  0.84840513  1
  O  O62  1  0.08222758  0.28951998  0.48105571  1
  O  O63  1  0.55761166  0.02045986  0.71904852  1
