# generated using pymatgen
data_SrFe2(P2O7)2
_symmetry_space_group_name_H-M   'P 1'
_cell_length_a   4.86991506
_cell_length_b   7.20110187
_cell_length_c   7.97912039
_cell_angle_alpha   89.64430785
_cell_angle_beta   87.40550324
_cell_angle_gamma   72.95011639
_symmetry_Int_Tables_number   1
_chemical_formula_structural   SrFe2(P2O7)2
_chemical_formula_sum   'Sr1 Fe2 P4 O14'
_cell_volume   267.23823755
_cell_formula_units_Z   1
loop_
 _symmetry_equiv_pos_site_id
 _symmetry_equiv_pos_as_xyz
  1  'x, y, z'
loop_
 _atom_site_type_symbol
 _atom_site_label
 _atom_site_symmetry_multiplicity
 _atom_site_fract_x
 _atom_site_fract_y
 _atom_site_fract_z
 _atom_site_occupancy
  Sr  Sr0  1  0.50000000  0.00000000  0.00000000  1
  Fe  Fe1  1  0.50000000  0.00000000  0.50000000  1
  Fe  Fe2  1  0.00000000  0.50000000  0.00000000  1
  P  P3  1  0.11643989  0.77069762  0.29695311  1
  P  P4  1  0.46858121  0.61999848  0.75536606  1
  P  P5  1  0.88356011  0.22930238  0.70304689  1
  P  P6  1  0.53141879  0.38000152  0.24463394  1
  O  O7  1  0.00838491  0.76026051  0.11729089  1
  O  O8  1  0.68276542  0.09847165  0.70872583  1
  O  O9  1  0.41407735  0.80383351  0.65268112  1
  O  O10  1  0.19322315  0.56671717  0.79507445  1
  O  O11  1  0.99161509  0.23973949  0.88270911  1
  O  O12  1  0.38262589  0.35035386  0.08291056  1
  O  O13  1  0.87911714  0.82126859  0.43211057  1
  O  O14  1  0.61737411  0.64964614  0.91708944  1
  O  O15  1  0.31723458  0.90152835  0.29127417  1
  O  O16  1  0.69279119  0.44583556  0.65234418  1
  O  O17  1  0.58592265  0.19616649  0.34731888  1
  O  O18  1  0.30720881  0.55416444  0.34765582  1
  O  O19  1  0.12088286  0.17873141  0.56788943  1
  O  O20  1  0.80677685  0.43328283  0.20492555  1
