# generated using pymatgen
data_VCdBiO5
_symmetry_space_group_name_H-M   'P 1'
_cell_length_a   5.58617411
_cell_length_b   11.88408026
_cell_length_c   14.49933829
_cell_angle_alpha   90.00000000
_cell_angle_beta   90.00000000
_cell_angle_gamma   90.00000000
_symmetry_Int_Tables_number   1
_chemical_formula_structural   VCdBiO5
_chemical_formula_sum   'V8 Cd8 Bi8 O40'
_cell_volume   962.56092267
_cell_formula_units_Z   8
loop_
 _symmetry_equiv_pos_site_id
 _symmetry_equiv_pos_as_xyz
  1  'x, y, z'
loop_
 _atom_site_type_symbol
 _atom_site_label
 _atom_site_symmetry_multiplicity
 _atom_site_fract_x
 _atom_site_fract_y
 _atom_site_fract_z
 _atom_site_occupancy
  V  V0  1  0.72656381  0.21258307  0.34311413  1
  V  V1  1  0.29463033  0.06437003  0.65410852  1
  V  V2  1  0.22656381  0.71258307  0.15688587  1
  V  V3  1  0.20536967  0.06437003  0.15410852  1
  V  V4  1  0.77343619  0.21258307  0.84311413  1
  V  V5  1  0.27343619  0.71258307  0.65688587  1
  V  V6  1  0.79463033  0.56437003  0.84589148  1
  V  V7  1  0.70536967  0.56437003  0.34589148  1
  Cd  Cd8  1  0.76042095  0.88810861  0.54378126  1
  Cd  Cd9  1  0.73957905  0.88810861  0.04378126  1
  Cd  Cd10  1  0.78519900  0.22867411  0.58712896  1
  Cd  Cd11  1  0.71480100  0.22867411  0.08712896  1
  Cd  Cd12  1  0.23957905  0.38810861  0.45621874  1
  Cd  Cd13  1  0.28519900  0.72867411  0.91287104  1
  Cd  Cd14  1  0.26042095  0.38810861  0.95621874  1
  Cd  Cd15  1  0.21480100  0.72867411  0.41287104  1
  Bi  Bi16  1  0.22838237  0.37848696  0.19834094  1
  Bi  Bi17  1  0.75583034  0.52993585  0.08720182  1
  Bi  Bi18  1  0.25583034  0.02993585  0.41279818  1
  Bi  Bi19  1  0.24416966  0.02993585  0.91279818  1
  Bi  Bi20  1  0.74416966  0.52993585  0.58720182  1
  Bi  Bi21  1  0.27161763  0.37848696  0.69834094  1
  Bi  Bi22  1  0.72838237  0.87848696  0.30165906  1
  Bi  Bi23  1  0.77161763  0.87848696  0.80165906  1
  O  O24  1  0.51776144  0.37712032  0.57892415  1
  O  O25  1  0.93001953  0.21717910  0.43568018  1
  O  O26  1  0.08936406  0.98137880  0.59915655  1
  O  O27  1  0.84009264  0.69793266  0.34187541  1
  O  O28  1  0.56998047  0.21717910  0.93568018  1
  O  O29  1  0.96848346  0.79136366  0.13743592  1
  O  O30  1  0.85882750  0.51273902  0.73480084  1
  O  O31  1  0.63342993  0.25322142  0.74197559  1
  O  O32  1  0.34009264  0.19793266  0.15812459  1
  O  O33  1  0.53151654  0.79136366  0.63743592  1
  O  O34  1  0.01776144  0.87712032  0.92107585  1
  O  O35  1  0.44797115  0.56743647  0.41727560  1
  O  O36  1  0.03151654  0.29136366  0.86256408  1
  O  O37  1  0.06998047  0.71717910  0.56431982  1
  O  O38  1  0.36657007  0.75322142  0.25802441  1
  O  O39  1  0.98223856  0.37712032  0.07892415  1
  O  O40  1  0.91063594  0.48137880  0.40084345  1
  O  O41  1  0.58936406  0.48137880  0.90084345  1
  O  O42  1  0.64117250  0.51273902  0.23480084  1
  O  O43  1  0.41063594  0.98137880  0.09915655  1
  O  O44  1  0.55202885  0.06743647  0.58272440  1
  O  O45  1  0.86657007  0.25322142  0.24197559  1
  O  O46  1  0.13342993  0.75322142  0.75802441  1
  O  O47  1  0.46848346  0.29136366  0.36256408  1
  O  O48  1  0.43001953  0.71717910  0.06431982  1
  O  O49  1  0.87531958  0.07160574  0.83398184  1
  O  O50  1  0.37531958  0.57160574  0.66601816  1
  O  O51  1  0.14117250  0.01273902  0.26519916  1
  O  O52  1  0.01831694  0.39676319  0.58475313  1
  O  O53  1  0.15990736  0.19793266  0.65812459  1
  O  O54  1  0.05202885  0.56743647  0.91727560  1
  O  O55  1  0.48223856  0.87712032  0.42107585  1
  O  O56  1  0.65990736  0.69793266  0.84187541  1
  O  O57  1  0.94797115  0.06743647  0.08272440  1
  O  O58  1  0.62468042  0.07160574  0.33398184  1
  O  O59  1  0.98168306  0.89676319  0.41524687  1
  O  O60  1  0.51831694  0.89676319  0.91524687  1
  O  O61  1  0.12468042  0.57160574  0.16601816  1
  O  O62  1  0.48168206  0.39676319  0.08475313  1
  O  O63  1  0.35882750  0.01273902  0.76519916  1
