# generated using pymatgen
data_Ba3Sr(Cu2O5)2
_symmetry_space_group_name_H-M   'P 1'
_cell_length_a   11.29391202
_cell_length_b   11.22454988
_cell_length_c   18.59220677
_cell_angle_alpha   107.58007975
_cell_angle_beta   107.72758821
_cell_angle_gamma   89.96288040
_symmetry_Int_Tables_number   1
_chemical_formula_structural   Ba3Sr(Cu2O5)2
_chemical_formula_sum   'Ba24 Sr8 Cu32 O80'
_cell_volume   2129.29709464
_cell_formula_units_Z   8
loop_
 _symmetry_equiv_pos_site_id
 _symmetry_equiv_pos_as_xyz
  1  'x, y, z'
loop_
 _atom_site_type_symbol
 _atom_site_label
 _atom_site_symmetry_multiplicity
 _atom_site_fract_x
 _atom_site_fract_y
 _atom_site_fract_z
 _atom_site_occupancy
  Ba  Ba0  1  0.30716729  0.05680657  0.11291762  1
  Ba  Ba1  1  0.30710326  0.05957474  0.61652093  1
  Ba  Ba2  1  0.30707024  0.55477631  0.11214822  1
  Ba  Ba3  1  0.80721368  0.05760755  0.11521954  1
  Ba  Ba4  1  0.80606969  0.55558070  0.11314604  1
  Ba  Ba5  1  0.80842918  0.55572418  0.61365698  1
  Ba  Ba6  1  0.19248743  0.44297638  0.38768981  1
  Ba  Ba7  1  0.19338410  0.94688648  0.38916327  1
  Ba  Ba8  1  0.19329306  0.94242846  0.88366919  1
  Ba  Ba9  1  0.69607812  0.44293249  0.38814996  1
  Ba  Ba10  1  0.69220523  0.44169657  0.88402277  1
  Ba  Ba11  1  0.69576659  0.94598640  0.38835310  1
  Ba  Ba12  1  0.69168330  0.94306952  0.88559092  1
  Ba  Ba13  1  0.05720999  0.30701591  0.11251159  1
  Ba  Ba14  1  0.05801115  0.80548409  0.11290251  1
  Ba  Ba15  1  0.55571798  0.30775414  0.11289720  1
  Ba  Ba16  1  0.55575951  0.80571218  0.11275642  1
  Ba  Ba17  1  0.55754533  0.80716437  0.61433818  1
  Ba  Ba18  1  0.44428682  0.19385502  0.38823680  1
  Ba  Ba19  1  0.44417525  0.69354538  0.38786885  1
  Ba  Ba20  1  0.44217212  0.69214513  0.88446772  1
  Ba  Ba21  1  0.94305545  0.19282054  0.88390674  1
  Ba  Ba22  1  0.94387091  0.69411144  0.38807169  1
  Ba  Ba23  1  0.94410861  0.69290575  0.88524145  1
  Sr  Sr24  1  0.30575877  0.55510991  0.60811366  1
  Sr  Sr25  1  0.80902627  0.05831980  0.60846750  1
  Sr  Sr26  1  0.19915739  0.44133490  0.88951812  1
  Sr  Sr27  1  0.05728319  0.30267549  0.60923091  1
  Sr  Sr28  1  0.05709388  0.79961690  0.60768763  1
  Sr  Sr29  1  0.55623268  0.30068841  0.60750755  1
  Sr  Sr30  1  0.44838141  0.19925080  0.89162374  1
  Sr  Sr31  1  0.95054113  0.19966089  0.39544144  1
  Cu  Cu32  1  0.00093875  0.99989725  0.99922936  1
  Cu  Cu33  1  0.00413875  0.00383548  0.50600025  1
  Cu  Cu34  1  0.00058146  0.49815056  0.99669950  1
  Cu  Cu35  1  0.00539180  0.50200336  0.50598030  1
  Cu  Cu36  1  0.49958197  0.99920542  0.99702736  1
  Cu  Cu37  1  0.50477704  0.00314101  0.50532923  1
  Cu  Cu38  1  0.49872688  0.49745118  0.99541874  1
  Cu  Cu39  1  0.50399578  0.50219528  0.50630666  1
  Cu  Cu40  1  0.24967217  0.24774205  0.99516093  1
  Cu  Cu41  1  0.25444035  0.25380482  0.50636870  1
  Cu  Cu42  1  0.24983448  0.74741785  0.99656174  1
  Cu  Cu43  1  0.25325656  0.75200842  0.50483598  1
  Cu  Cu44  1  0.74943786  0.24833753  0.99671830  1
  Cu  Cu45  1  0.75568938  0.25203414  0.50541038  1
  Cu  Cu46  1  0.75096118  0.74950617  0.99915762  1
  Cu  Cu47  1  0.75565330  0.75398706  0.50645065  1
  Cu  Cu48  1  0.11316224  0.09914944  0.25268776  1
  Cu  Cu49  1  0.11203576  0.09756357  0.74585453  1
  Cu  Cu50  1  0.11527184  0.59798274  0.25076867  1
  Cu  Cu51  1  0.11564558  0.59043148  0.74848928  1
  Cu  Cu52  1  0.61803501  0.09886520  0.25117978  1
  Cu  Cu53  1  0.61290872  0.09937389  0.75067900  1
  Cu  Cu54  1  0.61639066  0.59866615  0.25067054  1
  Cu  Cu55  1  0.60804714  0.58798418  0.74538971  1
  Cu  Cu56  1  0.36582643  0.40158513  0.25046522  1
  Cu  Cu57  1  0.35805966  0.40300844  0.74745706  1
  Cu  Cu58  1  0.36497319  0.90314874  0.25052743  1
  Cu  Cu59  1  0.35964077  0.90486456  0.74900837  1
  Cu  Cu60  1  0.86601732  0.39877933  0.25126874  1
  Cu  Cu61  1  0.86390333  0.39912450  0.74695978  1
  Cu  Cu62  1  0.86663870  0.90707928  0.25282284  1
  Cu  Cu63  1  0.86519095  0.90621447  0.74669702  1
  O  O64  1  0.12060375  0.13006822  0.49947239  1
  O  O65  1  0.12397669  0.12445868  0.99617303  1
  O  O66  1  0.12720505  0.62544728  0.50338047  1
  O  O67  1  0.12526246  0.61906216  0.99341070  1
  O  O68  1  0.62868535  0.12738386  0.50398534  1
  O  O69  1  0.61962854  0.12569993  0.99466220  1
  O  O70  1  0.62486650  0.62535433  0.49947956  1
  O  O71  1  0.62260981  0.62333660  0.99651435  1
  O  O72  1  0.12701753  0.37516515  0.99695129  1
  O  O73  1  0.12858031  0.37755452  0.50812781  1
  O  O74  1  0.12570398  0.87469261  0.00100222  1
  O  O75  1  0.12582974  0.87592827  0.50719730  1
  O  O76  1  0.62143678  0.37203657  0.99817232  1
  O  O77  1  0.62644048  0.37387554  0.50628164  1
  O  O78  1  0.62568358  0.87543928  0.00141243  1
  O  O79  1  0.63272669  0.88197811  0.50724082  1
  O  O80  1  0.37841653  0.12853036  0.50231529  1
  O  O81  1  0.37462730  0.12471446  0.99274598  1
  O  O82  1  0.37238525  0.62239903  0.50115761  1
  O  O83  1  0.36923508  0.61735628  0.99282944  1
  O  O84  1  0.87832712  0.12708848  0.50032247  1
  O  O85  1  0.87328651  0.12318683  0.99747899  1
  O  O86  1  0.87937093  0.62640994  0.50142987  1
  O  O87  1  0.87377882  0.62288322  0.99697917  1
  O  O88  1  0.37296227  0.37313553  0.99549937  1
  O  O89  1  0.37909307  0.38032660  0.50965358  1
  O  O90  1  0.37500044  0.87607455  0.00073322  1
  O  O91  1  0.37685417  0.87872519  0.50438761  1
  O  O92  1  0.87527804  0.37624701  0.00031241  1
  O  O93  1  0.88382181  0.37333388  0.50506556  1
  O  O94  1  0.87560394  0.87685881  0.00184508  1
  O  O95  1  0.88124820  0.88235080  0.51029226  1
  O  O96  1  0.07125182  0.08277918  0.14612859  1
  O  O97  1  0.06744138  0.09277625  0.64074016  1
  O  O98  1  0.07298265  0.58237896  0.14451724  1
  O  O99  1  0.08253612  0.58744595  0.64457781  1
  O  O100  1  0.57209722  0.08414730  0.14484933  1
  O  O101  1  0.57872089  0.09117278  0.64569455  1
  O  O102  1  0.57198396  0.58161904  0.14417844  1
  O  O103  1  0.56657039  0.58012325  0.64007169  1
  O  O104  1  0.42900604  0.41614881  0.35666503  1
  O  O105  1  0.42293873  0.41073280  0.85331704  1
  O  O106  1  0.42930908  0.91835387  0.35663654  1
  O  O107  1  0.42481410  0.91885304  0.85507322  1
  O  O108  1  0.92921942  0.40693329  0.35649466  1
  O  O109  1  0.93300446  0.41844387  0.85365590  1
  O  O110  1  0.92919496  0.91862231  0.35859052  1
  O  O111  1  0.92837339  0.91873934  0.85249451  1
  O  O112  1  0.32224636  0.31169767  0.14394200  1
  O  O113  1  0.32200115  0.31105156  0.64109472  1
  O  O114  1  0.32211763  0.81092634  0.14442201  1
  O  O115  1  0.32030032  0.80418963  0.64411432  1
  O  O116  1  0.82161487  0.31168568  0.14429406  1
  O  O117  1  0.82730653  0.30201369  0.64155464  1
  O  O118  1  0.82573102  0.81432405  0.14669099  1
  O  O119  1  0.82926427  0.80984763  0.64183811  1
  O  O120  1  0.17710683  0.19117162  0.35931298  1
  O  O121  1  0.18447567  0.19042781  0.85158873  1
  O  O122  1  0.17822476  0.69019994  0.35680878  1
  O  O123  1  0.17882471  0.68463031  0.85435613  1
  O  O124  1  0.68855167  0.18830730  0.35742958  1
  O  O125  1  0.67540460  0.18935106  0.85776498  1
  O  O126  1  0.67981277  0.69055617  0.35667070  1
  O  O127  1  0.67516512  0.68161356  0.85099101  1
  O  O128  1  0.46655871  0.03858675  0.25132433  1
  O  O129  1  0.46128993  0.04789115  0.75687918  1
  O  O130  1  0.46583432  0.53665394  0.25049205  1
  O  O131  1  0.44950152  0.54129169  0.74248612  1
  O  O132  1  0.96208430  0.05289809  0.26013088  1
  O  O133  1  0.95493067  0.04609262  0.74200671  1
  O  O134  1  0.96561406  0.53526491  0.25153305  1
  O  O135  1  0.96135167  0.53744355  0.74779625  1
  O  O136  1  0.21534763  0.46327888  0.25091703  1
  O  O137  1  0.20006377  0.44165640  0.74917951  1
  O  O138  1  0.21374274  0.96442742  0.25105903  1
  O  O139  1  0.19992618  0.95126129  0.73876677  1
  O  O140  1  0.71641367  0.46360210  0.25122799  1
  O  O141  1  0.70462335  0.44774095  0.73987028  1
  O  O142  1  0.71216288  0.95947799  0.24902201  1
  O  O143  1  0.71325098  0.96431001  0.74961858  1
