# generated using pymatgen
data_K3VSO3
_symmetry_space_group_name_H-M   'P 1'
_cell_length_a   5.99378388
_cell_length_b   6.70663809
_cell_length_c   8.86380984
_cell_angle_alpha   102.63858468
_cell_angle_beta   90.00000000
_cell_angle_gamma   90.00000000
_symmetry_Int_Tables_number   1
_chemical_formula_structural   K3VSO3
_chemical_formula_sum   'K6 V2 S2 O6'
_cell_volume   347.67517424
_cell_formula_units_Z   2
loop_
 _symmetry_equiv_pos_site_id
 _symmetry_equiv_pos_as_xyz
  1  'x, y, z'
loop_
 _atom_site_type_symbol
 _atom_site_label
 _atom_site_symmetry_multiplicity
 _atom_site_fract_x
 _atom_site_fract_y
 _atom_site_fract_z
 _atom_site_occupancy
  K  K0  1  0.75000000  0.31277887  0.46802381  1
  K  K1  1  0.25000000  0.75328333  0.00317412  1
  K  K2  1  0.25000000  0.68722113  0.53197619  1
  K  K3  1  0.75000000  0.24671667  0.99682588  1
  K  K4  1  0.25000000  0.21908503  0.72169617  1
  K  K5  1  0.75000000  0.78091497  0.27830383  1
  V  V6  1  0.75000000  0.69601224  0.79090630  1
  V  V7  1  0.25000000  0.30398776  0.20909370  1
  S  S8  1  0.75000000  0.94198343  0.65235833  1
  S  S9  1  0.25000000  0.05801657  0.34764167  1
  O  O10  1  0.25000000  0.19263737  0.01445545  1
  O  O11  1  0.75000000  0.80736263  0.98554455  1
  O  O12  1  0.98389504  0.54591524  0.74229821  1
  O  O13  1  0.01610496  0.45408476  0.25770179  1
  O  O14  1  0.51610496  0.54591524  0.74229821  1
  O  O15  1  0.48389504  0.45408476  0.25770179  1
