# generated using pymatgen
data_Ba3Fe2Br2O5
_symmetry_space_group_name_H-M   'P 1'
_cell_length_a   8.88231368
_cell_length_b   8.88231421
_cell_length_c   8.88231440
_cell_angle_alpha   109.47121855
_cell_angle_beta   109.47121977
_cell_angle_gamma   109.47122032
_symmetry_Int_Tables_number   1
_chemical_formula_structural   Ba3Fe2Br2O5
_chemical_formula_sum   'Ba6 Fe4 Br4 O10'
_cell_volume   539.45659475
_cell_formula_units_Z   2
loop_
 _symmetry_equiv_pos_site_id
 _symmetry_equiv_pos_as_xyz
  1  'x, y, z'
loop_
 _atom_site_type_symbol
 _atom_site_label
 _atom_site_symmetry_multiplicity
 _atom_site_fract_x
 _atom_site_fract_y
 _atom_site_fract_z
 _atom_site_occupancy
  Ba  Ba0  1  0.65302521  0.40302521  0.25000000  1
  Ba  Ba1  1  0.25000000  0.65302521  0.40302521  1
  Ba  Ba2  1  0.84697479  0.09697479  0.75000000  1
  Ba  Ba3  1  0.40302521  0.25000000  0.65302521  1
  Ba  Ba4  1  0.09697479  0.75000000  0.84697479  1
  Ba  Ba5  1  0.75000000  0.84697479  0.09697479  1
  Fe  Fe6  1  0.00000000  0.31061363  0.50000000  1
  Fe  Fe7  1  0.18938637  0.18938637  0.18938637  1
  Fe  Fe8  1  0.50000000  0.00000000  0.31061363  1
  Fe  Fe9  1  0.31061363  0.50000000  1.00000000  1
  Br  Br10  1  0.00000000  0.88257798  0.50000000  1
  Br  Br11  1  0.61742202  0.61742202  0.61742202  1
  Br  Br12  1  0.88257798  0.50000000  1.00000000  1
  Br  Br13  1  0.50000000  0.00000000  0.88257798  1
  O  O14  1  0.98027943  0.98027943  0.98027943  1
  O  O15  1  0.11048833  0.36048833  0.75000000  1
  O  O16  1  1.00000000  0.51972057  0.50000000  1
  O  O17  1  0.75000000  0.11048833  0.36048833  1
  O  O18  1  0.51972057  0.50000000  0.00000000  1
  O  O19  1  0.13951167  0.25000000  0.38951167  1
  O  O20  1  0.25000000  0.38951167  0.13951167  1
  O  O21  1  0.38951167  0.13951167  0.25000000  1
  O  O22  1  0.36048833  0.75000000  0.11048833  1
  O  O23  1  0.50000000  1.00000000  0.51972057  1
