# generated using pymatgen
data_SmMnSe2ClO6
_symmetry_space_group_name_H-M   'P 1'
_cell_length_a   7.09591903
_cell_length_b   7.36641151
_cell_length_c   8.16734376
_cell_angle_alpha   86.66209001
_cell_angle_beta   71.69599184
_cell_angle_gamma   64.35434244
_symmetry_Int_Tables_number   1
_chemical_formula_structural   SmMnSe2ClO6
_chemical_formula_sum   'Sm2 Mn2 Se4 Cl2 O12'
_cell_volume   363.88072133
_cell_formula_units_Z   2
loop_
 _symmetry_equiv_pos_site_id
 _symmetry_equiv_pos_as_xyz
  1  'x, y, z'
loop_
 _atom_site_type_symbol
 _atom_site_label
 _atom_site_symmetry_multiplicity
 _atom_site_fract_x
 _atom_site_fract_y
 _atom_site_fract_z
 _atom_site_occupancy
  Sm  Sm0  1  0.82039295  0.83008936  0.53257823  1
  Sm  Sm1  1  0.17960705  0.16991064  0.46742177  1
  Mn  Mn2  1  0.19855431  0.09622474  0.97747704  1
  Mn  Mn3  1  0.80144569  0.90377526  0.02252296  1
  Se  Se4  1  0.82387723  0.47498841  0.81758571  1
  Se  Se5  1  0.17612277  0.52501159  0.18241429  1
  Se  Se6  1  0.70232278  0.25921294  0.31792190  1
  Se  Se7  1  0.29767722  0.74078706  0.68207810  1
  Cl  Cl8  1  0.43383421  0.85495230  0.16702320  1
  Cl  Cl9  1  0.56616579  0.14504770  0.83297680  1
  O  O10  1  0.12348686  0.31451461  0.18619620  1
  O  O11  1  0.18282734  0.52239079  0.39247459  1
  O  O12  1  0.44930974  0.87828830  0.61235823  1
  O  O13  1  0.87651314  0.68548539  0.81380380  1
  O  O14  1  0.09339210  0.89446141  0.59698788  1
  O  O15  1  0.17339208  0.83002157  0.89899755  1
  O  O16  1  0.08692950  0.27545580  0.77447672  1
  O  O17  1  0.81717266  0.47760921  0.60752541  1
  O  O18  1  0.91307050  0.72454420  0.22552328  1
  O  O19  1  0.55069026  0.12171170  0.38764177  1
  O  O20  1  0.82660792  0.16997843  0.10100245  1
  O  O21  1  0.90660790  0.10553859  0.40301212  1
