# generated using pymatgen
data_Ba2Ni2ClF7
_symmetry_space_group_name_H-M   'P 1'
_cell_length_a   5.84852714
_cell_length_b   7.74774076
_cell_length_c   8.94042851
_cell_angle_alpha   106.77614539
_cell_angle_beta   90.00000000
_cell_angle_gamma   90.00000000
_symmetry_Int_Tables_number   1
_chemical_formula_structural   Ba2Ni2ClF7
_chemical_formula_sum   'Ba4 Ni4 Cl2 F14'
_cell_volume   387.87463471
_cell_formula_units_Z   2
loop_
 _symmetry_equiv_pos_site_id
 _symmetry_equiv_pos_as_xyz
  1  'x, y, z'
loop_
 _atom_site_type_symbol
 _atom_site_label
 _atom_site_symmetry_multiplicity
 _atom_site_fract_x
 _atom_site_fract_y
 _atom_site_fract_z
 _atom_site_occupancy
  Ba  Ba0  1  0.25000000  0.33010722  0.58759946  1
  Ba  Ba1  1  0.25000000  0.29554857  0.07203592  1
  Ba  Ba2  1  0.75000000  0.66989278  0.41240054  1
  Ba  Ba3  1  0.75000000  0.70445143  0.92796408  1
  Ni  Ni4  1  0.25000000  0.82465027  0.73365958  1
  Ni  Ni5  1  0.75000000  0.18159122  0.82531984  1
  Ni  Ni6  1  0.75000000  0.17534973  0.26634042  1
  Ni  Ni7  1  0.25000000  0.81840878  0.17468016  1
  Cl  Cl8  1  0.75000000  0.11705658  0.52969344  1
  Cl  Cl9  1  0.25000000  0.88294342  0.47030656  1
  F  F10  1  0.99029730  0.36804574  0.83982852  1
  F  F11  1  0.75000000  0.24886574  0.06453426  1
  F  F12  1  0.00078652  0.00281322  0.82619620  1
  F  F13  1  0.49489903  0.63864385  0.65510297  1
  F  F14  1  0.25000000  0.75113426  0.93546574  1
  F  F15  1  0.00510097  0.63864385  0.65510297  1
  F  F16  1  0.50970270  0.36804574  0.83982852  1
  F  F17  1  0.00970270  0.63195426  0.16017148  1
  F  F18  1  0.99921348  0.99718678  0.17380380  1
  F  F19  1  0.50510097  0.36135615  0.34489703  1
  F  F20  1  0.49029730  0.63195426  0.16017148  1
  F  F21  1  0.49921348  0.00281322  0.82619620  1
  F  F22  1  0.99489903  0.36135615  0.34489703  1
  F  F23  1  0.50078652  0.99718678  0.17380380  1
