# generated using pymatgen
data_K2EuTa5O15
_symmetry_space_group_name_H-M   'P 1'
_cell_length_a   3.95401405
_cell_length_b   12.70928374
_cell_length_c   12.70928374
_cell_angle_alpha   90.00000000
_cell_angle_beta   90.00000000
_cell_angle_gamma   90.00000000
_symmetry_Int_Tables_number   1
_chemical_formula_structural   K2EuTa5O15
_chemical_formula_sum   'K4 Eu2 Ta10 O30'
_cell_volume   638.67565109
_cell_formula_units_Z   2
loop_
 _symmetry_equiv_pos_site_id
 _symmetry_equiv_pos_as_xyz
  1  'x, y, z'
loop_
 _atom_site_type_symbol
 _atom_site_label
 _atom_site_symmetry_multiplicity
 _atom_site_fract_x
 _atom_site_fract_y
 _atom_site_fract_z
 _atom_site_occupancy
  Eu  Eu0  1  0.00000000  0.00000000  0.00000000  1
  Eu  Eu1  1  0.00000000  0.50000000  0.50000000  1
  K  K2  1  0.00000000  0.33022196  0.16977804  1
  K  K3  1  0.00000000  0.16977804  0.66977804  1
  K  K4  1  0.00000000  0.83022196  0.33022196  1
  K  K5  1  0.00000000  0.66977804  0.83022196  1
  Ta  Ta6  1  0.50000000  0.78687033  0.07618284  1
  Ta  Ta7  1  0.50000000  0.07618284  0.21312967  1
  Ta  Ta8  1  0.50000000  0.50000000  0.00000000  1
  Ta  Ta9  1  0.50000000  0.57618284  0.28687033  1
  Ta  Ta10  1  0.50000000  0.42381716  0.71312967  1
  Ta  Ta11  1  0.50000000  0.92381716  0.78687033  1
  Ta  Ta12  1  0.50000000  0.71312967  0.57618284  1
  Ta  Ta13  1  0.50000000  0.28687033  0.42381716  1
  Ta  Ta14  1  0.50000000  0.21312967  0.92381716  1
  Ta  Ta15  1  0.50000000  0.00000000  0.50000000  1
  O  O16  1  0.50000000  0.34285287  0.00135866  1
  O  O17  1  0.00000000  0.42364284  0.69383818  1
  O  O18  1  0.50000000  0.21528584  0.28471416  1
  O  O19  1  0.50000000  0.06201929  0.86654177  1
  O  O20  1  0.50000000  0.71528584  0.21528584  1
  O  O21  1  0.00000000  0.07635716  0.19383818  1
  O  O22  1  0.00000000  0.30616182  0.42364284  1
  O  O23  1  0.50000000  0.93798071  0.13345823  1
  O  O24  1  0.00000000  0.92364284  0.80616182  1
  O  O25  1  0.50000000  0.56201929  0.63345823  1
  O  O26  1  0.50000000  0.78471416  0.71528584  1
  O  O27  1  0.50000000  0.43798071  0.36654177  1
  O  O28  1  0.50000000  0.49864134  0.15714713  1
  O  O29  1  0.50000000  0.99864134  0.34285287  1
  O  O30  1  0.00000000  0.80616182  0.07635716  1
  O  O31  1  0.50000000  0.28471416  0.78471416  1
  O  O32  1  0.50000000  0.50135866  0.84285287  1
  O  O33  1  0.00000000  0.19383818  0.92364284  1
  O  O34  1  0.50000000  0.00135866  0.65714713  1
  O  O35  1  0.50000000  0.86654177  0.93798071  1
  O  O36  1  0.50000000  0.13345823  0.06201929  1
  O  O37  1  0.50000000  0.65714713  0.99864134  1
  O  O38  1  0.50000000  0.84285287  0.49864134  1
  O  O39  1  0.00000000  0.69383818  0.57635716  1
  O  O40  1  0.50000000  0.36654177  0.56201929  1
  O  O41  1  0.50000000  0.63345823  0.43798071  1
  O  O42  1  0.00000000  0.00000000  0.50000000  1
  O  O43  1  0.00000000  0.57635716  0.30616182  1
  O  O44  1  0.50000000  0.15714713  0.50135866  1
  O  O45  1  0.00000000  0.50000000  0.00000000  1
