# generated using pymatgen
data_Ca3WCl2O5
_symmetry_space_group_name_H-M   'P 1'
_cell_length_a   5.68323029
_cell_length_b   11.29348654
_cell_length_c   11.94038930
_cell_angle_alpha   90.00000000
_cell_angle_beta   90.00000000
_cell_angle_gamma   90.00000000
_symmetry_Int_Tables_number   1
_chemical_formula_structural   Ca3WCl2O5
_chemical_formula_sum   'Ca12 W4 Cl8 O20'
_cell_volume   766.37579495
_cell_formula_units_Z   4
loop_
 _symmetry_equiv_pos_site_id
 _symmetry_equiv_pos_as_xyz
  1  'x, y, z'
loop_
 _atom_site_type_symbol
 _atom_site_label
 _atom_site_symmetry_multiplicity
 _atom_site_fract_x
 _atom_site_fract_y
 _atom_site_fract_z
 _atom_site_occupancy
  Ca  Ca0  1  0.75000000  0.83478196  0.86040507  1
  Ca  Ca1  1  0.25000000  0.16521804  0.13959493  1
  Ca  Ca2  1  0.75000000  0.66521804  0.36040507  1
  Ca  Ca3  1  0.75000000  0.32994498  0.83281618  1
  Ca  Ca4  1  0.25000000  0.91977815  0.34089335  1
  Ca  Ca5  1  0.25000000  0.82994498  0.66718382  1
  Ca  Ca6  1  0.75000000  0.41977815  0.15910665  1
  Ca  Ca7  1  0.25000000  0.58022185  0.84089335  1
  Ca  Ca8  1  0.25000000  0.33478196  0.63959493  1
  Ca  Ca9  1  0.75000000  0.08022185  0.65910665  1
  Ca  Ca10  1  0.75000000  0.17005502  0.33281618  1
  Ca  Ca11  1  0.25000000  0.67005502  0.16718382  1
  W  W12  1  0.25000000  0.41501401  0.30763422  1
  W  W13  1  0.25000000  0.08498599  0.80763422  1
  W  W14  1  0.75000000  0.91501401  0.19236578  1
  W  W15  1  0.75000000  0.58498599  0.69236578  1
  Cl  Cl16  1  0.25000000  0.71550956  0.46682613  1
  Cl  Cl17  1  0.75000000  0.28449044  0.53317387  1
  Cl  Cl18  1  0.25000000  0.08393639  0.52286879  1
  Cl  Cl19  1  0.25000000  0.41606361  0.02286879  1
  Cl  Cl20  1  0.75000000  0.21550956  0.03317387  1
  Cl  Cl21  1  0.75000000  0.91606361  0.47713121  1
  Cl  Cl22  1  0.25000000  0.78449044  0.96682613  1
  Cl  Cl23  1  0.75000000  0.58393639  0.97713121  1
  O  O24  1  0.75000000  0.59085414  0.54376218  1
  O  O25  1  0.25000000  0.09085414  0.95623782  1
  O  O26  1  0.98300342  0.03271079  0.23611300  1
  O  O27  1  0.51699658  0.03271079  0.23611300  1
  O  O28  1  0.47838322  0.29986186  0.25824926  1
  O  O29  1  0.25000000  0.40914586  0.45623782  1
  O  O30  1  0.51699658  0.46728921  0.73611300  1
  O  O31  1  0.48300342  0.96728921  0.76388700  1
  O  O32  1  0.75000000  0.90914586  0.04376218  1
  O  O33  1  0.47838322  0.20013814  0.75824926  1
  O  O34  1  0.01699658  0.96728921  0.76388700  1
  O  O35  1  0.52161678  0.70013814  0.74175074  1
  O  O36  1  0.02161678  0.29986186  0.25824926  1
  O  O37  1  0.52161678  0.79986186  0.24175074  1
  O  O38  1  0.02161678  0.20013814  0.75824926  1
  O  O39  1  0.97838322  0.70013814  0.74175074  1
  O  O40  1  0.98300342  0.46728921  0.73611300  1
  O  O41  1  0.97838322  0.79986186  0.24175074  1
  O  O42  1  0.01699658  0.53271079  0.26388700  1
  O  O43  1  0.48300342  0.53271079  0.26388700  1
