# generated using pymatgen
data_K8Zr(MoO4)6
_symmetry_space_group_name_H-M   'P 1'
_cell_length_a   10.45390537
_cell_length_b   12.11706506
_cell_length_c   12.33309513
_cell_angle_alpha   90.00000000
_cell_angle_beta   108.74793373
_cell_angle_gamma   90.00000000
_symmetry_Int_Tables_number   1
_chemical_formula_structural   K8Zr(MoO4)6
_chemical_formula_sum   'K16 Zr2 Mo12 O48'
_cell_volume   1479.35136644
_cell_formula_units_Z   2
loop_
 _symmetry_equiv_pos_site_id
 _symmetry_equiv_pos_as_xyz
  1  'x, y, z'
loop_
 _atom_site_type_symbol
 _atom_site_label
 _atom_site_symmetry_multiplicity
 _atom_site_fract_x
 _atom_site_fract_y
 _atom_site_fract_z
 _atom_site_occupancy
  K  K0  1  0.60193836  0.29783204  0.79437917  1
  K  K1  1  0.88722559  0.44369422  0.72007440  1
  K  K2  1  0.38722559  0.05630578  0.22007440  1
  K  K3  1  0.75080553  0.92992589  0.39145541  1
  K  K4  1  0.74919447  0.42992589  0.10854459  1
  K  K5  1  0.68141704  0.77925523  0.07693573  1
  K  K6  1  0.89806164  0.79783204  0.70562083  1
  K  K7  1  0.61277441  0.94369422  0.77992560  1
  K  K8  1  0.10193836  0.20216796  0.29437917  1
  K  K9  1  0.81858296  0.27925523  0.42306427  1
  K  K10  1  0.31858296  0.22074477  0.92306427  1
  K  K11  1  0.11277441  0.55630578  0.27992560  1
  K  K12  1  0.25080553  0.57007411  0.89145541  1
  K  K13  1  0.39806164  0.70216796  0.20562083  1
  K  K14  1  0.24919447  0.07007411  0.60854459  1
  K  K15  1  0.18141704  0.72074477  0.57693573  1
  Zr  Zr16  1  0.00000000  0.00000000  0.00000000  1
  Zr  Zr17  1  0.50000000  0.50000000  0.50000000  1
  Mo  Mo18  1  0.56040319  0.60519683  0.79492862  1
  Mo  Mo19  1  0.93959681  0.10519683  0.70507138  1
  Mo  Mo20  1  0.43959681  0.39480317  0.20507138  1
  Mo  Mo21  1  0.47963126  0.82010580  0.49331243  1
  Mo  Mo22  1  0.78801574  0.60721274  0.40155706  1
  Mo  Mo23  1  0.52036874  0.17989420  0.50668757  1
  Mo  Mo24  1  0.06040319  0.89480317  0.29492862  1
  Mo  Mo25  1  0.28801574  0.89278726  0.90155706  1
  Mo  Mo26  1  0.97963126  0.67989420  0.99331243  1
  Mo  Mo27  1  0.02036874  0.32010580  0.00668757  1
  Mo  Mo28  1  0.21198426  0.39278726  0.59844294  1
  Mo  Mo29  1  0.71198426  0.10721274  0.09844294  1
  O  O30  1  0.14973294  0.65445154  0.07777216  1
  O  O31  1  0.67189329  0.68030579  0.28616197  1
  O  O32  1  0.30687904  0.47498752  0.52101184  1
  O  O33  1  0.80687904  0.02501248  0.02101184  1
  O  O34  1  0.41782824  0.48609023  0.08866932  1
  O  O35  1  0.40214463  0.47477229  0.32228256  1
  O  O36  1  0.54409532  0.11877248  0.64342184  1
  O  O37  1  0.85026706  0.34554846  0.92222784  1
  O  O38  1  0.59785537  0.52522771  0.67771744  1
  O  O39  1  0.95302742  0.83174250  0.97422413  1
  O  O40  1  0.69312096  0.52501248  0.47898816  1
  O  O41  1  0.33669044  0.27477555  0.15982746  1
  O  O42  1  0.61282956  0.01639550  0.15241884  1
  O  O43  1  0.95590468  0.61877248  0.85657816  1
  O  O44  1  0.04697258  0.16825750  0.02577587  1
  O  O45  1  0.90214463  0.02522771  0.82228256  1
  O  O46  1  0.11127513  0.14575347  0.75237591  1
  O  O47  1  0.17189329  0.81969421  0.78616197  1
  O  O48  1  0.16330956  0.77477555  0.34017254  1
  O  O49  1  0.35026706  0.15445154  0.42222784  1
  O  O50  1  0.60437916  0.20395019  0.00237238  1
  O  O51  1  0.91782824  0.01390977  0.58866932  1
  O  O52  1  0.66330956  0.72522445  0.84017254  1
  O  O53  1  0.88717044  0.51639550  0.34758116  1
  O  O54  1  0.08217176  0.98609023  0.41133068  1
  O  O55  1  0.87665245  0.62180235  0.06839254  1
  O  O56  1  0.12334755  0.37819765  0.93160746  1
  O  O57  1  0.11282956  0.48360450  0.65241884  1
  O  O58  1  0.62334755  0.12180235  0.43160746  1
  O  O59  1  0.61127513  0.35424653  0.25237591  1
  O  O60  1  0.45590468  0.88122752  0.35657816  1
  O  O61  1  0.09785537  0.97477229  0.17771744  1
  O  O62  1  0.45302742  0.66825750  0.47422413  1
  O  O63  1  0.83669044  0.22522445  0.65982746  1
  O  O64  1  0.32810671  0.31969421  0.71383803  1
  O  O65  1  0.88872487  0.85424653  0.24762409  1
  O  O66  1  0.38717044  0.98360450  0.84758116  1
  O  O67  1  0.54697258  0.33174250  0.52577587  1
  O  O68  1  0.58217176  0.51390977  0.91133068  1
  O  O69  1  0.64973294  0.84554846  0.57777216  1
  O  O70  1  0.04409532  0.38122752  0.14342184  1
  O  O71  1  0.19312096  0.97498752  0.97898816  1
  O  O72  1  0.39562084  0.79604981  0.99762762  1
  O  O73  1  0.38872487  0.64575347  0.74762409  1
  O  O74  1  0.37665245  0.87819765  0.56839254  1
  O  O75  1  0.82810671  0.18030579  0.21383803  1
  O  O76  1  0.10437916  0.29604981  0.50237238  1
  O  O77  1  0.89562084  0.70395019  0.49762762  1
