# generated using pymatgen
data_RbPr(MoO4)2
_symmetry_space_group_name_H-M   'P 1'
_cell_length_a   6.43377170
_cell_length_b   6.48064850
_cell_length_c   9.75163059
_cell_angle_alpha   90.00000000
_cell_angle_beta   90.00000000
_cell_angle_gamma   90.00000000
_symmetry_Int_Tables_number   1
_chemical_formula_structural   RbPr(MoO4)2
_chemical_formula_sum   'Rb2 Pr2 Mo4 O16'
_cell_volume   406.59436341
_cell_formula_units_Z   2
loop_
 _symmetry_equiv_pos_site_id
 _symmetry_equiv_pos_as_xyz
  1  'x, y, z'
loop_
 _atom_site_type_symbol
 _atom_site_label
 _atom_site_symmetry_multiplicity
 _atom_site_fract_x
 _atom_site_fract_y
 _atom_site_fract_z
 _atom_site_occupancy
  Rb  Rb0  1  0.25000000  0.25000000  0.25000000  1
  Rb  Rb1  1  0.75000000  0.75000000  0.75000000  1
  Pr  Pr2  1  0.25000000  0.25000000  0.75000000  1
  Pr  Pr3  1  0.75000000  0.75000000  0.25000000  1
  Mo  Mo4  1  0.75000000  0.25000000  0.49843025  1
  Mo  Mo5  1  0.25000000  0.75000000  0.99843025  1
  Mo  Mo6  1  0.25000000  0.75000000  0.50156975  1
  Mo  Mo7  1  0.75000000  0.25000000  0.00156975  1
  O  O8  1  0.44613570  0.85866565  0.39161073  1
  O  O9  1  0.63929921  0.05573966  0.11142839  1
  O  O10  1  0.94613570  0.14133435  0.89161073  1
  O  O11  1  0.55386430  0.14133435  0.60838927  1
  O  O12  1  0.36070079  0.55573966  0.61142839  1
  O  O13  1  0.05386430  0.85866565  0.10838927  1
  O  O14  1  0.44613570  0.64133435  0.10838927  1
  O  O15  1  0.36070079  0.94426034  0.88857161  1
  O  O16  1  0.55386430  0.35866565  0.89161073  1
  O  O17  1  0.13929921  0.94426034  0.61142839  1
  O  O18  1  0.05386430  0.64133435  0.39161073  1
  O  O19  1  0.86070079  0.44426034  0.11142839  1
  O  O20  1  0.86070079  0.05573966  0.38857161  1
  O  O21  1  0.13929921  0.55573966  0.88857161  1
  O  O22  1  0.94613570  0.35866565  0.60838927  1
  O  O23  1  0.63929921  0.44426034  0.38857161  1
