# generated using pymatgen
data_NaFe(TeO3)2
_symmetry_space_group_name_H-M   'P 1'
_cell_length_a   7.92177429
_cell_length_b   10.61011839
_cell_length_c   13.68422144
_cell_angle_alpha   90.00000000
_cell_angle_beta   90.00000000
_cell_angle_gamma   90.00000000
_symmetry_Int_Tables_number   1
_chemical_formula_structural   NaFe(TeO3)2
_chemical_formula_sum   'Na8 Fe8 Te16 O48'
_cell_volume   1150.17199097
_cell_formula_units_Z   8
loop_
 _symmetry_equiv_pos_site_id
 _symmetry_equiv_pos_as_xyz
  1  'x, y, z'
loop_
 _atom_site_type_symbol
 _atom_site_label
 _atom_site_symmetry_multiplicity
 _atom_site_fract_x
 _atom_site_fract_y
 _atom_site_fract_z
 _atom_site_occupancy
  Na  Na0  1  0.33240744  0.75889474  0.13970874  1
  Na  Na1  1  0.16759256  0.25889474  0.86029126  1
  Na  Na2  1  0.83240744  0.74110526  0.13970874  1
  Na  Na3  1  0.66759256  0.24110526  0.86029126  1
  Na  Na4  1  0.66759256  0.74110526  0.63970874  1
  Na  Na5  1  0.33240744  0.25889474  0.36029126  1
  Na  Na6  1  0.83240744  0.24110526  0.36029126  1
  Na  Na7  1  0.16759256  0.75889474  0.63970874  1
  Fe  Fe8  1  0.80465013  0.00002463  0.02049525  1
  Fe  Fe9  1  0.19534987  0.49997537  0.52049525  1
  Fe  Fe10  1  0.69534987  0.50002463  0.97950475  1
  Fe  Fe11  1  0.30465013  0.49997537  0.02049525  1
  Fe  Fe12  1  0.80465013  0.50002463  0.47950475  1
  Fe  Fe13  1  0.30465013  0.99997537  0.47950475  1
  Fe  Fe14  1  0.69534987  0.00002463  0.52049525  1
  Fe  Fe15  1  0.19534987  0.99997537  0.97950475  1
  Te  Te16  1  0.45134893  0.71403553  0.42384675  1
  Te  Te17  1  0.41894945  0.50917167  0.76733456  1
  Te  Te18  1  0.58105055  0.49082833  0.23266544  1
  Te  Te19  1  0.41894945  0.00917167  0.73266544  1
  Te  Te20  1  0.95134893  0.28596447  0.07615325  1
  Te  Te21  1  0.04865107  0.21403553  0.57615325  1
  Te  Te22  1  0.08105055  0.50917167  0.26733456  1
  Te  Te23  1  0.54865107  0.78596447  0.92384675  1
  Te  Te24  1  0.91894945  0.99082833  0.76733456  1
  Te  Te25  1  0.08105055  0.00917167  0.23266544  1
  Te  Te26  1  0.58105055  0.99082833  0.26733456  1
  Te  Te27  1  0.91894945  0.49082833  0.73266544  1
  Te  Te28  1  0.54865107  0.28596447  0.57615325  1
  Te  Te29  1  0.95134893  0.78596447  0.42384675  1
  Te  Te30  1  0.45134893  0.21403553  0.07615325  1
  Te  Te31  1  0.04865107  0.71403553  0.92384675  1
  O  O32  1  0.62634847  0.46782926  0.83589489  1
  O  O33  1  0.68033185  0.65829784  0.44737184  1
  O  O34  1  0.81966815  0.65829784  0.94737184  1
  O  O35  1  0.18033185  0.34170216  0.05262816  1
  O  O36  1  0.43593379  0.18615764  0.73239293  1
  O  O37  1  0.06406621  0.18615764  0.23239293  1
  O  O38  1  0.76192399  0.01938012  0.87241142  1
  O  O39  1  0.50133563  0.37148440  0.01056621  1
  O  O40  1  0.87008644  0.37034206  0.96005104  1
  O  O41  1  0.23807601  0.48061988  0.37241142  1
  O  O42  1  0.12634847  0.53217074  0.66410511  1
  O  O43  1  0.93593379  0.31384236  0.73239293  1
  O  O44  1  0.43593379  0.68615764  0.76760707  1
  O  O45  1  0.73807601  0.01938012  0.37241142  1
  O  O46  1  0.37008644  0.12965794  0.96005104  1
  O  O47  1  0.00133563  0.12851560  0.01056621  1
  O  O48  1  0.50133563  0.87148440  0.48943379  1
  O  O49  1  0.49866437  0.12851560  0.51056621  1
  O  O50  1  0.37365153  0.03217074  0.33589489  1
  O  O51  1  0.37365153  0.53217074  0.16410511  1
  O  O52  1  0.99866437  0.87148440  0.98943379  1
  O  O53  1  0.56406621  0.31384236  0.23239293  1
  O  O54  1  0.56406621  0.81384236  0.26760707  1
  O  O55  1  0.76192399  0.51938012  0.62758858  1
  O  O56  1  0.68033185  0.15829784  0.05262816  1
  O  O57  1  0.37008644  0.62965794  0.53994896  1
  O  O58  1  0.18033185  0.84170216  0.44737184  1
  O  O59  1  0.99866437  0.37148440  0.51056621  1
  O  O60  1  0.23807601  0.98061988  0.12758858  1
  O  O61  1  0.12634847  0.03217074  0.83589489  1
  O  O62  1  0.62634847  0.96782926  0.66410511  1
  O  O63  1  0.12991356  0.12965794  0.46005104  1
  O  O64  1  0.62991356  0.37034206  0.46005104  1
  O  O65  1  0.49866437  0.62851560  0.98943379  1
  O  O66  1  0.73807601  0.51938012  0.12758858  1
  O  O67  1  0.00133563  0.62851560  0.48943379  1
  O  O68  1  0.87365153  0.96782926  0.16410511  1
  O  O69  1  0.81966815  0.15829784  0.55262816  1
  O  O70  1  0.26192399  0.48061988  0.87241142  1
  O  O71  1  0.06406621  0.68615764  0.26760707  1
  O  O72  1  0.87008644  0.87034206  0.53994896  1
  O  O73  1  0.26192399  0.98061988  0.62758858  1
  O  O74  1  0.31966815  0.34170216  0.55262816  1
  O  O75  1  0.31966815  0.84170216  0.94737184  1
  O  O76  1  0.93593379  0.81384236  0.76760707  1
  O  O77  1  0.62991356  0.87034206  0.03994896  1
  O  O78  1  0.12991356  0.62965794  0.03994896  1
  O  O79  1  0.87365153  0.46782926  0.33589489  1
