# generated using pymatgen
data_KFePO4
_symmetry_space_group_name_H-M   'P 1'
_cell_length_a   8.84079355
_cell_length_b   9.87956684
_cell_length_c   11.05202225
_cell_angle_alpha   115.90576926
_cell_angle_beta   90.00000000
_cell_angle_gamma   90.00000000
_symmetry_Int_Tables_number   1
_chemical_formula_structural   KFePO4
_chemical_formula_sum   'K8 Fe8 P8 O32'
_cell_volume   868.31785207
_cell_formula_units_Z   8
loop_
 _symmetry_equiv_pos_site_id
 _symmetry_equiv_pos_as_xyz
  1  'x, y, z'
loop_
 _atom_site_type_symbol
 _atom_site_label
 _atom_site_symmetry_multiplicity
 _atom_site_fract_x
 _atom_site_fract_y
 _atom_site_fract_z
 _atom_site_occupancy
  K  K0  1  0.00342877  0.80831782  0.34108969  1
  K  K1  1  0.52573739  0.23184404  0.16928886  1
  K  K2  1  0.99657123  0.19168218  0.65891031  1
  K  K3  1  0.50342877  0.69168218  0.15891031  1
  K  K4  1  0.49657123  0.30831782  0.84108969  1
  K  K5  1  0.47426261  0.76815596  0.83071114  1
  K  K6  1  0.97426261  0.73184404  0.66928886  1
  K  K7  1  0.02573739  0.26815596  0.33071114  1
  Fe  Fe8  1  0.87576234  0.40552122  0.05855299  1
  Fe  Fe9  1  0.37576234  0.09447878  0.44144701  1
  Fe  Fe10  1  0.34797804  0.60712709  0.45550764  1
  Fe  Fe11  1  0.62423766  0.90552122  0.55855299  1
  Fe  Fe12  1  0.15202196  0.10712709  0.95550764  1
  Fe  Fe13  1  0.84797804  0.89287291  0.04449236  1
  Fe  Fe14  1  0.65202196  0.39287291  0.54449236  1
  Fe  Fe15  1  0.12423766  0.59447878  0.94144701  1
  P  P16  1  0.80704838  0.54680365  0.85271181  1
  P  P17  1  0.30704838  0.95319635  0.64728819  1
  P  P18  1  0.28300034  0.43177386  0.62913005  1
  P  P19  1  0.78300034  0.06822614  0.87086995  1
  P  P20  1  0.69295162  0.04680365  0.35271181  1
  P  P21  1  0.21699966  0.93177386  0.12913005  1
  P  P22  1  0.19295162  0.45319635  0.14728819  1
  P  P23  1  0.71699966  0.56822614  0.37086995  1
  O  O24  1  0.20761683  0.45243889  0.76276568  1
  O  O25  1  0.42244391  0.81505370  0.59654005  1
  O  O26  1  0.60859956  0.92635538  0.38473777  1
  O  O27  1  0.39140044  0.07364462  0.61526223  1
  O  O28  1  0.15597701  0.90569947  0.57495688  1
  O  O29  1  0.65597701  0.59430053  0.92504312  1
  O  O30  1  0.04205873  0.93662506  0.14860723  1
  O  O31  1  0.23471430  0.56180039  0.59337006  1
  O  O32  1  0.10859956  0.57364462  0.11526223  1
  O  O33  1  0.95794127  0.06337494  0.85139277  1
  O  O34  1  0.45794127  0.43662506  0.64860723  1
  O  O35  1  0.29682833  0.01363460  0.80232597  1
  O  O36  1  0.73471430  0.93819961  0.90662994  1
  O  O37  1  0.84402299  0.09430053  0.42504312  1
  O  O38  1  0.79682833  0.48636540  0.69767403  1
  O  O39  1  0.92244391  0.68494630  0.90345995  1
  O  O40  1  0.57755609  0.18494630  0.40345995  1
  O  O41  1  0.79238317  0.54756111  0.23723432  1
  O  O42  1  0.26528570  0.06180039  0.09337006  1
  O  O43  1  0.26824561  0.77804691  0.01560681  1
  O  O44  1  0.54205873  0.56337494  0.35139277  1
  O  O45  1  0.89140044  0.42635538  0.88473777  1
  O  O46  1  0.70761683  0.04756111  0.73723432  1
  O  O47  1  0.34402299  0.40569947  0.07495688  1
  O  O48  1  0.73175439  0.22195309  0.98439319  1
  O  O49  1  0.70317167  0.98636540  0.19767403  1
  O  O50  1  0.76824561  0.72195309  0.48439319  1
  O  O51  1  0.20317167  0.51363460  0.30232597  1
  O  O52  1  0.07755609  0.31505370  0.09654005  1
  O  O53  1  0.29238317  0.95243889  0.26276568  1
  O  O54  1  0.76528570  0.43819961  0.40662994  1
  O  O55  1  0.23175439  0.27804691  0.51560681  1
