# generated using pymatgen
data_Ti4Fe(PO4)6
_symmetry_space_group_name_H-M   'P 1'
_cell_length_a   14.97658903
_cell_length_b   14.97658883
_cell_length_c   14.97658883
_cell_angle_alpha   33.54102126
_cell_angle_beta   33.54102238
_cell_angle_gamma   33.54102251
_symmetry_Int_Tables_number   1
_chemical_formula_structural   Ti4Fe(PO4)6
_chemical_formula_sum   'Ti8 Fe2 P12 O48'
_cell_volume   913.45646756
_cell_formula_units_Z   2
loop_
 _symmetry_equiv_pos_site_id
 _symmetry_equiv_pos_as_xyz
  1  'x, y, z'
loop_
 _atom_site_type_symbol
 _atom_site_label
 _atom_site_symmetry_multiplicity
 _atom_site_fract_x
 _atom_site_fract_y
 _atom_site_fract_z
 _atom_site_occupancy
  Ti  Ti0  1  0.30369231  0.30369231  0.30369231  1
  Ti  Ti1  1  0.44405753  0.44405753  0.44405753  1
  Ti  Ti2  1  0.55594247  0.55594247  0.55594247  1
  Ti  Ti3  1  0.94715907  0.94715907  0.94715907  1
  Ti  Ti4  1  0.19464906  0.19464906  0.19464906  1
  Ti  Ti5  1  0.69630769  0.69630769  0.69630769  1
  Ti  Ti6  1  0.80535094  0.80535094  0.80535094  1
  Ti  Ti7  1  0.05284093  0.05284093  0.05284093  1
  Fe  Fe8  1  0.12453360  0.12453360  0.12453360  1
  Fe  Fe9  1  0.87546640  0.87546640  0.87546640  1
  P  P10  1  0.96338250  0.53982022  0.24000572  1
  P  P11  1  0.53982022  0.24000572  0.96338250  1
  P  P12  1  0.75999428  0.46017978  0.03661750  1
  P  P13  1  0.78681330  0.21318670  0.50000000  1
  P  P14  1  0.50000000  0.78681330  0.21318670  1
  P  P15  1  0.46017978  0.03661750  0.75999428  1
  P  P16  1  0.28903748  0.71096252  1.00000000  1
  P  P17  1  0.03661750  0.75999428  0.46017978  1
  P  P18  1  0.21318670  0.50000000  0.78681330  1
  P  P19  1  0.24000572  0.96338250  0.53982022  1
  P  P20  1  0.71096252  0.00000000  0.28903748  1
  P  P21  1  1.00000000  0.28903748  0.71096252  1
  O  O22  1  0.97369206  0.18502434  0.32775108  1
  O  O23  1  0.47588312  0.69706716  0.83716135  1
  O  O24  1  0.42755408  0.22810000  0.60141927  1
  O  O25  1  0.52411688  0.16283865  0.30293284  1
  O  O26  1  0.72323234  0.06234385  0.95401880  1
  O  O27  1  0.05502182  0.20009237  0.83330902  1
  O  O28  1  0.06234385  0.95401880  0.72323234  1
  O  O29  1  0.96237299  0.79512959  0.59010782  1
  O  O30  1  0.90938002  0.72243776  0.53728129  1
  O  O31  1  0.20487041  0.03762701  0.40989218  1
  O  O32  1  0.30293284  0.52411688  0.16283865  1
  O  O33  1  0.20009237  0.83330902  0.05502182  1
  O  O34  1  0.18502434  0.32775108  0.97369206  1
  O  O35  1  0.79990763  0.94497818  0.16669098  1
  O  O36  1  0.48587983  0.65034215  0.27485686  1
  O  O37  1  0.59010782  0.96237299  0.79512959  1
  O  O38  1  0.03762701  0.40989218  0.20487041  1
  O  O39  1  0.94497818  0.16669098  0.79990763  1
  O  O40  1  0.32775108  0.97369206  0.18502434  1
  O  O41  1  0.39858073  0.77190000  0.57244592  1
  O  O42  1  0.22810000  0.60141927  0.42755408  1
  O  O43  1  0.27676766  0.04598120  0.93765615  1
  O  O44  1  0.51412017  0.72514314  0.34965785  1
  O  O45  1  0.16669098  0.79990763  0.94497818  1
  O  O46  1  0.72514314  0.34965785  0.51412017  1
  O  O47  1  0.16283865  0.30293284  0.52411688  1
  O  O48  1  0.65034215  0.27485686  0.48587983  1
  O  O49  1  0.04598120  0.93765615  0.27676766  1
  O  O50  1  0.57244592  0.39858073  0.77190000  1
  O  O51  1  0.83330902  0.05502182  0.20009237  1
  O  O52  1  0.27756224  0.09061998  0.46271871  1
  O  O53  1  0.53728129  0.90938002  0.72243776  1
  O  O54  1  0.27485686  0.48587983  0.65034215  1
  O  O55  1  0.67224892  0.81497566  0.02630794  1
  O  O56  1  0.72243776  0.53728129  0.90938002  1
  O  O57  1  0.79512959  0.59010782  0.96237299  1
  O  O58  1  0.40989218  0.20487041  0.03762701  1
  O  O59  1  0.02630794  0.67224892  0.81497566  1
  O  O60  1  0.34965785  0.51412017  0.72514314  1
  O  O61  1  0.83716135  0.47588312  0.69706716  1
  O  O62  1  0.60141927  0.42755408  0.22810000  1
  O  O63  1  0.81497566  0.02630794  0.67224892  1
  O  O64  1  0.77190000  0.57244592  0.39858073  1
  O  O65  1  0.09061998  0.46271871  0.27756224  1
  O  O66  1  0.93765615  0.27676766  0.04598120  1
  O  O67  1  0.95401880  0.72323234  0.06234385  1
  O  O68  1  0.46271871  0.27756224  0.09061998  1
  O  O69  1  0.69706716  0.83716135  0.47588312  1
