# generated using pymatgen
data_MnBiAsO5
_symmetry_space_group_name_H-M   'P 1'
_cell_length_a   5.47439675
_cell_length_b   7.03509585
_cell_length_c   7.01100722
_cell_angle_alpha   109.33802079
_cell_angle_beta   108.99217833
_cell_angle_gamma   96.67614516
_symmetry_Int_Tables_number   1
_chemical_formula_structural   MnBiAsO5
_chemical_formula_sum   'Mn2 Bi2 As2 O10'
_cell_volume   233.19329321
_cell_formula_units_Z   2
loop_
 _symmetry_equiv_pos_site_id
 _symmetry_equiv_pos_as_xyz
  1  'x, y, z'
loop_
 _atom_site_type_symbol
 _atom_site_label
 _atom_site_symmetry_multiplicity
 _atom_site_fract_x
 _atom_site_fract_y
 _atom_site_fract_z
 _atom_site_occupancy
  Mn  Mn0  1  0.32703174  0.36720898  0.21682076  1
  Mn  Mn1  1  0.67296826  0.63279102  0.78317924  1
  Bi  Bi2  1  0.09180967  0.75523570  0.52811154  1
  Bi  Bi3  1  0.90819033  0.24476430  0.47188846  1
  As  As4  1  0.65039986  0.17759182  0.88116985  1
  As  As5  1  0.34960014  0.82240818  0.11883015  1
  O  O6  1  0.26470330  0.50112982  0.54670558  1
  O  O7  1  0.43148608  0.08311535  0.29190118  1
  O  O8  1  0.56851392  0.91688465  0.70809882  1
  O  O9  1  0.77722440  0.33651838  0.77420633  1
  O  O10  1  0.73529670  0.49887018  0.45329442  1
  O  O11  1  0.22277560  0.66348162  0.22579367  1
  O  O12  1  0.63295168  0.76034636  0.09233082  1
  O  O13  1  0.90641728  0.21793907  0.12575015  1
  O  O14  1  0.36704832  0.23965364  0.90766918  1
  O  O15  1  0.09358272  0.78206093  0.87424985  1
