# generated using pymatgen
data_Fe2PClO4
_symmetry_space_group_name_H-M   'P 1'
_cell_length_a   8.34112099
_cell_length_b   8.34112107
_cell_length_c   8.44238500
_cell_angle_alpha   105.33374646
_cell_angle_beta   111.14907075
_cell_angle_gamma   111.54134977
_symmetry_Int_Tables_number   1
_chemical_formula_structural   Fe2PClO4
_chemical_formula_sum   'Fe8 P4 Cl4 O16'
_cell_volume   453.08446748
_cell_formula_units_Z   4
loop_
 _symmetry_equiv_pos_site_id
 _symmetry_equiv_pos_as_xyz
  1  'x, y, z'
loop_
 _atom_site_type_symbol
 _atom_site_label
 _atom_site_symmetry_multiplicity
 _atom_site_fract_x
 _atom_site_fract_y
 _atom_site_fract_z
 _atom_site_occupancy
  Fe  Fe0  1  0.26804476  0.07463452  0.82201930  1
  Fe  Fe1  1  0.02076391  0.27076391  0.75000000  1
  Fe  Fe2  1  0.24738478  0.55397454  0.32201930  1
  Fe  Fe3  1  0.97923609  0.72923609  0.25000000  1
  Fe  Fe4  1  0.50000000  0.00000000  0.50000000  1
  Fe  Fe5  1  0.73195524  0.92536548  0.17798070  1
  Fe  Fe6  1  0.75261522  0.44602546  0.67798070  1
  Fe  Fe7  1  0.00000000  0.00000000  0.00000000  1
  P  P8  1  0.75676617  0.77579360  0.51445744  1
  P  P9  1  0.23866384  0.75769127  0.01445744  1
  P  P10  1  0.24323383  0.22420640  0.48554256  1
  P  P11  1  0.76133616  0.24230873  0.98554256  1
  Cl  Cl12  1  0.26556907  0.33577590  0.07172879  1
  Cl  Cl13  1  0.23595289  0.80615971  0.57172879  1
  Cl  Cl14  1  0.76404711  0.19384029  0.42827121  1
  Cl  Cl15  1  0.73443093  0.66422410  0.92827121  1
  O  O16  1  0.56240000  0.20940837  0.96522085  1
  O  O17  1  0.74418752  0.59717915  0.53477915  1
  O  O18  1  0.43769053  0.21788283  0.52249760  1
  O  O19  1  0.25581248  0.40282085  0.46522085  1
  O  O20  1  0.43760000  0.79059163  0.03477915  1
  O  O21  1  0.23833415  0.77113577  0.20623526  1
  O  O22  1  0.80461477  0.08480706  0.02249760  1
  O  O23  1  0.06490051  0.03209889  0.29376474  1
  O  O24  1  0.06648369  0.55413985  0.84617944  1
  O  O25  1  0.76166585  0.22886423  0.79376474  1
  O  O26  1  0.56230947  0.78211717  0.47750240  1
  O  O27  1  0.79203958  0.77969575  0.34617944  1
  O  O28  1  0.20796042  0.22030425  0.65382056  1
  O  O29  1  0.93509949  0.96790111  0.70623526  1
  O  O30  1  0.93351631  0.44586015  0.15382056  1
  O  O31  1  0.19538523  0.91519294  0.97750240  1
