# generated using pymatgen
data_CdTeMoO6
_symmetry_space_group_name_H-M   'P 1'
_cell_length_a   5.37243499
_cell_length_b   5.37243499
_cell_length_c   9.43237854
_cell_angle_alpha   90.00000000
_cell_angle_beta   90.00000000
_cell_angle_gamma   90.00000000
_symmetry_Int_Tables_number   1
_chemical_formula_structural   CdTeMoO6
_chemical_formula_sum   'Cd2 Te2 Mo2 O12'
_cell_volume   272.24728625
_cell_formula_units_Z   2
loop_
 _symmetry_equiv_pos_site_id
 _symmetry_equiv_pos_as_xyz
  1  'x, y, z'
loop_
 _atom_site_type_symbol
 _atom_site_label
 _atom_site_symmetry_multiplicity
 _atom_site_fract_x
 _atom_site_fract_y
 _atom_site_fract_z
 _atom_site_occupancy
  Cd  Cd0  1  0.00000000  -0.00000000  0.50000000  1
  Cd  Cd1  1  0.50000000  0.50000000  0.50000000  1
  Te  Te2  1  -0.00000000  0.50000000  0.24835634  1
  Te  Te3  1  0.50000000  0.00000000  0.75164366  1
  Mo  Mo4  1  0.50000000  0.00000000  0.18832969  1
  Mo  Mo5  1  -0.00000000  0.50000000  0.81167031  1
  O  O6  1  0.31743651  0.18256349  0.07665392  1
  O  O7  1  0.18256349  0.68256349  0.92334608  1
  O  O8  1  0.68256349  0.81743651  0.07665392  1
  O  O9  1  0.81743651  0.31743651  0.92334608  1
  O  O10  1  0.28140218  0.78140218  0.28621299  1
  O  O11  1  0.21859782  0.28140218  0.71378701  1
  O  O12  1  0.71859782  0.21859782  0.28621299  1
  O  O13  1  0.78140218  0.71859782  0.71378701  1
  O  O14  1  0.19066728  0.30933272  0.38103057  1
  O  O15  1  0.30933272  0.80933272  0.61896943  1
  O  O16  1  0.80933272  0.69066728  0.38103057  1
  O  O17  1  0.69066728  0.19066728  0.61896943  1
