# generated using pymatgen
data_Ba3Fe2Cl2O5
_symmetry_space_group_name_H-M   'P 1'
_cell_length_a   8.80222200
_cell_length_b   8.80222167
_cell_length_c   8.80222173
_cell_angle_alpha   109.47121614
_cell_angle_beta   109.47121538
_cell_angle_gamma   109.47122990
_symmetry_Int_Tables_number   1
_chemical_formula_structural   Ba3Fe2Cl2O5
_chemical_formula_sum   'Ba6 Fe4 Cl4 O10'
_cell_volume   524.99484077
_cell_formula_units_Z   2
loop_
 _symmetry_equiv_pos_site_id
 _symmetry_equiv_pos_as_xyz
  1  'x, y, z'
loop_
 _atom_site_type_symbol
 _atom_site_label
 _atom_site_symmetry_multiplicity
 _atom_site_fract_x
 _atom_site_fract_y
 _atom_site_fract_z
 _atom_site_occupancy
  Ba  Ba0  1  0.25000000  0.65523816  0.40523816  1
  Ba  Ba1  1  0.40523816  0.25000000  0.65523816  1
  Ba  Ba2  1  0.84476184  0.09476184  0.75000000  1
  Ba  Ba3  1  0.75000000  0.84476184  0.09476184  1
  Ba  Ba4  1  0.65523816  0.40523816  0.25000000  1
  Ba  Ba5  1  0.09476184  0.75000000  0.84476184  1
  Fe  Fe6  1  0.18964125  0.18964125  0.18964125  1
  Fe  Fe7  1  0.31035875  0.50000000  1.00000000  1
  Fe  Fe8  1  0.50000000  1.00000000  0.31035875  1
  Fe  Fe9  1  0.00000000  0.31035875  0.50000000  1
  Cl  Cl10  1  0.61429485  0.61429485  0.61429485  1
  Cl  Cl11  1  1.00000000  0.88570515  0.50000000  1
  Cl  Cl12  1  0.50000000  0.00000000  0.88570515  1
  Cl  Cl13  1  0.88570515  0.50000000  0.00000000  1
  O  O14  1  0.50000000  0.00000000  0.52131229  1
  O  O15  1  0.25000000  0.39168202  0.14168202  1
  O  O16  1  0.39168202  0.14168202  0.25000000  1
  O  O17  1  1.00000000  0.52131229  0.50000000  1
  O  O18  1  0.75000000  0.10831798  0.35831798  1
  O  O19  1  0.52131229  0.50000000  0.00000000  1
  O  O20  1  0.14168202  0.25000000  0.39168202  1
  O  O21  1  0.97868771  0.97868771  0.97868771  1
  O  O22  1  0.10831798  0.35831798  0.75000000  1
  O  O23  1  0.35831798  0.75000000  0.10831798  1
