# generated using pymatgen
data_Na2V3P2O13
_symmetry_space_group_name_H-M   'P 1'
_cell_length_a   8.39521916
_cell_length_b   10.53481969
_cell_length_c   12.22326453
_cell_angle_alpha   90.00000000
_cell_angle_beta   90.00000000
_cell_angle_gamma   90.00000000
_symmetry_Int_Tables_number   1
_chemical_formula_structural   Na2V3P2O13
_chemical_formula_sum   'Na8 V12 P8 O52'
_cell_volume   1081.05142968
_cell_formula_units_Z   4
loop_
 _symmetry_equiv_pos_site_id
 _symmetry_equiv_pos_as_xyz
  1  'x, y, z'
loop_
 _atom_site_type_symbol
 _atom_site_label
 _atom_site_symmetry_multiplicity
 _atom_site_fract_x
 _atom_site_fract_y
 _atom_site_fract_z
 _atom_site_occupancy
  Na  Na0  1  0.89656300  0.71921205  0.53652177  1
  Na  Na1  1  0.10343700  0.21921205  0.03652177  1
  Na  Na2  1  0.60343700  0.28078795  0.03652177  1
  Na  Na3  1  0.89656300  0.78078795  0.96347823  1
  Na  Na4  1  0.60343700  0.21921205  0.46347823  1
  Na  Na5  1  0.39656300  0.78078795  0.53652177  1
  Na  Na6  1  0.10343700  0.28078795  0.46347823  1
  Na  Na7  1  0.39656300  0.71921205  0.96347823  1
  V  V8  1  0.93232209  0.75000000  0.25000000  1
  V  V9  1  0.25524014  0.48027232  0.13410501  1
  V  V10  1  0.25524014  0.01972768  0.36589499  1
  V  V11  1  0.43232209  0.75000000  0.25000000  1
  V  V12  1  0.24475986  0.98027232  0.86589499  1
  V  V13  1  0.74475986  0.98027232  0.63410501  1
  V  V14  1  0.56767791  0.25000000  0.75000000  1
  V  V15  1  0.74475986  0.51972768  0.86589499  1
  V  V16  1  0.06767791  0.25000000  0.75000000  1
  V  V17  1  0.75524014  0.01972768  0.13410501  1
  V  V18  1  0.75524014  0.48027232  0.36589499  1
  V  V19  1  0.24475986  0.51972768  0.63410501  1
  P  P20  1  0.86874489  0.49114649  0.12047296  1
  P  P21  1  0.86874489  0.00885351  0.37952704  1
  P  P22  1  0.36874489  0.00885351  0.12047296  1
  P  P23  1  0.63125511  0.99114649  0.87952704  1
  P  P24  1  0.63125511  0.50885351  0.62047296  1
  P  P25  1  0.13125511  0.50885351  0.87952704  1
  P  P26  1  0.13125511  0.99114649  0.62047296  1
  P  P27  1  0.36874489  0.49114649  0.37952704  1
  O  O28  1  0.24979014  0.94371602  0.70892073  1
  O  O29  1  0.74979014  0.94371602  0.79107927  1
  O  O30  1  0.25020986  0.05628398  0.20892073  1
  O  O31  1  0.80080395  0.05735840  0.48989769  1
  O  O32  1  0.85076881  0.14534179  0.08898379  1
  O  O33  1  0.69919605  0.55735840  0.51010231  1
  O  O34  1  0.61135199  0.39650805  0.84641068  1
  O  O35  1  0.85076881  0.35465821  0.41101621  1
  O  O36  1  0.87073176  0.25000000  0.75000000  1
  O  O37  1  0.25020986  0.44371602  0.29107927  1
  O  O38  1  0.46635794  0.57431366  0.63871665  1
  O  O39  1  0.19919605  0.94264160  0.51010231  1
  O  O40  1  0.03364206  0.42568634  0.13871665  1
  O  O41  1  0.88652083  0.63698386  0.11996592  1
  O  O42  1  0.30080395  0.05735840  0.01010231  1
  O  O43  1  0.24979014  0.55628398  0.79107927  1
  O  O44  1  0.75020986  0.44371602  0.20892073  1
  O  O45  1  0.74979014  0.55628398  0.70892073  1
  O  O46  1  0.38864801  0.89650805  0.34641068  1
  O  O47  1  0.96635794  0.57431366  0.86128335  1
  O  O48  1  0.53364206  0.07431366  0.13871665  1
  O  O49  1  0.69919605  0.94264160  0.98989769  1
  O  O50  1  0.62926824  0.75000000  0.25000000  1
  O  O51  1  0.35076881  0.14534179  0.41101621  1
  O  O52  1  0.80080395  0.44264160  0.01010231  1
  O  O53  1  0.88864801  0.89650805  0.15358932  1
  O  O54  1  0.88652083  0.86301614  0.38003408  1
  O  O55  1  0.30080395  0.44264160  0.48989769  1
  O  O56  1  0.46635794  0.92568634  0.86128335  1
  O  O57  1  0.14923119  0.85465821  0.91101621  1
  O  O58  1  0.11135199  0.39650805  0.65358932  1
  O  O59  1  0.12926824  0.75000000  0.25000000  1
  O  O60  1  0.64923119  0.85465821  0.58898379  1
  O  O61  1  0.11347917  0.13698386  0.61996592  1
  O  O62  1  0.37073176  0.25000000  0.75000000  1
  O  O63  1  0.53364206  0.42568634  0.36128335  1
  O  O64  1  0.38652083  0.63698386  0.38003408  1
  O  O65  1  0.61347917  0.36301614  0.61996592  1
  O  O66  1  0.14923119  0.64534179  0.58898379  1
  O  O67  1  0.11135199  0.10349195  0.84641068  1
  O  O68  1  0.64923119  0.64534179  0.91101621  1
  O  O69  1  0.35076881  0.35465821  0.08898379  1
  O  O70  1  0.61135199  0.10349195  0.65358932  1
  O  O71  1  0.38864801  0.60349195  0.15358932  1
  O  O72  1  0.11347917  0.36301614  0.88003408  1
  O  O73  1  0.61347917  0.13698386  0.88003408  1
  O  O74  1  0.88864801  0.60349195  0.34641068  1
  O  O75  1  0.03364206  0.07431366  0.36128335  1
  O  O76  1  0.75020986  0.05628398  0.29107927  1
  O  O77  1  0.96635794  0.92568634  0.63871665  1
  O  O78  1  0.38652083  0.86301614  0.11996592  1
  O  O79  1  0.19919605  0.55735840  0.98989769  1
