# generated using pymatgen
data_Mn2BiPO6
_symmetry_space_group_name_H-M   'P 1'
_cell_length_a   5.44104945
_cell_length_b   8.22162627
_cell_length_c   12.32741606
_cell_angle_alpha   90.00000000
_cell_angle_beta   90.00000000
_cell_angle_gamma   90.00000000
_symmetry_Int_Tables_number   1
_chemical_formula_structural   Mn2BiPO6
_chemical_formula_sum   'Mn8 Bi4 P4 O24'
_cell_volume   551.45802123
_cell_formula_units_Z   4
loop_
 _symmetry_equiv_pos_site_id
 _symmetry_equiv_pos_as_xyz
  1  'x, y, z'
loop_
 _atom_site_type_symbol
 _atom_site_label
 _atom_site_symmetry_multiplicity
 _atom_site_fract_x
 _atom_site_fract_y
 _atom_site_fract_z
 _atom_site_occupancy
  Mn  Mn0  1  0.75000000  0.29345547  0.09870134  1
  Mn  Mn1  1  0.75000000  0.20654453  0.59870134  1
  Mn  Mn2  1  0.25000000  0.70654453  0.90129866  1
  Mn  Mn3  1  0.25000000  0.30887950  0.89674417  1
  Mn  Mn4  1  0.75000000  0.69112050  0.10325583  1
  Mn  Mn5  1  0.25000000  0.19112050  0.39674417  1
  Mn  Mn6  1  0.25000000  0.79345547  0.40129866  1
  Mn  Mn7  1  0.75000000  0.80887950  0.60325583  1
  Bi  Bi8  1  0.75000000  0.51321542  0.40688632  1
  Bi  Bi9  1  0.25000000  0.48678458  0.59311368  1
  Bi  Bi10  1  0.75000000  0.98678458  0.90688632  1
  Bi  Bi11  1  0.25000000  0.01321542  0.09311368  1
  P  P12  1  0.25000000  0.47076339  0.19783183  1
  P  P13  1  0.25000000  0.02923661  0.69783183  1
  P  P14  1  0.75000000  0.52923661  0.80216817  1
  P  P15  1  0.75000000  0.97076339  0.30216817  1
  O  O16  1  0.48717394  0.00745133  0.62703550  1
  O  O17  1  0.98717394  0.99254867  0.37296450  1
  O  O18  1  0.75000000  0.79318046  0.25934070  1
  O  O19  1  0.51282606  0.99254867  0.37296450  1
  O  O20  1  0.50155889  0.66653942  0.50643545  1
  O  O21  1  0.49844111  0.33346058  0.49356455  1
  O  O22  1  0.25000000  0.29318046  0.24065930  1
  O  O23  1  0.75000000  0.70681954  0.75934070  1
  O  O24  1  0.25000000  0.90526973  0.79154294  1
  O  O25  1  0.99844111  0.66653942  0.50643545  1
  O  O26  1  0.51282606  0.50745133  0.87296450  1
  O  O27  1  0.99844111  0.83346058  0.00643545  1
  O  O28  1  0.49844111  0.16653942  0.99356455  1
  O  O29  1  0.00155889  0.33346058  0.49356455  1
  O  O30  1  0.25000000  0.59473027  0.29154294  1
  O  O31  1  0.01282606  0.49254867  0.12703550  1
  O  O32  1  0.98717394  0.50745133  0.87296450  1
  O  O33  1  0.75000000  0.09473027  0.20845706  1
  O  O34  1  0.75000000  0.40526973  0.70845706  1
  O  O35  1  0.00155889  0.16653942  0.99356455  1
  O  O36  1  0.50155889  0.83346058  0.00643545  1
  O  O37  1  0.48717394  0.49254867  0.12703550  1
  O  O38  1  0.01282606  0.00745133  0.62703550  1
  O  O39  1  0.25000000  0.20681954  0.74065930  1
