# generated using pymatgen
data_CrHg(PbO3)2
_symmetry_space_group_name_H-M   'P 1'
_cell_length_a   6.59371506
_cell_length_b   7.34566700
_cell_length_c   7.99263003
_cell_angle_alpha   90.80943490
_cell_angle_beta   93.52878812
_cell_angle_gamma   110.00300446
_symmetry_Int_Tables_number   1
_chemical_formula_structural   CrHg(PbO3)2
_chemical_formula_sum   'Cr2 Hg2 Pb4 O12'
_cell_volume   362.82624062
_cell_formula_units_Z   2
loop_
 _symmetry_equiv_pos_site_id
 _symmetry_equiv_pos_as_xyz
  1  'x, y, z'
loop_
 _atom_site_type_symbol
 _atom_site_label
 _atom_site_symmetry_multiplicity
 _atom_site_fract_x
 _atom_site_fract_y
 _atom_site_fract_z
 _atom_site_occupancy
  Cr  Cr0  1  0.30102439  0.23421931  0.85069294  1
  Cr  Cr1  1  0.69897561  0.76578069  0.14930706  1
  Hg  Hg2  1  0.31630934  0.30116774  0.36420464  1
  Hg  Hg3  1  0.68369066  0.69883226  0.63579536  1
  Pb  Pb4  1  0.82671418  0.26485773  0.60690256  1
  Pb  Pb5  1  0.22520201  0.74411243  0.85719629  1
  Pb  Pb6  1  0.77479799  0.25588757  0.14280371  1
  Pb  Pb7  1  0.17328582  0.73514227  0.39309744  1
  O  O8  1  0.05320575  0.38833404  0.37008436  1
  O  O9  1  0.94679425  0.61166596  0.62991564  1
  O  O10  1  0.41118625  0.76737460  0.62493290  1
  O  O11  1  0.66040447  0.85779291  0.96595471  1
  O  O12  1  0.45676402  0.65527835  0.22266190  1
  O  O13  1  0.15660090  0.05182663  0.71870782  1
  O  O14  1  0.16326883  0.38879479  0.86800646  1
  O  O15  1  0.33959553  0.14220709  0.03404529  1
  O  O16  1  0.58881375  0.23262540  0.37506710  1
  O  O17  1  0.84339910  0.94817337  0.28129218  1
  O  O18  1  0.83673117  0.61120521  0.13199354  1
  O  O19  1  0.54323598  0.34472165  0.77733810  1
