# generated using pymatgen
data_Cr4Si2Br2O7
_symmetry_space_group_name_H-M   'P 1'
_cell_length_a   6.55092942
_cell_length_b   10.70892366
_cell_length_c   13.07069055
_cell_angle_alpha   90.00000000
_cell_angle_beta   90.00000000
_cell_angle_gamma   91.59501447
_symmetry_Int_Tables_number   1
_chemical_formula_structural   Cr4Si2Br2O7
_chemical_formula_sum   'Cr16 Si8 Br8 O28'
_cell_volume   916.59813972
_cell_formula_units_Z   4
loop_
 _symmetry_equiv_pos_site_id
 _symmetry_equiv_pos_as_xyz
  1  'x, y, z'
loop_
 _atom_site_type_symbol
 _atom_site_label
 _atom_site_symmetry_multiplicity
 _atom_site_fract_x
 _atom_site_fract_y
 _atom_site_fract_z
 _atom_site_occupancy
  Cr  Cr0  1  0.84400266  0.09254516  0.88733989  1
  Cr  Cr1  1  0.84400266  0.59254516  0.11266011  1
  Cr  Cr2  1  0.81052053  0.11700644  0.63837842  1
  Cr  Cr3  1  0.17850645  0.91873357  0.72279419  1
  Cr  Cr4  1  0.17850645  0.41873357  0.27720581  1
  Cr  Cr5  1  0.78376716  0.61463893  0.62790944  1
  Cr  Cr6  1  0.81052053  0.61700644  0.36162158  1
  Cr  Cr7  1  0.78376716  0.11463893  0.37209056  1
  Cr  Cr8  1  0.45121220  0.41762643  0.76783384  1
  Cr  Cr9  1  0.45121220  0.91762643  0.23216616  1
  Cr  Cr10  1  0.80846491  0.09960983  0.12852640  1
  Cr  Cr11  1  0.18317599  0.41082594  0.96329634  1
  Cr  Cr12  1  0.44313443  0.31735578  0.45547648  1
  Cr  Cr13  1  0.80846491  0.59960983  0.87147360  1
  Cr  Cr14  1  0.18317599  0.91082594  0.03670366  1
  Cr  Cr15  1  0.44313443  0.81735578  0.54452352  1
  Si  Si16  1  0.67541714  0.36268463  0.23913718  1
  Si  Si17  1  0.67732296  0.85509132  0.99872580  1
  Si  Si18  1  0.67732296  0.35509132  0.00127420  1
  Si  Si19  1  0.93407456  0.87329729  0.50504008  1
  Si  Si20  1  0.93407456  0.37329729  0.49495992  1
  Si  Si21  1  0.67541714  0.86268463  0.76086282  1
  Si  Si22  1  0.94074459  0.35333576  0.73901782  1
  Si  Si23  1  0.94074459  0.85333576  0.26098218  1
  Br  Br24  1  0.19752224  0.22254962  0.12198463  1
  Br  Br25  1  0.25579391  0.56892979  0.12163755  1
  Br  Br26  1  0.42170276  0.70597376  0.36847814  1
  Br  Br27  1  0.42170276  0.20597376  0.63152186  1
  Br  Br28  1  0.35514589  0.05339347  0.38698659  1
  Br  Br29  1  0.19752224  0.72254962  0.87801537  1
  Br  Br30  1  0.25579391  0.06892979  0.87836245  1
  Br  Br31  1  0.35514589  0.55339347  0.61301341  1
  O  O32  1  0.83270624  0.72000291  0.22658930  1
  O  O33  1  0.86861940  0.46438528  0.26340010  1
  O  O34  1  0.87246590  0.95808947  0.02162413  1
  O  O35  1  0.74676163  0.71039231  1.00014640  1
  O  O36  1  0.14594838  0.38902655  0.80413089  1
  O  O37  1  0.14594838  0.88902655  0.19586911  1
  O  O38  1  0.85090278  0.01687329  0.50478392  1
  O  O39  1  0.62097263  0.39630572  0.11915474  1
  O  O40  1  0.97597708  0.82757431  0.38491848  1
  O  O41  1  0.77325197  0.96832466  0.25282139  1
  O  O42  1  0.87246590  0.45808947  0.97837587  1
  O  O43  1  0.62097263  0.89630572  0.88084526  1
  O  O44  1  0.74426741  0.21837568  0.24365158  1
  O  O45  1  0.97597708  0.32757431  0.61508152  1
  O  O46  1  0.48003984  0.89272603  0.68889022  1
  O  O47  1  0.75144053  0.27605272  0.45523937  1
  O  O48  1  0.48003984  0.39272603  0.31110978  1
  O  O49  1  0.74676163  0.21039231  -0.00014640  1
  O  O50  1  0.48861242  0.38919380  0.92528804  1
  O  O51  1  0.83270624  0.22000291  0.77341070  1
  O  O52  1  0.77325197  0.46832466  0.74717861  1
  O  O53  1  0.74426741  0.71837568  0.75634842  1
  O  O54  1  0.14002740  0.35648156  0.42685563  1
  O  O55  1  0.48861242  0.88919380  0.07471196  1
  O  O56  1  0.85090278  0.51687329  0.49521608  1
  O  O57  1  0.75144053  0.77605272  0.54476063  1
  O  O58  1  0.86861940  0.96438528  0.73659990  1
  O  O59  1  0.14002740  0.85648156  0.57314437  1
