# generated using pymatgen
data_KCr2FeO8
_symmetry_space_group_name_H-M   'P 1'
_cell_length_a   5.21832995
_cell_length_b   5.21833040
_cell_length_c   7.90501073
_cell_angle_alpha   85.92129307
_cell_angle_beta   85.92129270
_cell_angle_gamma   64.56851611
_symmetry_Int_Tables_number   1
_chemical_formula_structural   KCr2FeO8
_chemical_formula_sum   'K1 Cr2 Fe1 O8'
_cell_volume   193.71294389
_cell_formula_units_Z   1
loop_
 _symmetry_equiv_pos_site_id
 _symmetry_equiv_pos_as_xyz
  1  'x, y, z'
loop_
 _atom_site_type_symbol
 _atom_site_label
 _atom_site_symmetry_multiplicity
 _atom_site_fract_x
 _atom_site_fract_y
 _atom_site_fract_z
 _atom_site_occupancy
  K  K0  1  0.00000000  0.00000000  0.00000000  1
  Cr  Cr1  1  0.37320520  0.37320520  0.29675494  1
  Cr  Cr2  1  0.62679480  0.62679480  0.70324506  1
  Fe  Fe3  1  0.00000000  0.00000000  0.50000000  1
  O  O4  1  0.31576883  0.31576883  0.10698423  1
  O  O5  1  0.72834622  0.22951319  0.31953851  1
  O  O6  1  0.27165378  0.77048681  0.68046149  1
  O  O7  1  0.22951319  0.72834622  0.31953851  1
  O  O8  1  0.22641880  0.22641880  0.44270958  1
  O  O9  1  0.77358120  0.77358120  0.55729042  1
  O  O10  1  0.77048681  0.27165378  0.68046149  1
  O  O11  1  0.68423117  0.68423117  0.89301577  1
