# generated using pymatgen
data_KNd(WO4)2
_symmetry_space_group_name_H-M   'P 1'
_cell_length_a   7.53044141
_cell_length_b   7.53044093
_cell_length_c   7.59894694
_cell_angle_alpha   113.73354216
_cell_angle_beta   113.73354049
_cell_angle_gamma   92.76553669
_symmetry_Int_Tables_number   1
_chemical_formula_structural   KNd(WO4)2
_chemical_formula_sum   'K2 Nd2 W4 O16'
_cell_volume   349.56256675
_cell_formula_units_Z   2
loop_
 _symmetry_equiv_pos_site_id
 _symmetry_equiv_pos_as_xyz
  1  'x, y, z'
loop_
 _atom_site_type_symbol
 _atom_site_label
 _atom_site_symmetry_multiplicity
 _atom_site_fract_x
 _atom_site_fract_y
 _atom_site_fract_z
 _atom_site_occupancy
  K  K0  1  0.31102187  0.31102187  0.47342314  1
  K  K1  1  0.68897813  0.68897813  0.52657686  1
  Nd  Nd2  1  0.30108997  0.69891003  1.00000000  1
  Nd  Nd3  1  0.69891003  0.30108997  0.00000000  1
  W  W4  1  0.83764434  0.16235566  0.50000000  1
  W  W5  1  0.79596061  0.79596061  0.05665137  1
  W  W6  1  0.20403939  0.20403939  0.94334863  1
  W  W7  1  0.16235566  0.83764434  0.50000000  1
  O  O8  1  0.30958793  0.78215001  0.35395458  1
  O  O9  1  0.57392828  0.57392828  0.89230718  1
  O  O10  1  0.90643586  0.65333794  0.26053216  1
  O  O11  1  0.01634542  0.01634542  0.34420467  1
  O  O12  1  0.21784999  0.69041207  0.64604542  1
  O  O13  1  0.09356414  0.34666206  0.73946784  1
  O  O14  1  0.29540029  0.04035752  0.06468212  1
  O  O15  1  0.98365458  0.98365458  0.65579533  1
  O  O16  1  0.34666206  0.09356414  0.73946784  1
  O  O17  1  0.69041207  0.21784999  0.64604542  1
  O  O18  1  0.65333794  0.90643586  0.26053216  1
  O  O19  1  0.42607172  0.42607172  0.10769282  1
  O  O20  1  0.70459971  0.95964248  0.93531788  1
  O  O21  1  0.04035752  0.29540029  0.06468212  1
  O  O22  1  0.95964248  0.70459971  0.93531788  1
  O  O23  1  0.78215001  0.30958793  0.35395458  1
