# generated using pymatgen
data_Ba3V4PbO14
_symmetry_space_group_name_H-M   'P 1'
_cell_length_a   7.45353469
_cell_length_b   7.50747841
_cell_length_c   13.56790263
_cell_angle_alpha   99.41202135
_cell_angle_beta   93.24025994
_cell_angle_gamma   92.09227785
_symmetry_Int_Tables_number   1
_chemical_formula_structural   Ba3V4PbO14
_chemical_formula_sum   'Ba6 V8 Pb2 O28'
_cell_volume   746.99714333
_cell_formula_units_Z   2
loop_
 _symmetry_equiv_pos_site_id
 _symmetry_equiv_pos_as_xyz
  1  'x, y, z'
loop_
 _atom_site_type_symbol
 _atom_site_label
 _atom_site_symmetry_multiplicity
 _atom_site_fract_x
 _atom_site_fract_y
 _atom_site_fract_z
 _atom_site_occupancy
  Ba  Ba0  1  0.77039322  0.74294873  0.34100002  1
  Ba  Ba1  1  0.92097412  0.16478183  0.15916613  1
  Ba  Ba2  1  0.33825747  0.79244812  0.13857836  1
  Ba  Ba3  1  0.07902588  0.83521817  0.84083387  1
  Ba  Ba4  1  0.66174253  0.20755188  0.86142164  1
  Ba  Ba5  1  0.22960678  0.25705127  0.65899998  1
  V  V6  1  0.56496997  0.68749083  0.88178896  1
  V  V7  1  0.15656489  0.31360770  0.92078036  1
  V  V8  1  0.84343511  0.68639230  0.07921964  1
  V  V9  1  0.17693680  0.70622188  0.58431924  1
  V  V10  1  0.23456414  0.91822290  0.39233546  1
  V  V11  1  0.76543586  0.08177710  0.60766454  1
  V  V12  1  0.82306320  0.29377812  0.41568076  1
  V  V13  1  0.43503003  0.31250917  0.11821104  1
  Pb  Pb14  1  0.65040242  0.61532549  0.62789197  1
  Pb  Pb15  1  0.34959758  0.38467451  0.37210803  1
  O  O16  1  0.40535186  0.79017765  0.34605764  1
  O  O17  1  0.99498942  0.38512389  0.35782682  1
  O  O18  1  0.47666926  0.51896018  0.78894861  1
  O  O19  1  0.60046485  0.19552475  0.05800640  1
  O  O20  1  0.28706486  0.16942012  0.84600618  1
  O  O21  1  0.29861023  0.17091201  0.17375309  1
  O  O22  1  0.67018724  0.46406075  0.44922998  1
  O  O23  1  0.70134872  0.57346518  0.96857237  1
  O  O24  1  0.09085562  0.93411055  0.29185839  1
  O  O25  1  0.70138977  0.82908799  0.82624691  1
  O  O26  1  0.29865128  0.42653482  0.03142763  1
  O  O27  1  0.01170683  0.82275977  0.04373390  1
  O  O28  1  0.68743654  0.86922043  0.54684138  1
  O  O29  1  0.52333074  0.48103982  0.21105139  1
  O  O30  1  0.59464814  0.20982235  0.65394236  1
  O  O31  1  0.31256346  0.13077957  0.45315862  1
  O  O32  1  0.00501058  0.61487611  0.64217318  1
  O  O33  1  0.06372492  0.45685067  0.84956678  1
  O  O34  1  0.32981276  0.53593925  0.55077002  1
  O  O35  1  0.71293514  0.83057988  0.15399382  1
  O  O36  1  0.09903689  0.79991605  0.47363550  1
  O  O37  1  0.71543217  0.13034832  0.33052641  1
  O  O38  1  0.93627508  0.54314933  0.15043322  1
  O  O39  1  0.39953515  0.80447525  0.94199360  1
  O  O40  1  0.98829317  0.17724023  0.95626610  1
  O  O41  1  0.90914438  0.06588945  0.70814161  1
  O  O42  1  0.90096311  0.20008395  0.52636450  1
  O  O43  1  0.28456783  0.86965168  0.66947359  1
