# generated using pymatgen
data_Li2NiO3
_symmetry_space_group_name_H-M   'P 1'
_cell_length_a   4.89576248
_cell_length_b   4.89576305
_cell_length_c   5.00384506
_cell_angle_alpha   99.44449799
_cell_angle_beta   99.44449909
_cell_angle_gamma   119.95294784
_symmetry_Int_Tables_number   1
_chemical_formula_structural   Li2NiO3
_chemical_formula_sum   'Li4 Ni2 O6'
_cell_volume   98.16855935
_cell_formula_units_Z   2
loop_
 _symmetry_equiv_pos_site_id
 _symmetry_equiv_pos_as_xyz
  1  'x, y, z'
loop_
 _atom_site_type_symbol
 _atom_site_label
 _atom_site_symmetry_multiplicity
 _atom_site_fract_x
 _atom_site_fract_y
 _atom_site_fract_z
 _atom_site_occupancy
  Li  Li0  1  0.33773685  0.66226315  0.50000000  1
  Li  Li1  1  0.00000000  0.00000000  0.50000000  1
  Li  Li2  1  0.66226315  0.33773685  0.50000000  1
  Li  Li3  1  0.50000000  0.50000000  0.00000000  1
  Ni  Ni4  1  0.16685484  0.83314516  0.00000000  1
  Ni  Ni5  1  0.83314516  0.16685484  1.00000000  1
  O  O6  1  0.57329063  0.93204729  0.22099865  1
  O  O7  1  0.42670937  0.06795271  0.77900135  1
  O  O8  1  0.78349426  0.78349426  0.77561052  1
  O  O9  1  0.93204729  0.57329063  0.22099865  1
  O  O10  1  0.06795271  0.42670937  0.77900135  1
  O  O11  1  0.21650574  0.21650574  0.22438948  1
