# generated using pymatgen
data_VSnPO5
_symmetry_space_group_name_H-M   'P 1'
_cell_length_a   5.35320418
_cell_length_b   6.61942831
_cell_length_c   6.96485025
_cell_angle_alpha   113.01241493
_cell_angle_beta   107.44448241
_cell_angle_gamma   95.14357502
_symmetry_Int_Tables_number   1
_chemical_formula_structural   VSnPO5
_chemical_formula_sum   'V2 Sn2 P2 O10'
_cell_volume   210.61407794
_cell_formula_units_Z   2
loop_
 _symmetry_equiv_pos_site_id
 _symmetry_equiv_pos_as_xyz
  1  'x, y, z'
loop_
 _atom_site_type_symbol
 _atom_site_label
 _atom_site_symmetry_multiplicity
 _atom_site_fract_x
 _atom_site_fract_y
 _atom_site_fract_z
 _atom_site_occupancy
  V  V0  1  0.84017794  0.36612729  0.23927821  1
  V  V1  1  0.15982206  0.63387271  0.76072179  1
  Sn  Sn2  1  0.40275899  0.21940920  0.45853223  1
  Sn  Sn3  1  0.59724101  0.78059080  0.54146777  1
  P  P4  1  0.82481350  0.80830721  0.10367695  1
  P  P5  1  0.17518650  0.19169279  0.89632305  1
  O  O6  1  0.22352513  0.50062073  0.46369013  1
  O  O7  1  0.89949469  0.06476313  0.26899987  1
  O  O8  1  0.93125889  0.25238922  0.96401539  1
  O  O9  1  0.06874111  0.74761078  0.03598461  1
  O  O10  1  0.10050531  0.93523687  0.73100013  1
  O  O11  1  0.76324721  0.66714084  0.22421082  1
  O  O12  1  0.23675279  0.33285916  0.77578918  1
  O  O13  1  0.57421612  0.76091824  0.89382010  1
  O  O14  1  0.77647487  0.49937927  0.53630987  1
  O  O15  1  0.42578388  0.23908176  0.10617990  1
