# generated using pymatgen
data_Ni5Sn(BO5)2
_symmetry_space_group_name_H-M   'P 1'
_cell_length_a   6.17630424
_cell_length_b   9.39444665
_cell_length_c   12.40123528
_cell_angle_alpha   90.00000000
_cell_angle_beta   90.00000000
_cell_angle_gamma   90.00000000
_symmetry_Int_Tables_number   1
_chemical_formula_structural   Ni5Sn(BO5)2
_chemical_formula_sum   'Ni20 Sn4 B8 O40'
_cell_volume   719.55638700
_cell_formula_units_Z   4
loop_
 _symmetry_equiv_pos_site_id
 _symmetry_equiv_pos_as_xyz
  1  'x, y, z'
loop_
 _atom_site_type_symbol
 _atom_site_label
 _atom_site_symmetry_multiplicity
 _atom_site_fract_x
 _atom_site_fract_y
 _atom_site_fract_z
 _atom_site_occupancy
  Ni  Ni0  1  0.25000000  0.25947448  0.11419397  1
  Ni  Ni1  1  0.75000000  0.49064889  0.50054882  1
  Ni  Ni2  1  0.75000000  0.24052552  0.61419397  1
  Ni  Ni3  1  0.99538858  0.00351533  0.78194161  1
  Ni  Ni4  1  0.75000000  0.99064889  0.99945118  1
  Ni  Ni5  1  0.49538858  0.99648467  0.21805839  1
  Ni  Ni6  1  0.50461142  0.50351533  0.71805839  1
  Ni  Ni7  1  0.49538858  0.49648467  0.28194161  1
  Ni  Ni8  1  0.25000000  0.75947448  0.38580603  1
  Ni  Ni9  1  0.00461142  0.99648467  0.21805839  1
  Ni  Ni10  1  0.25000000  0.50935111  0.49945118  1
  Ni  Ni11  1  0.00461142  0.49648467  0.28194161  1
  Ni  Ni12  1  0.50461142  0.00351533  0.78194161  1
  Ni  Ni13  1  0.00000000  0.50000000  0.00000000  1
  Ni  Ni14  1  0.99538858  0.50351533  0.71805839  1
  Ni  Ni15  1  0.75000000  0.74052552  0.88580603  1
  Ni  Ni16  1  0.25000000  0.00935111  0.00054882  1
  Ni  Ni17  1  0.00000000  0.00000000  0.50000000  1
  Ni  Ni18  1  0.50000000  0.00000000  0.50000000  1
  Ni  Ni19  1  0.50000000  0.50000000  0.00000000  1
  Sn  Sn20  1  0.25000000  0.24098513  0.61634925  1
  Sn  Sn21  1  0.25000000  0.74098513  0.88365075  1
  Sn  Sn22  1  0.75000000  0.75901487  0.38365075  1
  Sn  Sn23  1  0.75000000  0.25901487  0.11634925  1
  B  B24  1  0.75000000  0.27308394  0.85744602  1
  B  B25  1  0.25000000  0.27823405  0.86370014  1
  B  B26  1  0.25000000  0.72691606  0.14255398  1
  B  B27  1  0.25000000  0.77823405  0.63629986  1
  B  B28  1  0.25000000  0.22691606  0.35744602  1
  B  B29  1  0.75000000  0.22176595  0.36370014  1
  B  B30  1  0.75000000  0.72176595  0.13629986  1
  B  B31  1  0.75000000  0.77308394  0.64255398  1
  O  O32  1  0.00940018  0.89013034  0.92146862  1
  O  O33  1  0.50019247  0.10496668  0.64270246  1
  O  O34  1  0.75000000  0.62533545  0.64118727  1
  O  O35  1  0.49059982  0.39013034  0.57853138  1
  O  O36  1  0.25000000  0.63126467  0.64125893  1
  O  O37  1  0.25000000  0.15023528  0.45560220  1
  O  O38  1  0.50019247  0.60496668  0.85729754  1
  O  O39  1  0.99059982  0.60986966  0.42146862  1
  O  O40  1  0.75000000  0.84976472  0.54439780  1
  O  O41  1  0.75000000  0.34950188  0.76234902  1
  O  O42  1  0.75000000  0.64481261  0.23406452  1
  O  O43  1  0.50940018  0.10986966  0.07853138  1
  O  O44  1  0.25000000  0.85518739  0.73406452  1
  O  O45  1  0.25000000  0.37466455  0.35881273  1
  O  O46  1  0.00019247  0.39503332  0.14270246  1
  O  O47  1  0.25000000  0.87466455  0.14118727  1
  O  O48  1  0.25000000  0.35518739  0.76593548  1
  O  O49  1  0.75000000  0.64675301  0.04071418  1
  O  O50  1  0.75000000  0.14481261  0.26593548  1
  O  O51  1  0.49980753  0.39503332  0.14270246  1
  O  O52  1  0.75000000  0.34976472  0.95560220  1
  O  O53  1  0.99980753  0.60496668  0.85729754  1
  O  O54  1  0.00940018  0.39013034  0.57853138  1
  O  O55  1  0.99980753  0.10496668  0.64270246  1
  O  O56  1  0.49980753  0.89503332  0.35729754  1
  O  O57  1  0.25000000  0.15049812  0.26234902  1
  O  O58  1  0.00019247  0.89503332  0.35729754  1
  O  O59  1  0.50940018  0.60986966  0.42146862  1
  O  O60  1  0.25000000  0.65049812  0.23765098  1
  O  O61  1  0.75000000  0.14675301  0.45928582  1
  O  O62  1  0.49059982  0.89013034  0.92146862  1
  O  O63  1  0.99059982  0.10986966  0.07853138  1
  O  O64  1  0.75000000  0.86873533  0.14125893  1
  O  O65  1  0.25000000  0.65023528  0.04439780  1
  O  O66  1  0.25000000  0.13126467  0.85874107  1
  O  O67  1  0.75000000  0.36873533  0.35874107  1
  O  O68  1  0.25000000  0.35324699  0.95928582  1
  O  O69  1  0.75000000  0.84950188  0.73765098  1
  O  O70  1  0.25000000  0.85324699  0.54071418  1
  O  O71  1  0.75000000  0.12533545  0.85881273  1
