# generated using pymatgen
data_LiFeP
_symmetry_space_group_name_H-M   'P 1'
_cell_length_a   3.68613543
_cell_length_b   3.75363934
_cell_length_c   5.96623274
_cell_angle_alpha   90.00000000
_cell_angle_beta   107.99394563
_cell_angle_gamma   90.00000000
_symmetry_Int_Tables_number   1
_chemical_formula_structural   LiFeP
_chemical_formula_sum   'Li2 Fe2 P2'
_cell_volume   78.51366564
_cell_formula_units_Z   2
loop_
 _symmetry_equiv_pos_site_id
 _symmetry_equiv_pos_as_xyz
  1  'x, y, z'
loop_
 _atom_site_type_symbol
 _atom_site_label
 _atom_site_symmetry_multiplicity
 _atom_site_fract_x
 _atom_site_fract_y
 _atom_site_fract_z
 _atom_site_occupancy
  Li  Li0  1  0.08122673  0.75000000  0.16245347  1
  Li  Li1  1  0.91877327  0.25000000  0.83754653  1
  Fe  Fe2  1  0.75124836  0.75000000  0.50249673  1
  Fe  Fe3  1  0.24875164  0.25000000  0.49750327  1
  P  P4  1  0.35514853  0.75000000  0.71029706  1
  P  P5  1  0.64485147  0.25000000  0.28970294  1
