# generated using pymatgen
data_RbMnVO4
_symmetry_space_group_name_H-M   'P 1'
_cell_length_a   11.50845341
_cell_length_b   11.50845267
_cell_length_c   9.20844003
_cell_angle_alpha   90.00000000
_cell_angle_beta   90.00000000
_cell_angle_gamma   120.00000214
_symmetry_Int_Tables_number   1
_chemical_formula_structural   RbMnVO4
_chemical_formula_sum   'Rb8 Mn8 V8 O32'
_cell_volume   1056.21075700
_cell_formula_units_Z   8
loop_
 _symmetry_equiv_pos_site_id
 _symmetry_equiv_pos_as_xyz
  1  'x, y, z'
loop_
 _atom_site_type_symbol
 _atom_site_label
 _atom_site_symmetry_multiplicity
 _atom_site_fract_x
 _atom_site_fract_y
 _atom_site_fract_z
 _atom_site_occupancy
  Rb  Rb0  1  0.00000000  0.00000000  0.38620736  1
  Rb  Rb1  1  0.00000000  0.00000000  0.88620736  1
  Rb  Rb2  1  0.47252497  0.51735353  0.40053476  1
  Rb  Rb3  1  0.95517243  0.47252497  0.90053476  1
  Rb  Rb4  1  0.48264647  0.95517243  0.40053476  1
  Rb  Rb5  1  0.52747503  0.48264647  0.90053476  1
  Rb  Rb6  1  0.04482757  0.52747503  0.40053476  1
  Rb  Rb7  1  0.51735353  0.04482757  0.90053476  1
  Mn  Mn8  1  0.83503568  0.16424595  0.20357961  1
  Mn  Mn9  1  0.83575405  0.67078974  0.20357961  1
  Mn  Mn10  1  0.67078974  0.83503568  0.70357961  1
  Mn  Mn11  1  0.16424595  0.32921026  0.70357961  1
  Mn  Mn12  1  0.66666700  0.33333300  0.56793316  1
  Mn  Mn13  1  0.32921026  0.16496432  0.20357961  1
  Mn  Mn14  1  0.33333300  0.66666700  0.06793316  1
  Mn  Mn15  1  0.16496432  0.83575405  0.70357961  1
  V  V16  1  0.17266483  0.84018682  0.09524108  1
  V  V17  1  0.82733517  0.15981318  0.59524108  1
  V  V18  1  0.33247801  0.17266483  0.59524108  1
  V  V19  1  0.66752199  0.82733517  0.09524108  1
  V  V20  1  0.66666700  0.33333300  0.15955827  1
  V  V21  1  0.15981318  0.33247801  0.09524108  1
  V  V22  1  0.33333300  0.66666700  0.65955827  1
  V  V23  1  0.84018682  0.66752199  0.59524108  1
  O  O24  1  0.23215903  0.50398924  0.59188396  1
  O  O25  1  0.30741698  0.48405788  0.13394495  1
  O  O26  1  0.81879597  0.80606047  0.62194409  1
  O  O27  1  0.50398924  0.27183021  0.09188396  1
  O  O28  1  0.01273550  0.81879597  0.12194409  1
  O  O29  1  0.66718643  0.78102553  0.91506018  1
  O  O30  1  0.28920682  0.97108917  0.20422039  1
  O  O31  1  0.27183021  0.76784097  0.59188396  1
  O  O32  1  0.72816979  0.23215903  0.09188396  1
  O  O33  1  0.82335910  0.30741698  0.63394495  1
  O  O34  1  0.66666700  0.33333300  0.34667813  1
  O  O35  1  0.78102553  0.11383810  0.41506018  1
  O  O36  1  0.02891083  0.31811665  0.20422039  1
  O  O37  1  0.33333300  0.66666700  0.84667813  1
  O  O38  1  0.88616190  0.66718643  0.41506018  1
  O  O39  1  0.31811665  0.28920682  0.70422039  1
  O  O40  1  0.48405788  0.17664090  0.63394495  1
  O  O41  1  0.33281357  0.21897447  0.41506018  1
  O  O42  1  0.21897447  0.88616190  0.91506018  1
  O  O43  1  0.76784097  0.49601076  0.09188396  1
  O  O44  1  0.68188335  0.71079318  0.20422039  1
  O  O45  1  0.51594212  0.82335910  0.13394495  1
  O  O46  1  0.98726450  0.18120403  0.62194409  1
  O  O47  1  0.80606047  0.98726450  0.12194409  1
  O  O48  1  0.49601076  0.72816979  0.59188396  1
  O  O49  1  0.18120403  0.19393953  0.12194409  1
  O  O50  1  0.71079318  0.02891083  0.70422039  1
  O  O51  1  0.97108917  0.68188335  0.70422039  1
  O  O52  1  0.69258302  0.51594212  0.63394495  1
  O  O53  1  0.11383810  0.33281357  0.91506018  1
  O  O54  1  0.19393953  0.01273550  0.62194409  1
  O  O55  1  0.17664090  0.69258302  0.13394495  1
