# generated using pymatgen
data_K2Mn2P2O7F2
_symmetry_space_group_name_H-M   'P 1'
_cell_length_a   6.99333493
_cell_length_b   10.81134731
_cell_length_c   11.46570120
_cell_angle_alpha   90.00000000
_cell_angle_beta   90.00000000
_cell_angle_gamma   90.00000000
_symmetry_Int_Tables_number   1
_chemical_formula_structural   K2Mn2P2O7F2
_chemical_formula_sum   'K8 Mn8 P8 O28 F8'
_cell_volume   866.89154485
_cell_formula_units_Z   4
loop_
 _symmetry_equiv_pos_site_id
 _symmetry_equiv_pos_as_xyz
  1  'x, y, z'
loop_
 _atom_site_type_symbol
 _atom_site_label
 _atom_site_symmetry_multiplicity
 _atom_site_fract_x
 _atom_site_fract_y
 _atom_site_fract_z
 _atom_site_occupancy
  K  K0  1  0.50006346  0.56381256  0.82674216  1
  K  K1  1  0.00006346  0.43618744  0.67325784  1
  K  K2  1  0.50006346  0.06381256  0.17325784  1
  K  K3  1  0.49993654  0.43618744  0.17325784  1
  K  K4  1  0.00006346  0.93618744  0.32674216  1
  K  K5  1  0.99993654  0.56381256  0.32674216  1
  K  K6  1  0.99993654  0.06381256  0.67325784  1
  K  K7  1  0.49993654  0.93618744  0.82674216  1
  Mn  Mn8  1  0.50000000  0.25000000  0.66550521  1
  Mn  Mn9  1  0.50000000  0.75000000  0.33449479  1
  Mn  Mn10  1  0.00000000  0.50000000  0.00000000  1
  Mn  Mn11  1  0.00000000  0.25000000  0.16550521  1
  Mn  Mn12  1  0.00000000  0.00000000  0.00000000  1
  Mn  Mn13  1  0.00000000  0.75000000  0.83449479  1
  Mn  Mn14  1  0.50000000  0.00000000  0.50000000  1
  Mn  Mn15  1  0.50000000  0.50000000  0.50000000  1
  P  P16  1  0.78423721  0.74861756  0.57825805  1
  P  P17  1  0.21576279  0.25138244  0.42174195  1
  P  P18  1  0.28423721  0.25138244  0.92174195  1
  P  P19  1  0.71576279  0.24861756  0.92174195  1
  P  P20  1  0.71576279  0.74861756  0.07825805  1
  P  P21  1  0.78423721  0.24861756  0.42174195  1
  P  P22  1  0.28423721  0.75138244  0.07825805  1
  P  P23  1  0.21576279  0.75138244  0.57825805  1
  O  O24  1  0.00000000  0.75000000  0.51965099  1
  O  O25  1  0.77593374  0.11289129  0.91598111  1
  O  O26  1  0.20247194  0.68966927  0.69827652  1
  O  O27  1  0.67474560  0.32667234  0.51289454  1
  O  O28  1  0.70247194  0.31033073  0.80172348  1
  O  O29  1  0.82525440  0.82667234  0.98710546  1
  O  O30  1  0.72406626  0.11289129  0.41598111  1
  O  O31  1  0.67474560  0.82667234  0.48710546  1
  O  O32  1  0.72406626  0.61289129  0.58401889  1
  O  O33  1  0.50000000  0.75000000  0.01965099  1
  O  O34  1  0.32525440  0.67332766  0.48710546  1
  O  O35  1  0.27593374  0.88710871  0.58401889  1
  O  O36  1  0.22406626  0.38710871  0.91598111  1
  O  O37  1  0.17474560  0.67332766  0.98710546  1
  O  O38  1  0.32525440  0.17332766  0.51289454  1
  O  O39  1  0.70247194  0.81033073  0.19827652  1
  O  O40  1  0.79752806  0.31033073  0.30172348  1
  O  O41  1  0.00000000  0.25000000  0.48034901  1
  O  O42  1  0.29752806  0.18966927  0.80172348  1
  O  O43  1  0.29752806  0.68966927  0.19827652  1
  O  O44  1  0.27593374  0.38710871  0.41598111  1
  O  O45  1  0.20247194  0.18966927  0.30172348  1
  O  O46  1  0.82525440  0.32667234  0.01289454  1
  O  O47  1  0.50000000  0.25000000  0.98034901  1
  O  O48  1  0.79752806  0.81033073  0.69827652  1
  O  O49  1  0.77593374  0.61289129  0.08401889  1
  O  O50  1  0.22406626  0.88710871  0.08401889  1
  O  O51  1  0.17474560  0.17332766  0.01289454  1
  F  F52  1  0.11660006  0.92891934  0.84357329  1
  F  F53  1  0.38339994  0.92891934  0.34357329  1
  F  F54  1  0.38339994  0.42891934  0.65642671  1
  F  F55  1  0.88339994  0.07108066  0.15642671  1
  F  F56  1  0.11660006  0.42891934  0.15642671  1
  F  F57  1  0.61660006  0.07108066  0.65642671  1
  F  F58  1  0.61660006  0.57108066  0.34357329  1
  F  F59  1  0.88339994  0.57108066  0.84357329  1
