# generated using pymatgen
data_KLiCrO4
_symmetry_space_group_name_H-M   'P 1'
_cell_length_a   5.27739927
_cell_length_b   8.48916656
_cell_length_c   19.76541631
_cell_angle_alpha   90.00000000
_cell_angle_beta   90.00000000
_cell_angle_gamma   90.00000000
_symmetry_Int_Tables_number   1
_chemical_formula_structural   KLiCrO4
_chemical_formula_sum   'K8 Li8 Cr8 O32'
_cell_volume   885.50490959
_cell_formula_units_Z   8
loop_
 _symmetry_equiv_pos_site_id
 _symmetry_equiv_pos_as_xyz
  1  'x, y, z'
loop_
 _atom_site_type_symbol
 _atom_site_label
 _atom_site_symmetry_multiplicity
 _atom_site_fract_x
 _atom_site_fract_y
 _atom_site_fract_z
 _atom_site_occupancy
  K  K0  1  0.79417550  0.48139613  0.23529467  1
  K  K1  1  0.76756024  0.17420155  0.05221119  1
  K  K2  1  0.26756024  0.32579845  0.55221119  1
  K  K3  1  0.26756024  0.82579845  0.94778881  1
  K  K4  1  0.76756024  0.67420155  0.44778881  1
  K  K5  1  0.79417550  0.98139613  0.26470533  1
  K  K6  1  0.29417550  0.01860387  0.73529467  1
  K  K7  1  0.29417550  0.51860387  0.76470533  1
  Li  Li8  1  0.24665850  0.49807229  0.05671027  1
  Li  Li9  1  0.24692641  0.30842405  0.34489460  1
  Li  Li10  1  0.74692641  0.19157595  0.84489460  1
  Li  Li11  1  0.74692641  0.69157595  0.65510540  1
  Li  Li12  1  0.24665850  0.99807229  0.44328973  1
  Li  Li13  1  0.74665850  0.00192771  0.55671027  1
  Li  Li14  1  0.74665850  0.50192771  0.94328973  1
  Li  Li15  1  0.24692641  0.80842405  0.15510540  1
  Cr  Cr16  1  0.74841077  0.79514361  0.82256119  1
  Cr  Cr17  1  0.24841077  0.20485639  0.17743881  1
  Cr  Cr18  1  0.25050356  0.78275731  0.57227203  1
  Cr  Cr19  1  0.24841077  0.70485639  0.32256119  1
  Cr  Cr20  1  0.75050356  0.71724269  0.07227203  1
  Cr  Cr21  1  0.25050356  0.28275731  0.92772797  1
  Cr  Cr22  1  0.74841077  0.29514361  0.67743881  1
  Cr  Cr23  1  0.75050356  0.21724269  0.42772797  1
  O  O24  1  0.61719108  0.55512826  0.03792496  1
  O  O25  1  0.20448964  0.13396961  0.97957523  1
  O  O26  1  0.63794487  0.76335336  0.74451002  1
  O  O27  1  0.06507110  0.19201528  0.41861032  1
  O  O28  1  0.11618053  0.24554493  0.85356245  1
  O  O29  1  0.14274673  0.34650763  0.12577783  1
  O  O30  1  0.11618053  0.74554493  0.64643755  1
  O  O31  1  0.13794487  0.23664664  0.25548998  1
  O  O32  1  0.61618053  0.25445507  0.35356245  1
  O  O33  1  0.64159127  0.96917711  0.84921108  1
  O  O34  1  0.64274673  0.15349237  0.62577783  1
  O  O35  1  0.56507110  0.30798472  0.91861032  1
  O  O36  1  0.13794487  0.73664664  0.24451002  1
  O  O37  1  0.06507110  0.69201528  0.08138968  1
  O  O38  1  0.14159127  0.53082289  0.34921108  1
  O  O39  1  0.63794487  0.26335336  0.75548998  1
  O  O40  1  0.61719108  0.05512826  0.46207504  1
  O  O41  1  0.14159127  0.03082289  0.15078892  1
  O  O42  1  0.56507110  0.80798472  0.58138968  1
  O  O43  1  0.64274673  0.65349237  0.87422217  1
  O  O44  1  0.06164981  0.29438522  0.67873429  1
  O  O45  1  0.14274673  0.84650763  0.37422217  1
  O  O46  1  0.70448964  0.86603039  0.02042477  1
  O  O47  1  0.70448964  0.36603039  0.47957523  1
  O  O48  1  0.11719108  0.44487174  0.96207504  1
  O  O49  1  0.11719108  0.94487174  0.53792496  1
  O  O50  1  0.61618053  0.75445507  0.14643755  1
  O  O51  1  0.06164981  0.79438522  0.82126571  1
  O  O52  1  0.56164981  0.70561478  0.32126571  1
  O  O53  1  0.64159127  0.46917711  0.65078892  1
  O  O54  1  0.20448964  0.63396961  0.52042477  1
  O  O55  1  0.56164981  0.20561478  0.17873429  1
