# generated using pymatgen
data_Pr3BWO9
_symmetry_space_group_name_H-M   'P 1'
_cell_length_a   8.84978607
_cell_length_b   8.84978606
_cell_length_c   5.63099896
_cell_angle_alpha   90.00000000
_cell_angle_beta   90.00000000
_cell_angle_gamma   119.99999999
_symmetry_Int_Tables_number   1
_chemical_formula_structural   Pr3BWO9
_chemical_formula_sum   'Pr6 B2 W2 O18'
_cell_volume   381.92810947
_cell_formula_units_Z   2
loop_
 _symmetry_equiv_pos_site_id
 _symmetry_equiv_pos_as_xyz
  1  'x, y, z'
loop_
 _atom_site_type_symbol
 _atom_site_label
 _atom_site_symmetry_multiplicity
 _atom_site_fract_x
 _atom_site_fract_y
 _atom_site_fract_z
 _atom_site_occupancy
  Pr  Pr0  1  0.72467828  0.64284088  0.20157799  1
  Pr  Pr1  1  0.27532172  0.35715912  0.70157799  1
  Pr  Pr2  1  0.64284088  0.91816260  0.70157799  1
  Pr  Pr3  1  0.91816260  0.27532172  0.20157799  1
  Pr  Pr4  1  0.35715912  0.08183740  0.20157799  1
  Pr  Pr5  1  0.08183740  0.72467828  0.70157799  1
  B  B6  1  0.00000000  0.00000000  0.86458476  1
  B  B7  1  0.00000000  0.00000000  0.36458476  1
  W  W8  1  0.66666700  0.33333300  0.74435844  1
  W  W9  1  0.33333300  0.66666700  0.24435844  1
  O  O10  1  0.87249701  0.82563382  0.85673722  1
  O  O11  1  0.04686318  0.87249701  0.35673722  1
  O  O12  1  0.17436618  0.04686318  0.85673722  1
  O  O13  1  0.46838667  0.26416970  0.54148195  1
  O  O14  1  0.86306559  0.48003912  0.96695510  1
  O  O15  1  0.73583030  0.20421696  0.54148195  1
  O  O16  1  0.12750299  0.17436618  0.35673722  1
  O  O17  1  0.20421696  0.46838667  0.04148195  1
  O  O18  1  0.48003912  0.61697353  0.46695510  1
  O  O19  1  0.79578304  0.53161333  0.54148195  1
  O  O20  1  0.61697353  0.13693441  0.96695510  1
  O  O21  1  0.38302647  0.86306559  0.46695510  1
  O  O22  1  0.82563382  0.95313682  0.35673722  1
  O  O23  1  0.51996088  0.38302647  0.96695510  1
  O  O24  1  0.95313682  0.12750299  0.85673722  1
  O  O25  1  0.26416970  0.79578304  0.04148195  1
  O  O26  1  0.53161333  0.73583030  0.04148195  1
  O  O27  1  0.13693441  0.51996088  0.46695510  1
