# generated using pymatgen
data_NaTbMnWO6
_symmetry_space_group_name_H-M   'P 1'
_cell_length_a   5.48310960
_cell_length_b   5.67384904
_cell_length_c   8.00799318
_cell_angle_alpha   90.00000000
_cell_angle_beta   90.03571737
_cell_angle_gamma   90.00000000
_symmetry_Int_Tables_number   1
_chemical_formula_structural   NaTbMnWO6
_chemical_formula_sum   'Na2 Tb2 Mn2 W2 O12'
_cell_volume   249.13131129
_cell_formula_units_Z   2
loop_
 _symmetry_equiv_pos_site_id
 _symmetry_equiv_pos_as_xyz
  1  'x, y, z'
loop_
 _atom_site_type_symbol
 _atom_site_label
 _atom_site_symmetry_multiplicity
 _atom_site_fract_x
 _atom_site_fract_y
 _atom_site_fract_z
 _atom_site_occupancy
  Tb  Tb0  1  0.73469131  0.79055932  0.49850712  1
  Tb  Tb1  1  0.26530869  0.29055932  0.50149288  1
  Na  Na2  1  0.74883922  0.69406767  0.99905831  1
  Na  Na3  1  0.25116078  0.19406767  0.00094169  1
  Mn  Mn4  1  0.24799259  0.73454900  0.75821591  1
  Mn  Mn5  1  0.75200741  0.23454900  0.24178409  1
  W  W6  1  0.23828896  0.72476742  0.24382502  1
  W  W7  1  0.76171104  0.22476742  0.75617498  1
  O  O8  1  0.91073393  0.92025127  0.78279654  1
  O  O9  1  0.53036358  0.53317733  0.32013065  1
  O  O10  1  0.46963642  0.03317733  0.67986935  1
  O  O11  1  0.93956526  0.89189878  0.22531174  1
  O  O12  1  0.43334511  0.00015570  0.32162014  1
  O  O13  1  0.66994487  0.26228247  0.97968642  1
  O  O14  1  0.56665489  0.50015570  0.67837986  1
  O  O15  1  0.33005513  0.76228247  0.02031358  1
  O  O16  1  0.08926607  0.42025127  0.21720346  1
  O  O17  1  0.06043474  0.39189878  0.77468826  1
  O  O18  1  0.86321143  0.18389104  0.50694047  1
  O  O19  1  0.13678857  0.68389104  0.49305953  1
