# generated using pymatgen
data_Eu3BWO9
_symmetry_space_group_name_H-M   'P 1'
_cell_length_a   8.82343094
_cell_length_b   8.82343084
_cell_length_c   5.53684299
_cell_angle_alpha   90.00000000
_cell_angle_beta   90.00000000
_cell_angle_gamma   120.00000041
_symmetry_Int_Tables_number   1
_chemical_formula_structural   Eu3BWO9
_chemical_formula_sum   'Eu6 B2 W2 O18'
_cell_volume   373.30844529
_cell_formula_units_Z   2
loop_
 _symmetry_equiv_pos_site_id
 _symmetry_equiv_pos_as_xyz
  1  'x, y, z'
loop_
 _atom_site_type_symbol
 _atom_site_label
 _atom_site_symmetry_multiplicity
 _atom_site_fract_x
 _atom_site_fract_y
 _atom_site_fract_z
 _atom_site_occupancy
  Eu  Eu0  1  0.71934365  0.07568986  0.20814518  1
  Eu  Eu1  1  0.35634621  0.28065635  0.20814518  1
  Eu  Eu2  1  0.07568986  0.35634621  0.70814518  1
  Eu  Eu3  1  0.28065635  0.92431014  0.70814518  1
  Eu  Eu4  1  0.64365379  0.71934365  0.70814518  1
  Eu  Eu5  1  0.92431014  0.64365379  0.20814518  1
  B  B6  1  0.00000000  0.00000000  0.87788318  1
  B  B7  1  0.00000000  0.00000000  0.37788318  1
  W  W8  1  0.66666700  0.33333300  0.74852578  1
  W  W9  1  0.33333300  0.66666700  0.24852578  1
  O  O10  1  0.79497673  0.26173650  0.54071007  1
  O  O11  1  0.13513035  0.61185004  0.46761492  1
  O  O12  1  0.05594816  0.17650487  0.37119351  1
  O  O13  1  0.73826350  0.53324023  0.54071007  1
  O  O14  1  0.94405184  0.82349513  0.87119351  1
  O  O15  1  0.87944329  0.05594816  0.87119351  1
  O  O16  1  0.38814996  0.52328030  0.46761492  1
  O  O17  1  0.53324023  0.79497673  0.04071007  1
  O  O18  1  0.20502327  0.73826350  0.04071007  1
  O  O19  1  0.17650487  0.12055671  0.87119351  1
  O  O20  1  0.46675977  0.20502327  0.54071007  1
  O  O21  1  0.47671970  0.86486965  0.46761492  1
  O  O22  1  0.52328030  0.13513035  0.96761492  1
  O  O23  1  0.86486965  0.38814996  0.96761492  1
  O  O24  1  0.26173650  0.46675977  0.04071007  1
  O  O25  1  0.61185004  0.47671970  0.96761492  1
  O  O26  1  0.12055671  0.94405184  0.37119351  1
  O  O27  1  0.82349513  0.87944329  0.37119351  1
