# generated using pymatgen
data_KV3Cd4O12
_symmetry_space_group_name_H-M   'P 1'
_cell_length_a   7.20575150
_cell_length_b   9.52290465
_cell_length_c   9.52290446
_cell_angle_alpha   92.45774035
_cell_angle_beta   107.11334635
_cell_angle_gamma   107.11334701
_symmetry_Int_Tables_number   1
_chemical_formula_structural   KV3Cd4O12
_chemical_formula_sum   'K2 V6 Cd8 O24'
_cell_volume   590.84854433
_cell_formula_units_Z   2
loop_
 _symmetry_equiv_pos_site_id
 _symmetry_equiv_pos_as_xyz
  1  'x, y, z'
loop_
 _atom_site_type_symbol
 _atom_site_label
 _atom_site_symmetry_multiplicity
 _atom_site_fract_x
 _atom_site_fract_y
 _atom_site_fract_z
 _atom_site_occupancy
  K  K0  1  0.24897014  0.03131341  0.96752166  1
  K  K1  1  0.74897014  0.96752166  0.03131341  1
  V  V2  1  0.86302079  0.65287469  0.86963435  1
  V  V3  1  0.63650090  0.12080648  0.34491577  1
  V  V4  1  0.74922796  0.70121166  0.29543737  1
  V  V5  1  0.13650090  0.34491577  0.12080648  1
  V  V6  1  0.24922796  0.29543737  0.70121166  1
  V  V7  1  0.36302079  0.86963435  0.65287469  1
  Cd  Cd8  1  0.74238808  0.26152947  0.73118749  1
  Cd  Cd9  1  0.96207403  0.51075289  0.52361717  1
  Cd  Cd10  1  0.24238808  0.73118749  0.26152947  1
  Cd  Cd11  1  0.64721616  0.37773242  0.06168082  1
  Cd  Cd12  1  0.46207403  0.52361717  0.51075289  1
  Cd  Cd13  1  0.85339000  0.93719940  0.61595349  1
  Cd  Cd14  1  0.35339000  0.61595349  0.93719940  1
  Cd  Cd15  1  0.14721616  0.06168082  0.37773242  1
  O  O16  1  0.62052733  0.16905786  0.17047594  1
  O  O17  1  0.21121066  0.48075242  0.27834645  1
  O  O18  1  0.29194617  0.70310762  0.52278481  1
  O  O19  1  0.37630355  0.82558874  0.82788956  1
  O  O20  1  0.46878822  0.26702440  0.81757224  1
  O  O21  1  0.59808999  0.00303843  0.66887348  1
  O  O22  1  0.72834198  0.71187381  0.47617911  1
  O  O23  1  0.79194617  0.52278481  0.70310762  1
  O  O24  1  0.32032654  0.39039982  0.03167490  1
  O  O25  1  0.96878822  0.81757224  0.26702440  1
  O  O26  1  0.09808999  0.66887348  0.00303843  1
  O  O27  1  0.22834198  0.47617911  0.71187381  1
  O  O28  1  0.39920555  0.98764226  0.32992858  1
  O  O29  1  0.12052733  0.17047594  0.16905786  1
  O  O30  1  0.27352785  0.28242086  0.52364636  1
  O  O31  1  0.67540216  0.60018011  0.95320851  1
  O  O32  1  0.03014195  0.17778212  0.72718306  1
  O  O33  1  0.17540216  0.95320851  0.60018011  1
  O  O34  1  0.87630355  0.82788956  0.82558874  1
  O  O35  1  0.77352785  0.52364636  0.28242086  1
  O  O36  1  0.82032654  0.03167490  0.39039982  1
  O  O37  1  0.89920555  0.32992858  0.98764226  1
  O  O38  1  0.53014195  0.72718306  0.17778212  1
  O  O39  1  0.71121066  0.27834645  0.48075242  1
