# generated using pymatgen
data_K2LiVO4
_symmetry_space_group_name_H-M   'P 1'
_cell_length_a   5.78535634
_cell_length_b   5.78535565
_cell_length_c   7.63082730
_cell_angle_alpha   89.71380255
_cell_angle_beta   89.71380255
_cell_angle_gamma   85.71945170
_symmetry_Int_Tables_number   1
_chemical_formula_structural   K2LiVO4
_chemical_formula_sum   'K4 Li2 V2 O8'
_cell_volume   254.68805303
_cell_formula_units_Z   2
loop_
 _symmetry_equiv_pos_site_id
 _symmetry_equiv_pos_as_xyz
  1  'x, y, z'
loop_
 _atom_site_type_symbol
 _atom_site_label
 _atom_site_symmetry_multiplicity
 _atom_site_fract_x
 _atom_site_fract_y
 _atom_site_fract_z
 _atom_site_occupancy
  K  K0  1  0.70289850  0.70289850  0.82234222  1
  K  K1  1  0.78147932  0.21852068  0.50000000  1
  K  K2  1  0.29710150  0.29710150  0.17765778  1
  K  K3  1  0.21852068  0.78147932  0.50000000  1
  Li  Li4  1  0.82245099  0.17754901  1.00000000  1
  Li  Li5  1  0.17754901  0.82245099  0.00000000  1
  V  V6  1  0.71438255  0.71438255  0.24461881  1
  V  V7  1  0.28561745  0.28561745  0.75538119  1
  O  O8  1  0.20600704  0.56593091  0.82846615  1
  O  O9  1  0.09396834  0.09396834  0.84208860  1
  O  O10  1  0.56593091  0.20600704  0.82846615  1
  O  O11  1  0.90603166  0.90603166  0.15791140  1
  O  O12  1  0.27766051  0.27766051  0.52688624  1
  O  O13  1  0.43406909  0.79399296  0.17153385  1
  O  O14  1  0.79399296  0.43406909  0.17153385  1
  O  O15  1  0.72233949  0.72233949  0.47311376  1
