# generated using pymatgen
data_K2Mo(SO5)2
_symmetry_space_group_name_H-M   'P 1'
_cell_length_a   9.10479158
_cell_length_b   9.16318497
_cell_length_c   12.76045127
_cell_angle_alpha   90.00000000
_cell_angle_beta   90.00000000
_cell_angle_gamma   112.31876286
_symmetry_Int_Tables_number   1
_chemical_formula_structural   K2Mo(SO5)2
_chemical_formula_sum   'K8 Mo4 S8 O40'
_cell_volume   984.83692975
_cell_formula_units_Z   4
loop_
 _symmetry_equiv_pos_site_id
 _symmetry_equiv_pos_as_xyz
  1  'x, y, z'
loop_
 _atom_site_type_symbol
 _atom_site_label
 _atom_site_symmetry_multiplicity
 _atom_site_fract_x
 _atom_site_fract_y
 _atom_site_fract_z
 _atom_site_occupancy
  K  K0  1  0.80047758  0.19553596  0.98411746  1
  K  K1  1  0.70585496  0.67823130  0.11954120  1
  K  K2  1  0.19952242  0.80446404  0.01588254  1
  K  K3  1  0.30047758  0.19553596  0.51588254  1
  K  K4  1  0.29414504  0.32176870  0.88045880  1
  K  K5  1  0.20585496  0.67823130  0.38045880  1
  K  K6  1  0.69952242  0.80446404  0.48411746  1
  K  K7  1  0.79414504  0.32176870  0.61954120  1
  Mo  Mo8  1  0.15375329  0.77841773  0.66754831  1
  Mo  Mo9  1  0.65375329  0.77841773  0.83245169  1
  Mo  Mo10  1  0.84624671  0.22158227  0.33245169  1
  Mo  Mo11  1  0.34624671  0.22158227  0.16754831  1
  S  S12  1  0.52700768  0.96329431  0.20013258  1
  S  S13  1  0.97299232  0.03670569  0.70013258  1
  S  S14  1  0.62612659  0.43089553  0.35787700  1
  S  S15  1  0.02700768  0.96329431  0.29986742  1
  S  S16  1  0.47299232  0.03670569  0.79986742  1
  S  S17  1  0.87387341  0.56910447  0.85787700  1
  S  S18  1  0.12612659  0.43089553  0.14212300  1
  S  S19  1  0.37387341  0.56910447  0.64212300  1
  O  O20  1  0.01885393  0.33607156  0.39719748  1
  O  O21  1  0.86039438  0.41513356  0.81886833  1
  O  O22  1  0.17485467  0.11131179  0.29522967  1
  O  O23  1  0.21308620  0.13996393  0.06667546  1
  O  O24  1  0.67485467  0.11131179  0.20477033  1
  O  O25  1  0.73141324  0.60003910  0.80830472  1
  O  O26  1  0.63430613  0.42218274  0.47194340  1
  O  O27  1  0.26858676  0.39996090  0.19169528  1
  O  O28  1  0.02917686  0.87645869  0.39563354  1
  O  O29  1  0.82514533  0.88868821  0.70477033  1
  O  O30  1  0.02382165  0.69889771  0.82060455  1
  O  O31  1  0.50087302  0.12861010  0.70386038  1
  O  O32  1  0.97617835  0.30110229  0.17939545  1
  O  O33  1  0.38727171  0.02044488  0.18709000  1
  O  O34  1  0.86569387  0.57781726  0.97194340  1
  O  O35  1  0.36569387  0.57781726  0.52805660  1
  O  O36  1  0.11272829  0.97955512  0.68709000  1
  O  O37  1  0.00087302  0.12861010  0.79613962  1
  O  O38  1  0.52917686  0.87645869  0.10436646  1
  O  O39  1  0.88727171  0.02044488  0.31291000  1
  O  O40  1  0.76858676  0.39996090  0.30830472  1
  O  O41  1  0.78691380  0.86003607  0.93332454  1
  O  O42  1  0.13430613  0.42218274  0.02805660  1
  O  O43  1  0.99912698  0.87138990  0.20386038  1
  O  O44  1  0.23141324  0.60003910  0.69169528  1
  O  O45  1  0.98114607  0.66392844  0.60280252  1
  O  O46  1  0.51885393  0.33607156  0.10280252  1
  O  O47  1  0.52382165  0.69889771  0.67939545  1
  O  O48  1  0.97082314  0.12354131  0.60436646  1
  O  O49  1  0.47617835  0.30110229  0.32060455  1
  O  O50  1  0.48114607  0.66392844  0.89719748  1
  O  O51  1  0.32514533  0.88868821  0.79522967  1
  O  O52  1  0.28691380  0.86003607  0.56667546  1
  O  O53  1  0.13960562  0.58486644  0.18113167  1
  O  O54  1  0.36039438  0.41513356  0.68113167  1
  O  O55  1  0.61272829  0.97955512  0.81291000  1
  O  O56  1  0.63960562  0.58486644  0.31886833  1
  O  O57  1  0.47082314  0.12354131  0.89563354  1
  O  O58  1  0.49912698  0.87138990  0.29613962  1
  O  O59  1  0.71308620  0.13996393  0.43332454  1
