# generated using pymatgen
data_Mn3B7ClO13
_symmetry_space_group_name_H-M   'P 1'
_cell_length_a   8.77641036
_cell_length_b   8.77834186
_cell_length_c   12.43100482
_cell_angle_alpha   90.00000000
_cell_angle_beta   90.00000000
_cell_angle_gamma   90.00000000
_symmetry_Int_Tables_number   1
_chemical_formula_structural   Mn3B7ClO13
_chemical_formula_sum   'Mn12 B28 Cl4 O52'
_cell_volume   957.71358109
_cell_formula_units_Z   4
loop_
 _symmetry_equiv_pos_site_id
 _symmetry_equiv_pos_as_xyz
  1  'x, y, z'
loop_
 _atom_site_type_symbol
 _atom_site_label
 _atom_site_symmetry_multiplicity
 _atom_site_fract_x
 _atom_site_fract_y
 _atom_site_fract_z
 _atom_site_occupancy
  Mn  Mn0  1  0.48082723  0.53578162  0.49909786  1
  Mn  Mn1  1  0.76119719  0.25229872  0.21956606  1
  Mn  Mn2  1  0.98082723  0.46421838  0.49909786  1
  Mn  Mn3  1  0.73880281  0.25229872  0.71956606  1
  Mn  Mn4  1  0.98222978  0.03613781  0.50313380  1
  Mn  Mn5  1  0.26119719  0.74770128  0.21956606  1
  Mn  Mn6  1  0.51917277  0.46421838  0.99909786  1
  Mn  Mn7  1  0.01917277  0.53578162  0.99909786  1
  Mn  Mn8  1  0.51777022  0.03613781  0.00313380  1
  Mn  Mn9  1  0.23880281  0.74770128  0.71956606  1
  Mn  Mn10  1  0.48222978  0.96386219  0.50313380  1
  Mn  Mn11  1  0.01777022  0.96386219  0.00313380  1
  B  B12  1  0.75350532  0.59914431  0.66870888  1
  B  B13  1  0.00294902  0.50471076  0.24880755  1
  B  B14  1  0.45851379  0.24918367  0.35153628  1
  B  B15  1  0.25778579  0.24683698  0.49607722  1
  B  B16  1  0.00204060  0.99660633  0.25041586  1
  B  B17  1  0.50204060  0.00339367  0.25041586  1
  B  B18  1  0.90471734  0.75004285  0.81985630  1
  B  B19  1  0.24649468  0.40085569  0.16870888  1
  B  B20  1  0.24611821  0.09788008  0.16959746  1
  B  B21  1  0.04148621  0.24918367  0.85153628  1
  B  B22  1  0.59528266  0.75004285  0.31985630  1
  B  B23  1  0.54148621  0.75081633  0.85153628  1
  B  B24  1  0.25388179  0.09788008  0.66959746  1
  B  B25  1  0.75778579  0.75316302  0.49607722  1
  B  B26  1  0.75388179  0.90211992  0.66959746  1
  B  B27  1  0.74649468  0.59914431  0.16870888  1
  B  B28  1  0.99795940  0.00339367  0.75041586  1
  B  B29  1  0.25350532  0.40085569  0.66870888  1
  B  B30  1  0.95851379  0.75081633  0.35153628  1
  B  B31  1  0.50294902  0.49528924  0.24880755  1
  B  B32  1  0.24221421  0.24683698  0.99607722  1
  B  B33  1  0.99705098  0.49528924  0.74880755  1
  B  B34  1  0.49705098  0.50471076  0.74880755  1
  B  B35  1  0.40471734  0.24995715  0.81985630  1
  B  B36  1  0.09528266  0.24995715  0.31985630  1
  B  B37  1  0.74611821  0.90211992  0.16959746  1
  B  B38  1  0.74221421  0.75316302  0.99607722  1
  B  B39  1  0.49795940  0.99660633  0.75041586  1
  Cl  Cl40  1  0.77356549  0.25015402  0.51064388  1
  Cl  Cl41  1  0.22643451  0.74984598  0.01064388  1
  Cl  Cl42  1  0.27356549  0.74984598  0.51064388  1
  Cl  Cl43  1  0.72643451  0.25015402  0.01064388  1
  O  O44  1  0.61510213  0.67680623  0.93475126  1
  O  O45  1  0.47002890  0.84170152  0.27416654  1
  O  O46  1  0.97002890  0.15829848  0.27416654  1
  O  O47  1  0.81515620  0.63695707  0.06487471  1
  O  O48  1  0.88489787  0.67680623  0.43475126  1
  O  O49  1  0.64321298  0.81777384  0.42217320  1
  O  O50  1  0.66036230  0.48788773  0.72629664  1
  O  O51  1  0.53239903  0.90771190  0.85138049  1
  O  O52  1  0.04167072  0.66741019  0.27770368  1
  O  O53  1  0.52997110  0.15829848  0.77416654  1
  O  O54  1  0.17941546  0.12433751  0.06290053  1
  O  O55  1  0.38489787  0.32319377  0.43475126  1
  O  O56  1  0.59303226  0.53519493  0.15311685  1
  O  O57  1  0.83597770  0.02382215  0.72417454  1
  O  O58  1  0.40696774  0.46480507  0.65311685  1
  O  O59  1  0.90696774  0.53519493  0.65311685  1
  O  O60  1  0.82058454  0.87566249  0.56290053  1
  O  O61  1  0.35678702  0.18222616  0.92217320  1
  O  O62  1  0.04596903  0.40610795  0.33902689  1
  O  O63  1  0.33963770  0.51211227  0.22629664  1
  O  O64  1  0.45403097  0.40610795  0.83902689  1
  O  O65  1  0.66402230  0.02382215  0.22417454  1
  O  O66  1  0.02997110  0.84170152  0.77416654  1
  O  O67  1  0.11510213  0.32319377  0.93475126  1
  O  O68  1  0.31515620  0.36304293  0.06487471  1
  O  O69  1  0.46760097  0.09228810  0.35138049  1
  O  O70  1  0.96760097  0.90771190  0.35138049  1
  O  O71  1  0.95403097  0.59389205  0.83902689  1
  O  O72  1  0.18484380  0.36304293  0.56487471  1
  O  O73  1  0.27223281  0.25003808  0.73567323  1
  O  O74  1  0.59223123  0.94287599  0.65932031  1
  O  O75  1  0.68484380  0.63695707  0.56487471  1
  O  O76  1  0.67941546  0.87566249  0.06290053  1
  O  O77  1  0.09223123  0.05712401  0.65932031  1
  O  O78  1  0.54596903  0.59389205  0.33902689  1
  O  O79  1  0.33597770  0.97617785  0.72417454  1
  O  O80  1  0.09303226  0.46480507  0.15311685  1
  O  O81  1  0.45832928  0.66741019  0.77770368  1
  O  O82  1  0.83963770  0.48788773  0.22629664  1
  O  O83  1  0.54167072  0.33258981  0.27770368  1
  O  O84  1  0.72776719  0.74996192  0.23567323  1
  O  O85  1  0.40776877  0.05712401  0.15932031  1
  O  O86  1  0.95832928  0.33258981  0.77770368  1
  O  O87  1  0.16036230  0.51211227  0.72629664  1
  O  O88  1  0.22776719  0.25003808  0.23567323  1
  O  O89  1  0.32058454  0.12433751  0.56290053  1
  O  O90  1  0.03239903  0.09228810  0.85138049  1
  O  O91  1  0.16402230  0.97617785  0.22417454  1
  O  O92  1  0.77223281  0.74996192  0.73567323  1
  O  O93  1  0.90776877  0.94287599  0.15932031  1
  O  O94  1  0.14321298  0.18222616  0.42217320  1
  O  O95  1  0.85678702  0.81777384  0.92217320  1
