# generated using pymatgen
data_Pr3W(ClO2)3
_symmetry_space_group_name_H-M   'P 1'
_cell_length_a   9.42995950
_cell_length_b   9.42995955
_cell_length_c   5.44593158
_cell_angle_alpha   90.00000000
_cell_angle_beta   90.00000000
_cell_angle_gamma   119.99999978
_symmetry_Int_Tables_number   1
_chemical_formula_structural   Pr3W(ClO2)3
_chemical_formula_sum   'Pr6 W2 Cl6 O12'
_cell_volume   419.39424894
_cell_formula_units_Z   2
loop_
 _symmetry_equiv_pos_site_id
 _symmetry_equiv_pos_as_xyz
  1  'x, y, z'
loop_
 _atom_site_type_symbol
 _atom_site_label
 _atom_site_symmetry_multiplicity
 _atom_site_fract_x
 _atom_site_fract_y
 _atom_site_fract_z
 _atom_site_occupancy
  Pr  Pr0  1  0.68588209  0.09038665  0.25000000  1
  Pr  Pr1  1  0.40450456  0.31411791  0.25000000  1
  Pr  Pr2  1  0.09038665  0.40450456  0.75000000  1
  Pr  Pr3  1  0.90961335  0.59549544  0.25000000  1
  Pr  Pr4  1  0.59549544  0.68588209  0.75000000  1
  Pr  Pr5  1  0.31411791  0.90961335  0.75000000  1
  W  W6  1  0.33333300  0.66666700  0.25000000  1
  W  W7  1  0.66666700  0.33333300  0.75000000  1
  Cl  Cl8  1  0.95185991  0.75948224  0.75000000  1
  Cl  Cl9  1  0.24051776  0.19237767  0.75000000  1
  Cl  Cl10  1  0.75948224  0.80762233  0.25000000  1
  Cl  Cl11  1  0.80762233  0.04814009  0.75000000  1
  Cl  Cl12  1  0.19237767  0.95185991  0.25000000  1
  Cl  Cl13  1  0.04814009  0.24051776  0.25000000  1
  O  O14  1  0.63595158  0.47573199  0.51867520  1
  O  O15  1  0.36404842  0.52426801  0.48132480  1
  O  O16  1  0.47573199  0.83978041  0.01867520  1
  O  O17  1  0.83978041  0.36404842  0.98132480  1
  O  O18  1  0.52426801  0.16021959  0.51867520  1
  O  O19  1  0.36404842  0.52426801  0.01867520  1
  O  O20  1  0.52426801  0.16021959  0.98132480  1
  O  O21  1  0.83978041  0.36404842  0.51867520  1
  O  O22  1  0.47573199  0.83978041  0.48132480  1
  O  O23  1  0.63595158  0.47573199  0.98132480  1
  O  O24  1  0.16021959  0.63595158  0.48132480  1
  O  O25  1  0.16021959  0.63595158  0.01867520  1
