# generated using pymatgen
data_YbMgPb
_symmetry_space_group_name_H-M   'P 1'
_cell_length_a   4.05715417
_cell_length_b   8.49525642
_cell_length_c   8.48526966
_cell_angle_alpha   120.03894007
_cell_angle_beta   90.00000000
_cell_angle_gamma   90.00000000
_symmetry_Int_Tables_number   1
_chemical_formula_structural   YbMgPb
_chemical_formula_sum   'Yb3 Mg3 Pb3'
_cell_volume   253.17670225
_cell_formula_units_Z   3
loop_
 _symmetry_equiv_pos_site_id
 _symmetry_equiv_pos_as_xyz
  1  'x, y, z'
loop_
 _atom_site_type_symbol
 _atom_site_label
 _atom_site_symmetry_multiplicity
 _atom_site_fract_x
 _atom_site_fract_y
 _atom_site_fract_z
 _atom_site_occupancy
  Yb  Yb0  1  0.50000000  0.61865694  1.00000000  1
  Yb  Yb1  1  0.50000000  0.38268643  0.38339319  1
  Yb  Yb2  1  0.50000000  0.99929324  0.61660681  1
  Mg  Mg3  1  0.00000000  0.33327661  0.66776684  1
  Mg  Mg4  1  0.00000000  0.66550978  0.33223316  1
  Mg  Mg5  1  0.50000000  0.00117444  1.00000000  1
  Pb  Pb6  1  -0.00000000  0.28623785  1.00000000  1
  Pb  Pb7  1  -0.00000000  0.71334792  0.71363112  1
  Pb  Pb8  1  0.00000000  0.99971680  0.28636888  1
