# generated using pymatgen
data_Na2MnPO4F
_symmetry_space_group_name_H-M   'P 1'
_cell_length_a   5.39585170
_cell_length_b   13.83818247
_cell_length_c   13.87263052
_cell_angle_alpha   119.60469501
_cell_angle_beta   90.00000000
_cell_angle_gamma   90.00000000
_symmetry_Int_Tables_number   1
_chemical_formula_structural   Na2MnPO4F
_chemical_formula_sum   'Na16 Mn8 P8 O32 F8'
_cell_volume   900.62648184
_cell_formula_units_Z   8
loop_
 _symmetry_equiv_pos_site_id
 _symmetry_equiv_pos_as_xyz
  1  'x, y, z'
loop_
 _atom_site_type_symbol
 _atom_site_label
 _atom_site_symmetry_multiplicity
 _atom_site_fract_x
 _atom_site_fract_y
 _atom_site_fract_z
 _atom_site_occupancy
  Na  Na0  1  0.76405938  0.41289857  0.33348722  1
  Na  Na1  1  0.76413527  0.66348547  0.82803138  1
  Na  Na2  1  0.24055680  0.32908581  0.66375741  1
  Na  Na3  1  0.73586473  0.16348547  0.32803138  1
  Na  Na4  1  0.26405938  0.08710143  0.16651278  1
  Na  Na5  1  0.74055680  0.17091419  0.83624259  1
  Na  Na6  1  0.76087389  0.66722991  0.08743620  1
  Na  Na7  1  0.73912611  0.16722991  0.58743620  1
  Na  Na8  1  0.26087389  0.83277009  0.41256380  1
  Na  Na9  1  0.75944320  0.67091419  0.33624259  1
  Na  Na10  1  0.23594062  0.58710143  0.66651278  1
  Na  Na11  1  0.23912611  0.33277009  0.91256380  1
  Na  Na12  1  0.23586473  0.33651453  0.17196862  1
  Na  Na13  1  0.26413527  0.83651453  0.67196862  1
  Na  Na14  1  0.25944320  0.82908581  0.16375741  1
  Na  Na15  1  0.73594062  0.91289857  0.83348722  1
  Mn  Mn16  1  0.77234384  0.40102730  0.82395353  1
  Mn  Mn17  1  0.22944502  0.32365085  0.40086757  1
  Mn  Mn18  1  0.27055498  0.82365085  0.90086757  1
  Mn  Mn19  1  0.72765616  0.90102730  0.32395353  1
  Mn  Mn20  1  0.77055498  0.67634915  0.59913243  1
  Mn  Mn21  1  0.27234384  0.09897270  0.67604647  1
  Mn  Mn22  1  0.22765616  0.59897270  0.17604647  1
  Mn  Mn23  1  0.72944502  0.17634915  0.09913243  1
  P  P24  1  0.21489484  0.07778069  0.41566028  1
  P  P25  1  0.21849438  0.08531671  0.92320620  1
  P  P26  1  0.28150562  0.58531671  0.42320620  1
  P  P27  1  0.78510516  0.92221931  0.58433972  1
  P  P28  1  0.78150562  0.91468329  0.07679380  1
  P  P29  1  0.71489484  0.42221931  0.08433972  1
  P  P30  1  0.71849438  0.41468329  0.57679380  1
  P  P31  1  0.28510516  0.57778069  0.91566028  1
  O  O32  1  0.93080703  0.09282365  0.94326501  1
  O  O33  1  0.35267808  0.96500401  0.35107047  1
  O  O34  1  0.71068331  0.86300762  0.45986768  1
  O  O35  1  0.71672909  0.84718213  0.63476893  1
  O  O36  1  0.14732192  0.46500401  0.85107047  1
  O  O37  1  0.30040127  0.96149659  0.86536791  1
  O  O38  1  0.57238135  0.55636782  0.90462211  1
  O  O39  1  0.07238135  0.94363218  0.59537789  1
  O  O40  1  0.56919297  0.59282365  0.44326501  1
  O  O41  1  0.28931669  0.13699238  0.54013232  1
  O  O42  1  0.85267808  0.53499599  0.14892953  1
  O  O43  1  0.14625843  0.65274857  0.53622927  1
  O  O44  1  0.19959873  0.46149659  0.36536791  1
  O  O45  1  0.80040127  0.53850341  0.63463209  1
  O  O46  1  0.28298825  0.13618732  0.84834734  1
  O  O47  1  0.42761865  0.44363218  0.09537789  1
  O  O48  1  0.85374157  0.34725143  0.46377073  1
  O  O49  1  0.64625843  0.84725143  0.96377073  1
  O  O50  1  0.92761865  0.05636782  0.40462211  1
  O  O51  1  0.06919297  0.90717635  0.05673499  1
  O  O52  1  0.64732192  0.03499599  0.64892953  1
  O  O53  1  0.21068331  0.63699238  0.04013232  1
  O  O54  1  0.21672909  0.65281787  0.86523107  1
  O  O55  1  0.78298825  0.36381268  0.65165266  1
  O  O56  1  0.71701175  0.86381268  0.15165266  1
  O  O57  1  0.28327091  0.15281787  0.36523107  1
  O  O58  1  0.69959873  0.03850341  0.13463209  1
  O  O59  1  0.21701175  0.63618732  0.34834734  1
  O  O60  1  0.78931669  0.36300762  0.95986768  1
  O  O61  1  0.78327091  0.34718213  0.13476893  1
  O  O62  1  0.43080703  0.40717635  0.55673499  1
  O  O63  1  0.35374157  0.15274857  0.03622927  1
  F  F64  1  0.50025102  0.73234791  0.24087604  1
  F  F65  1  0.00171875  0.76483953  0.76411738  1
  F  F66  1  0.50171875  0.73516047  0.73588262  1
  F  F67  1  0.00025102  0.76765209  0.25912396  1
  F  F68  1  0.99828125  0.23516047  0.23588262  1
  F  F69  1  0.99974898  0.23234791  0.74087604  1
  F  F70  1  0.49974898  0.26765209  0.75912396  1
  F  F71  1  0.49828125  0.26483953  0.26411738  1
