# generated using pymatgen
data_Ba2Mn3(SeO3)6
_symmetry_space_group_name_H-M   'P 1'
_cell_length_a   5.56764133
_cell_length_b   9.24616610
_cell_length_c   18.18294632
_cell_angle_alpha   90.00000000
_cell_angle_beta   94.52090256
_cell_angle_gamma   90.00000000
_symmetry_Int_Tables_number   1
_chemical_formula_structural   Ba2Mn3(SeO3)6
_chemical_formula_sum   'Ba4 Mn6 Se12 O36'
_cell_volume   933.13364101
_cell_formula_units_Z   2
loop_
 _symmetry_equiv_pos_site_id
 _symmetry_equiv_pos_as_xyz
  1  'x, y, z'
loop_
 _atom_site_type_symbol
 _atom_site_label
 _atom_site_symmetry_multiplicity
 _atom_site_fract_x
 _atom_site_fract_y
 _atom_site_fract_z
 _atom_site_occupancy
  Ba  Ba0  1  0.01907042  0.66501334  0.79599322  1
  Ba  Ba1  1  0.01907042  0.83498666  0.29599322  1
  Ba  Ba2  1  0.98092958  0.33498666  0.20400678  1
  Ba  Ba3  1  0.98092958  0.16501334  0.70400678  1
  Mn  Mn4  1  0.48466857  0.49921528  0.33586137  1
  Mn  Mn5  1  0.00000000  0.00000000  0.50000000  1
  Mn  Mn6  1  0.51533143  0.50078472  0.66413863  1
  Mn  Mn7  1  0.00000000  0.50000000  0.00000000  1
  Mn  Mn8  1  0.48466857  0.00078472  0.83586137  1
  Mn  Mn9  1  0.51533143  0.99921528  0.16413863  1
  Se  Se10  1  0.98972092  0.14112395  0.93178133  1
  Se  Se11  1  0.98972092  0.35887605  0.43178133  1
  Se  Se12  1  0.50184747  0.29641937  0.04762323  1
  Se  Se13  1  0.49815253  0.70358063  0.95237677  1
  Se  Se14  1  0.49815253  0.79641937  0.45237677  1
  Se  Se15  1  0.49456206  0.85338859  0.68770955  1
  Se  Se16  1  0.01027908  0.85887605  0.06821867  1
  Se  Se17  1  0.50543794  0.14661141  0.31229045  1
  Se  Se18  1  0.50184747  0.20358063  0.54762323  1
  Se  Se19  1  0.49456206  0.64661141  0.18770955  1
  Se  Se20  1  0.01027908  0.64112395  0.56821867  1
  Se  Se21  1  0.50543794  0.35338859  0.81229045  1
  O  O22  1  0.71738829  0.43404034  0.75921204  1
  O  O23  1  0.28257339  0.95710008  0.08207041  1
  O  O24  1  0.09445587  0.81815561  0.57794571  1
  O  O25  1  0.60524767  0.31668816  0.62227733  1
  O  O26  1  0.44156206  0.67543972  0.71815941  1
  O  O27  1  0.13954580  0.38942666  0.35376942  1
  O  O28  1  0.55843794  0.17543972  0.78184059  1
  O  O29  1  0.70771086  0.43191728  0.06882987  1
  O  O30  1  0.86045420  0.88942666  0.14623058  1
  O  O31  1  0.71738829  0.06595966  0.25921204  1
  O  O32  1  0.23749018  0.36347571  0.07649474  1
  O  O33  1  0.28257339  0.54289992  0.58207041  1
  O  O34  1  0.76250982  0.63652429  0.92350526  1
  O  O35  1  0.29228914  0.93191728  0.43117013  1
  O  O36  1  0.28261171  0.93404034  0.74078796  1
  O  O37  1  0.26087904  0.40065980  0.75341173  1
  O  O38  1  0.55843794  0.32456028  0.28184059  1
  O  O39  1  0.28261171  0.56595966  0.24078796  1
  O  O40  1  0.73912096  0.59934020  0.24658827  1
  O  O41  1  0.39475233  0.81668816  0.87772267  1
  O  O42  1  0.26087904  0.09934020  0.25341173  1
  O  O43  1  0.86045420  0.61057334  0.64623058  1
  O  O44  1  0.23749018  0.13652429  0.57649474  1
  O  O45  1  0.70771086  0.06808272  0.56882987  1
  O  O46  1  0.60524767  0.18331184  0.12227733  1
  O  O47  1  0.39475233  0.68331184  0.37772267  1
  O  O48  1  0.09445587  0.68184439  0.07794571  1
  O  O49  1  0.71742661  0.45710008  0.41792959  1
  O  O50  1  0.44156206  0.82456028  0.21815941  1
  O  O51  1  0.76250982  0.86347571  0.42350526  1
  O  O52  1  0.13954580  0.11057334  0.85376942  1
  O  O53  1  0.73912096  0.90065980  0.74658827  1
  O  O54  1  0.90554413  0.31815561  0.92205429  1
  O  O55  1  0.29228914  0.56808272  0.93117013  1
  O  O56  1  0.90554413  0.18184439  0.42205429  1
  O  O57  1  0.71742661  0.04289992  0.91792959  1
