# generated using pymatgen
data_KFeO2
_symmetry_space_group_name_H-M   'P 1'
_cell_length_a   5.71202262
_cell_length_b   11.43356734
_cell_length_c   16.27039432
_cell_angle_alpha   90.00000000
_cell_angle_beta   90.00000000
_cell_angle_gamma   90.00000000
_symmetry_Int_Tables_number   1
_chemical_formula_structural   KFeO2
_chemical_formula_sum   'K16 Fe16 O32'
_cell_volume   1062.59985166
_cell_formula_units_Z   16
loop_
 _symmetry_equiv_pos_site_id
 _symmetry_equiv_pos_as_xyz
  1  'x, y, z'
loop_
 _atom_site_type_symbol
 _atom_site_label
 _atom_site_symmetry_multiplicity
 _atom_site_fract_x
 _atom_site_fract_y
 _atom_site_fract_z
 _atom_site_occupancy
  K  K0  1  0.19187473  0.73343757  0.81596590  1
  K  K1  1  0.75216833  0.49136380  0.56132391  1
  K  K2  1  0.80812527  0.23343757  0.68403410  1
  K  K3  1  0.24783167  0.99136380  0.93867609  1
  K  K4  1  0.25216833  0.49136380  0.93867609  1
  K  K5  1  0.30812527  0.26656243  0.31596590  1
  K  K6  1  0.19187473  0.76656243  0.31596590  1
  K  K7  1  0.25216833  0.00863620  0.43867609  1
  K  K8  1  0.30812527  0.23343757  0.81596590  1
  K  K9  1  0.24783167  0.50863620  0.43867609  1
  K  K10  1  0.75216833  0.00863620  0.06132391  1
  K  K11  1  0.69187473  0.76656243  0.18403410  1
  K  K12  1  0.80812527  0.26656243  0.18403410  1
  K  K13  1  0.69187473  0.73343757  0.68403410  1
  K  K14  1  0.74783167  0.50863620  0.06132391  1
  K  K15  1  0.74783167  0.99136380  0.56132391  1
  Fe  Fe16  1  0.25317363  0.98958718  0.68919975  1
  Fe  Fe17  1  0.21184702  0.73375316  0.56453271  1
  Fe  Fe18  1  0.74682637  0.01041282  0.31080025  1
  Fe  Fe19  1  0.78815298  0.26624684  0.43546729  1
  Fe  Fe20  1  0.74682637  0.48958718  0.81080025  1
  Fe  Fe21  1  0.75317363  0.51041282  0.31080025  1
  Fe  Fe22  1  0.75317363  0.98958718  0.81080025  1
  Fe  Fe23  1  0.71184702  0.73375316  0.93546729  1
  Fe  Fe24  1  0.28815298  0.23375316  0.56453271  1
  Fe  Fe25  1  0.25317363  0.51041282  0.18919975  1
  Fe  Fe26  1  0.21184702  0.76624684  0.06453271  1
  Fe  Fe27  1  0.78815298  0.23375316  0.93546729  1
  Fe  Fe28  1  0.71184702  0.76624684  0.43546729  1
  Fe  Fe29  1  0.28815298  0.26624684  0.06453271  1
  Fe  Fe30  1  0.24682637  0.01041282  0.18919975  1
  Fe  Fe31  1  0.24682637  0.48958718  0.68919975  1
  O  O32  1  0.16340001  0.08528704  0.59794910  1
  O  O33  1  0.33659999  0.91471296  0.09794910  1
  O  O34  1  0.07323878  0.02321626  0.78535285  1
  O  O35  1  0.79349915  0.17061157  0.33971486  1
  O  O36  1  0.90417538  0.79199811  0.02216845  1
  O  O37  1  0.70650085  0.67061157  0.33971486  1
  O  O38  1  0.66340001  0.41471296  0.40205090  1
  O  O39  1  0.42676122  0.52321626  0.78535285  1
  O  O40  1  0.59582462  0.29199811  0.02216845  1
  O  O41  1  0.42676122  0.97678374  0.28535285  1
  O  O42  1  0.57323878  0.47678374  0.21464715  1
  O  O43  1  0.92676122  0.52321626  0.71464715  1
  O  O44  1  0.92676122  0.97678374  0.21464715  1
  O  O45  1  0.29349915  0.17061157  0.16028514  1
  O  O46  1  0.79349915  0.32938843  0.83971486  1
  O  O47  1  0.20650085  0.67061157  0.16028514  1
  O  O48  1  0.07323878  0.47678374  0.28535285  1
  O  O49  1  0.09582462  0.29199811  0.47783155  1
  O  O50  1  0.59582462  0.20800189  0.52216845  1
  O  O51  1  0.33659999  0.58528704  0.59794910  1
  O  O52  1  0.66340001  0.08528704  0.90205090  1
  O  O53  1  0.20650085  0.82938843  0.66028514  1
  O  O54  1  0.83659999  0.58528704  0.90205090  1
  O  O55  1  0.90417538  0.70800189  0.52216845  1
  O  O56  1  0.70650085  0.82938843  0.83971486  1
  O  O57  1  0.83659999  0.91471296  0.40205090  1
  O  O58  1  0.57323878  0.02321626  0.71464715  1
  O  O59  1  0.40417538  0.70800189  0.97783155  1
  O  O60  1  0.29349915  0.32938843  0.66028514  1
  O  O61  1  0.40417538  0.79199811  0.47783155  1
  O  O62  1  0.09582462  0.20800189  0.97783155  1
  O  O63  1  0.16340001  0.41471296  0.09794910  1
