# generated using pymatgen
data_As3Pb5ClO12
_symmetry_space_group_name_H-M   'P 1'
_cell_length_a   7.58696822
_cell_length_b   10.45477027
_cell_length_c   18.16332751
_cell_angle_alpha   90.02762908
_cell_angle_beta   90.00000000
_cell_angle_gamma   90.00000000
_symmetry_Int_Tables_number   1
_chemical_formula_structural   As3Pb5ClO12
_chemical_formula_sum   'As12 Pb20 Cl4 O48'
_cell_volume   1440.71514783
_cell_formula_units_Z   4
loop_
 _symmetry_equiv_pos_site_id
 _symmetry_equiv_pos_as_xyz
  1  'x, y, z'
loop_
 _atom_site_type_symbol
 _atom_site_label
 _atom_site_symmetry_multiplicity
 _atom_site_fract_x
 _atom_site_fract_y
 _atom_site_fract_z
 _atom_site_occupancy
  As  As0  1  0.75623820  0.85240697  0.26414284  1
  As  As1  1  0.24429942  0.53363187  0.55770772  1
  As  As2  1  0.75570058  0.46636813  0.44229228  1
  As  As3  1  0.25623820  0.64759303  0.23585716  1
  As  As4  1  0.24461299  0.57183422  0.95470849  1
  As  As5  1  0.75538701  0.42816578  0.04529151  1
  As  As6  1  0.74376180  0.35240697  0.76414284  1
  As  As7  1  0.24376180  0.14759303  0.73585716  1
  As  As8  1  0.25570058  0.03363187  0.05770772  1
  As  As9  1  0.74429942  0.96636813  0.94229228  1
  As  As10  1  0.25538701  0.07183422  0.45470849  1
  As  As11  1  0.74461299  0.92816578  0.54529151  1
  Pb  Pb12  1  0.22929121  0.38473933  0.12931209  1
  Pb  Pb13  1  0.50619293  0.24437844  0.57675598  1
  Pb  Pb14  1  0.72915737  0.13284946  0.12223816  1
  Pb  Pb15  1  0.72168656  0.49727219  0.25462196  1
  Pb  Pb16  1  0.77070879  0.61526067  0.87068791  1
  Pb  Pb17  1  0.22915737  0.36715054  0.37776184  1
  Pb  Pb18  1  0.27084263  0.86715054  0.87776184  1
  Pb  Pb19  1  0.00823611  0.74543766  0.41116463  1
  Pb  Pb20  1  0.72929121  0.11526067  0.37068791  1
  Pb  Pb21  1  0.50823611  0.75456234  0.08883537  1
  Pb  Pb22  1  0.00619293  0.25562156  0.92324402  1
  Pb  Pb23  1  0.49176389  0.24543766  0.91116463  1
  Pb  Pb24  1  0.99176389  0.25456234  0.58883537  1
  Pb  Pb25  1  0.77084263  0.63284946  0.62223816  1
  Pb  Pb26  1  0.22168656  0.00272781  0.24537804  1
  Pb  Pb27  1  0.27070879  0.88473933  0.62931209  1
  Pb  Pb28  1  0.77831344  0.99727219  0.75462196  1
  Pb  Pb29  1  0.27831344  0.50272781  0.74537804  1
  Pb  Pb30  1  0.49380707  0.75562156  0.42324402  1
  Pb  Pb31  1  0.99380707  0.74437844  0.07675598  1
  Cl  Cl32  1  0.01265466  0.74688488  0.74964113  1
  Cl  Cl33  1  0.48734534  0.24688488  0.24964113  1
  Cl  Cl34  1  0.98734534  0.25311512  0.25035887  1
  Cl  Cl35  1  0.51265466  0.75311512  0.75035887  1
  O  O36  1  0.25159463  0.92229440  0.41535289  1
  O  O37  1  0.26940170  0.56753012  0.04981856  1
  O  O38  1  0.21867062  0.89389255  0.00791072  1
  O  O39  1  0.75159463  0.57770560  0.08464711  1
  O  O40  1  0.94821035  0.92291264  0.29585898  1
  O  O41  1  0.25114876  0.66458447  0.33006706  1
  O  O42  1  0.76940170  0.93246988  0.45018144  1
  O  O43  1  0.54344235  0.98751261  0.89896872  1
  O  O44  1  0.09562279  0.04113960  0.12493920  1
  O  O45  1  0.73059830  0.43246988  0.95018144  1
  O  O46  1  0.54580453  0.84976235  0.55889439  1
  O  O47  1  0.90722937  0.83002128  0.58002030  1
  O  O48  1  0.24695534  0.79349042  0.18999878  1
  O  O49  1  0.75304466  0.20650958  0.81000122  1
  O  O50  1  0.08672781  0.55336834  0.20310813  1
  O  O51  1  0.41327219  0.05336834  0.70310813  1
  O  O52  1  0.25304466  0.29349042  0.68999878  1
  O  O53  1  0.25195315  0.16748536  0.00238524  1
  O  O54  1  0.23059830  0.06753012  0.54981856  1
  O  O55  1  0.24804685  0.66748536  0.50238524  1
  O  O56  1  0.28132938  0.39389255  0.50791072  1
  O  O57  1  0.78132938  0.10610745  0.99208928  1
  O  O58  1  0.59277063  0.33002128  0.08002030  1
  O  O59  1  0.24885124  0.16458447  0.83006706  1
  O  O60  1  0.05178965  0.07708736  0.70414102  1
  O  O61  1  0.45655765  0.01248739  0.10103128  1
  O  O62  1  0.24840537  0.42229440  0.91535289  1
  O  O63  1  0.04344235  0.51248739  0.60103128  1
  O  O64  1  0.40722937  0.66997872  0.91997970  1
  O  O65  1  0.71867062  0.60610745  0.49208928  1
  O  O66  1  0.95419547  0.34976235  0.05889439  1
  O  O67  1  0.74695534  0.70650958  0.31000122  1
  O  O68  1  0.75114876  0.83541553  0.16993294  1
  O  O69  1  0.45419547  0.15023765  0.44110561  1
  O  O70  1  0.95655765  0.48751261  0.39896872  1
  O  O71  1  0.90437721  0.95886040  0.87506080  1
  O  O72  1  0.55178965  0.42291264  0.79585898  1
  O  O73  1  0.74840537  0.07770560  0.58464711  1
  O  O74  1  0.91327219  0.44663166  0.79689187  1
  O  O75  1  0.75195315  0.33251464  0.49761476  1
  O  O76  1  0.58672781  0.94663166  0.29689187  1
  O  O77  1  0.74804685  0.83251464  0.99761476  1
  O  O78  1  0.04580453  0.65023765  0.94110561  1
  O  O79  1  0.59562279  0.45886040  0.37506080  1
  O  O80  1  0.40437721  0.54113960  0.62493920  1
  O  O81  1  0.44821035  0.57708736  0.20414102  1
  O  O82  1  0.74885124  0.33541553  0.66993294  1
  O  O83  1  0.09277063  0.16997872  0.41997970  1
