# generated using pymatgen
data_RbDy(WO4)2
_symmetry_space_group_name_H-M   'P 1'
_cell_length_a   8.07562276
_cell_length_b   9.17243507
_cell_length_c   10.43894772
_cell_angle_alpha   90.00000000
_cell_angle_beta   90.00000000
_cell_angle_gamma   98.54518974
_symmetry_Int_Tables_number   1
_chemical_formula_structural   RbDy(WO4)2
_chemical_formula_sum   'Rb4 Dy4 W8 O32'
_cell_volume   764.66166735
_cell_formula_units_Z   4
loop_
 _symmetry_equiv_pos_site_id
 _symmetry_equiv_pos_as_xyz
  1  'x, y, z'
loop_
 _atom_site_type_symbol
 _atom_site_label
 _atom_site_symmetry_multiplicity
 _atom_site_fract_x
 _atom_site_fract_y
 _atom_site_fract_z
 _atom_site_occupancy
  Rb  Rb0  1  0.42702398  0.98851392  0.78351667  1
  Rb  Rb1  1  0.92702398  0.98851392  0.71648333  1
  Rb  Rb2  1  0.07297602  0.01148608  0.28351667  1
  Rb  Rb3  1  0.57297602  0.01148608  0.21648333  1
  Dy  Dy4  1  0.97864919  0.43591776  0.27670565  1
  Dy  Dy5  1  0.02135081  0.56408224  0.72329435  1
  Dy  Dy6  1  0.52135081  0.56408224  0.77670565  1
  Dy  Dy7  1  0.47864919  0.43591776  0.22329435  1
  W  W8  1  0.67642299  0.66180551  0.48779021  1
  W  W9  1  0.71405390  0.28180449  0.51388092  1
  W  W10  1  0.78594610  0.71819551  0.01388092  1
  W  W11  1  0.17642299  0.66180551  0.01220979  1
  W  W12  1  0.21405390  0.28180449  0.98611908  1
  W  W13  1  0.28594610  0.71819551  0.48611908  1
  W  W14  1  0.82357701  0.33819449  0.98779021  1
  W  W15  1  0.32357701  0.33819449  0.51220979  1
  O  O16  1  0.25715395  0.50734284  0.10475596  1
  O  O17  1  0.04528998  0.40767285  0.89599968  1
  O  O18  1  0.95471002  0.59232715  0.10400032  1
  O  O19  1  0.74284605  0.49265716  0.89524404  1
  O  O20  1  0.84014292  0.23275773  0.37719221  1
  O  O21  1  0.61876446  0.62918794  0.11983297  1
  O  O22  1  0.23342209  0.17535751  0.58986832  1
  O  O23  1  0.34494039  0.88989381  0.40857047  1
  O  O24  1  0.88123554  0.37081206  0.61983297  1
  O  O25  1  0.15985708  0.76724227  0.62280779  1
  O  O26  1  0.45471002  0.59232715  0.39599968  1
  O  O27  1  0.84494039  0.88989381  0.09142953  1
  O  O28  1  0.73342209  0.17535751  0.91013168  1
  O  O29  1  0.00116699  0.27493211  0.10036585  1
  O  O30  1  0.50116699  0.27493211  0.39963415  1
  O  O31  1  0.11876446  0.62918794  0.38016703  1
  O  O32  1  0.99883301  0.72506789  0.89963415  1
  O  O33  1  0.79576107  0.65404884  0.63903120  1
  O  O34  1  0.65985708  0.76724227  0.87719221  1
  O  O35  1  0.26657791  0.82464249  0.08986832  1
  O  O36  1  0.38123554  0.37081206  0.88016703  1
  O  O37  1  0.20423893  0.34595116  0.36096880  1
  O  O38  1  0.54528998  0.40767285  0.60400032  1
  O  O39  1  0.70423893  0.34595116  0.13903120  1
  O  O40  1  0.75715395  0.50734284  0.39524404  1
  O  O41  1  0.29576107  0.65404884  0.86096880  1
  O  O42  1  0.65505961  0.11010619  0.59142953  1
  O  O43  1  0.49883301  0.72506789  0.60036585  1
  O  O44  1  0.24284605  0.49265716  0.60475596  1
  O  O45  1  0.15505961  0.11010619  0.90857047  1
  O  O46  1  0.34014292  0.23275773  0.12280779  1
  O  O47  1  0.76657791  0.82464249  0.41013168  1
