# generated using pymatgen
data_Ba2Eu2ZnPtO8
_symmetry_space_group_name_H-M   'P 1'
_cell_length_a   5.85260438
_cell_length_b   10.53612975
_cell_length_c   13.61798677
_cell_angle_alpha   90.00000000
_cell_angle_beta   90.00000000
_cell_angle_gamma   90.00000000
_symmetry_Int_Tables_number   1
_chemical_formula_structural   Ba2Eu2ZnPtO8
_chemical_formula_sum   'Ba8 Eu8 Zn4 Pt4 O32'
_cell_volume   839.73680065
_cell_formula_units_Z   4
loop_
 _symmetry_equiv_pos_site_id
 _symmetry_equiv_pos_as_xyz
  1  'x, y, z'
loop_
 _atom_site_type_symbol
 _atom_site_label
 _atom_site_symmetry_multiplicity
 _atom_site_fract_x
 _atom_site_fract_y
 _atom_site_fract_z
 _atom_site_occupancy
  Eu  Eu0  1  0.25000000  0.19041019  0.86003256  1
  Eu  Eu1  1  0.25000000  0.30958981  0.36003256  1
  Eu  Eu2  1  0.75000000  0.80958981  0.13996744  1
  Eu  Eu3  1  0.75000000  0.98710222  0.91833279  1
  Eu  Eu4  1  0.25000000  0.48710222  0.58166721  1
  Eu  Eu5  1  0.75000000  0.69041019  0.63996744  1
  Eu  Eu6  1  0.75000000  0.51289778  0.41833279  1
  Eu  Eu7  1  0.25000000  0.01289778  0.08166721  1
  Ba  Ba8  1  0.25000000  0.39887893  0.08261938  1
  Ba  Ba9  1  0.75000000  0.17721052  0.21520483  1
  Ba  Ba10  1  0.25000000  0.10112107  0.58261938  1
  Ba  Ba11  1  0.25000000  0.82278948  0.78479517  1
  Ba  Ba12  1  0.75000000  0.32278948  0.71520483  1
  Ba  Ba13  1  0.75000000  0.60112107  0.91738062  1
  Ba  Ba14  1  0.25000000  0.67721052  0.28479517  1
  Ba  Ba15  1  0.75000000  0.89887893  0.41738062  1
  Zn  Zn16  1  0.75000000  0.27841880  0.97389256  1
  Zn  Zn17  1  0.25000000  0.72158120  0.02610744  1
  Zn  Zn18  1  0.75000000  0.22158120  0.47389256  1
  Zn  Zn19  1  0.25000000  0.77841880  0.52610744  1
  Pt  Pt20  1  0.75000000  0.52790718  0.19218573  1
  Pt  Pt21  1  0.75000000  0.97209282  0.69218573  1
  Pt  Pt22  1  0.25000000  0.47209282  0.80781427  1
  Pt  Pt23  1  0.25000000  0.02790718  0.30781427  1
  O  O24  1  0.48945073  0.55927131  0.72320241  1
  O  O25  1  0.75000000  0.82206408  0.78949186  1
  O  O26  1  0.50583109  0.35731746  0.49477395  1
  O  O27  1  0.99485784  0.62362799  0.11157335  1
  O  O28  1  0.00583109  0.85731746  0.00522605  1
  O  O29  1  0.98945073  0.44072869  0.27679759  1
  O  O30  1  0.50514216  0.62362799  0.11157335  1
  O  O31  1  0.99416891  0.35731746  0.49477395  1
  O  O32  1  0.49485784  0.37637201  0.88842665  1
  O  O33  1  0.98945073  0.05927131  0.77679759  1
  O  O34  1  0.25000000  0.62067316  0.90359838  1
  O  O35  1  0.50514216  0.87637201  0.61157335  1
  O  O36  1  0.75000000  0.37932684  0.09640162  1
  O  O37  1  0.51054927  0.44072869  0.27679759  1
  O  O38  1  0.49416891  0.85731746  0.00522605  1
  O  O39  1  0.75000000  0.67793592  0.28949186  1
  O  O40  1  0.51054927  0.05927131  0.77679759  1
  O  O41  1  0.01054927  0.55927131  0.72320241  1
  O  O42  1  0.48945073  0.94072869  0.22320241  1
  O  O43  1  0.00583109  0.64268254  0.50522605  1
  O  O44  1  0.99485784  0.87637201  0.61157335  1
  O  O45  1  0.75000000  0.12067316  0.59640162  1
  O  O46  1  0.00514216  0.37637201  0.88842665  1
  O  O47  1  0.49416891  0.64268254  0.50522605  1
  O  O48  1  0.99416891  0.14268254  0.99477395  1
  O  O49  1  0.25000000  0.17793592  0.21050814  1
  O  O50  1  0.50583109  0.14268254  0.99477395  1
  O  O51  1  0.25000000  0.32206408  0.71050814  1
  O  O52  1  0.01054927  0.94072869  0.22320241  1
  O  O53  1  0.49485784  0.12362799  0.38842665  1
  O  O54  1  0.25000000  0.87932684  0.40359838  1
  O  O55  1  0.00514216  0.12362799  0.38842665  1
