# generated using pymatgen
data_BaVClO3
_symmetry_space_group_name_H-M   'P 1'
_cell_length_a   5.34937987
_cell_length_b   7.54383865
_cell_length_c   10.65338031
_cell_angle_alpha   90.00000000
_cell_angle_beta   90.00000000
_cell_angle_gamma   90.00000000
_symmetry_Int_Tables_number   1
_chemical_formula_structural   BaVClO3
_chemical_formula_sum   'Ba4 V4 Cl4 O12'
_cell_volume   429.91565620
_cell_formula_units_Z   4
loop_
 _symmetry_equiv_pos_site_id
 _symmetry_equiv_pos_as_xyz
  1  'x, y, z'
loop_
 _atom_site_type_symbol
 _atom_site_label
 _atom_site_symmetry_multiplicity
 _atom_site_fract_x
 _atom_site_fract_y
 _atom_site_fract_z
 _atom_site_occupancy
  Ba  Ba0  1  0.75000000  0.59805706  0.30689535  1
  Ba  Ba1  1  0.25000000  0.40194294  0.69310465  1
  Ba  Ba2  1  0.25000000  0.09805706  0.19310465  1
  Ba  Ba3  1  0.75000000  0.90194294  0.80689535  1
  V  V4  1  0.25000000  0.94797876  0.53931924  1
  V  V5  1  0.25000000  0.55202124  0.03931924  1
  V  V6  1  0.75000000  0.05202124  0.46068076  1
  V  V7  1  0.75000000  0.44797876  0.96068076  1
  Cl  Cl8  1  0.75000000  0.92649695  0.10598584  1
  Cl  Cl9  1  0.25000000  0.42649695  0.39401416  1
  Cl  Cl10  1  0.25000000  0.07350305  0.89401416  1
  Cl  Cl11  1  0.75000000  0.57350305  0.60598584  1
  O  O12  1  0.99359408  0.40600215  0.09349494  1
  O  O13  1  0.49359408  0.90600215  0.40650506  1
  O  O14  1  0.50640592  0.09399785  0.59349494  1
  O  O15  1  0.00640592  0.90600215  0.40650506  1
  O  O16  1  0.75000000  0.28233738  0.85927682  1
  O  O17  1  0.25000000  0.71766262  0.14072318  1
  O  O18  1  0.49359408  0.59399785  0.90650506  1
  O  O19  1  0.50640592  0.40600215  0.09349494  1
  O  O20  1  0.99359408  0.09399785  0.59349494  1
  O  O21  1  0.75000000  0.21766262  0.35927682  1
  O  O22  1  0.25000000  0.78233738  0.64072318  1
  O  O23  1  0.00640592  0.59399785  0.90650506  1
