# generated using pymatgen
data_FeTeO3F
_symmetry_space_group_name_H-M   'P 1'
_cell_length_a   5.18150992
_cell_length_b   5.14890559
_cell_length_c   12.53161769
_cell_angle_alpha   97.52312284
_cell_angle_beta   90.00000000
_cell_angle_gamma   90.00000000
_symmetry_Int_Tables_number   1
_chemical_formula_structural   FeTeO3F
_chemical_formula_sum   'Fe4 Te4 O12 F4'
_cell_volume   331.45445090
_cell_formula_units_Z   4
loop_
 _symmetry_equiv_pos_site_id
 _symmetry_equiv_pos_as_xyz
  1  'x, y, z'
loop_
 _atom_site_type_symbol
 _atom_site_label
 _atom_site_symmetry_multiplicity
 _atom_site_fract_x
 _atom_site_fract_y
 _atom_site_fract_z
 _atom_site_occupancy
  Fe  Fe0  1  0.24237708  0.03489236  0.92932472  1
  Fe  Fe1  1  0.75762292  0.96510764  0.07067528  1
  Fe  Fe2  1  0.74237708  0.46510764  0.57067528  1
  Fe  Fe3  1  0.25762292  0.53489236  0.42932472  1
  Te  Te4  1  0.19557312  0.49363480  0.17000479  1
  Te  Te5  1  0.30442688  -0.00636520  0.67000479  1
  Te  Te6  1  0.69557312  1.00636520  0.32999521  1
  Te  Te7  1  0.80442688  0.50636520  0.82999521  1
  O  O8  1  0.60527472  0.21180155  0.66275923  1
  O  O9  1  0.06383576  0.20105641  0.06902661  1
  O  O10  1  0.08356099  0.36460534  0.29806485  1
  O  O11  1  0.39472528  0.78819845  0.33724077  1
  O  O12  1  0.93616424  0.79894359  0.93097339  1
  O  O13  1  0.10527472  0.28819845  0.83724077  1
  O  O14  1  0.58356099  0.13539466  0.20193515  1
  O  O15  1  0.89472528  0.71180155  0.16275923  1
  O  O16  1  0.43616424  0.70105641  0.56902661  1
  O  O17  1  0.56383576  0.29894359  0.43097339  1
  O  O18  1  0.91643901  0.63539466  0.70193515  1
  O  O19  1  0.41643901  0.86460534  0.79806485  1
  F  F20  1  0.56468421  0.22606517  0.98525426  1
  F  F21  1  0.43531579  0.77393483  0.01474574  1
  F  F22  1  0.93531579  0.72606517  0.48525426  1
  F  F23  1  0.06468421  0.27393483  0.51474574  1
