# generated using pymatgen
data_K2UCr(IO6)2
_symmetry_space_group_name_H-M   'P 1'
_cell_length_a   7.40107769
_cell_length_b   11.31001108
_cell_length_c   16.01979067
_cell_angle_alpha   107.05890197
_cell_angle_beta   90.00000000
_cell_angle_gamma   90.00000000
_symmetry_Int_Tables_number   1
_chemical_formula_structural   K2UCr(IO6)2
_chemical_formula_sum   'K8 U4 Cr4 I8 O48'
_cell_volume   1281.95976733
_cell_formula_units_Z   4
loop_
 _symmetry_equiv_pos_site_id
 _symmetry_equiv_pos_as_xyz
  1  'x, y, z'
loop_
 _atom_site_type_symbol
 _atom_site_label
 _atom_site_symmetry_multiplicity
 _atom_site_fract_x
 _atom_site_fract_y
 _atom_site_fract_z
 _atom_site_occupancy
  K  K0  1  0.74806704  0.49978530  0.54699430  1
  K  K1  1  0.24806704  0.50021470  0.95300570  1
  K  K2  1  0.24578103  0.25025089  0.13753302  1
  K  K3  1  0.25193296  0.50021470  0.45300570  1
  K  K4  1  0.75421897  0.74974911  0.86246698  1
  K  K5  1  0.74578103  0.74974911  0.36246698  1
  K  K6  1  0.75193296  0.49978530  0.04699430  1
  K  K7  1  0.25421897  0.25025089  0.63753302  1
  U  U8  1  0.50983980  0.16885641  0.86418561  1
  U  U9  1  0.99016020  0.16885641  0.36418561  1
  U  U10  1  0.49016020  0.83114359  0.13581439  1
  U  U11  1  0.00983980  0.83114359  0.63581439  1
  Cr  Cr12  1  0.26534523  0.92276716  0.94681864  1
  Cr  Cr13  1  0.73465477  0.07723284  0.05318136  1
  Cr  Cr14  1  0.23465477  0.92276716  0.44681864  1
  Cr  Cr15  1  0.76534523  0.07723284  0.55318136  1
  I  I16  1  0.98460997  0.82898172  0.10703637  1
  I  I17  1  0.48460997  0.17101828  0.39296363  1
  I  I18  1  0.01539003  0.17101828  0.89296363  1
  I  I19  1  0.28020863  0.59776843  0.22891860  1
  I  I20  1  0.51539003  0.82898172  0.60703637  1
  I  I21  1  0.71979137  0.40223157  0.77108140  1
  I  I22  1  0.21979137  0.59776843  0.72891860  1
  I  I23  1  0.78020863  0.40223157  0.27108140  1
  O  O24  1  0.01413722  0.96806754  0.73017509  1
  O  O25  1  0.81347821  0.93175168  0.56124946  1
  O  O26  1  0.67891187  0.21793381  0.33594545  1
  O  O27  1  0.61674335  0.49264684  0.70661870  1
  O  O28  1  0.79655558  0.51099155  0.37900482  1
  O  O29  1  0.10873031  0.81801596  0.38122529  1
  O  O30  1  0.20593390  0.91908058  0.55232858  1
  O  O31  1  0.47690213  0.30451980  0.48847612  1
  O  O32  1  0.97828880  0.30049411  0.27444128  1
  O  O33  1  0.79406610  0.08091942  0.44767142  1
  O  O34  1  0.05463772  0.89503570  0.92034511  1
  O  O35  1  0.02309787  0.30451980  0.98847612  1
  O  O36  1  0.47828880  0.69950589  0.22555872  1
  O  O37  1  0.68652179  0.93175168  0.06124946  1
  O  O38  1  0.70281223  0.78449815  0.66883218  1
  O  O39  1  0.55463772  0.10496430  0.57965489  1
  O  O40  1  0.94536228  0.10496430  0.07965489  1
  O  O41  1  0.51413722  0.03193246  0.76982491  1
  O  O42  1  0.97690213  0.69548020  0.01152388  1
  O  O43  1  0.29655558  0.48900845  0.12099518  1
  O  O44  1  0.70344442  0.51099155  0.87900482  1
  O  O45  1  0.39126969  0.81801596  0.88122529  1
  O  O46  1  0.89126969  0.18198404  0.61877471  1
  O  O47  1  0.38325665  0.50735316  0.29338130  1
  O  O48  1  0.50424517  0.30592771  0.95927104  1
  O  O49  1  0.00424517  0.69407229  0.54072896  1
  O  O50  1  0.32108813  0.78206619  0.66405455  1
  O  O51  1  0.29406610  0.91908058  0.05232858  1
  O  O52  1  0.52309787  0.69548020  0.51152388  1
  O  O53  1  0.02171120  0.69950589  0.72555872  1
  O  O54  1  0.20281223  0.21550185  0.83116782  1
  O  O55  1  0.31347821  0.06824832  0.93875054  1
  O  O56  1  0.52171120  0.30049411  0.77444128  1
  O  O57  1  0.49575483  0.69407229  0.04072896  1
  O  O58  1  0.70593390  0.08091942  0.94767142  1
  O  O59  1  0.98586278  0.03193246  0.26982491  1
  O  O60  1  0.11674335  0.50735316  0.79338130  1
  O  O61  1  0.88325665  0.49264684  0.20661870  1
  O  O62  1  0.20344442  0.48900845  0.62099518  1
  O  O63  1  0.17891187  0.78206619  0.16405455  1
  O  O64  1  0.99575483  0.30592771  0.45927104  1
  O  O65  1  0.18652179  0.06824832  0.43875054  1
  O  O66  1  0.82108813  0.21793381  0.83594545  1
  O  O67  1  0.48586278  0.96806754  0.23017509  1
  O  O68  1  0.44536228  0.89503570  0.42034511  1
  O  O69  1  0.60873031  0.18198404  0.11877471  1
  O  O70  1  0.79718777  0.78449815  0.16883218  1
  O  O71  1  0.29718777  0.21550185  0.33116782  1
