# generated using pymatgen
data_K2Te(WO4)3
_symmetry_space_group_name_H-M   'P 1'
_cell_length_a   7.40762445
_cell_length_b   11.99203182
_cell_length_c   12.85770355
_cell_angle_alpha   90.00000000
_cell_angle_beta   90.05926986
_cell_angle_gamma   90.00000000
_symmetry_Int_Tables_number   1
_chemical_formula_structural   K2Te(WO4)3
_chemical_formula_sum   'K8 Te4 W12 O48'
_cell_volume   1142.18092850
_cell_formula_units_Z   4
loop_
 _symmetry_equiv_pos_site_id
 _symmetry_equiv_pos_as_xyz
  1  'x, y, z'
loop_
 _atom_site_type_symbol
 _atom_site_label
 _atom_site_symmetry_multiplicity
 _atom_site_fract_x
 _atom_site_fract_y
 _atom_site_fract_z
 _atom_site_occupancy
  K  K0  1  0.75120990  0.04458861  0.41668391  1
  K  K1  1  0.74879010  0.54458861  0.08331609  1
  K  K2  1  0.75133300  0.43719853  0.38313601  1
  K  K3  1  0.74866700  0.93719853  0.11686399  1
  K  K4  1  0.25133300  0.06280147  0.88313601  1
  K  K5  1  0.24879010  0.95541139  0.58331609  1
  K  K6  1  0.25120990  0.45541139  0.91668391  1
  K  K7  1  0.24866700  0.56280147  0.61686399  1
  Te  Te8  1  0.24999440  0.50589315  0.19974561  1
  Te  Te9  1  0.75000560  0.49410685  0.80025439  1
  Te  Te10  1  0.74999440  0.99410685  0.69974561  1
  Te  Te11  1  0.25000560  0.00589315  0.30025439  1
  W  W12  1  0.99782803  0.75283734  0.32962965  1
  W  W13  1  0.00570980  0.74551664  0.82754717  1
  W  W14  1  0.24812037  0.79523998  0.07847355  1
  W  W15  1  0.99429020  0.25448336  0.17245283  1
  W  W16  1  0.50217197  0.25283734  0.17037035  1
  W  W17  1  0.50570980  0.75448336  0.32754717  1
  W  W18  1  0.49429020  0.24551664  0.67245283  1
  W  W19  1  0.49782803  0.74716266  0.82962965  1
  W  W20  1  0.25187963  0.29523998  0.42152645  1
  W  W21  1  0.00217197  0.24716266  0.67037035  1
  W  W22  1  0.74812037  0.70476002  0.57847355  1
  W  W23  1  0.75187963  0.20476002  0.92152645  1
  O  O24  1  0.25390479  0.44110876  0.44651142  1
  O  O25  1  0.43765549  0.42068577  0.13247981  1
  O  O26  1  0.43976936  0.92211504  0.36712809  1
  O  O27  1  0.45178385  0.88757322  0.78780457  1
  O  O28  1  0.24786039  0.11811700  0.40339049  1
  O  O29  1  0.74786039  0.38188300  0.90339049  1
  O  O30  1  0.06439749  0.76217481  0.97255708  1
  O  O31  1  0.56582703  0.19707039  0.81412770  1
  O  O32  1  0.75157652  0.77653248  0.85512520  1
  O  O33  1  0.25157652  0.72346752  0.35512520  1
  O  O34  1  0.56023064  0.07788496  0.63287191  1
  O  O35  1  0.74609521  0.55889124  0.55348858  1
  O  O36  1  0.43671750  0.76440920  0.97354745  1
  O  O37  1  0.75390479  0.05889124  0.94651142  1
  O  O38  1  0.04821615  0.38757322  0.71219543  1
  O  O39  1  0.93671750  0.73559080  0.47354745  1
  O  O40  1  0.74842348  0.27653248  0.64487480  1
  O  O41  1  0.25213961  0.61811700  0.09660951  1
  O  O42  1  0.93976936  0.57788496  0.86712809  1
  O  O43  1  0.93560251  0.23782519  0.02744292  1
  O  O44  1  0.56539791  0.69949520  0.68615095  1
  O  O45  1  0.06582703  0.30292961  0.31412770  1
  O  O46  1  0.74829532  0.30885308  0.19751162  1
  O  O47  1  0.06023064  0.42211504  0.13287191  1
  O  O48  1  0.95178385  0.61242678  0.28780457  1
  O  O49  1  0.24609521  0.94110876  0.05348858  1
  O  O50  1  0.24842348  0.22346752  0.14487480  1
  O  O51  1  0.25170468  0.69114692  0.80248838  1
  O  O52  1  0.93765549  0.07931423  0.63247981  1
  O  O53  1  0.54821615  0.11242678  0.21219543  1
  O  O54  1  0.94865506  0.11398373  0.21383035  1
  O  O55  1  0.93417297  0.69707039  0.68587230  1
  O  O56  1  0.56439749  0.73782519  0.47255708  1
  O  O57  1  0.06234451  0.92068577  0.36752019  1
  O  O58  1  0.56234451  0.57931423  0.86752019  1
  O  O59  1  0.75213961  0.88188300  0.59660951  1
  O  O60  1  0.43417297  0.80292961  0.18587230  1
  O  O61  1  0.55134494  0.61398373  0.28616965  1
  O  O62  1  0.43460209  0.30050480  0.31384905  1
  O  O63  1  0.75170468  0.80885308  0.30248838  1
  O  O64  1  0.93460209  0.19949520  0.81384905  1
  O  O65  1  0.06328250  0.26440920  0.52645255  1
  O  O66  1  0.44865506  0.38601627  0.71383035  1
  O  O67  1  0.24829532  0.19114692  0.69751162  1
  O  O68  1  0.56328250  0.23559080  0.02645255  1
  O  O69  1  0.43560251  0.26217481  0.52744292  1
  O  O70  1  0.05134494  0.88601627  0.78616965  1
  O  O71  1  0.06539791  0.80050480  0.18615095  1
