# generated using pymatgen
data_MoP2PbO8
_symmetry_space_group_name_H-M   'P 1'
_cell_length_a   6.66840899
_cell_length_b   10.23213959
_cell_length_c   10.23213914
_cell_angle_alpha   90.42435924
_cell_angle_beta   98.29668767
_cell_angle_gamma   98.29668639
_symmetry_Int_Tables_number   1
_chemical_formula_structural   MoP2PbO8
_chemical_formula_sum   'Mo4 P8 Pb4 O32'
_cell_volume   683.33888513
_cell_formula_units_Z   4
loop_
 _symmetry_equiv_pos_site_id
 _symmetry_equiv_pos_as_xyz
  1  'x, y, z'
loop_
 _atom_site_type_symbol
 _atom_site_label
 _atom_site_symmetry_multiplicity
 _atom_site_fract_x
 _atom_site_fract_y
 _atom_site_fract_z
 _atom_site_occupancy
  Mo  Mo0  1  0.31342521  0.27529972  0.99156583  1
  Mo  Mo1  1  0.81342521  0.99156583  0.27529972  1
  Mo  Mo2  1  0.68657479  0.72470028  0.00843417  1
  Mo  Mo3  1  0.18657479  0.00843417  0.72470028  1
  P  P4  1  0.69747448  0.98411362  0.79213174  1
  P  P5  1  0.46356059  0.49363665  0.76294651  1
  P  P6  1  0.53643941  0.50636335  0.23705349  1
  P  P7  1  0.80252552  0.20786826  0.01588638  1
  P  P8  1  0.03643941  0.23705349  0.50636335  1
  P  P9  1  0.96356059  0.76294651  0.49363665  1
  P  P10  1  0.30252552  0.01588638  0.20786826  1
  P  P11  1  0.19747448  0.79213174  0.98411362  1
  Pb  Pb12  1  0.04204488  0.49061033  0.26189900  1
  Pb  Pb13  1  0.45795512  0.73810100  0.50938967  1
  Pb  Pb14  1  0.54204488  0.26189900  0.49061033  1
  Pb  Pb15  1  0.95795512  0.50938967  0.73810100  1
  O  O16  1  0.33023067  0.15534024  0.15651070  1
  O  O17  1  0.75000000  0.86805335  0.13194665  1
  O  O18  1  0.66976933  0.84465976  0.84348930  1
  O  O19  1  0.83023067  0.15651070  0.15534024  1
  O  O20  1  0.99778384  0.29192914  0.98317986  1
  O  O21  1  0.33723132  0.58275634  0.67352131  1
  O  O22  1  0.66276868  0.41724366  0.32647869  1
  O  O23  1  0.83723132  0.67352131  0.58275634  1
  O  O24  1  0.87283869  0.01122941  0.71117803  1
  O  O25  1  0.16276868  0.32647869  0.41724366  1
  O  O26  1  0.62716131  0.28882197  0.98877059  1
  O  O27  1  0.86644308  0.13347488  0.42654602  1
  O  O28  1  0.75000000  0.07842919  0.92157081  1
  O  O29  1  0.25000000  0.13194665  0.86805335  1
  O  O30  1  0.19507523  0.16268971  0.59165865  1
  O  O31  1  0.41764658  0.58923377  0.31814986  1
  O  O32  1  0.13355692  0.86652612  0.57345398  1
  O  O33  1  0.91764658  0.31814986  0.58923377  1
  O  O34  1  0.00221616  0.70807086  0.01682014  1
  O  O35  1  0.58235342  0.41076623  0.68185014  1
  O  O36  1  0.50221616  0.01682014  0.70807086  1
  O  O37  1  0.63355692  0.57345398  0.86652612  1
  O  O38  1  0.30492477  0.40834135  0.83731029  1
  O  O39  1  0.16976933  0.84348930  0.84465976  1
  O  O40  1  0.80492477  0.83731029  0.40834135  1
  O  O41  1  0.69507523  0.59165865  0.16268971  1
  O  O42  1  0.25000000  0.92157081  0.07842919  1
  O  O43  1  0.12716131  0.98877059  0.28882197  1
  O  O44  1  0.36644308  0.42654602  0.13347488  1
  O  O45  1  0.49778384  0.98317986  0.29192914  1
  O  O46  1  0.08235342  0.68185014  0.41076623  1
  O  O47  1  0.37283869  0.71117803  0.01122941  1
