# generated using pymatgen
data_MnVBiO5
_symmetry_space_group_name_H-M   'P 1'
_cell_length_a   5.46632435
_cell_length_b   7.05047574
_cell_length_c   7.09958515
_cell_angle_alpha   109.76391402
_cell_angle_beta   107.66225192
_cell_angle_gamma   96.83566209
_symmetry_Int_Tables_number   1
_chemical_formula_structural   MnVBiO5
_chemical_formula_sum   'Mn2 V2 Bi2 O10'
_cell_volume   237.75215686
_cell_formula_units_Z   2
loop_
 _symmetry_equiv_pos_site_id
 _symmetry_equiv_pos_as_xyz
  1  'x, y, z'
loop_
 _atom_site_type_symbol
 _atom_site_label
 _atom_site_symmetry_multiplicity
 _atom_site_fract_x
 _atom_site_fract_y
 _atom_site_fract_z
 _atom_site_occupancy
  Mn  Mn0  1  0.32712376  0.36754555  0.22763542  1
  Mn  Mn1  1  0.67287624  0.63245445  0.77236458  1
  V  V2  1  0.65820097  0.18085574  0.88593258  1
  V  V3  1  0.34179903  0.81914426  0.11406742  1
  Bi  Bi4  1  0.10297134  0.75600479  0.53527182  1
  Bi  Bi5  1  0.89702866  0.24399521  0.46472818  1
  O  O6  1  0.22541299  0.65993729  0.23043962  1
  O  O7  1  0.43431366  0.08501392  0.28917048  1
  O  O8  1  0.61750677  0.75563433  0.07151252  1
  O  O9  1  0.56568634  0.91498608  0.71082952  1
  O  O10  1  0.73569846  0.50277986  0.44983033  1
  O  O11  1  0.77458701  0.34006271  0.76956038  1
  O  O12  1  0.90962640  0.21703727  0.12964874  1
  O  O13  1  0.09037360  0.78296273  0.87035126  1
  O  O14  1  0.38249323  0.24436567  0.92848748  1
  O  O15  1  0.26430154  0.49722014  0.55016967  1
