# generated using pymatgen
data_BaV2(P2O7)2
_symmetry_space_group_name_H-M   'P 1'
_cell_length_a   6.25977862
_cell_length_b   6.38351855
_cell_length_c   8.05077804
_cell_angle_alpha   96.32935095
_cell_angle_beta   101.36235643
_cell_angle_gamma   105.95112864
_symmetry_Int_Tables_number   1
_chemical_formula_structural   BaV2(P2O7)2
_chemical_formula_sum   'Ba1 V2 P4 O14'
_cell_volume   298.60852070
_cell_formula_units_Z   1
loop_
 _symmetry_equiv_pos_site_id
 _symmetry_equiv_pos_as_xyz
  1  'x, y, z'
loop_
 _atom_site_type_symbol
 _atom_site_label
 _atom_site_symmetry_multiplicity
 _atom_site_fract_x
 _atom_site_fract_y
 _atom_site_fract_z
 _atom_site_occupancy
  Ba  Ba0  1  0.00000000  0.00000000  0.00000000  1
  V  V1  1  0.37998121  0.69300986  0.23011172  1
  V  V2  1  0.62001879  0.30699014  0.76988828  1
  P  P3  1  0.18502435  0.47053645  0.80931131  1
  P  P4  1  0.48092809  0.24624116  0.33390507  1
  P  P5  1  0.81497565  0.52946355  0.19068869  1
  P  P6  1  0.51907191  0.75375884  0.66609493  1
  O  O7  1  0.77916213  0.35505192  0.03262463  1
  O  O8  1  0.43120435  0.02192536  0.21922877  1
  O  O9  1  0.22083787  0.64494808  0.96737537  1
  O  O10  1  0.93723445  0.32758614  0.73920925  1
  O  O11  1  0.56879565  0.97807464  0.78077123  1
  O  O12  1  0.74004766  0.39622978  0.33964118  1
  O  O13  1  0.47364475  0.23299429  0.51886881  1
  O  O14  1  0.68562167  0.64050343  0.75853864  1
  O  O15  1  0.66937280  0.68788330  0.15797343  1
  O  O16  1  0.52635525  0.76700571  0.48113119  1
  O  O17  1  0.25995234  0.60377022  0.66035882  1
  O  O18  1  0.33062720  0.31211670  0.84202657  1
  O  O19  1  0.06276555  0.67241386  0.26079075  1
  O  O20  1  0.31437833  0.35949657  0.24146136  1
