# generated using pymatgen
data_KCrIO6
_symmetry_space_group_name_H-M   'P 1'
_cell_length_a   4.87216644
_cell_length_b   9.36849303
_cell_length_c   14.30746163
_cell_angle_alpha   107.51621169
_cell_angle_beta   90.00000000
_cell_angle_gamma   90.00000000
_symmetry_Int_Tables_number   1
_chemical_formula_structural   KCrIO6
_chemical_formula_sum   'K4 Cr4 I4 O24'
_cell_volume   622.78075224
_cell_formula_units_Z   4
loop_
 _symmetry_equiv_pos_site_id
 _symmetry_equiv_pos_as_xyz
  1  'x, y, z'
loop_
 _atom_site_type_symbol
 _atom_site_label
 _atom_site_symmetry_multiplicity
 _atom_site_fract_x
 _atom_site_fract_y
 _atom_site_fract_z
 _atom_site_occupancy
  K  K0  1  0.08943863  0.89978332  0.33563524  1
  K  K1  1  0.58943863  0.10021668  0.16436476  1
  K  K2  1  0.41056137  0.89978332  0.83563524  1
  K  K3  1  0.91056137  0.10021668  0.66436476  1
  Cr  Cr4  1  0.96276715  0.77662888  0.02848820  1
  Cr  Cr5  1  0.03723285  0.22337112  0.97151180  1
  Cr  Cr6  1  0.53723285  0.77662888  0.52848820  1
  Cr  Cr7  1  0.46276715  0.22337112  0.47151180  1
  I  I8  1  0.33241842  0.42926084  0.83600273  1
  I  I9  1  0.16758158  0.42926084  0.33600273  1
  I  I10  1  0.83241842  0.57073916  0.66399727  1
  I  I11  1  0.66758158  0.57073916  0.16399727  1
  O  O12  1  0.28972361  0.71243281  0.44916215  1
  O  O13  1  0.58299615  0.75691177  0.23793301  1
  O  O14  1  0.74978738  0.87666810  0.98714302  1
  O  O15  1  0.77803143  0.61711514  0.04562019  1
  O  O16  1  0.78972361  0.28756719  0.05083785  1
  O  O17  1  0.08299615  0.24308823  0.26206699  1
  O  O18  1  0.27803143  0.38288486  0.45437981  1
  O  O19  1  0.91700385  0.75691177  0.73793301  1
  O  O20  1  0.01138264  0.55625499  0.21266316  1
  O  O21  1  0.72196857  0.61711514  0.54562019  1
  O  O22  1  0.75021262  0.87666810  0.48714302  1
  O  O23  1  0.24978738  0.12333190  0.51285698  1
  O  O24  1  0.08191862  0.87895137  0.13377021  1
  O  O25  1  0.91808138  0.12104863  0.86622979  1
  O  O26  1  0.21027639  0.71243281  0.94916215  1
  O  O27  1  0.58191862  0.12104863  0.36622979  1
  O  O28  1  0.22196857  0.38288486  0.95437981  1
  O  O29  1  0.51138264  0.44374501  0.28733684  1
  O  O30  1  0.41808138  0.87895137  0.63377021  1
  O  O31  1  0.48861736  0.55625499  0.71266316  1
  O  O32  1  0.71027639  0.28756719  0.55083785  1
  O  O33  1  0.98861736  0.44374501  0.78733684  1
  O  O34  1  0.41700385  0.24308823  0.76206699  1
  O  O35  1  0.25021262  0.12333190  0.01285698  1
