# generated using pymatgen
data_Ba3ErMn2O9
_symmetry_space_group_name_H-M   'P 1'
_cell_length_a   5.90910108
_cell_length_b   5.90910108
_cell_length_c   14.42562840
_cell_angle_alpha   90.00000000
_cell_angle_beta   90.00000000
_cell_angle_gamma   59.97291133
_symmetry_Int_Tables_number   1
_chemical_formula_structural   Ba3ErMn2O9
_chemical_formula_sum   'Ba6 Er2 Mn4 O18'
_cell_volume   436.10352680
_cell_formula_units_Z   2
loop_
 _symmetry_equiv_pos_site_id
 _symmetry_equiv_pos_as_xyz
  1  'x, y, z'
loop_
 _atom_site_type_symbol
 _atom_site_label
 _atom_site_symmetry_multiplicity
 _atom_site_fract_x
 _atom_site_fract_y
 _atom_site_fract_z
 _atom_site_occupancy
  Ba  Ba0  1  -0.00004287  -0.00004287  0.25623583  1
  Ba  Ba1  1  0.00004287  0.00004287  0.75623583  1
  Ba  Ba2  1  0.66790764  0.66790764  0.41424202  1
  Ba  Ba3  1  0.33209236  0.33209236  0.91424202  1
  Ba  Ba4  1  0.33464040  0.33464040  0.60021255  1
  Ba  Ba5  1  0.66535960  0.66535960  0.10021255  1
  Er  Er6  1  0.00129624  0.00129624  0.50580173  1
  Er  Er7  1  0.99870376  0.99870376  0.00580173  1
  Mn  Mn8  1  0.33439002  0.33439002  0.34664353  1
  Mn  Mn9  1  0.66560998  0.66560998  0.84664353  1
  Mn  Mn10  1  0.66785191  0.66785191  0.66456788  1
  Mn  Mn11  1  0.33214809  0.33214809  0.16456788  1
  O  O12  1  0.17895781  0.17895781  0.41854384  1
  O  O13  1  0.82104219  0.82104219  0.91854384  1
  O  O14  1  0.82555057  0.82555057  0.59451031  1
  O  O15  1  0.17444943  0.17444943  0.09451031  1
  O  O16  1  0.17771298  0.64862653  0.41701433  1
  O  O17  1  0.64862653  0.17771298  0.41701433  1
  O  O18  1  0.82228702  0.35137347  0.91701433  1
  O  O19  1  0.35137347  0.82228702  0.91701433  1
  O  O20  1  0.82400686  0.35704250  0.59241373  1
  O  O21  1  0.35704250  0.82400686  0.59241373  1
  O  O22  1  0.17599314  0.64295750  0.09241373  1
  O  O23  1  0.64295750  0.17599314  0.09241373  1
  O  O24  1  0.04422352  0.47795984  0.25601662  1
  O  O25  1  0.47795984  0.04422352  0.25601662  1
  O  O26  1  0.95577648  0.52204016  0.75601662  1
  O  O27  1  0.52204016  0.95577648  0.75601662  1
  O  O28  1  0.47789266  0.47789266  0.25445296  1
  O  O29  1  0.52210734  0.52210734  0.75445296  1
