# generated using pymatgen
data_Cs2V4O9
_symmetry_space_group_name_H-M   'P 1'
_cell_length_a   5.85324586
_cell_length_b   5.85324586
_cell_length_c   15.61202517
_cell_angle_alpha   90.00000000
_cell_angle_beta   90.00000000
_cell_angle_gamma   90.00000000
_symmetry_Int_Tables_number   1
_chemical_formula_structural   Cs2V4O9
_chemical_formula_sum   'Cs4 V8 O18'
_cell_volume   534.87558690
_cell_formula_units_Z   2
loop_
 _symmetry_equiv_pos_site_id
 _symmetry_equiv_pos_as_xyz
  1  'x, y, z'
loop_
 _atom_site_type_symbol
 _atom_site_label
 _atom_site_symmetry_multiplicity
 _atom_site_fract_x
 _atom_site_fract_y
 _atom_site_fract_z
 _atom_site_occupancy
  Cs  Cs0  1  0.73262006  0.74960513  0.50000000  1
  Cs  Cs1  1  0.74960513  0.26737994  0.00000000  1
  Cs  Cs2  1  0.26737994  0.25039487  0.50000000  1
  Cs  Cs3  1  0.25039487  0.73262006  0.00000000  1
  V  V4  1  0.28818607  0.14534152  0.79727157  1
  V  V5  1  0.14534152  0.71181393  0.70272843  1
  V  V6  1  0.71181393  0.85465848  0.79727157  1
  V  V7  1  0.28818607  0.14534152  0.20272843  1
  V  V8  1  0.14534152  0.71181393  0.29727157  1
  V  V9  1  0.85465848  0.28818607  0.29727157  1
  V  V10  1  0.85465848  0.28818607  0.70272843  1
  V  V11  1  0.71181393  0.85465848  0.20272843  1
  O  O12  1  0.76319419  0.78208265  0.89897441  1
  O  O13  1  0.78208265  0.23680581  0.60102559  1
  O  O14  1  0.21791735  0.76319419  0.60102559  1
  O  O15  1  0.18008568  0.38047729  0.28268099  1
  O  O16  1  0.61952271  0.18008568  0.21731901  1
  O  O17  1  0.78208265  0.23680581  0.39897441  1
  O  O18  1  0.81991432  0.61952271  0.71731901  1
  O  O19  1  0.23680581  0.21791735  0.89897441  1
  O  O20  1  0.38047729  0.81991432  0.21731901  1
  O  O21  1  0.23680581  0.21791735  0.10102559  1
  O  O22  1  0.38047729  0.81991432  0.78268099  1
  O  O23  1  0.18008568  0.38047729  0.71731901  1
  O  O24  1  0.00000000  0.00000000  0.75000000  1
  O  O25  1  0.61952271  0.18008568  0.78268099  1
  O  O26  1  0.76319419  0.78208265  0.10102559  1
  O  O27  1  0.81991432  0.61952271  0.28268099  1
  O  O28  1  0.21791735  0.76319419  0.39897441  1
  O  O29  1  0.00000000  0.00000000  0.25000000  1
