# generated using pymatgen
data_CrSbF10
_symmetry_space_group_name_H-M   'P 1'
_cell_length_a   5.81966477
_cell_length_b   10.56347423
_cell_length_c   12.46070049
_cell_angle_alpha   90.00000000
_cell_angle_beta   100.54591806
_cell_angle_gamma   90.00000000
_symmetry_Int_Tables_number   1
_chemical_formula_structural   CrSbF10
_chemical_formula_sum   'Cr4 Sb4 F40'
_cell_volume   753.09310891
_cell_formula_units_Z   4
loop_
 _symmetry_equiv_pos_site_id
 _symmetry_equiv_pos_as_xyz
  1  'x, y, z'
loop_
 _atom_site_type_symbol
 _atom_site_label
 _atom_site_symmetry_multiplicity
 _atom_site_fract_x
 _atom_site_fract_y
 _atom_site_fract_z
 _atom_site_occupancy
  Cr  Cr0  1  0.67645458  0.75454008  0.80124196  1
  Cr  Cr1  1  0.67645458  0.74545992  0.30124196  1
  Cr  Cr2  1  0.32354542  0.24545992  0.19875804  1
  Cr  Cr3  1  0.32354542  0.25454008  0.69875804  1
  Sb  Sb4  1  0.00000000  0.00000000  0.50000000  1
  Sb  Sb5  1  0.00000000  0.00000000  0.00000000  1
  Sb  Sb6  1  0.00000000  0.50000000  0.50000000  1
  Sb  Sb7  1  0.00000000  0.50000000  0.00000000  1
  F  F8  1  0.52780165  0.60907946  0.25460607  1
  F  F9  1  0.26604460  0.57734544  0.46104982  1
  F  F10  1  0.19541389  0.15234757  0.05353631  1
  F  F11  1  0.07226228  0.92681983  0.14101840  1
  F  F12  1  0.57886328  0.82951474  0.18294559  1
  F  F13  1  0.73395540  0.07734544  0.03895018  1
  F  F14  1  0.24678087  0.05343589  0.43045022  1
  F  F15  1  0.57886328  0.67048526  0.68294559  1
  F  F16  1  0.75321913  0.55343589  0.06954978  1
  F  F17  1  0.42113672  0.32951474  0.31705441  1
  F  F18  1  0.82931912  0.35311333  0.94818059  1
  F  F19  1  0.24678087  0.44656411  0.93045022  1
  F  F20  1  0.47880875  0.80076048  0.37703825  1
  F  F21  1  0.85734740  0.90703797  0.36351209  1
  F  F22  1  0.05319780  0.20600667  0.22666220  1
  F  F23  1  0.85734740  0.59296203  0.86351209  1
  F  F24  1  0.73395540  0.42265456  0.53895018  1
  F  F25  1  0.14265260  0.09296203  0.63648791  1
  F  F26  1  0.92773772  0.42681983  0.35898160  1
  F  F27  1  0.47219835  0.10907946  0.24539393  1
  F  F28  1  0.17068088  0.64688667  0.05181941  1
  F  F29  1  0.52119125  0.19923952  0.62296175  1
  F  F30  1  0.80458611  0.84765243  0.94646369  1
  F  F31  1  0.52119125  0.30076048  0.12296175  1
  F  F32  1  0.94680220  0.79399333  0.77333780  1
  F  F33  1  0.75321913  0.94656411  0.56954978  1
  F  F34  1  0.07226228  0.57318017  0.64101840  1
  F  F35  1  0.92773772  0.07318017  0.85898160  1
  F  F36  1  0.47219835  0.39092054  0.74539393  1
  F  F37  1  0.26604460  0.92265456  0.96104982  1
  F  F38  1  0.52780165  0.89092054  0.75460607  1
  F  F39  1  0.42113672  0.17048526  0.81705441  1
  F  F40  1  0.17068088  0.85311333  0.55181941  1
  F  F41  1  0.47880875  0.69923952  0.87703825  1
  F  F42  1  0.05319780  0.29399333  0.72666220  1
  F  F43  1  0.82931912  0.14688667  0.44818059  1
  F  F44  1  0.80458611  0.65234757  0.44646369  1
  F  F45  1  0.14265260  0.40703797  0.13648791  1
  F  F46  1  0.19541389  0.34765243  0.55353631  1
  F  F47  1  0.94680220  0.70600667  0.27333780  1
