# generated using pymatgen
data_Rb5ErHf(MoO4)6
_symmetry_space_group_name_H-M   'P 1'
_cell_length_a   14.67324434
_cell_length_b   14.67324445
_cell_length_c   14.67324409
_cell_angle_alpha   43.87873459
_cell_angle_beta   43.87873415
_cell_angle_gamma   43.87873496
_symmetry_Int_Tables_number   1
_chemical_formula_structural   Rb5ErHf(MoO4)6
_chemical_formula_sum   'Rb10 Er2 Hf2 Mo12 O48'
_cell_volume   1378.22307675
_cell_formula_units_Z   2
loop_
 _symmetry_equiv_pos_site_id
 _symmetry_equiv_pos_as_xyz
  1  'x, y, z'
loop_
 _atom_site_type_symbol
 _atom_site_label
 _atom_site_symmetry_multiplicity
 _atom_site_fract_x
 _atom_site_fract_y
 _atom_site_fract_z
 _atom_site_occupancy
  Rb  Rb0  1  0.75000000  0.36031419  0.13968581  1
  Rb  Rb1  1  0.13968581  0.75000000  0.36031419  1
  Rb  Rb2  1  0.36031419  0.13968581  0.75000000  1
  Rb  Rb3  1  0.14669562  0.14669562  0.14669562  1
  Rb  Rb4  1  0.86031419  0.25000000  0.63968581  1
  Rb  Rb5  1  0.63968581  0.86031419  0.25000000  1
  Rb  Rb6  1  0.25000000  0.63968581  0.86031419  1
  Rb  Rb7  1  0.64669562  0.64669562  0.64669562  1
  Rb  Rb8  1  0.85330438  0.85330438  0.85330438  1
  Rb  Rb9  1  0.35330438  0.35330438  0.35330438  1
  Er  Er10  1  0.00000000  0.00000000  0.00000000  1
  Er  Er11  1  0.50000000  0.50000000  0.50000000  1
  Hf  Hf12  1  0.75000000  0.75000000  0.75000000  1
  Hf  Hf13  1  0.25000000  0.25000000  0.25000000  1
  Mo  Mo14  1  0.11257943  0.52747275  0.75955801  1
  Mo  Mo15  1  0.02747275  0.61257943  0.25955801  1
  Mo  Mo16  1  0.47252725  0.24044199  0.88742057  1
  Mo  Mo17  1  0.61257943  0.25955801  0.02747275  1
  Mo  Mo18  1  0.75955801  0.11257943  0.52747275  1
  Mo  Mo19  1  0.38742057  0.74044199  0.97252725  1
  Mo  Mo20  1  0.52747275  0.75955801  0.11257943  1
  Mo  Mo21  1  0.25955801  0.02747275  0.61257943  1
  Mo  Mo22  1  0.97252725  0.38742057  0.74044199  1
  Mo  Mo23  1  0.74044199  0.97252725  0.38742057  1
  Mo  Mo24  1  0.24044199  0.88742057  0.47252725  1
  Mo  Mo25  1  0.88742057  0.47252725  0.24044199  1
  O  O26  1  0.84351009  0.11070810  0.57314673  1
  O  O27  1  0.90467214  0.63795662  0.11741116  1
  O  O28  1  0.63795662  0.11741116  0.90467214  1
  O  O29  1  0.11070810  0.57314673  0.84351009  1
  O  O30  1  0.67785817  0.70448301  0.95882380  1
  O  O31  1  0.71379711  0.49331642  0.39641830  1
  O  O32  1  0.42685327  0.15648991  0.88929190  1
  O  O33  1  0.00668358  0.78620289  0.10358170  1
  O  O34  1  0.09532786  0.36204338  0.88258884  1
  O  O35  1  0.38258884  0.86204338  0.59532786  1
  O  O36  1  0.36204338  0.88258884  0.09532786  1
  O  O37  1  0.60358170  0.28620289  0.50668358  1
  O  O38  1  0.61741116  0.13795662  0.40467214  1
  O  O39  1  0.88929190  0.42685327  0.15648991  1
  O  O40  1  0.21379711  0.89641830  0.99331642  1
  O  O41  1  0.04117620  0.32214183  0.29551699  1
  O  O42  1  0.38929190  0.65648991  0.92685327  1
  O  O43  1  0.11741116  0.90467214  0.63795662  1
  O  O44  1  0.59532786  0.38258884  0.86204338  1
  O  O45  1  0.07314673  0.61070810  0.34351009  1
  O  O46  1  0.15648991  0.88929190  0.42685327  1
  O  O47  1  0.57314673  0.84351009  0.11070810  1
  O  O48  1  0.78620289  0.10358170  0.00668358  1
  O  O49  1  0.70448301  0.95882380  0.67785817  1
  O  O50  1  0.32214183  0.29551699  0.04117620  1
  O  O51  1  0.17785817  0.45882380  0.20448301  1
  O  O52  1  0.40467214  0.61741116  0.13795662  1
  O  O53  1  0.86204338  0.59532786  0.38258884  1
  O  O54  1  0.20448301  0.17785817  0.45882380  1
  O  O55  1  0.79551699  0.82214183  0.54117620  1
  O  O56  1  0.54117620  0.79551699  0.82214183  1
  O  O57  1  0.99331642  0.21379711  0.89641830  1
  O  O58  1  0.13795662  0.40467214  0.61741116  1
  O  O59  1  0.88258884  0.09532786  0.36204338  1
  O  O60  1  0.28620289  0.50668358  0.60358170  1
  O  O61  1  0.61070810  0.34351009  0.07314673  1
  O  O62  1  0.49331642  0.39641830  0.71379711  1
  O  O63  1  0.92685327  0.38929190  0.65648991  1
  O  O64  1  0.65648991  0.92685327  0.38929190  1
  O  O65  1  0.89641830  0.99331642  0.21379711  1
  O  O66  1  0.95882380  0.67785817  0.70448301  1
  O  O67  1  0.50668358  0.60358170  0.28620289  1
  O  O68  1  0.29551699  0.04117620  0.32214183  1
  O  O69  1  0.34351009  0.07314673  0.61070810  1
  O  O70  1  0.45882380  0.20448301  0.17785817  1
  O  O71  1  0.10358170  0.00668358  0.78620289  1
  O  O72  1  0.39641830  0.71379711  0.49331642  1
  O  O73  1  0.82214183  0.54117620  0.79551699  1
