# generated using pymatgen
data_LiFe(SeO3)2
_symmetry_space_group_name_H-M   'P 1'
_cell_length_a   9.19981566
_cell_length_b   9.19981550
_cell_length_c   9.19981659
_cell_angle_alpha   107.74157750
_cell_angle_beta   107.74157718
_cell_angle_gamma   112.98881707
_symmetry_Int_Tables_number   1
_chemical_formula_structural   LiFe(SeO3)2
_chemical_formula_sum   'Li4 Fe4 Se8 O24'
_cell_volume   597.69275015
_cell_formula_units_Z   4
loop_
 _symmetry_equiv_pos_site_id
 _symmetry_equiv_pos_as_xyz
  1  'x, y, z'
loop_
 _atom_site_type_symbol
 _atom_site_label
 _atom_site_symmetry_multiplicity
 _atom_site_fract_x
 _atom_site_fract_y
 _atom_site_fract_z
 _atom_site_occupancy
  Li  Li0  1  0.37500000  0.68958517  0.81458517  1
  Li  Li1  1  0.31041483  0.12500000  0.68541483  1
  Li  Li2  1  0.87500000  0.56041483  0.18541483  1
  Li  Li3  1  0.43958517  0.62500000  0.31458517  1
  Fe  Fe4  1  0.16244421  0.62500000  0.03744421  1
  Fe  Fe5  1  0.87500000  0.83755579  0.46255579  1
  Fe  Fe6  1  0.37500000  0.41244421  0.53744421  1
  Fe  Fe7  1  0.58755579  0.12500000  0.96255579  1
  Se  Se8  1  0.61593286  0.39625762  0.32898616  1
  Se  Se9  1  0.14625762  0.86593286  0.82898616  1
  Se  Se10  1  0.71305330  0.38406714  0.78032476  1
  Se  Se11  1  0.68272855  0.85374238  0.71967524  1
  Se  Se12  1  0.60374238  0.93272855  0.21967524  1
  Se  Se13  1  0.03694670  0.31727145  0.17101384  1
  Se  Se14  1  0.06727145  0.28694670  0.67101384  1
  Se  Se15  1  0.13406714  0.96305330  0.28032476  1
  O  O16  1  0.31821188  0.95482068  0.77967708  1
  O  O17  1  0.31298802  0.15429976  0.47650262  1
  O  O18  1  0.12289211  0.33127978  0.37236752  1
  O  O19  1  0.04517932  0.82485640  0.36339020  1
  O  O20  1  0.90429976  0.56298802  0.97650262  1
  O  O21  1  0.58648540  0.92779714  0.02349738  1
  O  O22  1  0.07220286  0.09570024  0.65868927  1
  O  O23  1  0.66872022  0.04108774  0.79161333  1
  O  O24  1  0.16351460  0.68701198  0.84131073  1
  O  O25  1  0.84570024  0.32220286  0.15868927  1
  O  O26  1  0.43178812  0.71146620  0.13660980  1
  O  O27  1  0.57485640  0.29517932  0.86339020  1
  O  O28  1  0.24947441  0.87710789  0.20838667  1
  O  O29  1  0.79108774  0.91872022  0.29161333  1
  O  O30  1  0.08127978  0.37289211  0.87236752  1
  O  O31  1  0.43701198  0.41351460  0.34131073  1
  O  O32  1  0.67779714  0.83648540  0.52349738  1
  O  O33  1  0.50052559  0.20891226  0.12763248  1
  O  O34  1  0.95891226  0.75052559  0.62763248  1
  O  O35  1  0.17514360  0.53853380  0.22032292  1
  O  O36  1  0.62710789  0.49947441  0.70838667  1
  O  O37  1  0.70482068  0.56821188  0.27967708  1
  O  O38  1  0.46146620  0.68178812  0.63660980  1
  O  O39  1  0.28853380  0.42514360  0.72032292  1
