# generated using pymatgen
data_K8Hf(MoO4)6
_symmetry_space_group_name_H-M   'P 1'
_cell_length_a   10.43028793
_cell_length_b   12.05806956
_cell_length_c   12.31995592
_cell_angle_alpha   90.00000000
_cell_angle_beta   108.64360093
_cell_angle_gamma   90.00000000
_symmetry_Int_Tables_number   1
_chemical_formula_structural   K8Hf(MoO4)6
_chemical_formula_sum   'K16 Hf2 Mo12 O48'
_cell_volume   1468.16242031
_cell_formula_units_Z   2
loop_
 _symmetry_equiv_pos_site_id
 _symmetry_equiv_pos_as_xyz
  1  'x, y, z'
loop_
 _atom_site_type_symbol
 _atom_site_label
 _atom_site_symmetry_multiplicity
 _atom_site_fract_x
 _atom_site_fract_y
 _atom_site_fract_z
 _atom_site_occupancy
  K  K0  1  0.25102930  0.57038535  0.89190070  1
  K  K1  1  0.24897070  0.07038535  0.60809930  1
  K  K2  1  0.10338972  0.20259667  0.29332907  1
  K  K3  1  0.88627544  0.44404305  0.71864346  1
  K  K4  1  0.17979781  0.72087060  0.57713187  1
  K  K5  1  0.74897070  0.42961465  0.10809930  1
  K  K6  1  0.89661028  0.79740333  0.70667093  1
  K  K7  1  0.39661028  0.70259667  0.20667093  1
  K  K8  1  0.82020219  0.27912940  0.42286813  1
  K  K9  1  0.60338972  0.29740333  0.79332907  1
  K  K10  1  0.32020219  0.22087060  0.92286813  1
  K  K11  1  0.11372456  0.55595695  0.28135654  1
  K  K12  1  0.61372456  0.94404305  0.78135654  1
  K  K13  1  0.38627544  0.05595695  0.21864346  1
  K  K14  1  0.75102930  0.92961465  0.39190070  1
  K  K15  1  0.67979781  0.77912940  0.07713187  1
  Hf  Hf16  1  0.00000000  0.00000000  0.00000000  1
  Hf  Hf17  1  0.50000000  0.50000000  0.50000000  1
  Mo  Mo18  1  0.78654879  0.60691087  0.40178845  1
  Mo  Mo19  1  0.06016258  0.89541840  0.29356132  1
  Mo  Mo20  1  0.02115710  0.31957180  0.00622902  1
  Mo  Mo21  1  0.93983742  0.10458160  0.70643868  1
  Mo  Mo22  1  0.97884290  0.68042820  0.99377098  1
  Mo  Mo23  1  0.21345121  0.39308913  0.59821155  1
  Mo  Mo24  1  0.43983742  0.39541840  0.20643868  1
  Mo  Mo25  1  0.52115710  0.18042820  0.50622902  1
  Mo  Mo26  1  0.28654879  0.89308913  0.90178845  1
  Mo  Mo27  1  0.71345121  0.10691087  0.09821155  1
  Mo  Mo28  1  0.47884290  0.81957180  0.49377098  1
  Mo  Mo29  1  0.56016258  0.60458160  0.79356132  1
  O  O30  1  0.89373013  0.70423488  0.49803515  1
  O  O31  1  0.38690119  0.98449634  0.84882666  1
  O  O32  1  0.14870076  0.65400257  0.07866331  1
  O  O33  1  0.88690119  0.51550366  0.34882666  1
  O  O34  1  0.60626987  0.20423488  0.00196485  1
  O  O35  1  0.17132250  0.81969090  0.78586305  1
  O  O36  1  0.40371047  0.47498936  0.32495886  1
  O  O37  1  0.82867750  0.18030910  0.21413695  1
  O  O38  1  0.80987795  0.02472144  0.02135644  1
  O  O39  1  0.83564444  0.22447667  0.66031836  1
  O  O40  1  0.88868154  0.85355535  0.24756700  1
  O  O41  1  0.32867750  0.31969090  0.71413695  1
  O  O42  1  0.59628953  0.52501064  0.67504114  1
  O  O43  1  0.04426184  0.38147061  0.14277104  1
  O  O44  1  0.38868154  0.64644465  0.74756700  1
  O  O45  1  0.61309881  0.01550366  0.15117334  1
  O  O46  1  0.41840643  0.48811327  0.09075147  1
  O  O47  1  0.09628953  0.97498936  0.17504114  1
  O  O48  1  0.08159357  0.98811327  0.40924853  1
  O  O49  1  0.69012205  0.52472144  0.47864356  1
  O  O50  1  0.91840643  0.01188673  0.59075147  1
  O  O51  1  0.58159357  0.51188673  0.90924853  1
  O  O52  1  0.37476470  0.87742505  0.56850490  1
  O  O53  1  0.39373013  0.79576512  0.99803515  1
  O  O54  1  0.16435556  0.77552333  0.33968164  1
  O  O55  1  0.90371047  0.02501064  0.82495886  1
  O  O56  1  0.04616306  0.16674245  0.02530952  1
  O  O57  1  0.66435556  0.72447667  0.83968164  1
  O  O58  1  0.35129924  0.15400257  0.42133669  1
  O  O59  1  0.45573816  0.88147061  0.35722896  1
  O  O60  1  0.12523530  0.37742505  0.93149510  1
  O  O61  1  0.33564444  0.27552333  0.16031836  1
  O  O62  1  0.95573816  0.61852939  0.85722896  1
  O  O63  1  0.62523530  0.12257495  0.43149510  1
  O  O64  1  0.10626987  0.29576512  0.50196485  1
  O  O65  1  0.95383694  0.83325755  0.97469048  1
  O  O66  1  0.67132250  0.68030910  0.28586305  1
  O  O67  1  0.11309881  0.48449634  0.65117334  1
  O  O68  1  0.45383694  0.66674245  0.47469048  1
  O  O69  1  0.30987795  0.47527856  0.52135644  1
  O  O70  1  0.54426184  0.11852939  0.64277104  1
  O  O71  1  0.54616306  0.33325755  0.52530952  1
  O  O72  1  0.64870076  0.84599743  0.57866331  1
  O  O73  1  0.85129924  0.34599743  0.92133669  1
  O  O74  1  0.87476470  0.62257495  0.06850490  1
  O  O75  1  0.19012205  0.97527856  0.97864356  1
  O  O76  1  0.61131846  0.35355535  0.25243300  1
  O  O77  1  0.11131846  0.14644465  0.75243300  1
