# generated using pymatgen
data_EuP5O14
_symmetry_space_group_name_H-M   'P 1'
_cell_length_a   8.70929693
_cell_length_b   8.94350504
_cell_length_c   13.01538627
_cell_angle_alpha   90.00000000
_cell_angle_beta   90.91013127
_cell_angle_gamma   90.00000000
_symmetry_Int_Tables_number   1
_chemical_formula_structural   EuP5O14
_chemical_formula_sum   'Eu4 P20 O56'
_cell_volume   1013.66189441
_cell_formula_units_Z   4
loop_
 _symmetry_equiv_pos_site_id
 _symmetry_equiv_pos_as_xyz
  1  'x, y, z'
loop_
 _atom_site_type_symbol
 _atom_site_label
 _atom_site_symmetry_multiplicity
 _atom_site_fract_x
 _atom_site_fract_y
 _atom_site_fract_z
 _atom_site_occupancy
  Eu  Eu0  1  0.22166074  0.30891515  0.00096847  1
  Eu  Eu1  1  0.77833926  0.69108485  0.99903153  1
  Eu  Eu2  1  0.22166074  0.19108485  0.50096847  1
  Eu  Eu3  1  0.77833926  0.80891515  0.49903153  1
  P  P4  1  0.81397799  0.25511296  -0.00010398  1
  P  P5  1  0.72466739  0.44806936  0.66344729  1
  P  P6  1  0.27533261  0.55193064  0.33655271  1
  P  P7  1  0.50745646  0.50324982  0.17246120  1
  P  P8  1  0.72466739  0.05193064  0.16344729  1
  P  P9  1  0.00901168  0.50580670  0.20312533  1
  P  P10  1  0.74590554  0.45290178  0.33525879  1
  P  P11  1  0.81397799  0.24488704  0.49989602  1
  P  P12  1  0.27533261  0.94806936  0.83655271  1
  P  P13  1  0.49254354  0.00324982  0.32753880  1
  P  P14  1  0.25409446  0.54709822  0.66474121  1
  P  P15  1  0.18602201  0.74488704  1.00010398  1
  P  P16  1  0.25409446  0.95290178  0.16474121  1
  P  P17  1  0.18602201  0.75511296  0.50010398  1
  P  P18  1  0.50745646  0.99675018  0.67246120  1
  P  P19  1  0.00901168  0.99419330  0.70312533  1
  P  P20  1  0.99098832  0.00580670  0.29687467  1
  P  P21  1  0.74590554  0.04709822  0.83525879  1
  P  P22  1  0.99098832  0.49419330  0.79687467  1
  P  P23  1  0.49254354  0.49675018  0.82753880  1
  O  O24  1  0.91180978  0.42737437  0.29320633  1
  O  O25  1  0.12942436  0.89858099  0.77196122  1
  O  O26  1  0.58296292  0.61686891  0.87786931  1
  O  O27  1  0.71976318  0.30636951  0.39961770  1
  O  O28  1  0.71976318  0.19363049  0.89961770  1
  O  O29  1  0.41703708  0.11686891  0.62213069  1
  O  O30  1  0.36264115  0.91832641  0.25908768  1
  O  O31  1  0.41703708  0.38313109  0.12213069  1
  O  O32  1  0.41316636  0.58406733  0.26324462  1
  O  O33  1  0.08871686  0.38137738  0.15032853  1
  O  O34  1  0.87057564  0.39858099  0.72803878  1
  O  O35  1  0.91128314  0.61862262  0.84967147  1
  O  O36  1  0.58683364  0.41593267  0.73675538  1
  O  O37  1  0.70299009  0.18748567  0.08797070  1
  O  O38  1  0.73069319  0.90269724  0.11593400  1
  O  O39  1  0.42269007  0.37435150  0.88810076  1
  O  O40  1  0.12942436  0.60141901  0.27196122  1
  O  O41  1  0.08819022  0.92737437  0.20679367  1
  O  O42  1  0.57730993  0.87435150  0.61189924  1
  O  O43  1  0.29700991  0.81251433  0.91202930  1
  O  O44  1  0.79057262  0.08045105  0.50083586  1
  O  O45  1  0.03138269  0.81610935  0.99429814  1
  O  O46  1  0.58296292  0.88313109  0.37786931  1
  O  O47  1  0.28023682  0.69363049  0.60038230  1
  O  O48  1  0.28023682  0.80636951  0.10038230  1
  O  O49  1  0.03138269  0.68389065  0.49429814  1
  O  O50  1  0.08613425  0.37965375  0.85078098  1
  O  O51  1  0.57730993  0.62564850  0.11189924  1
  O  O52  1  0.71858434  0.59404660  0.38981680  1
  O  O53  1  0.26930681  0.09730276  0.88406600  1
  O  O54  1  0.28141566  0.09404660  0.11018320  1
  O  O55  1  0.20942738  0.91954895  0.49916414  1
  O  O56  1  0.08871686  0.11862262  0.65032853  1
  O  O57  1  0.73069319  0.59730276  0.61593400  1
  O  O58  1  0.63735885  0.41832641  0.24091232  1
  O  O59  1  0.71858434  0.90595340  0.88981680  1
  O  O60  1  0.08819022  0.57262563  0.70679367  1
  O  O61  1  0.87057564  0.10141901  0.22803878  1
  O  O62  1  0.28141566  0.40595340  0.61018320  1
  O  O63  1  0.91386575  0.62034625  0.14921902  1
  O  O64  1  0.70299009  0.31251433  0.58797070  1
  O  O65  1  0.58683364  0.08406733  0.23675538  1
  O  O66  1  0.91386575  0.87965375  0.64921902  1
  O  O67  1  0.29700991  0.68748567  0.41202930  1
  O  O68  1  0.96861731  0.31610935  0.50570186  1
  O  O69  1  0.91180978  0.07262563  0.79320633  1
  O  O70  1  0.91128314  0.88137738  0.34967147  1
  O  O71  1  0.79057262  0.41954895  0.00083586  1
  O  O72  1  0.41316636  0.91593267  0.76324462  1
  O  O73  1  0.20942738  0.58045105  0.99916414  1
  O  O74  1  0.08613425  0.12034625  0.35078098  1
  O  O75  1  0.96861731  0.18389065  0.00570186  1
  O  O76  1  0.42269007  0.12564850  0.38810076  1
  O  O77  1  0.26930681  0.40269724  0.38406600  1
  O  O78  1  0.36264115  0.58167359  0.75908768  1
  O  O79  1  0.63735885  0.08167359  0.74091232  1
