# generated using pymatgen
data_LiMgIn(MoO4)3
_symmetry_space_group_name_H-M   'P 1'
_cell_length_a   7.10047016
_cell_length_b   8.61707832
_cell_length_c   9.93130953
_cell_angle_alpha   96.51202427
_cell_angle_beta   106.47013351
_cell_angle_gamma   101.75329935
_symmetry_Int_Tables_number   1
_chemical_formula_structural   LiMgIn(MoO4)3
_chemical_formula_sum   'Li2 Mg2 In2 Mo6 O24'
_cell_volume   560.93864089
_cell_formula_units_Z   2
loop_
 _symmetry_equiv_pos_site_id
 _symmetry_equiv_pos_as_xyz
  1  'x, y, z'
loop_
 _atom_site_type_symbol
 _atom_site_label
 _atom_site_symmetry_multiplicity
 _atom_site_fract_x
 _atom_site_fract_y
 _atom_site_fract_z
 _atom_site_occupancy
  Li  Li0  1  0.46216210  0.89469790  0.20271245  1
  Li  Li1  1  0.53783790  0.10530210  0.79728755  1
  Mg  Mg2  1  0.04078740  0.69692519  0.99235021  1
  Mg  Mg3  1  0.95921260  0.30307481  0.00764979  1
  In  In4  1  0.74683699  0.69811626  0.40468268  1
  In  In5  1  0.25316301  0.30188374  0.59531732  1
  Mo  Mo6  1  0.51741070  0.29837830  0.11976875  1
  Mo  Mo7  1  0.99458164  0.00714359  0.74857938  1
  Mo  Mo8  1  0.19847901  0.60229235  0.33446864  1
  Mo  Mo9  1  0.00541836  0.99285641  0.25142062  1
  Mo  Mo10  1  0.48258930  0.70162170  0.88023125  1
  Mo  Mo11  1  0.80152099  0.39770765  0.66553136  1
  O  O12  1  0.16261785  0.09659924  0.42572073  1
  O  O13  1  0.83738215  0.90340076  0.57427927  1
  O  O14  1  0.94223824  0.47543105  0.85170841  1
  O  O15  1  0.55677112  0.26688738  0.64519642  1
  O  O16  1  0.26158351  0.30419690  0.03458715  1
  O  O17  1  0.13914076  0.86218016  0.18165678  1
  O  O18  1  0.51084821  0.12861937  0.20346625  1
  O  O19  1  0.23238773  0.12554836  0.73706848  1
  O  O20  1  0.35221902  0.72397739  0.01207183  1
  O  O21  1  0.95259565  0.13486869  0.14088283  1
  O  O22  1  0.64967744  0.47971500  0.25481105  1
  O  O23  1  0.86085924  0.13781984  0.81834322  1
  O  O24  1  0.04740435  0.86513131  0.85911717  1
  O  O25  1  0.05776176  0.52456895  0.14829159  1
  O  O26  1  0.06032500  0.70448516  0.42528717  1
  O  O27  1  0.75265500  0.56223422  0.58001226  1
  O  O28  1  0.48915179  0.87138063  0.79653375  1
  O  O29  1  0.44322888  0.73311262  0.35480358  1
  O  O30  1  0.73841649  0.69580310  0.96541285  1
  O  O31  1  0.64778098  0.27602261  0.98792817  1
  O  O32  1  0.76761227  0.87445164  0.26293152  1
  O  O33  1  0.35032256  0.52028500  0.74518895  1
  O  O34  1  0.93967500  0.29551484  0.57471283  1
  O  O35  1  0.24734500  0.43776578  0.41998774  1
