# generated using pymatgen
data_Na3Fe3(PO4)4
_symmetry_space_group_name_H-M   'P 1'
_cell_length_a   6.47099287
_cell_length_b   10.42750976
_cell_length_c   10.74287630
_cell_angle_alpha   91.71408620
_cell_angle_beta   90.00000000
_cell_angle_gamma   108.07638400
_symmetry_Int_Tables_number   1
_chemical_formula_structural   Na3Fe3(PO4)4
_chemical_formula_sum   'Na6 Fe6 P8 O32'
_cell_volume   688.77089287
_cell_formula_units_Z   2
loop_
 _symmetry_equiv_pos_site_id
 _symmetry_equiv_pos_as_xyz
  1  'x, y, z'
loop_
 _atom_site_type_symbol
 _atom_site_label
 _atom_site_symmetry_multiplicity
 _atom_site_fract_x
 _atom_site_fract_y
 _atom_site_fract_z
 _atom_site_occupancy
  Na  Na0  1  0.77574701  0.83319570  0.52587000  1
  Na  Na1  1  0.62918062  0.00000000  0.25000000  1
  Na  Na2  1  0.05744869  0.83319570  0.02587000  1
  Na  Na3  1  0.22425299  0.16680430  0.47413000  1
  Na  Na4  1  0.37081938  0.00000000  0.75000000  1
  Na  Na5  1  0.94255131  0.16680430  0.97413000  1
  Fe  Fe6  1  0.32140670  0.68643807  0.25270993  1
  Fe  Fe7  1  0.00000000  0.50000000  0.50000000  1
  Fe  Fe8  1  0.67859230  0.31356193  0.74729007  1
  Fe  Fe9  1  0.36503136  0.68643807  0.75270993  1
  Fe  Fe10  1  0.50000000  0.50000000  0.00000000  1
  Fe  Fe11  1  0.63496864  0.31356193  0.24729007  1
  P  P12  1  0.18299338  0.40324664  0.24299489  1
  P  P13  1  0.25282264  0.82476013  0.50974580  1
  P  P14  1  0.77974674  0.59675336  0.25700511  1
  P  P15  1  0.81700662  0.59675336  0.75700511  1
  P  P16  1  0.74717736  0.17523987  0.49025420  1
  P  P17  1  0.22025326  0.40324664  0.74299489  1
  P  P18  1  0.42806151  0.17523987  0.99025420  1
  P  P19  1  0.57193849  0.82476013  0.00974580  1
  O  O20  1  0.94940013  0.31524212  0.21359165  1
  O  O21  1  0.39584246  0.81005265  0.11436752  1
  O  O22  1  0.05059987  0.68475788  0.78640835  1
  O  O23  1  0.79814135  0.48875317  0.64619691  1
  O  O24  1  0.64590832  0.69602214  0.00621676  1
  O  O25  1  0.36584199  0.31524212  0.71359165  1
  O  O26  1  0.58579081  0.18994735  0.38563248  1
  O  O27  1  0.62489064  0.16948986  0.61655632  1
  O  O28  1  0.69061182  0.48875317  0.14619691  1
  O  O29  1  0.60415754  0.18994735  0.88563248  1
  O  O30  1  0.35409168  0.30397786  0.99378324  1
  O  O31  1  0.63415801  0.68475788  0.28640835  1
  O  O32  1  0.76783815  0.49291307  0.36354595  1
  O  O33  1  0.00985110  0.68526124  0.22607285  1
  O  O34  1  0.45540079  0.83051014  0.88344368  1
  O  O35  1  0.72507492  0.49291307  0.86354595  1
  O  O36  1  0.41420919  0.81005265  0.61436752  1
  O  O37  1  0.81753551  0.05200049  0.46035481  1
  O  O38  1  0.37510936  0.83051014  0.38344368  1
  O  O39  1  0.30938818  0.51124683  0.85380309  1
  O  O40  1  0.67541014  0.68526124  0.72607285  1
  O  O41  1  0.20185865  0.51124683  0.35380309  1
  O  O42  1  0.27492508  0.50708693  0.13645405  1
  O  O43  1  0.94988518  0.30397786  0.49378324  1
  O  O44  1  0.23216185  0.50708693  0.63645405  1
  O  O45  1  0.99014890  0.31473876  0.77392715  1
  O  O46  1  0.32458986  0.31473876  0.27392715  1
  O  O47  1  0.05011482  0.69602214  0.50621676  1
  O  O48  1  0.76553602  0.94799951  0.03964519  1
  O  O49  1  0.54459921  0.16948986  0.11655632  1
  O  O50  1  0.23446398  0.05200049  0.96035481  1
  O  O51  1  0.18246449  0.94799951  0.53964519  1
