# generated using pymatgen
data_ZnFe2(SeO3)4
_symmetry_space_group_name_H-M   'P 1'
_cell_length_a   8.18853985
_cell_length_b   8.19255046
_cell_length_c   8.33685565
_cell_angle_alpha   92.24032294
_cell_angle_beta   90.00000000
_cell_angle_gamma   90.00000000
_symmetry_Int_Tables_number   1
_chemical_formula_structural   ZnFe2(SeO3)4
_chemical_formula_sum   'Zn2 Fe4 Se8 O24'
_cell_volume   558.85069487
_cell_formula_units_Z   2
loop_
 _symmetry_equiv_pos_site_id
 _symmetry_equiv_pos_as_xyz
  1  'x, y, z'
loop_
 _atom_site_type_symbol
 _atom_site_label
 _atom_site_symmetry_multiplicity
 _atom_site_fract_x
 _atom_site_fract_y
 _atom_site_fract_z
 _atom_site_occupancy
  Zn  Zn0  1  0.39845903  0.65550324  0.16313899  1
  Zn  Zn1  1  0.60154097  0.15550324  0.16313899  1
  Fe  Fe2  1  0.23939248  0.24957808  0.00021666  1
  Fe  Fe3  1  0.26007816  0.75610576  0.50852465  1
  Fe  Fe4  1  0.76060752  0.74957808  0.00021666  1
  Fe  Fe5  1  0.73992184  0.25610576  0.50852465  1
  Se  Se6  1  0.90451415  0.45023151  0.19122513  1
  Se  Se7  1  0.09548585  0.95023151  0.19122513  1
  Se  Se8  1  0.42807036  0.54930412  0.82063415  1
  Se  Se9  1  0.67548098  0.83289148  0.41456167  1
  Se  Se10  1  0.94295492  0.58075969  0.68005869  1
  Se  Se11  1  0.57192964  0.04930412  0.82063415  1
  Se  Se12  1  0.32451902  0.33289148  0.41456167  1
  Se  Se13  1  0.05704508  0.08075969  0.68005869  1
  O  O14  1  0.03661552  0.30165863  0.11949477  1
  O  O15  1  0.69027394  0.99060850  0.98772738  1
  O  O16  1  0.83820753  0.74301922  0.77604772  1
  O  O17  1  0.33348752  0.54040474  0.36686942  1
  O  O18  1  0.24826612  0.82316785  0.26900411  1
  O  O19  1  0.80746582  0.50898609  0.01975561  1
  O  O20  1  0.78112072  0.48738969  0.57863922  1
  O  O21  1  0.37346300  0.24168849  0.22627206  1
  O  O22  1  0.28074749  0.65155169  0.72154393  1
  O  O23  1  0.66651248  0.04040474  0.36686942  1
  O  O24  1  0.02744086  0.68432618  0.52106360  1
  O  O25  1  0.51758374  0.70627615  0.93847622  1
  O  O26  1  0.16179247  0.24301922  0.77604772  1
  O  O27  1  0.49702208  0.30584888  0.52264601  1
  O  O28  1  0.71925251  0.15155169  0.72154393  1
  O  O29  1  0.75173388  0.32316785  0.26900411  1
  O  O30  1  0.62653700  0.74168849  0.22627206  1
  O  O31  1  0.96338448  0.80165863  0.11949477  1
  O  O32  1  0.97255914  0.18432618  0.52106360  1
  O  O33  1  0.48241626  0.20627615  0.93847622  1
  O  O34  1  0.30972606  0.49060850  0.98772738  1
  O  O35  1  0.21887928  0.98738969  0.57863922  1
  O  O36  1  0.50297792  0.80584888  0.52264601  1
  O  O37  1  0.19253418  0.00898609  0.01975561  1
