# generated using pymatgen
data_K2MgP2WO10
_symmetry_space_group_name_H-M   'P 1'
_cell_length_a   9.29843911
_cell_length_b   9.31372816
_cell_length_c   10.87907106
_cell_angle_alpha   90.27421321
_cell_angle_beta   90.44223245
_cell_angle_gamma   90.17448004
_symmetry_Int_Tables_number   1
_chemical_formula_structural   K2MgP2WO10
_chemical_formula_sum   'K8 Mg4 P8 W4 O40'
_cell_volume   942.11832142
_cell_formula_units_Z   4
loop_
 _symmetry_equiv_pos_site_id
 _symmetry_equiv_pos_as_xyz
  1  'x, y, z'
loop_
 _atom_site_type_symbol
 _atom_site_label
 _atom_site_symmetry_multiplicity
 _atom_site_fract_x
 _atom_site_fract_y
 _atom_site_fract_z
 _atom_site_occupancy
  K  K0  1  0.84264068  0.50000294  0.34200843  1
  K  K1  1  0.50826439  0.18852590  0.19953822  1
  K  K2  1  0.00374034  0.33595993  0.67735607  1
  K  K3  1  0.66234068  0.99774941  0.87340846  1
  K  K4  1  0.25705237  0.00758426  0.45018246  1
  K  K5  1  0.51642716  0.75383136  0.57519247  1
  K  K6  1  0.26352761  0.47636273  0.93939301  1
  K  K7  1  0.98946642  0.73013775  0.05230409  1
  Mg  Mg8  1  0.35425461  0.35632739  0.49507392  1
  Mg  Mg9  1  0.86678330  0.12314360  0.24183066  1
  Mg  Mg10  1  0.64324823  0.62521157  0.01276996  1
  Mg  Mg11  1  0.15497309  0.84326054  0.75076923  1
  P  P12  1  0.17327672  0.31748112  0.23463933  1
  P  P13  1  0.83455352  0.68166179  0.76072318  1
  P  P14  1  0.67603692  0.18360439  0.49506869  1
  P  P15  1  0.67728217  0.81364738  0.26764489  1
  P  P16  1  0.32937866  0.15774999  0.74152709  1
  P  P17  1  0.82485857  0.31192973  0.98838358  1
  P  P18  1  0.33957613  0.82182682  0.00818976  1
  P  P19  1  0.16613392  0.65860709  0.49666012  1
  W  W20  1  0.37975268  0.61124723  0.25244343  1
  W  W21  1  0.11980793  0.10200719  0.99319597  1
  W  W22  1  0.60883663  0.39251765  0.74463112  1
  W  W23  1  0.89213540  0.89216041  0.50916418  1
  O  O24  1  0.05522009  0.97900012  0.87726230  1
  O  O25  1  0.99746093  0.67149920  0.77134426  1
  O  O26  1  0.69470419  0.97094283  0.23630678  1
  O  O27  1  0.25598663  0.75711606  0.89965675  1
  O  O28  1  0.74340887  0.77684713  0.39815902  1
  O  O29  1  0.33448326  0.99502972  0.72980023  1
  O  O30  1  0.22813055  0.24791021  0.11052670  1
  O  O31  1  0.51042306  0.77797598  0.28777538  1
  O  O32  1  0.95728832  0.99066182  0.37919343  1
  O  O33  1  0.77199573  0.52939200  0.71689682  1
  O  O34  1  0.20836617  0.48414350  0.21531794  1
  O  O35  1  0.73924839  0.70929841  0.17274195  1
  O  O36  1  0.98883458  0.26908970  0.96037704  1
  O  O37  1  0.27857435  0.74799062  0.12762751  1
  O  O38  1  0.50171163  0.80818980  0.99971757  1
  O  O39  1  0.73014195  0.02794067  0.53721967  1
  O  O40  1  0.24185828  0.71327925  0.37588607  1
  O  O41  1  0.00306671  0.70879162  0.48020065  1
  O  O42  1  0.81665578  0.47033163  0.02163270  1
  O  O43  1  0.29871306  0.98703702  0.02495885  1
  O  O44  1  0.01358332  0.03353329  0.11730088  1
  O  O45  1  0.48425455  0.45815448  0.63045748  1
  O  O46  1  0.24161065  0.20874189  0.85699511  1
  O  O47  1  0.44689608  0.49972108  0.37490486  1
  O  O48  1  0.16861091  0.49588691  0.50725014  1
  O  O49  1  0.48881379  0.21564534  0.76973943  1
  O  O50  1  0.26551029  0.25890905  0.33970045  1
  O  O51  1  0.23683634  0.73979549  0.60354259  1
  O  O52  1  0.76150986  0.72841615  0.87981324  1
  O  O53  1  0.48863672  0.53773664  0.13049889  1
  O  O54  1  0.75103675  0.27937630  0.85967716  1
  O  O55  1  0.26653516  0.23310085  0.62872050  1
  O  O56  1  0.02436563  0.95357876  0.61919892  1
  O  O57  1  0.01264985  0.29878670  0.25021783  1
  O  O58  1  0.75696157  0.23017877  0.38013334  1
  O  O59  1  0.76417002  0.20944921  0.08448728  1
  O  O60  1  0.54747120  0.49609741  0.87437550  1
  O  O61  1  0.72231107  0.28120407  0.60725111  1
  O  O62  1  0.78544718  0.78503923  0.65454361  1
  O  O63  1  0.51345439  0.18139893  0.47724576  1
