# generated using pymatgen
data_Rb2MoSeO6
_symmetry_space_group_name_H-M   'P 1'
_cell_length_a   6.35614332
_cell_length_b   7.93264056
_cell_length_c   14.83649655
_cell_angle_alpha   90.00000000
_cell_angle_beta   90.00000000
_cell_angle_gamma   90.00000000
_symmetry_Int_Tables_number   1
_chemical_formula_structural   Rb2MoSeO6
_chemical_formula_sum   'Rb8 Mo4 Se4 O24'
_cell_volume   748.07099708
_cell_formula_units_Z   4
loop_
 _symmetry_equiv_pos_site_id
 _symmetry_equiv_pos_as_xyz
  1  'x, y, z'
loop_
 _atom_site_type_symbol
 _atom_site_label
 _atom_site_symmetry_multiplicity
 _atom_site_fract_x
 _atom_site_fract_y
 _atom_site_fract_z
 _atom_site_occupancy
  Rb  Rb0  1  0.25000000  0.37725106  0.96411271  1
  Rb  Rb1  1  0.25000000  0.87725106  0.53588729  1
  Rb  Rb2  1  0.75000000  0.65572898  0.30273288  1
  Rb  Rb3  1  0.75000000  0.62274894  0.03588729  1
  Rb  Rb4  1  0.25000000  0.84427102  0.80273288  1
  Rb  Rb5  1  0.75000000  0.12274894  0.46411271  1
  Rb  Rb6  1  0.75000000  0.15572898  0.19726712  1
  Rb  Rb7  1  0.25000000  0.34427102  0.69726712  1
  Mo  Mo8  1  0.25000000  0.39884169  0.23258702  1
  Mo  Mo9  1  0.75000000  0.10115831  0.73258702  1
  Mo  Mo10  1  0.25000000  0.89884169  0.26741298  1
  Mo  Mo11  1  0.75000000  0.60115831  0.76741298  1
  Se  Se12  1  0.75000000  0.58216174  0.56338309  1
  Se  Se13  1  0.25000000  0.41783826  0.43661691  1
  Se  Se14  1  0.75000000  0.08216174  0.93661691  1
  Se  Se15  1  0.25000000  0.91783826  0.06338309  1
  O  O16  1  0.52647595  0.55032933  0.83362264  1
  O  O17  1  0.54961770  0.61072943  0.64383239  1
  O  O18  1  0.45038230  0.88927057  0.14383239  1
  O  O19  1  0.75000000  0.75604228  0.49865535  1
  O  O20  1  0.25000000  0.16982467  0.22371376  1
  O  O21  1  0.45038230  0.38927057  0.35616761  1
  O  O22  1  0.97352405  0.05032933  0.66637736  1
  O  O23  1  0.47352405  0.94967067  0.33362264  1
  O  O24  1  0.95038230  0.11072943  0.85616761  1
  O  O25  1  0.97352405  0.55032933  0.83362264  1
  O  O26  1  0.25000000  0.66982467  0.27628624  1
  O  O27  1  0.25000000  0.24395772  0.50134465  1
  O  O28  1  0.47352405  0.44967067  0.16637736  1
  O  O29  1  0.04961770  0.88927057  0.14383239  1
  O  O30  1  0.25000000  0.74395772  0.99865535  1
  O  O31  1  0.02647595  0.44967067  0.16637736  1
  O  O32  1  0.75000000  0.83017533  0.77628624  1
  O  O33  1  0.75000000  0.25604228  0.00134465  1
  O  O34  1  0.02647595  0.94967067  0.33362264  1
  O  O35  1  0.54961770  0.11072943  0.85616761  1
  O  O36  1  0.52647595  0.05032933  0.66637736  1
  O  O37  1  0.95038230  0.61072943  0.64383239  1
  O  O38  1  0.04961770  0.38927057  0.35616761  1
  O  O39  1  0.75000000  0.33017533  0.72371376  1
