# generated using pymatgen
data_KMnPO4
_symmetry_space_group_name_H-M   'P 1'
_cell_length_a   5.57825976
_cell_length_b   8.79270520
_cell_length_c   9.05146126
_cell_angle_alpha   88.02668998
_cell_angle_beta   89.19511697
_cell_angle_gamma   87.83093913
_symmetry_Int_Tables_number   1
_chemical_formula_structural   KMnPO4
_chemical_formula_sum   'K4 Mn4 P4 O16'
_cell_volume   443.33872994
_cell_formula_units_Z   4
loop_
 _symmetry_equiv_pos_site_id
 _symmetry_equiv_pos_as_xyz
  1  'x, y, z'
loop_
 _atom_site_type_symbol
 _atom_site_label
 _atom_site_symmetry_multiplicity
 _atom_site_fract_x
 _atom_site_fract_y
 _atom_site_fract_z
 _atom_site_occupancy
  K  K0  1  0.76059397  0.99937969  0.68053390  1
  K  K1  1  0.78195630  0.49476729  0.82386147  1
  K  K2  1  0.23940603  0.00062031  0.31946610  1
  K  K3  1  0.21804370  0.50523271  0.17613853  1
  Mn  Mn4  1  0.27278258  0.17627105  0.89611147  1
  Mn  Mn5  1  0.72721742  0.82372895  0.10388853  1
  Mn  Mn6  1  0.30839741  0.65819250  0.57941694  1
  Mn  Mn7  1  0.69160259  0.34180750  0.42058306  1
  P  P8  1  0.76685084  0.20252226  0.09276946  1
  P  P9  1  0.78151979  0.70327896  0.44398673  1
  P  P10  1  0.23314916  0.79747774  0.90723054  1
  P  P11  1  0.21848021  0.29672104  0.55601327  1
  O  O12  1  0.24440152  0.95710374  0.82911445  1
  O  O13  1  0.00209741  0.21948726  0.48789677  1
  O  O14  1  0.34863998  0.67435010  0.80632658  1
  O  O15  1  0.65136002  0.32564990  0.19367342  1
  O  O16  1  0.73736950  0.54735977  0.52709370  1
  O  O17  1  0.96568099  0.75803878  0.93884761  1
  O  O18  1  0.63066977  0.20666096  0.94273528  1
  O  O19  1  0.26263050  0.45264023  0.47290630  1
  O  O20  1  0.99790259  0.78051274  0.51210323  1
  O  O21  1  0.17172006  0.32293326  0.72316002  1
  O  O22  1  0.82827994  0.67706674  0.27683998  1
  O  O23  1  0.03431901  0.24196122  0.06115239  1
  O  O24  1  0.36933023  0.79333904  0.05726472  1
  O  O25  1  0.44999633  0.19556123  0.53246753  1
  O  O26  1  0.75559848  0.04289626  0.17088555  1
  O  O27  1  0.55000367  0.80443877  0.46753247  1
