# generated using pymatgen
data_Ca3Cr3(PO4)4
_symmetry_space_group_name_H-M   'P 1'
_cell_length_a   9.09631155
_cell_length_b   9.14079442
_cell_length_c   10.02109028
_cell_angle_alpha   104.82262858
_cell_angle_beta   106.23175368
_cell_angle_gamma   109.88760392
_symmetry_Int_Tables_number   1
_chemical_formula_structural   Ca3Cr3(PO4)4
_chemical_formula_sum   'Ca6 Cr6 P8 O32'
_cell_volume   693.15787097
_cell_formula_units_Z   2
loop_
 _symmetry_equiv_pos_site_id
 _symmetry_equiv_pos_as_xyz
  1  'x, y, z'
loop_
 _atom_site_type_symbol
 _atom_site_label
 _atom_site_symmetry_multiplicity
 _atom_site_fract_x
 _atom_site_fract_y
 _atom_site_fract_z
 _atom_site_occupancy
  Ca  Ca0  1  0.67750779  0.65050265  0.21093226  1
  Ca  Ca1  1  0.52047821  0.00008604  0.80031900  1
  Ca  Ca2  1  0.32249221  0.34949735  0.78906774  1
  Ca  Ca3  1  0.47952179  0.99991396  0.19968100  1
  Ca  Ca4  1  0.27146799  0.28445479  0.29237678  1
  Ca  Ca5  1  0.72853201  0.71554521  0.70762322  1
  Cr  Cr6  1  0.94172994  0.18980467  0.41647747  1
  Cr  Cr7  1  0.04957919  0.80335771  0.11189350  1
  Cr  Cr8  1  0.05827006  0.81019533  0.58352253  1
  Cr  Cr9  1  0.04693510  0.51744212  0.26999343  1
  Cr  Cr10  1  0.95042081  0.19664229  0.88810650  1
  Cr  Cr11  1  0.95306490  0.48255788  0.73000657  1
  P  P12  1  0.73263139  0.42052537  0.39112372  1
  P  P13  1  0.26736861  0.57947463  0.60887628  1
  P  P14  1  0.81200997  0.98915274  0.07490165  1
  P  P15  1  0.75917038  0.44085612  0.94302811  1
  P  P16  1  0.24082962  0.55914388  0.05697189  1
  P  P17  1  0.26291770  0.06236840  0.48385032  1
  P  P18  1  0.18799003  0.01084726  0.92509835  1
  P  P19  1  0.73708230  0.93763160  0.51614968  1
  O  O20  1  0.36791825  0.03364379  0.94675512  1
  O  O21  1  0.62751674  0.88506157  0.34690510  1
  O  O22  1  0.55736446  0.40913407  0.30396141  1
  O  O23  1  0.08791648  0.43508375  0.89888803  1
  O  O24  1  0.82479636  0.81499903  0.51492176  1
  O  O25  1  0.12472700  0.87462406  0.41461867  1
  O  O26  1  0.59548038  0.43080048  0.95997632  1
  O  O27  1  0.75990081  0.26569050  0.90111215  1
  O  O28  1  0.84129123  0.84317931  0.11333441  1
  O  O29  1  0.13074669  0.46070309  0.64814355  1
  O  O30  1  0.86925331  0.53929691  0.35185645  1
  O  O31  1  0.78553625  0.50544141  0.56375703  1
  O  O32  1  0.17520364  0.18500097  0.48507824  1
  O  O33  1  0.20607347  0.47673771  0.16950808  1
  O  O34  1  0.79392653  0.52326229  0.83049192  1
  O  O35  1  0.21446375  0.49455859  0.43624297  1
  O  O36  1  0.91208352  0.56491625  0.10111197  1
  O  O37  1  0.63208175  0.96635621  0.05324488  1
  O  O38  1  0.17432656  0.02051487  0.08018593  1
  O  O39  1  0.95424905  0.16237961  0.20242684  1
  O  O40  1  0.37248326  0.11493843  0.65309490  1
  O  O41  1  0.82567344  0.97948513  0.91981407  1
  O  O42  1  0.26597284  0.75394743  0.64727242  1
  O  O43  1  0.63723226  0.90769338  0.61628862  1
  O  O44  1  0.24009919  0.73430950  0.09888785  1
  O  O45  1  0.04575095  0.83762039  0.79757316  1
  O  O46  1  0.44263554  0.59086593  0.69603859  1
  O  O47  1  0.73402716  0.24605257  0.35272758  1
  O  O48  1  0.15870877  0.15682069  0.88666559  1
  O  O49  1  0.40451962  0.56919952  0.04002368  1
  O  O50  1  0.36276774  0.09230662  0.38371138  1
  O  O51  1  0.87527300  0.12537594  0.58538133  1
