# generated using pymatgen
data_K4Fe2O5
_symmetry_space_group_name_H-M   'P 1'
_cell_length_a   6.03190448
_cell_length_b   6.52259167
_cell_length_c   10.15559245
_cell_angle_alpha   103.66300243
_cell_angle_beta   90.00000000
_cell_angle_gamma   90.00000000
_symmetry_Int_Tables_number   1
_chemical_formula_structural   K4Fe2O5
_chemical_formula_sum   'K8 Fe4 O10'
_cell_volume   388.25131990
_cell_formula_units_Z   2
loop_
 _symmetry_equiv_pos_site_id
 _symmetry_equiv_pos_as_xyz
  1  'x, y, z'
loop_
 _atom_site_type_symbol
 _atom_site_label
 _atom_site_symmetry_multiplicity
 _atom_site_fract_x
 _atom_site_fract_y
 _atom_site_fract_z
 _atom_site_occupancy
  K  K0  1  0.87856241  0.26687973  0.51718791  1
  K  K1  1  0.08983119  0.09694127  0.83794679  1
  K  K2  1  0.12143759  0.73312027  0.48281209  1
  K  K3  1  0.41016881  0.09694127  0.33794679  1
  K  K4  1  0.91016881  0.90305873  0.16205321  1
  K  K5  1  0.37856241  0.73312027  0.98281209  1
  K  K6  1  0.62143759  0.26687973  0.01718791  1
  K  K7  1  0.58983119  0.90305873  0.66205321  1
  Fe  Fe8  1  0.11422830  0.40698241  0.15544103  1
  Fe  Fe9  1  0.38577170  0.40698241  0.65544103  1
  Fe  Fe10  1  0.61422830  0.59301759  0.34455897  1
  Fe  Fe11  1  0.88577170  0.59301759  0.84455897  1
  O  O12  1  0.14620142  0.60311312  0.72998279  1
  O  O13  1  0.85379858  0.39688688  0.27001721  1
  O  O14  1  0.26560796  0.13851024  0.59889693  1
  O  O15  1  0.35379858  0.60311312  0.22998279  1
  O  O16  1  0.76560796  0.86148976  0.90110307  1
  O  O17  1  0.50000000  0.50000000  0.50000000  1
  O  O18  1  0.73439204  0.86148976  0.40110307  1
  O  O19  1  0.64620142  0.39688688  0.77001721  1
  O  O20  1  0.00000000  0.50000000  0.00000000  1
  O  O21  1  0.23439204  0.13851024  0.09889693  1
