# generated using pymatgen
data_La(IO3)3
_symmetry_space_group_name_H-M   'P 1'
_cell_length_a   7.19983269
_cell_length_b   7.29171828
_cell_length_c   27.89363123
_cell_angle_alpha   84.90473608
_cell_angle_beta   82.58606326
_cell_angle_gamma   60.41506313
_symmetry_Int_Tables_number   1
_chemical_formula_structural   La(IO3)3
_chemical_formula_sum   'La6 I18 O54'
_cell_volume   1262.28980731
_cell_formula_units_Z   6
loop_
 _symmetry_equiv_pos_site_id
 _symmetry_equiv_pos_as_xyz
  1  'x, y, z'
loop_
 _atom_site_type_symbol
 _atom_site_label
 _atom_site_symmetry_multiplicity
 _atom_site_fract_x
 _atom_site_fract_y
 _atom_site_fract_z
 _atom_site_occupancy
  La  La0  1  0.37400226  0.06327205  0.40655950  1
  La  La1  1  0.20706200  0.72672318  0.12682259  1
  La  La2  1  0.93942142  0.22682566  0.62689300  1
  La  La3  1  0.79014331  0.08247518  0.26477764  1
  La  La4  1  0.15616032  0.56324139  0.90654642  1
  La  La5  1  0.86241091  0.58258166  0.76486909  1
  I  I6  1  0.85784219  0.35470294  0.15070836  1
  I  I7  1  0.63664772  0.85496453  0.65082255  1
  I  I8  1  0.16883344  0.84165511  0.52256824  1
  I  I9  1  0.41300723  0.82218486  0.29077891  1
  I  I10  1  0.47393244  0.32217108  0.79079940  1
  I  I11  1  0.90770718  0.20266610  0.87935457  1
  I  I12  1  0.53358178  0.17182693  0.52797025  1
  I  I13  1  0.27649299  0.49958310  0.65038428  1
  I  I14  1  0.55226791  0.84279366  0.87738031  1
  I  I15  1  0.89344120  0.50495779  0.49977778  1
  I  I16  1  0.13272932  0.96369849  0.74123987  1
  I  I17  1  0.57376512  0.99935161  0.15028556  1
  I  I18  1  0.01015278  0.70251792  0.37928906  1
  I  I19  1  0.46702913  0.34177381  0.02251816  1
  I  I20  1  0.10187127  1.00489549  -0.00026809  1
  I  I21  1  0.16256098  0.46349085  0.24114468  1
  I  I22  1  0.76659827  0.67188648  0.02796593  1
  I  I23  1  0.72774982  0.34255188  0.37730745  1
  O  O24  1  0.24060908  0.48463583  0.06864059  1
  O  O25  1  0.21061187  0.87058334  0.67833067  1
  O  O26  1  0.59385036  0.95812849  0.21631839  1
  O  O27  1  0.76697938  0.67336462  0.39860145  1
  O  O28  1  0.57623684  0.15300485  0.46107500  1
  O  O29  1  0.89457295  0.08330279  0.16437371  1
  O  O30  1  0.18914878  0.48823639  0.81174033  1
  O  O31  1  0.03462998  0.64881818  0.47314702  1
  O  O32  1  0.75806717  0.41748672  0.31373467  1
  O  O33  1  0.55566901  0.43873853  0.64726036  1
  O  O34  1  0.98810687  0.73225368  0.31323294  1
  O  O35  1  0.33808141  0.76491835  0.35414550  1
  O  O36  1  0.31439539  0.58317151  0.55183757  1
  O  O37  1  0.74451703  0.23248137  0.53850403  1
  O  O38  1  0.91627236  0.90125233  0.75839092  1
  O  O39  1  0.37470047  0.81153708  0.47198234  1
  O  O40  1  0.31339136  0.24419897  0.63092248  1
  O  O41  1  0.10379821  0.24604987  0.47804959  1
  O  O42  1  0.07329569  0.73781881  0.21880112  1
  O  O43  1  0.16069147  0.17362583  0.89866544  1
  O  O44  1  0.00524142  0.17097526  0.38898661  1
  O  O45  1  0.83013097  0.62312838  0.86178436  1
  O  O46  1  0.51063517  0.98842269  0.31168744  1
  O  O47  1  0.42429616  0.40111469  0.25829303  1
  O  O48  1  0.81236884  0.96981793  0.63736381  1
  O  O49  1  0.01671218  0.96902377  0.06275175  1
  O  O50  1  0.55445745  0.91132333  0.71509734  1
  O  O51  1  0.17189863  0.74601051  0.97805006  1
  O  O52  1  0.20617963  0.98443310  0.56873513  1
  O  O53  1  0.35846624  0.93866268  0.14714404  1
  O  O54  1  0.15425711  0.03379103  0.27326607  1
  O  O55  1  0.51043302  0.91771579  0.81380624  1
  O  O56  1  0.23156163  0.45839397  0.71641766  1
  O  O57  1  0.22360484  0.42800232  0.37903545  1
  O  O58  1  0.81946413  0.41104776  0.21498417  1
  O  O59  1  0.48444292  0.73259073  0.03846248  1
  O  O60  1  0.34214157  0.31145142  0.97190490  1
  O  O61  1  0.88993953  0.39273387  0.04621613  1
  O  O62  1  0.96927442  0.92809408  0.87908033  1
  O  O63  1  0.96993799  0.23799840  0.71887796  1
  O  O64  1  0.95169239  0.46885465  0.56278727  1
  O  O65  1  0.81161596  0.74392445  0.13081081  1
  O  O66  1  0.24076294  0.37043440  0.17823159  1
  O  O67  1  0.43473060  0.67118961  0.88907361  1
  O  O68  1  0.84332803  0.14881686  0.97314128  1
  O  O69  1  0.54277554  0.26496687  0.85417211  1
  O  O70  1  0.96611175  0.23242782  0.81330100  1
  O  O71  1  0.68505761  0.12288274  0.36175629  1
  O  O72  1  0.85764542  0.58354288  0.66447054  1
  O  O73  1  0.80980396  0.65277762  0.96107685  1
  O  O74  1  0.53842341  0.53390938  0.77331960  1
  O  O75  1  0.67125595  0.89265268  0.54620548  1
  O  O76  1  0.55061462  0.08333332  0.05180369  1
  O  O77  1  0.58070130  0.46955570  0.13725533  1
