# generated using pymatgen
data_Li2NiPO4F
_symmetry_space_group_name_H-M   'P 1'
_cell_length_a   6.36022395
_cell_length_b   10.54541926
_cell_length_c   10.94110635
_cell_angle_alpha   90.00000000
_cell_angle_beta   90.00000000
_cell_angle_gamma   90.00000000
_symmetry_Int_Tables_number   1
_chemical_formula_structural   Li2NiPO4F
_chemical_formula_sum   'Li16 Ni8 P8 O32 F8'
_cell_volume   733.83344011
_cell_formula_units_Z   8
loop_
 _symmetry_equiv_pos_site_id
 _symmetry_equiv_pos_as_xyz
  1  'x, y, z'
loop_
 _atom_site_type_symbol
 _atom_site_label
 _atom_site_symmetry_multiplicity
 _atom_site_fract_x
 _atom_site_fract_y
 _atom_site_fract_z
 _atom_site_occupancy
  Li  Li0  1  0.50558913  0.23915331  0.33391269  1
  Li  Li1  1  0.49441087  0.26084669  0.83391269  1
  Li  Li2  1  0.25000000  0.72745171  0.41690933  1
  Li  Li3  1  0.49441087  0.76084669  0.66608731  1
  Li  Li4  1  0.75000000  0.52601063  0.22673363  1
  Li  Li5  1  0.00558913  0.26084669  0.83391269  1
  Li  Li6  1  0.25000000  0.22745171  0.08309067  1
  Li  Li7  1  0.25000000  0.47398937  0.77326637  1
  Li  Li8  1  0.00558913  0.76084669  0.66608731  1
  Li  Li9  1  0.75000000  0.27254829  0.58309067  1
  Li  Li10  1  0.99441087  0.23915331  0.33391269  1
  Li  Li11  1  0.99441087  0.73915331  0.16608731  1
  Li  Li12  1  0.75000000  0.77254829  0.91690933  1
  Li  Li13  1  0.50558913  0.73915331  0.16608731  1
  Li  Li14  1  0.25000000  0.97398937  0.72673363  1
  Li  Li15  1  0.75000000  0.02601063  0.27326637  1
  Ni  Ni16  1  0.00000000  0.50000000  0.50000000  1
  Ni  Ni17  1  0.50000000  0.50000000  0.50000000  1
  Ni  Ni18  1  0.00000000  0.00000000  0.00000000  1
  Ni  Ni19  1  0.50000000  0.00000000  0.00000000  1
  Ni  Ni20  1  0.00000000  0.50000000  0.00000000  1
  Ni  Ni21  1  0.50000000  0.50000000  0.00000000  1
  Ni  Ni22  1  0.00000000  0.00000000  0.50000000  1
  Ni  Ni23  1  0.50000000  0.00000000  0.50000000  1
  P  P24  1  0.25000000  0.97728195  0.25613313  1
  P  P25  1  0.75000000  0.02271805  0.74386687  1
  P  P26  1  0.75000000  0.24343293  0.07840097  1
  P  P27  1  0.75000000  0.74343293  0.42159903  1
  P  P28  1  0.25000000  0.75656707  0.92159903  1
  P  P29  1  0.75000000  0.52271805  0.75613313  1
  P  P30  1  0.25000000  0.25656707  0.57840097  1
  P  P31  1  0.25000000  0.47728195  0.24386687  1
  O  O32  1  0.75000000  0.16972582  0.74369538  1
  O  O33  1  0.75000000  0.38935092  0.05469785  1
  O  O34  1  0.25000000  0.61064908  0.94530215  1
  O  O35  1  0.95019283  0.68987843  0.48553227  1
  O  O36  1  0.75000000  0.88935092  0.44530215  1
  O  O37  1  0.54980717  0.68987843  0.48553227  1
  O  O38  1  0.94701092  0.96584905  0.68014049  1
  O  O39  1  0.05298908  0.53415095  0.18014049  1
  O  O40  1  0.45019283  0.81012157  0.98553227  1
  O  O41  1  0.55298908  0.96584905  0.68014049  1
  O  O42  1  0.25000000  0.52760683  0.37847859  1
  O  O43  1  0.25000000  0.28327870  0.71673603  1
  O  O44  1  0.25000000  0.83027418  0.25630462  1
  O  O45  1  0.94701092  0.46584905  0.81985951  1
  O  O46  1  0.25000000  0.11064908  0.55469785  1
  O  O47  1  0.25000000  0.78327870  0.78326397  1
  O  O48  1  0.55298908  0.46584905  0.81985951  1
  O  O49  1  0.75000000  0.66972582  0.75630462  1
  O  O50  1  0.54980717  0.18987843  0.01446773  1
  O  O51  1  0.95019283  0.18987843  0.01446773  1
  O  O52  1  0.75000000  0.97239317  0.87847859  1
  O  O53  1  0.44701092  0.53415095  0.18014049  1
  O  O54  1  0.04980717  0.31012157  0.51446773  1
  O  O55  1  0.04980717  0.81012157  0.98553227  1
  O  O56  1  0.75000000  0.47239317  0.62152141  1
  O  O57  1  0.75000000  0.21672130  0.21673603  1
  O  O58  1  0.45019283  0.31012157  0.51446773  1
  O  O59  1  0.25000000  0.02760683  0.12152141  1
  O  O60  1  0.44701092  0.03415095  0.31985951  1
  O  O61  1  0.05298908  0.03415095  0.31985951  1
  O  O62  1  0.75000000  0.71672130  0.28326397  1
  O  O63  1  0.25000000  0.33027418  0.24369538  1
  F  F64  1  0.75000000  0.45026910  0.38383318  1
  F  F65  1  0.75000000  0.12831621  0.47236849  1
  F  F66  1  0.25000000  0.54973090  0.61616682  1
  F  F67  1  0.25000000  0.04973090  0.88383318  1
  F  F68  1  0.75000000  0.62831621  0.02763151  1
  F  F69  1  0.75000000  0.95026910  0.11616682  1
  F  F70  1  0.25000000  0.87168379  0.52763151  1
  F  F71  1  0.25000000  0.37168379  0.97236849  1
