# generated using pymatgen
data_Ga2Te2MoO10
_symmetry_space_group_name_H-M   'P 1'
_cell_length_a   6.16133102
_cell_length_b   8.96499052
_cell_length_c   15.30237589
_cell_angle_alpha   90.00000000
_cell_angle_beta   90.00000000
_cell_angle_gamma   90.00000000
_symmetry_Int_Tables_number   1
_chemical_formula_structural   Ga2Te2MoO10
_chemical_formula_sum   'Ga8 Te8 Mo4 O40'
_cell_volume   845.24623034
_cell_formula_units_Z   4
loop_
 _symmetry_equiv_pos_site_id
 _symmetry_equiv_pos_as_xyz
  1  'x, y, z'
loop_
 _atom_site_type_symbol
 _atom_site_label
 _atom_site_symmetry_multiplicity
 _atom_site_fract_x
 _atom_site_fract_y
 _atom_site_fract_z
 _atom_site_occupancy
  Ga  Ga0  1  0.00437176  0.00614755  0.35219299  1
  Ga  Ga1  1  0.99562824  0.99385245  0.64780701  1
  Ga  Ga2  1  0.00437176  0.50614755  0.14780701  1
  Ga  Ga3  1  0.50437176  0.99385245  0.64780701  1
  Ga  Ga4  1  0.49562824  0.50614755  0.14780701  1
  Ga  Ga5  1  0.50437176  0.49385245  0.85219299  1
  Ga  Ga6  1  0.49562824  0.00614755  0.35219299  1
  Ga  Ga7  1  0.99562824  0.49385245  0.85219299  1
  Te  Te8  1  0.75000000  0.18808649  0.18421740  1
  Te  Te9  1  0.75000000  0.25425737  0.50841184  1
  Te  Te10  1  0.25000000  0.74574263  0.49158816  1
  Te  Te11  1  0.75000000  0.68808649  0.31578260  1
  Te  Te12  1  0.25000000  0.31191351  0.68421740  1
  Te  Te13  1  0.75000000  0.75425737  0.99158816  1
  Te  Te14  1  0.25000000  0.81191351  0.81578260  1
  Te  Te15  1  0.25000000  0.24574263  0.00841184  1
  Mo  Mo16  1  0.25000000  0.82553730  0.16426403  1
  Mo  Mo17  1  0.25000000  0.32553730  0.33573597  1
  Mo  Mo18  1  0.75000000  0.17446270  0.83573597  1
  Mo  Mo19  1  0.75000000  0.67446270  0.66426403  1
  O  O20  1  0.48313980  0.32491439  0.07575797  1
  O  O21  1  0.01444426  0.33295656  0.76568711  1
  O  O22  1  0.51686020  0.17508561  0.57575797  1
  O  O23  1  0.75000000  0.08526870  0.72465008  1
  O  O24  1  0.01686020  0.82491439  0.42424203  1
  O  O25  1  0.75000000  0.58526870  0.77534992  1
  O  O26  1  0.97119251  0.59096952  0.61090610  1
  O  O27  1  0.25000000  0.40364451  0.92330200  1
  O  O28  1  0.01686020  0.32491439  0.07575797  1
  O  O29  1  0.75000000  0.90383572  0.29621172  1
  O  O30  1  0.51686020  0.67508561  0.92424203  1
  O  O31  1  0.52880749  0.59096952  0.61090610  1
  O  O32  1  0.47119251  0.40903048  0.38909390  1
  O  O33  1  0.25000000  0.12537267  0.39526233  1
  O  O34  1  0.25000000  0.41473130  0.22465008  1
  O  O35  1  0.75000000  0.37462733  0.89526233  1
  O  O36  1  0.75000000  0.09635549  0.42330200  1
  O  O37  1  0.97119251  0.09096952  0.88909390  1
  O  O38  1  0.98555574  0.66704344  0.23431289  1
  O  O39  1  0.75000000  0.87462733  0.60473767  1
  O  O40  1  0.25000000  0.90364451  0.57669800  1
  O  O41  1  0.02880749  0.40903048  0.38909390  1
  O  O42  1  0.48555574  0.83295656  0.73431289  1
  O  O43  1  0.51444426  0.16704344  0.26568711  1
  O  O44  1  0.52880749  0.09096952  0.88909390  1
  O  O45  1  0.98555574  0.16704344  0.26568711  1
  O  O46  1  0.25000000  0.62537267  0.10473767  1
  O  O47  1  0.25000000  0.09616428  0.70378828  1
  O  O48  1  0.98313980  0.17508561  0.57575797  1
  O  O49  1  0.98313980  0.67508561  0.92424203  1
  O  O50  1  0.47119251  0.90903048  0.11090610  1
  O  O51  1  0.25000000  0.59616428  0.79621172  1
  O  O52  1  0.51444426  0.66704344  0.23431289  1
  O  O53  1  0.02880749  0.90903048  0.11090610  1
  O  O54  1  0.75000000  0.40383572  0.20378828  1
  O  O55  1  0.01444426  0.83295656  0.73431289  1
  O  O56  1  0.25000000  0.91473130  0.27534992  1
  O  O57  1  0.75000000  0.59635549  0.07669800  1
  O  O58  1  0.48313980  0.82491439  0.42424203  1
  O  O59  1  0.48555574  0.33295656  0.76568711  1
