# generated using pymatgen
data_Pr2Te4MoO14
_symmetry_space_group_name_H-M   'P 1'
_cell_length_a   7.08446827
_cell_length_b   10.19584070
_cell_length_c   10.32877491
_cell_angle_alpha   90.09841432
_cell_angle_beta   72.75582395
_cell_angle_gamma   86.72914494
_symmetry_Int_Tables_number   1
_chemical_formula_structural   Pr2Te4MoO14
_chemical_formula_sum   'Pr4 Te8 Mo2 O28'
_cell_volume   711.23689250
_cell_formula_units_Z   2
loop_
 _symmetry_equiv_pos_site_id
 _symmetry_equiv_pos_as_xyz
  1  'x, y, z'
loop_
 _atom_site_type_symbol
 _atom_site_label
 _atom_site_symmetry_multiplicity
 _atom_site_fract_x
 _atom_site_fract_y
 _atom_site_fract_z
 _atom_site_occupancy
  Pr  Pr0  1  0.64404293  0.69231349  0.91398966  1
  Pr  Pr1  1  0.22015866  0.53498818  0.78507269  1
  Pr  Pr2  1  0.77984134  0.46501182  0.21492731  1
  Pr  Pr3  1  0.35595707  0.30768651  0.08601034  1
  Te  Te4  1  0.74214729  0.39137563  0.72067607  1
  Te  Te5  1  0.94297549  0.21094363  0.95713482  1
  Te  Te6  1  0.05702451  0.78905637  0.04286518  1
  Te  Te7  1  0.07528548  0.83367152  0.63127085  1
  Te  Te8  1  0.36199836  0.27252435  0.45817068  1
  Te  Te9  1  0.63800164  0.72747565  0.54182932  1
  Te  Te10  1  0.92471452  0.16632848  0.36872915  1
  Te  Te11  1  0.25785271  0.60862437  0.27932393  1
  Mo  Mo12  1  0.52314365  0.96228255  0.23222556  1
  Mo  Mo13  1  0.47685635  0.03771745  0.76777444  1
  O  O14  1  0.70690889  0.29538631  0.06872346  1
  O  O15  1  0.97513071  0.77402141  0.81222079  1
  O  O16  1  0.59399894  0.87937256  0.06912416  1
  O  O17  1  0.74604402  0.99970348  0.26963505  1
  O  O18  1  0.92891428  0.72292082  0.54090777  1
  O  O19  1  0.25395598  0.00029652  0.73036495  1
  O  O20  1  0.30625471  0.39123052  0.60302992  1
  O  O21  1  0.37641355  0.11542307  0.23350024  1
  O  O22  1  0.12074598  0.49097074  0.20357339  1
  O  O23  1  0.38759751  0.85920709  0.36070981  1
  O  O24  1  0.40600106  0.12062744  0.93087584  1
  O  O25  1  0.41479085  0.39498632  0.31216059  1
  O  O26  1  0.61240249  0.14079291  0.63929019  1
  O  O27  1  0.87925402  0.50902926  0.79642661  1
  O  O28  1  0.86889808  0.23547627  0.79086710  1
  O  O29  1  0.10310709  0.35422888  0.95113758  1
  O  O30  1  0.58520915  0.60501368  0.68783941  1
  O  O31  1  0.49894623  0.58322064  0.13475795  1
  O  O32  1  0.89689291  0.64577112  0.04886242  1
  O  O33  1  0.71266312  0.29553459  0.39970108  1
  O  O34  1  0.69374529  0.60876948  0.39697008  1
  O  O35  1  0.02486929  0.22597859  0.18777921  1
  O  O36  1  0.07108572  0.27707918  0.45909223  1
  O  O37  1  0.13110192  0.76452373  0.20913290  1
  O  O38  1  0.50105377  0.41677936  0.86524205  1
  O  O39  1  0.62358645  0.88457693  0.76649976  1
  O  O40  1  0.28733688  0.70446541  0.60029892  1
  O  O41  1  0.29309111  0.70461369  0.93127654  1
