# generated using pymatgen
data_Ca4Mn3B3CO15
_symmetry_space_group_name_H-M   'P 1'
_cell_length_a   10.73243429
_cell_length_b   10.73243390
_cell_length_c   5.98860571
_cell_angle_alpha   90.00000000
_cell_angle_beta   90.00000000
_cell_angle_gamma   120.00000119
_symmetry_Int_Tables_number   1
_chemical_formula_structural   Ca4Mn3B3CO15
_chemical_formula_sum   'Ca8 Mn6 B6 C2 O30'
_cell_volume   597.38292818
_cell_formula_units_Z   2
loop_
 _symmetry_equiv_pos_site_id
 _symmetry_equiv_pos_as_xyz
  1  'x, y, z'
loop_
 _atom_site_type_symbol
 _atom_site_label
 _atom_site_symmetry_multiplicity
 _atom_site_fract_x
 _atom_site_fract_y
 _atom_site_fract_z
 _atom_site_occupancy
  Ca  Ca0  1  0.69806836  0.86871718  0.17996438  1
  Ca  Ca1  1  0.86871718  0.17064882  0.67996438  1
  Ca  Ca2  1  0.13128282  0.82935118  0.17996438  1
  Ca  Ca3  1  0.66666700  0.33333300  0.68468514  1
  Ca  Ca4  1  0.33333300  0.66666700  0.18468514  1
  Ca  Ca5  1  0.17064882  0.30193164  0.17996438  1
  Ca  Ca6  1  0.82935118  0.69806836  0.67996438  1
  Ca  Ca7  1  0.30193164  0.13128282  0.67996438  1
  Mn  Mn8  1  0.50028374  0.49974605  0.93053812  1
  Mn  Mn9  1  0.49971626  0.50025395  0.43053812  1
  Mn  Mn10  1  0.49974605  0.99946231  0.43053812  1
  Mn  Mn11  1  0.50025395  0.00053769  0.93053812  1
  Mn  Mn12  1  0.00053769  0.50028374  0.43053812  1
  Mn  Mn13  1  0.99946231  0.49971626  0.93053812  1
  B  B14  1  0.55302420  0.78317254  0.68048674  1
  B  B15  1  0.23014834  0.44697580  0.68048674  1
  B  B16  1  0.78317254  0.23014834  0.18048674  1
  B  B17  1  0.21682746  0.76985166  0.68048674  1
  B  B18  1  0.44697580  0.21682746  0.18048674  1
  B  B19  1  0.76985166  0.55302420  0.18048674  1
  C  C20  1  0.00000000  0.00000000  0.49546985  1
  C  C21  1  0.00000000  0.00000000  0.99546985  1
  O  O22  1  0.47145820  0.17012430  0.97651076  1
  O  O23  1  0.86192188  0.95002971  0.49938660  1
  O  O24  1  0.39973607  0.31586650  0.18246125  1
  O  O25  1  0.08810783  0.13807812  0.49938660  1
  O  O26  1  0.17012430  0.69866610  0.47651076  1
  O  O27  1  0.09575826  0.47427839  0.18005957  1
  O  O28  1  0.91613043  0.60026393  0.18246125  1
  O  O29  1  0.68413350  0.08386957  0.18246125  1
  O  O30  1  0.30057739  0.46702998  0.88454092  1
  O  O31  1  0.13807812  0.04997029  0.99938660  1
  O  O32  1  0.16645259  0.69942261  0.88454092  1
  O  O33  1  0.52854180  0.82987570  0.47651076  1
  O  O34  1  0.31586650  0.91613043  0.68246125  1
  O  O35  1  0.82987570  0.30133390  0.97651076  1
  O  O36  1  0.91189217  0.86192188  0.99938660  1
  O  O37  1  0.83354741  0.30057739  0.38454092  1
  O  O38  1  0.30133390  0.47145820  0.47651076  1
  O  O39  1  0.53297002  0.83354741  0.88454092  1
  O  O40  1  0.46702998  0.16645259  0.38454092  1
  O  O41  1  0.60026393  0.68413350  0.68246125  1
  O  O42  1  0.08386957  0.39973607  0.68246125  1
  O  O43  1  0.04997029  0.91189217  0.49938660  1
  O  O44  1  0.52572161  0.62147987  0.18005957  1
  O  O45  1  0.62147987  0.09575826  0.68005957  1
  O  O46  1  0.47427839  0.37852013  0.68005957  1
  O  O47  1  0.69942261  0.53297002  0.38454092  1
  O  O48  1  0.90424174  0.52572161  0.68005957  1
  O  O49  1  0.69866610  0.52854180  0.97651076  1
  O  O50  1  0.95002971  0.08810783  0.99938660  1
  O  O51  1  0.37852013  0.90424174  0.18005957  1
