# generated using pymatgen
data_SrTlVO4
_symmetry_space_group_name_H-M   'P 1'
_cell_length_a   5.95518349
_cell_length_b   7.66787014
_cell_length_c   10.18935266
_cell_angle_alpha   90.00000000
_cell_angle_beta   90.00000000
_cell_angle_gamma   90.00000000
_symmetry_Int_Tables_number   1
_chemical_formula_structural   SrTlVO4
_chemical_formula_sum   'Sr4 Tl4 V4 O16'
_cell_volume   465.28225575
_cell_formula_units_Z   4
loop_
 _symmetry_equiv_pos_site_id
 _symmetry_equiv_pos_as_xyz
  1  'x, y, z'
loop_
 _atom_site_type_symbol
 _atom_site_label
 _atom_site_symmetry_multiplicity
 _atom_site_fract_x
 _atom_site_fract_y
 _atom_site_fract_z
 _atom_site_occupancy
  Sr  Sr0  1  0.97806373  0.25077745  0.70500381  1
  Sr  Sr1  1  0.02193627  0.75077745  0.79499619  1
  Sr  Sr2  1  0.52193627  0.74922255  0.20500381  1
  Sr  Sr3  1  0.47806373  0.24922255  0.29499619  1
  Tl  Tl4  1  0.48038585  0.41452798  0.92267576  1
  Tl  Tl5  1  0.98038585  0.08547202  0.07732424  1
  Tl  Tl6  1  0.51961415  0.91452798  0.57732424  1
  Tl  Tl7  1  0.01961415  0.58547202  0.42267576  1
  V  V8  1  0.51492281  0.46823671  0.58184465  1
  V  V9  1  0.48507719  0.96823671  0.91815535  1
  V  V10  1  0.01492281  0.03176329  0.41815535  1
  V  V11  1  0.98507719  0.53176329  0.08184465  1
  O  O12  1  0.23996838  0.49101544  0.16354895  1
  O  O13  1  0.49857186  0.05021010  0.07879595  1
  O  O14  1  0.74688635  0.54962777  0.66719449  1
  O  O15  1  0.99857186  0.44978990  0.92120405  1
  O  O16  1  0.25311365  0.04962777  0.83280551  1
  O  O17  1  0.73996838  0.00898456  0.83645105  1
  O  O18  1  0.26003162  0.50898456  0.66354895  1
  O  O19  1  0.24688635  0.95037223  0.33280551  1
  O  O20  1  0.43281887  0.74683569  0.93460785  1
  O  O21  1  0.93281887  0.75316431  0.06539215  1
  O  O22  1  0.76003162  0.99101544  0.33645105  1
  O  O23  1  0.50142814  0.55021010  0.42120405  1
  O  O24  1  0.75311365  0.45037223  0.16719449  1
  O  O25  1  0.00142814  0.94978990  0.57879595  1
  O  O26  1  0.06718113  0.25316431  0.43460785  1
  O  O27  1  0.56718113  0.24683569  0.56539215  1
