# generated using pymatgen
data_Na4Ni5(P3O11)2
_symmetry_space_group_name_H-M   'P 1'
_cell_length_a   6.66106563
_cell_length_b   10.67394840
_cell_length_c   12.65769026
_cell_angle_alpha   103.69461827
_cell_angle_beta   90.00000000
_cell_angle_gamma   90.00000000
_symmetry_Int_Tables_number   1
_chemical_formula_structural   Na4Ni5(P3O11)2
_chemical_formula_sum   'Na8 Ni10 P12 O44'
_cell_volume   874.37550129
_cell_formula_units_Z   2
loop_
 _symmetry_equiv_pos_site_id
 _symmetry_equiv_pos_as_xyz
  1  'x, y, z'
loop_
 _atom_site_type_symbol
 _atom_site_label
 _atom_site_symmetry_multiplicity
 _atom_site_fract_x
 _atom_site_fract_y
 _atom_site_fract_z
 _atom_site_occupancy
  Na  Na0  1  0.90971396  0.45621325  0.84109930  1
  Na  Na1  1  0.40971396  0.04378675  0.15890070  1
  Na  Na2  1  0.48083893  0.13647414  0.64781972  1
  Na  Na3  1  0.09028604  0.54378675  0.15890070  1
  Na  Na4  1  0.59028604  0.95621325  0.84109930  1
  Na  Na5  1  0.98083893  0.36352586  0.35218028  1
  Na  Na6  1  0.01916107  0.63647414  0.64781972  1
  Na  Na7  1  0.51916107  0.86352586  0.35218028  1
  Ni  Ni8  1  0.99205467  0.80403364  0.33345945  1
  Ni  Ni9  1  0.49205467  0.69596636  0.66654055  1
  Ni  Ni10  1  0.73976289  0.28196405  0.13265634  1
  Ni  Ni11  1  0.26023711  0.71803595  0.86734366  1
  Ni  Ni12  1  0.50794533  0.30403364  0.33345945  1
  Ni  Ni13  1  0.23976289  0.21803595  0.86734366  1
  Ni  Ni14  1  0.76023711  0.78196405  0.13265634  1
  Ni  Ni15  1  0.50000000  0.50000000  0.00000000  1
  Ni  Ni16  1  0.00000000  0.00000000  0.00000000  1
  Ni  Ni17  1  0.00794533  0.19596636  0.66654055  1
  P  P18  1  0.76406655  0.72611188  0.91499210  1
  P  P19  1  0.73593345  0.22611188  0.91499210  1
  P  P20  1  0.61277014  0.56690716  0.25515463  1
  P  P21  1  0.79786528  0.90908088  0.58257552  1
  P  P22  1  0.26406655  0.77388812  0.08500790  1
  P  P23  1  0.29786528  0.59091912  0.41742448  1
  P  P24  1  0.38722986  0.43309284  0.74484537  1
  P  P25  1  0.88722986  0.06690716  0.25515463  1
  P  P26  1  0.70213472  0.40908088  0.58257552  1
  P  P27  1  0.20213472  0.09091912  0.41742448  1
  P  P28  1  0.23593345  0.27388812  0.08500790  1
  P  P29  1  0.11277014  0.93309284  0.74484537  1
  O  O30  1  0.95614838  0.95257429  0.83358066  1
  O  O31  1  0.20202186  0.94276586  0.39061656  1
  O  O32  1  0.37172400  0.14035998  0.35653062  1
  O  O33  1  0.28703206  0.63953377  0.00119208  1
  O  O34  1  0.19726923  0.15538053  0.53786082  1
  O  O35  1  0.00928026  0.86451126  0.63043747  1
  O  O36  1  0.50928026  0.63548874  0.36956253  1
  O  O37  1  0.72881610  0.63421316  0.99398203  1
  O  O38  1  0.71296794  0.36046623  0.99880792  1
  O  O39  1  0.70202186  0.55723414  0.60938344  1
  O  O40  1  0.08151954  0.76576345  0.15962807  1
  O  O41  1  0.62827600  0.85964002  0.64346938  1
  O  O42  1  0.27540387  0.83471491  0.75790733  1
  O  O43  1  0.45156038  0.81997871  0.15499940  1
  O  O44  1  0.77118390  0.13421316  0.99398203  1
  O  O45  1  0.79578712  0.93828251  0.26875890  1
  O  O46  1  0.79797814  0.05723414  0.60938344  1
  O  O47  1  0.22881610  0.86578684  0.00601797  1
  O  O48  1  0.69726923  0.34461947  0.46213918  1
  O  O49  1  0.87172400  0.35964002  0.64346938  1
  O  O50  1  0.12827600  0.64035998  0.35653062  1
  O  O51  1  0.54385162  0.45257429  0.83358066  1
  O  O52  1  0.99071974  0.13548874  0.36956253  1
  O  O53  1  0.95156038  0.68002129  0.84500060  1
  O  O54  1  0.80273077  0.84461947  0.46213918  1
  O  O55  1  0.49071974  0.36451126  0.63043747  1
  O  O56  1  0.21296794  0.13953377  0.00119208  1
  O  O57  1  0.29797814  0.44276586  0.39061656  1
  O  O58  1  0.41848046  0.26576345  0.15962807  1
  O  O59  1  0.27118390  0.36578684  0.00601797  1
  O  O60  1  0.70421288  0.43828251  0.26875890  1
  O  O61  1  0.72459613  0.16528509  0.24209267  1
  O  O62  1  0.22459613  0.33471491  0.75790733  1
  O  O63  1  0.45614838  0.54742571  0.16641934  1
  O  O64  1  0.29578712  0.56171749  0.73124110  1
  O  O65  1  0.78703206  0.86046623  0.99880792  1
  O  O66  1  0.04843962  0.31997871  0.15499940  1
  O  O67  1  0.04385162  0.04742571  0.16641934  1
  O  O68  1  0.30273077  0.65538053  0.53786082  1
  O  O69  1  0.91848046  0.23423655  0.84037193  1
  O  O70  1  0.54843962  0.18002129  0.84500060  1
  O  O71  1  0.20421288  0.06171749  0.73124110  1
  O  O72  1  0.77540387  0.66528509  0.24209267  1
  O  O73  1  0.58151954  0.73423655  0.84037193  1
