# generated using pymatgen
data_Sm3BWO9
_symmetry_space_group_name_H-M   'P 1'
_cell_length_a   8.70907317
_cell_length_b   8.70907309
_cell_length_c   5.52149098
_cell_angle_alpha   90.00000000
_cell_angle_beta   90.00000000
_cell_angle_gamma   120.00000024
_symmetry_Int_Tables_number   1
_chemical_formula_structural   Sm3BWO9
_chemical_formula_sum   'Sm6 B2 W2 O18'
_cell_volume   362.68606749
_cell_formula_units_Z   2
loop_
 _symmetry_equiv_pos_site_id
 _symmetry_equiv_pos_as_xyz
  1  'x, y, z'
loop_
 _atom_site_type_symbol
 _atom_site_label
 _atom_site_symmetry_multiplicity
 _atom_site_fract_x
 _atom_site_fract_y
 _atom_site_fract_z
 _atom_site_occupancy
  Sm  Sm0  1  0.64391549  0.91960797  0.70480927  1
  Sm  Sm1  1  0.91960797  0.27569248  0.20480927  1
  Sm  Sm2  1  0.08039203  0.72430752  0.70480927  1
  Sm  Sm3  1  0.72430752  0.64391549  0.20480927  1
  Sm  Sm4  1  0.35608451  0.08039203  0.20480927  1
  Sm  Sm5  1  0.27569248  0.35608451  0.70480927  1
  B  B6  1  0.00000000  0.00000000  0.37060417  1
  B  B7  1  0.00000000  0.00000000  0.87060417  1
  W  W8  1  0.66666700  0.33333300  0.74841930  1
  W  W9  1  0.33333300  0.66666700  0.24841930  1
  O  O10  1  0.51822956  0.38471347  0.97527757  1
  O  O11  1  0.86648391  0.48177044  0.97527757  1
  O  O12  1  0.53519900  0.73906021  0.04303725  1
  O  O13  1  0.38471347  0.86648391  0.47527757  1
  O  O14  1  0.17758862  0.05020532  0.86200142  1
  O  O15  1  0.94979468  0.12738330  0.86200142  1
  O  O16  1  0.12738330  0.17758862  0.36200142  1
  O  O17  1  0.82241138  0.94979468  0.36200142  1
  O  O18  1  0.46480100  0.26093979  0.54303725  1
  O  O19  1  0.20386121  0.46480100  0.04303725  1
  O  O20  1  0.05020532  0.87261670  0.36200142  1
  O  O21  1  0.87261670  0.82241138  0.86200142  1
  O  O22  1  0.26093979  0.79613879  0.04303725  1
  O  O23  1  0.79613879  0.53519900  0.54303725  1
  O  O24  1  0.13351609  0.51822956  0.47527757  1
  O  O25  1  0.48177044  0.61528653  0.47527757  1
  O  O26  1  0.61528653  0.13351609  0.97527757  1
  O  O27  1  0.73906021  0.20386121  0.54303725  1
