# generated using pymatgen
data_Fe3(TeO3)4
_symmetry_space_group_name_H-M   'P 1'
_cell_length_a   7.46834640
_cell_length_b   9.30962218
_cell_length_c   15.86589462
_cell_angle_alpha   105.32529988
_cell_angle_beta   90.00000000
_cell_angle_gamma   90.00000000
_symmetry_Int_Tables_number   1
_chemical_formula_structural   Fe3(TeO3)4
_chemical_formula_sum   'Fe12 Te16 O48'
_cell_volume   1063.88981798
_cell_formula_units_Z   4
loop_
 _symmetry_equiv_pos_site_id
 _symmetry_equiv_pos_as_xyz
  1  'x, y, z'
loop_
 _atom_site_type_symbol
 _atom_site_label
 _atom_site_symmetry_multiplicity
 _atom_site_fract_x
 _atom_site_fract_y
 _atom_site_fract_z
 _atom_site_occupancy
  Fe  Fe0  1  0.63182578  0.12890494  0.80273592  1
  Fe  Fe1  1  0.36817422  0.87109506  0.19726408  1
  Fe  Fe2  1  0.12195005  0.51772002  0.09484400  1
  Fe  Fe3  1  0.86980915  0.87611554  0.19307694  1
  Fe  Fe4  1  0.13019085  0.12388446  0.80692306  1
  Fe  Fe5  1  0.63019085  0.37611554  0.69307694  1
  Fe  Fe6  1  0.62195005  0.98227998  0.40515600  1
  Fe  Fe7  1  0.86817422  0.62890494  0.30273592  1
  Fe  Fe8  1  0.87804995  0.48227998  0.90515600  1
  Fe  Fe9  1  0.13182578  0.37109506  0.69726408  1
  Fe  Fe10  1  0.37804995  0.01772002  0.59484400  1
  Fe  Fe11  1  0.36980915  0.62388446  0.30692306  1
  Te  Te12  1  0.11232857  0.27144461  0.25486662  1
  Te  Te13  1  0.87963026  0.08543387  0.63622496  1
  Te  Te14  1  0.88767143  0.72855539  0.74513338  1
  Te  Te15  1  0.14114391  0.70192254  0.53405665  1
  Te  Te16  1  0.85885609  0.29807746  0.46594335  1
  Te  Te17  1  0.64114391  0.79807746  0.96594335  1
  Te  Te18  1  0.12784631  0.81119257  0.99016308  1
  Te  Te19  1  0.87215369  0.18880743  0.00983692  1
  Te  Te20  1  0.12036974  0.91456613  0.36377504  1
  Te  Te21  1  0.38767143  0.77144461  0.75486662  1
  Te  Te22  1  0.35885609  0.20192254  0.03405665  1
  Te  Te23  1  0.37963026  0.41456613  0.86377504  1
  Te  Te24  1  0.62784631  0.68880743  0.50983692  1
  Te  Te25  1  0.62036974  0.58543387  0.13622496  1
  Te  Te26  1  0.61232857  0.22855539  0.24513338  1
  Te  Te27  1  0.37215369  0.31119257  0.49016308  1
  O  O28  1  0.88895089  0.39205270  0.01121904  1
  O  O29  1  0.61834452  0.58567471  0.26331965  1
  O  O30  1  0.13326537  0.88511025  0.50559410  1
  O  O31  1  0.05786458  0.25130633  0.38254443  1
  O  O32  1  0.33361718  0.79126779  0.61539046  1
  O  O33  1  0.63326537  0.61488975  0.99440590  1
  O  O34  1  0.30160208  0.40977135  0.29110750  1
  O  O35  1  0.42382464  0.09024231  0.23995025  1
  O  O36  1  0.69839792  0.59022865  0.70889250  1
  O  O37  1  0.94213542  0.74869367  0.61745557  1
  O  O38  1  0.80160208  0.09022865  0.20889250  1
  O  O39  1  0.61104911  0.89205270  0.51121904  1
  O  O40  1  0.07617536  0.59024231  0.73995025  1
  O  O41  1  0.11104911  0.60794730  0.98878096  1
  O  O42  1  0.10595193  0.35743113  0.82915103  1
  O  O43  1  0.11834452  0.91432529  0.23668035  1
  O  O44  1  0.68187219  0.12476566  0.92731788  1
  O  O45  1  0.88165548  0.08567471  0.76331965  1
  O  O46  1  0.86673463  0.11488975  0.49440590  1
  O  O47  1  0.83361718  0.70873221  0.88460954  1
  O  O48  1  0.66638282  0.20873221  0.38460954  1
  O  O49  1  0.55786458  0.24869367  0.11745557  1
  O  O50  1  0.34321668  0.63457810  0.17332336  1
  O  O51  1  0.31812781  0.87523434  0.07268212  1
  O  O52  1  0.18187219  0.37523434  0.57268212  1
  O  O53  1  0.16638282  0.29126779  0.11539046  1
  O  O54  1  0.38165548  0.41432529  0.73668035  1
  O  O55  1  0.11789661  0.69573057  0.33739236  1
  O  O56  1  0.38210339  0.19573057  0.83739236  1
  O  O57  1  0.39404807  0.85743113  0.32915103  1
  O  O58  1  0.61789661  0.80426943  0.16260764  1
  O  O59  1  0.36673463  0.38511025  0.00559410  1
  O  O60  1  0.19839792  0.90977135  0.79110750  1
  O  O61  1  0.44213542  0.75130633  0.88254443  1
  O  O62  1  0.81812781  0.62476566  0.42731788  1
  O  O63  1  0.88210339  0.30426943  0.66260764  1
  O  O64  1  0.38895089  0.10794730  0.48878096  1
  O  O65  1  0.07238374  0.12440200  0.93311403  1
  O  O66  1  0.15678332  0.13457810  0.67332336  1
  O  O67  1  0.60595193  0.14256887  0.67084897  1
  O  O68  1  0.57238374  0.37559800  0.56688597  1
  O  O69  1  0.92382464  0.40975769  0.26004975  1
  O  O70  1  0.65678332  0.36542190  0.82667664  1
  O  O71  1  0.89404807  0.64256887  0.17084897  1
  O  O72  1  0.57617536  0.90975769  0.76004975  1
  O  O73  1  0.84321668  0.86542190  0.32667664  1
  O  O74  1  0.42761626  0.62440200  0.43311403  1
  O  O75  1  0.92761626  0.87559800  0.06688597  1
