# generated using pymatgen
data_Rb2Cr2Cd(H2O5)2
_symmetry_space_group_name_H-M   'P 1'
_cell_length_a   6.89846663
_cell_length_b   7.92149305
_cell_length_c   11.61710771
_cell_angle_alpha   72.69012820
_cell_angle_beta   75.43485787
_cell_angle_gamma   68.59283540
_symmetry_Int_Tables_number   1
_chemical_formula_structural   Rb2Cr2Cd(H2O5)2
_chemical_formula_sum   'Rb4 Cr4 Cd2 H8 O20'
_cell_volume   556.92719934
_cell_formula_units_Z   2
loop_
 _symmetry_equiv_pos_site_id
 _symmetry_equiv_pos_as_xyz
  1  'x, y, z'
loop_
 _atom_site_type_symbol
 _atom_site_label
 _atom_site_symmetry_multiplicity
 _atom_site_fract_x
 _atom_site_fract_y
 _atom_site_fract_z
 _atom_site_occupancy
  Rb  Rb0  1  0.19982856  0.24578388  0.59764948  1
  Rb  Rb1  1  0.73388647  0.26685081  0.07902485  1
  Rb  Rb2  1  0.26611353  0.73314919  0.92097515  1
  Rb  Rb3  1  0.80017144  0.75421612  0.40235052  1
  Cr  Cr4  1  0.73251224  0.77173885  0.08604338  1
  Cr  Cr5  1  0.73142240  0.22934166  0.42400472  1
  Cr  Cr6  1  0.26748776  0.22826115  0.91395662  1
  Cr  Cr7  1  0.26857760  0.77065834  0.57599528  1
  Cd  Cd8  1  0.75014278  0.97019814  0.74681018  1
  Cd  Cd9  1  0.24985722  0.02980186  0.25318982  1
  H  H10  1  0.63658060  0.31045240  0.80081937  1
  H  H11  1  0.65775486  0.65602456  0.71224235  1
  H  H12  1  0.31185920  0.63321096  0.34126233  1
  H  H13  1  0.84627583  0.57002459  0.79369201  1
  H  H14  1  0.34224514  0.34397544  0.28775765  1
  H  H15  1  0.15372417  0.42997541  0.20630799  1
  H  H16  1  0.68814080  0.36678904  0.65873767  1
  H  H17  1  0.36341940  0.68954760  0.19918063  1
  O  O18  1  0.74853083  0.27727729  0.73001720  1
  O  O19  1  0.84354256  0.35540158  0.45759160  1
  O  O20  1  0.56760857  0.66601772  0.08041234  1
  O  O21  1  0.89197672  0.11934237  0.31458531  1
  O  O22  1  0.38953823  0.08285513  0.81886922  1
  O  O23  1  0.19188110  0.10731860  0.05288501  1
  O  O24  1  0.43239143  0.33398228  0.91958766  1
  O  O25  1  0.61046177  0.91714487  0.18113078  1
  O  O26  1  0.94498218  0.61590784  0.13922224  1
  O  O27  1  0.71902401  0.67733145  0.77367722  1
  O  O28  1  0.49621456  0.63737950  0.62487361  1
  O  O29  1  0.50378544  0.36262050  0.37512639  1
  O  O30  1  0.05501782  0.38409216  0.86077776  1
  O  O31  1  0.67936894  0.06924373  0.54944390  1
  O  O32  1  0.28097599  0.32266855  0.22632278  1
  O  O33  1  0.15645744  0.64459842  0.54240840  1
  O  O34  1  0.80811890  0.89268140  0.94711499  1
  O  O35  1  0.25146917  0.72272271  0.26998280  1
  O  O36  1  0.32063106  0.93075627  0.45055610  1
  O  O37  1  0.10802328  0.88065763  0.68541469  1
