# generated using pymatgen
data_Sr2FeBrO3
_symmetry_space_group_name_H-M   'P 1'
_cell_length_a   3.99436478
_cell_length_b   3.99436478
_cell_length_c   15.39877512
_cell_angle_alpha   90.00000000
_cell_angle_beta   90.00000000
_cell_angle_gamma   90.00000000
_symmetry_Int_Tables_number   1
_chemical_formula_structural   Sr2FeBrO3
_chemical_formula_sum   'Sr4 Fe2 Br2 O6'
_cell_volume   245.68668703
_cell_formula_units_Z   2
loop_
 _symmetry_equiv_pos_site_id
 _symmetry_equiv_pos_as_xyz
  1  'x, y, z'
loop_
 _atom_site_type_symbol
 _atom_site_label
 _atom_site_symmetry_multiplicity
 _atom_site_fract_x
 _atom_site_fract_y
 _atom_site_fract_z
 _atom_site_occupancy
  Sr  Sr0  1  0.75000000  0.75000000  0.67827847  1
  Sr  Sr1  1  0.25000000  0.25000000  0.09011773  1
  Sr  Sr2  1  0.75000000  0.75000000  0.90988227  1
  Sr  Sr3  1  0.25000000  0.25000000  0.32172153  1
  Fe  Fe4  1  0.25000000  0.25000000  0.80572291  1
  Fe  Fe5  1  0.75000000  0.75000000  0.19427709  1
  Br  Br6  1  0.75000000  0.75000000  0.41321639  1
  Br  Br7  1  0.25000000  0.25000000  0.58678361  1
  O  O8  1  0.75000000  0.25000000  0.78401305  1
  O  O9  1  0.25000000  0.75000000  0.78401305  1
  O  O10  1  0.75000000  0.25000000  0.21598695  1
  O  O11  1  0.25000000  0.75000000  0.21598695  1
  O  O12  1  0.75000000  0.75000000  0.06990944  1
  O  O13  1  0.25000000  0.25000000  0.93009056  1
