# generated using pymatgen
data_Ca9Fe(PO4)7
_symmetry_space_group_name_H-M   'P 1'
_cell_length_a   13.87140283
_cell_length_b   13.87140275
_cell_length_c   13.87140227
_cell_angle_alpha   44.23604345
_cell_angle_beta   44.23604378
_cell_angle_gamma   44.23604299
_symmetry_Int_Tables_number   1
_chemical_formula_structural   Ca9Fe(PO4)7
_chemical_formula_sum   'Ca18 Fe2 P14 O56'
_cell_volume   1180.38391749
_cell_formula_units_Z   2
loop_
 _symmetry_equiv_pos_site_id
 _symmetry_equiv_pos_as_xyz
  1  'x, y, z'
loop_
 _atom_site_type_symbol
 _atom_site_label
 _atom_site_symmetry_multiplicity
 _atom_site_fract_x
 _atom_site_fract_y
 _atom_site_fract_z
 _atom_site_occupancy
  Ca  Ca0  1  0.08158227  0.06673146  0.65623744  1
  Ca  Ca1  1  0.45593828  0.47451520  0.05277068  1
  Ca  Ca2  1  0.90893345  0.93447384  0.35746238  1
  Ca  Ca3  1  0.15623744  0.56673146  0.58158227  1
  Ca  Ca4  1  0.85746238  0.43447384  0.40893345  1
  Ca  Ca5  1  0.43447384  0.40893345  0.85746238  1
  Ca  Ca6  1  0.97451520  0.95593828  0.55277068  1
  Ca  Ca7  1  0.95593828  0.55277068  0.97451520  1
  Ca  Ca8  1  0.05277068  0.45593828  0.47451520  1
  Ca  Ca9  1  0.58158227  0.15623744  0.56673146  1
  Ca  Ca10  1  0.06673146  0.65623744  0.08158227  1
  Ca  Ca11  1  0.35746238  0.90893345  0.93447384  1
  Ca  Ca12  1  0.55277068  0.97451520  0.95593828  1
  Ca  Ca13  1  0.93447384  0.35746238  0.90893345  1
  Ca  Ca14  1  0.65623744  0.08158227  0.06673146  1
  Ca  Ca15  1  0.40893345  0.85746238  0.43447384  1
  Ca  Ca16  1  0.47451520  0.05277068  0.45593828  1
  Ca  Ca17  1  0.56673146  0.58158227  0.15623744  1
  Fe  Fe18  1  0.00236363  0.00236363  0.00236363  1
  Fe  Fe19  1  0.50236363  0.50236363  0.50236363  1
  P  P20  1  0.68985156  0.22201937  0.18768228  1
  P  P21  1  0.32281470  0.77865882  0.81308991  1
  P  P22  1  0.18768228  0.68985156  0.22201937  1
  P  P23  1  0.22201937  0.18768228  0.68985156  1
  P  P24  1  0.72201937  0.18985156  0.68768228  1
  P  P25  1  0.77865882  0.81308991  0.32281470  1
  P  P26  1  0.77160853  0.77160853  0.77160853  1
  P  P27  1  0.68768228  0.72201937  0.18985156  1
  P  P28  1  0.27865882  0.82281470  0.31308991  1
  P  P29  1  0.81308991  0.32281470  0.77865882  1
  P  P30  1  0.31308991  0.27865882  0.82281470  1
  P  P31  1  0.27160853  0.27160853  0.27160853  1
  P  P32  1  0.18985156  0.68768228  0.72201937  1
  P  P33  1  0.82281470  0.31308991  0.27865882  1
  O  O34  1  0.40503939  0.76563128  0.85942813  1
  O  O35  1  0.16627752  0.35622525  0.63765066  1
  O  O36  1  0.85622525  0.66627752  0.13765066  1
  O  O37  1  0.36879031  0.61586936  0.63314822  1
  O  O38  1  0.61599669  0.18692796  0.17651264  1
  O  O39  1  0.37713557  0.64253127  0.38452306  1
  O  O40  1  0.76563128  0.85942813  0.40503939  1
  O  O41  1  0.31308634  0.31308634  0.31308634  1
  O  O42  1  0.26563128  0.90503939  0.35942813  1
  O  O43  1  0.89053326  0.33713136  0.61710433  1
  O  O44  1  0.66627752  0.13765066  0.85622525  1
  O  O45  1  0.35942813  0.26563128  0.90503939  1
  O  O46  1  0.09379543  0.65071582  0.39445305  1
  O  O47  1  0.14028948  0.35788414  0.87185463  1
  O  O48  1  0.59379543  0.89445305  0.15071582  1
  O  O49  1  0.88452306  0.14253127  0.87713557  1
  O  O50  1  0.13314822  0.11586936  0.86879031  1
  O  O51  1  0.15071582  0.59379543  0.89445305  1
  O  O52  1  0.11599669  0.67651264  0.68692796  1
  O  O53  1  0.83713136  0.39053326  0.11710433  1
  O  O54  1  0.39053326  0.11710433  0.83713136  1
  O  O55  1  0.61710433  0.89053326  0.33713136  1
  O  O56  1  0.18692796  0.17651264  0.61599669  1
  O  O57  1  0.63765066  0.16627752  0.35622525  1
  O  O58  1  0.11586936  0.86879031  0.13314822  1
  O  O59  1  0.13765066  0.85622525  0.66627752  1
  O  O60  1  0.14253127  0.87713557  0.88452306  1
  O  O61  1  0.17651264  0.61599669  0.18692796  1
  O  O62  1  0.65071582  0.39445305  0.09379543  1
  O  O63  1  0.86879031  0.13314822  0.11586936  1
  O  O64  1  0.85942813  0.40503939  0.76563128  1
  O  O65  1  0.33713136  0.61710433  0.89053326  1
  O  O66  1  0.39445305  0.09379543  0.65071582  1
  O  O67  1  0.35788414  0.87185463  0.14028948  1
  O  O68  1  0.61195615  0.76939054  0.89498436  1
  O  O69  1  0.89498436  0.61195615  0.76939054  1
  O  O70  1  0.76939054  0.89498436  0.61195615  1
  O  O71  1  0.85788414  0.64028948  0.37185463  1
  O  O72  1  0.38452306  0.37713557  0.64253127  1
  O  O73  1  0.11710433  0.83713136  0.39053326  1
  O  O74  1  0.61586936  0.63314822  0.36879031  1
  O  O75  1  0.87713557  0.88452306  0.14253127  1
  O  O76  1  0.37185463  0.85788414  0.64028948  1
  O  O77  1  0.64028948  0.37185463  0.85788414  1
  O  O78  1  0.81308634  0.81308634  0.81308634  1
  O  O79  1  0.90503939  0.35942813  0.26563128  1
  O  O80  1  0.87185463  0.14028948  0.35788414  1
  O  O81  1  0.67651264  0.68692796  0.11599669  1
  O  O82  1  0.11195615  0.39498436  0.26939054  1
  O  O83  1  0.89445305  0.15071582  0.59379543  1
  O  O84  1  0.39498436  0.26939054  0.11195615  1
  O  O85  1  0.68692796  0.11599669  0.67651264  1
  O  O86  1  0.63314822  0.36879031  0.61586936  1
  O  O87  1  0.26939054  0.11195615  0.39498436  1
  O  O88  1  0.35622525  0.63765066  0.16627752  1
  O  O89  1  0.64253127  0.38452306  0.37713557  1
