# generated using pymatgen
data_LiV(GeO3)2
_symmetry_space_group_name_H-M   'P 1'
_cell_length_a   5.47302315
_cell_length_b   8.87554303
_cell_length_c   9.97602492
_cell_angle_alpha   90.00000000
_cell_angle_beta   107.73903362
_cell_angle_gamma   90.00000000
_symmetry_Int_Tables_number   1
_chemical_formula_structural   LiV(GeO3)2
_chemical_formula_sum   'Li4 V4 Ge8 O24'
_cell_volume   461.55537675
_cell_formula_units_Z   4
loop_
 _symmetry_equiv_pos_site_id
 _symmetry_equiv_pos_as_xyz
  1  'x, y, z'
loop_
 _atom_site_type_symbol
 _atom_site_label
 _atom_site_symmetry_multiplicity
 _atom_site_fract_x
 _atom_site_fract_y
 _atom_site_fract_z
 _atom_site_occupancy
  Li  Li0  1  0.28475686  0.98466975  0.24349237  1
  Li  Li1  1  0.21524314  0.48466975  0.75650763  1
  Li  Li2  1  0.71524314  0.01533025  0.75650763  1
  Li  Li3  1  0.78475686  0.51533025  0.24349237  1
  V  V4  1  0.78935054  0.15593103  0.24802664  1
  V  V5  1  0.71064946  0.65593103  0.75197336  1
  V  V6  1  0.21064946  0.84406897  0.75197336  1
  V  V7  1  0.28935054  0.34406897  0.24802664  1
  Ge  Ge8  1  0.73274506  0.84071938  0.05189379  1
  Ge  Ge9  1  0.76725494  0.34071938  0.94810621  1
  Ge  Ge10  1  0.26725494  0.15928062  0.94810621  1
  Ge  Ge11  1  0.23274506  0.65928062  0.05189379  1
  Ge  Ge12  1  0.71867438  0.84272631  0.45533105  1
  Ge  Ge13  1  0.78132562  0.34272631  0.54466895  1
  Ge  Ge14  1  0.28132562  0.15727369  0.54466895  1
  Ge  Ge15  1  0.21867438  0.65727369  0.45533105  1
  O  O16  1  0.70866344  0.02021746  0.38266465  1
  O  O17  1  0.79133656  0.52021746  0.61733535  1
  O  O18  1  0.29133656  0.97978254  0.61733535  1
  O  O19  1  0.20866344  0.47978254  0.38266465  1
  O  O20  1  0.61134224  0.83254736  0.86457346  1
  O  O21  1  0.88865776  0.33254736  0.13542654  1
  O  O22  1  0.38865776  0.16745264  0.13542654  1
  O  O23  1  0.11134224  0.66745264  0.86457346  1
  O  O24  1  0.68176858  0.33417275  0.35822896  1
  O  O25  1  0.81823142  0.83417275  0.64177104  1
  O  O26  1  0.31823142  0.66582725  0.64177104  1
  O  O27  1  0.18176858  0.16582725  0.35822896  1
  O  O28  1  0.89186160  0.00222318  0.13161783  1
  O  O29  1  0.60813840  0.50222318  0.86838217  1
  O  O30  1  0.10813840  0.99777682  0.86838217  1
  O  O31  1  0.39186160  0.49777682  0.13161783  1
  O  O32  1  0.38847464  0.79013368  0.38396654  1
  O  O33  1  0.11152536  0.29013368  0.61603346  1
  O  O34  1  0.61152536  0.20986632  0.61603346  1
  O  O35  1  0.88847464  0.70986632  0.38396654  1
  O  O36  1  0.95838380  0.68905678  0.11169565  1
  O  O37  1  0.54161620  0.18905678  0.88830435  1
  O  O38  1  0.04161620  0.31094322  0.88830435  1
  O  O39  1  0.45838380  0.81094322  0.11169565  1
