# generated using pymatgen
data_CrHg3(PbO4)2
_symmetry_space_group_name_H-M   'P 1'
_cell_length_a   6.57620630
_cell_length_b   7.19657052
_cell_length_c   22.39420622
_cell_angle_alpha   90.00000000
_cell_angle_beta   90.00000000
_cell_angle_gamma   109.51668320
_symmetry_Int_Tables_number   1
_chemical_formula_structural   CrHg3(PbO4)2
_chemical_formula_sum   'Cr4 Hg12 Pb8 O32'
_cell_volume   998.93777828
_cell_formula_units_Z   4
loop_
 _symmetry_equiv_pos_site_id
 _symmetry_equiv_pos_as_xyz
  1  'x, y, z'
loop_
 _atom_site_type_symbol
 _atom_site_label
 _atom_site_symmetry_multiplicity
 _atom_site_fract_x
 _atom_site_fract_y
 _atom_site_fract_z
 _atom_site_occupancy
  Cr  Cr0  1  0.58523631  0.86459906  0.38859623  1
  Cr  Cr1  1  0.41476369  0.63540094  0.88859623  1
  Cr  Cr2  1  0.58523631  0.36459906  0.11140377  1
  Cr  Cr3  1  0.41476369  0.13540094  0.61140377  1
  Hg  Hg4  1  0.50493118  0.82515553  0.05595329  1
  Hg  Hg5  1  0.35935847  0.60070963  0.71790238  1
  Hg  Hg6  1  0.49506882  0.17484447  0.94404671  1
  Hg  Hg7  1  0.64064153  0.89929037  0.21790238  1
  Hg  Hg8  1  0.92625036  0.12845019  0.86191450  1
  Hg  Hg9  1  0.92625036  0.62845019  0.63808550  1
  Hg  Hg10  1  0.64064153  0.39929037  0.28209762  1
  Hg  Hg11  1  0.35935847  0.10070963  0.78209762  1
  Hg  Hg12  1  0.07374964  0.87154981  0.13808550  1
  Hg  Hg13  1  0.49506882  0.67484447  0.55595329  1
  Hg  Hg14  1  0.07374964  0.37154981  0.36191450  1
  Hg  Hg15  1  0.50493118  0.32515553  0.44404671  1
  Pb  Pb16  1  0.97148466  0.24063558  0.52174921  1
  Pb  Pb17  1  0.83353710  0.57252938  0.79856783  1
  Pb  Pb18  1  0.97148466  0.74063558  0.97825079  1
  Pb  Pb19  1  0.02851534  0.25936442  0.02174921  1
  Pb  Pb20  1  0.16646290  0.92747062  0.29856783  1
  Pb  Pb21  1  0.16646290  0.42747062  0.20143217  1
  Pb  Pb22  1  0.02851534  0.75936442  0.47825079  1
  Pb  Pb23  1  0.83353710  0.07252938  0.70143217  1
  O  O24  1  0.68359971  0.94058811  0.45644044  1
  O  O25  1  0.26652648  0.25658528  0.64240950  1
  O  O26  1  0.68359971  0.44058811  0.04355956  1
  O  O27  1  0.82786270  0.92109730  0.04172363  1
  O  O28  1  0.31640029  0.55941189  0.95644044  1
  O  O29  1  0.73347352  0.74341472  0.35759050  1
  O  O30  1  0.82786270  0.42109730  0.45827637  1
  O  O31  1  0.67398859  0.78012062  0.89461837  1
  O  O32  1  0.26652648  0.75658528  0.85759050  1
  O  O33  1  0.31640029  0.05941189  0.54355956  1
  O  O34  1  0.41245619  0.44415385  0.84510691  1
  O  O35  1  0.02895193  0.00930159  0.78588453  1
  O  O36  1  0.32601141  0.21987938  0.10538163  1
  O  O37  1  0.31434602  0.79168859  0.22429314  1
  O  O38  1  0.73347352  0.24341472  0.14240950  1
  O  O39  1  0.58754381  0.05584615  0.34510691  1
  O  O40  1  0.58754381  0.55584615  0.15489309  1
  O  O41  1  0.02895193  0.50930159  0.71411547  1
  O  O42  1  0.68565398  0.20831141  0.77570686  1
  O  O43  1  0.67398859  0.28012062  0.60538163  1
  O  O44  1  0.17679174  0.73171205  0.06748970  1
  O  O45  1  0.82320826  0.76828795  0.56748970  1
  O  O46  1  0.17679174  0.23171205  0.43251030  1
  O  O47  1  0.97104807  0.49069841  0.28588453  1
  O  O48  1  0.82320826  0.26828795  0.93251030  1
  O  O49  1  0.17213730  0.07890270  0.95827637  1
  O  O50  1  0.41245619  0.94415385  0.65489309  1
  O  O51  1  0.68565398  0.70831141  0.72429314  1
  O  O52  1  0.97104807  0.99069841  0.21411547  1
  O  O53  1  0.17213730  0.57890270  0.54172363  1
  O  O54  1  0.32601141  0.71987938  0.39461837  1
  O  O55  1  0.31434602  0.29168859  0.27570686  1
