# generated using pymatgen
data_Cd5Mo2(P2O7)4
_symmetry_space_group_name_H-M   'P 1'
_cell_length_a   6.78855234
_cell_length_b   6.78855261
_cell_length_c   24.90352634
_cell_angle_alpha   95.26826478
_cell_angle_beta   95.26826500
_cell_angle_gamma   96.68119335
_symmetry_Int_Tables_number   1
_chemical_formula_structural   Cd5Mo2(P2O7)4
_chemical_formula_sum   'Cd10 Mo4 P16 O56'
_cell_volume   1128.94364940
_cell_formula_units_Z   2
loop_
 _symmetry_equiv_pos_site_id
 _symmetry_equiv_pos_as_xyz
  1  'x, y, z'
loop_
 _atom_site_type_symbol
 _atom_site_label
 _atom_site_symmetry_multiplicity
 _atom_site_fract_x
 _atom_site_fract_y
 _atom_site_fract_z
 _atom_site_occupancy
  Cd  Cd0  1  0.30051114  0.31962970  0.00911047  1
  Cd  Cd1  1  0.69948886  0.68037030  0.99088953  1
  Cd  Cd2  1  0.20197238  0.79802762  0.75000000  1
  Cd  Cd3  1  0.79802762  0.20197238  0.25000000  1
  Cd  Cd4  1  0.58398386  0.88286969  0.86231655  1
  Cd  Cd5  1  0.41601614  0.11713031  0.13768345  1
  Cd  Cd6  1  0.88286969  0.58398386  0.36231655  1
  Cd  Cd7  1  0.68037030  0.69948886  0.49088953  1
  Cd  Cd8  1  0.31962970  0.30051114  0.50911047  1
  Cd  Cd9  1  0.11713031  0.41601614  0.63768345  1
  Mo  Mo10  1  0.28037112  0.97502227  0.38296644  1
  Mo  Mo11  1  0.02497773  0.71962888  0.11703356  1
  Mo  Mo12  1  0.97502227  0.28037112  0.88296644  1
  Mo  Mo13  1  0.71962888  0.02497773  0.61703356  1
  P  P14  1  0.79788041  0.69335946  0.23059243  1
  P  P15  1  0.20211959  0.30664054  0.76940757  1
  P  P16  1  0.23084140  0.82323353  0.00674742  1
  P  P17  1  0.82323353  0.23084140  0.50674742  1
  P  P18  1  0.91792382  0.19451763  0.11259416  1
  P  P19  1  0.38095237  0.47500029  0.37338168  1
  P  P20  1  0.61904763  0.52499971  0.62661832  1
  P  P21  1  0.30664054  0.20211959  0.26940757  1
  P  P22  1  0.19451763  0.91792382  0.61259416  1
  P  P23  1  0.17676647  0.76915860  0.49325258  1
  P  P24  1  0.47500029  0.38095237  0.87338168  1
  P  P25  1  0.08207618  0.80548237  0.88740584  1
  P  P26  1  0.52499971  0.61904763  0.12661832  1
  P  P27  1  0.69335946  0.79788041  0.73059243  1
  P  P28  1  0.80548237  0.08207618  0.38740584  1
  P  P29  1  0.76915860  0.17676647  0.99325258  1
  O  O30  1  0.06998719  0.04704474  0.12521187  1
  O  O31  1  0.81605045  0.10513697  0.05202438  1
  O  O32  1  0.02082540  0.28712542  0.80182929  1
  O  O33  1  0.01689897  0.32995041  0.53931944  1
  O  O34  1  0.74138340  0.88348442  0.25693812  1
  O  O35  1  0.76102872  0.36066734  0.62916148  1
  O  O36  1  0.29087552  0.29635624  0.40209442  1
  O  O37  1  0.56430676  0.58777553  0.90018766  1
  O  O38  1  0.71287458  0.97917460  0.69817071  1
  O  O39  1  0.41222447  0.43569324  0.59981234  1
  O  O40  1  0.60611059  0.58988669  0.18701041  1
  O  O41  1  0.28712542  0.02082540  0.30182929  1
  O  O42  1  0.65596150  0.36374025  0.50311985  1
  O  O43  1  0.40158624  0.01849146  0.60622318  1
  O  O44  1  0.25973192  0.96865120  0.47207914  1
  O  O45  1  0.58988669  0.60611059  0.68701041  1
  O  O46  1  0.18471296  0.46189692  0.72862006  1
  O  O47  1  0.74026808  0.03134880  0.52792086  1
  O  O48  1  0.93001281  0.95295526  0.87478813  1
  O  O49  1  0.63933266  0.23897128  0.87083852  1
  O  O50  1  0.34403850  0.63625975  0.49688015  1
  O  O51  1  0.88348442  0.74138340  0.75693812  1
  O  O52  1  0.95295526  0.93001281  0.37478813  1
  O  O53  1  0.23897128  0.63933266  0.37083852  1
  O  O54  1  0.04704474  0.06998719  0.62521187  1
  O  O55  1  0.67004959  0.98310103  0.96068056  1
  O  O56  1  0.70912448  0.70364376  0.59790558  1
  O  O57  1  0.43569324  0.41222447  0.09981234  1
  O  O58  1  0.89486303  0.18394955  0.44797562  1
  O  O59  1  0.81528704  0.53810308  0.27137994  1
  O  O60  1  0.29635624  0.29087552  0.90209442  1
  O  O61  1  0.98310103  0.67004959  0.46068056  1
  O  O62  1  0.32995041  0.01689897  0.03931944  1
  O  O63  1  0.82023265  0.24626497  0.35001667  1
  O  O64  1  0.98150854  0.59841376  0.89377682  1
  O  O65  1  0.10513697  0.81605045  0.55202438  1
  O  O66  1  0.41011331  0.39388941  0.31298959  1
  O  O67  1  0.18394955  0.89486303  0.94797562  1
  O  O68  1  0.11651558  0.25861660  0.24306188  1
  O  O69  1  0.75373503  0.17976735  0.14998333  1
  O  O70  1  0.36374025  0.65596150  0.00311985  1
  O  O71  1  0.97917460  0.71287458  0.19817071  1
  O  O72  1  0.24626497  0.82023265  0.85001667  1
  O  O73  1  0.70364376  0.70912448  0.09790558  1
  O  O74  1  0.17976735  0.75373503  0.64998333  1
  O  O75  1  0.01849146  0.40158624  0.10622318  1
  O  O76  1  0.36066734  0.76102872  0.12916148  1
  O  O77  1  0.03134880  0.74026808  0.02792086  1
  O  O78  1  0.25861660  0.11651558  0.74306188  1
  O  O79  1  0.63625975  0.34403850  0.99688015  1
  O  O80  1  0.39388941  0.41011331  0.81298959  1
  O  O81  1  0.59841376  0.98150854  0.39377682  1
  O  O82  1  0.53810308  0.81528704  0.77137994  1
  O  O83  1  0.46189692  0.18471296  0.22862006  1
  O  O84  1  0.58777553  0.56430676  0.40018766  1
  O  O85  1  0.96865120  0.25973192  0.97207914  1
