# generated using pymatgen
data_BaV2TeO8
_symmetry_space_group_name_H-M   'P 1'
_cell_length_a   5.69475855
_cell_length_b   9.89727986
_cell_length_c   14.20777187
_cell_angle_alpha   107.66220974
_cell_angle_beta   90.00000000
_cell_angle_gamma   90.00000000
_symmetry_Int_Tables_number   1
_chemical_formula_structural   BaV2TeO8
_chemical_formula_sum   'Ba4 V8 Te4 O32'
_cell_volume   763.03956799
_cell_formula_units_Z   4
loop_
 _symmetry_equiv_pos_site_id
 _symmetry_equiv_pos_as_xyz
  1  'x, y, z'
loop_
 _atom_site_type_symbol
 _atom_site_label
 _atom_site_symmetry_multiplicity
 _atom_site_fract_x
 _atom_site_fract_y
 _atom_site_fract_z
 _atom_site_occupancy
  Ba  Ba0  1  0.68712540  0.40821003  0.16347328  1
  Ba  Ba1  1  0.31287460  0.59178997  0.83652672  1
  Ba  Ba2  1  0.81287460  0.90821003  0.66347328  1
  Ba  Ba3  1  0.18712540  0.09178997  0.33652672  1
  V  V4  1  0.15857345  0.08189206  0.08656271  1
  V  V5  1  0.84790177  0.34376647  0.86250209  1
  V  V6  1  0.65857345  0.41810794  0.41343729  1
  V  V7  1  0.84142655  0.91810794  0.91343729  1
  V  V8  1  0.34142655  0.58189206  0.58656271  1
  V  V9  1  0.15209823  0.65623353  0.13749791  1
  V  V10  1  0.65209823  0.84376647  0.36250209  1
  V  V11  1  0.34790177  0.15623353  0.63749791  1
  Te  Te12  1  0.83671747  0.30777024  0.59127951  1
  Te  Te13  1  0.33671747  0.19222976  0.90872049  1
  Te  Te14  1  0.66328253  0.80777024  0.09127951  1
  Te  Te15  1  0.16328253  0.69222976  0.40872049  1
  O  O16  1  0.88462396  0.29804878  0.45467820  1
  O  O17  1  0.36402267  0.00195360  0.13925932  1
  O  O18  1  0.10009943  0.16389346  0.55892902  1
  O  O19  1  0.99131290  0.80703396  0.81964693  1
  O  O20  1  0.11903058  0.35827770  0.93460142  1
  O  O21  1  0.13409505  0.80266454  0.23620107  1
  O  O22  1  0.63597733  0.99804640  0.86074068  1
  O  O23  1  0.61903058  0.14172230  0.56539858  1
  O  O24  1  0.82745910  0.48853064  0.82428678  1
  O  O25  1  0.63409505  0.69733546  0.26379893  1
  O  O26  1  0.50868710  0.30703396  0.31964693  1
  O  O27  1  0.38096942  0.85827770  0.43460142  1
  O  O28  1  0.60009943  0.33610654  0.94107098  1
  O  O29  1  0.61537604  0.79804878  0.95467820  1
  O  O30  1  0.11537604  0.70195122  0.54532180  1
  O  O31  1  0.32745910  0.01146936  0.67571322  1
  O  O32  1  0.67254090  0.98853064  0.32428678  1
  O  O33  1  0.39990057  0.66389346  0.05892902  1
  O  O34  1  0.36590495  0.30266454  0.73620107  1
  O  O35  1  0.54953668  0.42269348  0.54696208  1
  O  O36  1  0.95046332  0.92269348  0.04696208  1
  O  O37  1  0.45046332  0.57730652  0.45303792  1
  O  O38  1  0.86402267  0.49804640  0.36074068  1
  O  O39  1  0.49131290  0.69296604  0.68035307  1
  O  O40  1  0.17254090  0.51146936  0.17571322  1
  O  O41  1  0.04953668  0.07730652  0.95303792  1
  O  O42  1  0.88096942  0.64172230  0.06539858  1
  O  O43  1  0.86590495  0.19733546  0.76379893  1
  O  O44  1  0.00868710  0.19296604  0.18035307  1
  O  O45  1  0.89990057  0.83610654  0.44107098  1
  O  O46  1  0.38462396  0.20195122  0.04532180  1
  O  O47  1  0.13597733  0.50195360  0.63925932  1
