# generated using pymatgen
data_Zn(GaS2)2
_symmetry_space_group_name_H-M   'P 1'
_cell_length_a   6.39455438
_cell_length_b   12.47526232
_cell_length_c   13.03950205
_cell_angle_alpha   115.35860598
_cell_angle_beta   98.48170918
_cell_angle_gamma   101.78556658
_symmetry_Int_Tables_number   1
_chemical_formula_structural   Zn(GaS2)2
_chemical_formula_sum   'Zn6 Ga12 S24'
_cell_volume   887.10909388
_cell_formula_units_Z   6
loop_
 _symmetry_equiv_pos_site_id
 _symmetry_equiv_pos_as_xyz
  1  'x, y, z'
loop_
 _atom_site_type_symbol
 _atom_site_label
 _atom_site_symmetry_multiplicity
 _atom_site_fract_x
 _atom_site_fract_y
 _atom_site_fract_z
 _atom_site_occupancy
  Zn  Zn0  1  0.12447926  0.87447926  0.74895851  1
  Zn  Zn1  1  0.87552074  0.12552074  0.25104149  1
  Zn  Zn2  1  0.29353928  0.04353928  0.08707857  1
  Zn  Zn3  1  0.70646072  0.95646072  0.91292143  1
  Zn  Zn4  1  0.46497650  0.21497650  0.42995300  1
  Zn  Zn5  1  0.53502350  0.78502350  0.57004700  1
  Ga  Ga6  1  0.53379174  0.16024406  0.74644884  1
  Ga  Ga7  1  0.71265710  0.58620478  0.74644884  1
  Ga  Ga8  1  0.46620826  0.83975594  0.25355116  1
  Ga  Ga9  1  0.28734290  0.41379522  0.25355116  1
  Ga  Ga10  1  0.70122668  0.32424026  0.08151129  1
  Ga  Ga11  1  0.88028461  0.75727103  0.08151129  1
  Ga  Ga12  1  0.29877332  0.67575974  0.91848871  1
  Ga  Ga13  1  0.11971539  0.24272897  0.91848871  1
  Ga  Ga14  1  0.86093624  0.51457149  0.40506128  1
  Ga  Ga15  1  0.04412504  0.89048979  0.40506128  1
  Ga  Ga16  1  0.13906376  0.48542851  0.59493872  1
  Ga  Ga17  1  0.95587496  0.10951021  0.59493872  1
  S  S18  1  0.48404335  0.96978518  0.73622950  1
  S  S19  1  0.75218614  0.76644432  0.73622950  1
  S  S20  1  0.51595665  0.03021482  0.26377050  1
  S  S21  1  0.24781386  0.23355568  0.26377050  1
  S  S22  1  0.65992742  0.14552582  0.08641794  1
  S  S23  1  0.92649053  0.94089213  0.08641794  1
  S  S24  1  0.34007258  0.85447418  0.91358206  1
  S  S25  1  0.07350947  0.05910787  0.91358206  1
  S  S26  1  0.84645534  0.34151969  0.43252958  1
  S  S27  1  0.08607423  0.09100989  0.43252958  1
  S  S28  1  0.15354466  0.65848031  0.56747042  1
  S  S29  1  0.91392577  0.90899011  0.56747042  1
  S  S30  1  0.98354946  0.48890861  0.23725817  1
  S  S31  1  0.75370871  0.74834956  0.23725817  1
  S  S32  1  0.01645054  0.51109139  0.76274183  1
  S  S33  1  0.24629129  0.25165044  0.76274183  1
  S  S34  1  0.81425538  0.31892121  0.91725728  1
  S  S35  1  0.60300190  0.59833607  0.91725728  1
  S  S36  1  0.18574462  0.68107879  0.08274272  1
  S  S37  1  0.39699810  0.40166393  0.08274272  1
  S  S38  1  0.66019595  0.18010395  0.59920837  1
  S  S39  1  0.43901242  0.41910442  0.59920837  1
  S  S40  1  0.33980405  0.81989605  0.40079163  1
  S  S41  1  0.56098758  0.58089558  0.40079163  1
