# generated using pymatgen
data_KMnO2
_symmetry_space_group_name_H-M   'P 1'
_cell_length_a   6.31050308
_cell_length_b   10.37286346
_cell_length_c   11.55317878
_cell_angle_alpha   90.00000000
_cell_angle_beta   90.00000000
_cell_angle_gamma   94.81334058
_symmetry_Int_Tables_number   1
_chemical_formula_structural   KMnO2
_chemical_formula_sum   'K12 Mn12 O24'
_cell_volume   753.58080158
_cell_formula_units_Z   12
loop_
 _symmetry_equiv_pos_site_id
 _symmetry_equiv_pos_as_xyz
  1  'x, y, z'
loop_
 _atom_site_type_symbol
 _atom_site_label
 _atom_site_symmetry_multiplicity
 _atom_site_fract_x
 _atom_site_fract_y
 _atom_site_fract_z
 _atom_site_occupancy
  K  K0  1  0.16995200  0.42469196  0.75000000  1
  K  K1  1  0.18979722  0.41519455  0.45901801  1
  K  K2  1  0.81020278  0.58480545  0.54098199  1
  K  K3  1  0.92454959  0.82389398  0.75000000  1
  K  K4  1  0.93359347  0.88152923  0.10363100  1
  K  K5  1  0.06640653  0.11847077  0.60363100  1
  K  K6  1  0.07545041  0.17610602  0.25000000  1
  K  K7  1  0.81020278  0.58480545  0.95901801  1
  K  K8  1  0.93359347  0.88152923  0.39636900  1
  K  K9  1  0.06640653  0.11847077  0.89636900  1
  K  K10  1  0.18979722  0.41519455  0.04098199  1
  K  K11  1  0.83004800  0.57530804  0.25000000  1
  Mn  Mn12  1  0.63733603  0.26959111  0.50093734  1
  Mn  Mn13  1  0.64302603  0.28018757  0.75000000  1
  Mn  Mn14  1  0.62125360  0.27187693  0.25000000  1
  Mn  Mn15  1  0.51615762  0.98767436  0.87495210  1
  Mn  Mn16  1  0.35697397  0.71981243  0.25000000  1
  Mn  Mn17  1  0.37874640  0.72812307  0.75000000  1
  Mn  Mn18  1  0.36266397  0.73040889  0.00093734  1
  Mn  Mn19  1  0.48384238  0.01232564  0.37495210  1
  Mn  Mn20  1  0.36266397  0.73040889  0.49906266  1
  Mn  Mn21  1  0.51615762  0.98767436  0.62504790  1
  Mn  Mn22  1  0.63733603  0.26959111  0.99906266  1
  Mn  Mn23  1  0.48384238  0.01232564  0.12504790  1
  O  O24  1  0.68530379  0.05646539  0.25000000  1
  O  O25  1  0.57734004  0.77092063  0.62218775  1
  O  O26  1  0.42265996  0.22907937  0.12218775  1
  O  O27  1  0.80818227  0.34237958  0.37223567  1
  O  O28  1  0.83829420  0.33051375  0.62130725  1
  O  O29  1  0.16170580  0.66948625  0.37869275  1
  O  O30  1  0.31469621  0.94353461  0.75000000  1
  O  O31  1  0.43235460  0.26899503  0.87370150  1
  O  O32  1  0.29378620  0.94585276  0.25000000  1
  O  O33  1  0.56764540  0.73100497  0.12629850  1
  O  O34  1  0.16170580  0.66948625  0.12130725  1
  O  O35  1  0.70621380  0.05414724  0.75000000  1
  O  O36  1  0.69199698  0.05898077  0.00186950  1
  O  O37  1  0.57734004  0.77092063  0.87781225  1
  O  O38  1  0.69199698  0.05898077  0.49813050  1
  O  O39  1  0.30800302  0.94101923  0.99813050  1
  O  O40  1  0.80818227  0.34237958  0.12776433  1
  O  O41  1  0.19181773  0.65762042  0.62776433  1
  O  O42  1  0.43235460  0.26899503  0.62629850  1
  O  O43  1  0.83829420  0.33051375  0.87869275  1
  O  O44  1  0.42265996  0.22907937  0.37781225  1
  O  O45  1  0.30800302  0.94101923  0.50186950  1
  O  O46  1  0.19181773  0.65762042  0.87223567  1
  O  O47  1  0.56764540  0.73100497  0.37370150  1
