# generated using pymatgen
data_Ag3Pb
_symmetry_space_group_name_H-M   'P 1'
_cell_length_a   3.24673531
_cell_length_b   3.24673531
_cell_length_c   9.48983052
_cell_angle_alpha   90.00000000
_cell_angle_beta   90.00000000
_cell_angle_gamma   119.98531013
_symmetry_Int_Tables_number   1
_chemical_formula_structural   Ag3Pb
_chemical_formula_sum   'Ag3 Pb1'
_cell_volume   86.64572180
_cell_formula_units_Z   1
loop_
 _symmetry_equiv_pos_site_id
 _symmetry_equiv_pos_as_xyz
  1  'x, y, z'
loop_
 _atom_site_type_symbol
 _atom_site_label
 _atom_site_symmetry_multiplicity
 _atom_site_fract_x
 _atom_site_fract_y
 _atom_site_fract_z
 _atom_site_occupancy
  Ag  Ag0  1  0.66680410  0.33319590  0.87500000  1
  Ag  Ag1  1  0.33327171  0.66672829  0.10715405  1
  Ag  Ag2  1  0.33327171  0.66672829  0.64284595  1
  Pb  Pb3  1  0.66665248  0.33334752  0.37500000  1
