# generated using pymatgen
data_Fe2BO4
_symmetry_space_group_name_H-M   'P 1'
_cell_length_a   6.46005741
_cell_length_b   9.53457071
_cell_length_c   9.39016370
_cell_angle_alpha   90.00000000
_cell_angle_beta   90.28312959
_cell_angle_gamma   90.00000000
_symmetry_Int_Tables_number   1
_chemical_formula_structural   Fe2BO4
_chemical_formula_sum   'Fe16 B8 O32'
_cell_volume   578.36949982
_cell_formula_units_Z   8
loop_
 _symmetry_equiv_pos_site_id
 _symmetry_equiv_pos_as_xyz
  1  'x, y, z'
loop_
 _atom_site_type_symbol
 _atom_site_label
 _atom_site_symmetry_multiplicity
 _atom_site_fract_x
 _atom_site_fract_y
 _atom_site_fract_z
 _atom_site_occupancy
  Fe  Fe0  1  0.66643145  0.44683728  0.49128738  1
  Fe  Fe1  1  0.66643145  0.55316272  0.99128738  1
  Fe  Fe2  1  0.41604268  0.68417919  0.26942304  1
  Fe  Fe3  1  0.41604268  0.31582081  0.76942304  1
  Fe  Fe4  1  0.16788503  0.81608035  0.50504495  1
  Fe  Fe5  1  0.16788503  0.18391965  0.00504495  1
  Fe  Fe6  1  0.91536128  0.94467670  0.78604544  1
  Fe  Fe7  1  0.91536128  0.05532330  0.28604544  1
  Fe  Fe8  1  0.16573815  0.56058090  0.99404205  1
  Fe  Fe9  1  0.16573815  0.43941910  0.49404205  1
  Fe  Fe10  1  0.91357508  0.68060515  0.27553205  1
  Fe  Fe11  1  0.91357508  0.31939485  0.77553205  1
  Fe  Fe12  1  0.66264106  0.81957197  0.51034995  1
  Fe  Fe13  1  0.66264106  0.18042803  0.01034995  1
  Fe  Fe14  1  0.41487358  0.94120817  0.78808771  1
  Fe  Fe15  1  0.41487358  0.05879183  0.28808771  1
  B  B16  1  0.14891860  0.12595099  0.55482130  1
  B  B17  1  0.14891860  0.87404901  0.05482130  1
  B  B18  1  0.68366345  0.12765562  0.55572529  1
  B  B19  1  0.68366345  0.87234438  0.05572529  1
  B  B20  1  0.90860945  0.37309023  0.22685773  1
  B  B21  1  0.90860945  0.62690977  0.72685773  1
  B  B22  1  0.42147510  0.37402601  0.22327154  1
  B  B23  1  0.42147510  0.62597399  0.72327154  1
  O  O24  1  0.90292228  0.49823911  0.14833047  1
  O  O25  1  0.90292228  0.50176089  0.64833047  1
  O  O26  1  0.43181035  0.38077527  0.36959911  1
  O  O27  1  0.43181035  0.61922473  0.86959911  1
  O  O28  1  0.67885160  0.62831702  0.39895542  1
  O  O29  1  0.67885160  0.37168298  0.89895542  1
  O  O30  1  0.15087182  0.74526872  0.12416508  1
  O  O31  1  0.15087182  0.25473128  0.62416508  1
  O  O32  1  0.40013619  0.75641355  0.65742377  1
  O  O33  1  0.40013619  0.24358645  0.15742377  1
  O  O34  1  0.92706555  0.86692796  0.37561326  1
  O  O35  1  0.92706555  0.13307204  0.87561326  1
  O  O36  1  0.14763473  0.87940609  0.90871418  1
  O  O37  1  0.14763473  0.12059391  0.40871418  1
  O  O38  1  0.68568446  0.00694166  0.64004488  1
  O  O39  1  0.68568446  0.99305834  0.14004488  1
  O  O40  1  0.43228549  0.49734464  0.14204248  1
  O  O41  1  0.43228549  0.50265536  0.64204248  1
  O  O42  1  0.89969741  0.37939790  0.37216337  1
  O  O43  1  0.89969741  0.62060210  0.87216337  1
  O  O44  1  0.15131053  0.63384121  0.40317907  1
  O  O45  1  0.15131053  0.36615879  0.90317907  1
  O  O46  1  0.68168806  0.74003648  0.11973927  1
  O  O47  1  0.68168806  0.25996352  0.61973927  1
  O  O48  1  0.92283950  0.75729409  0.65874751  1
  O  O49  1  0.92283950  0.24270591  0.15874751  1
  O  O50  1  0.40437279  0.86872018  0.38610987  1
  O  O51  1  0.40437279  0.13127982  0.88610987  1
  O  O52  1  0.68342751  0.88392343  0.90959851  1
  O  O53  1  0.68342751  0.11607657  0.40959851  1
  O  O54  1  0.14706681  0.99893794  0.63171733  1
  O  O55  1  0.14706681  0.00106206  0.13171733  1
