# generated using pymatgen
data_KMn5(SeO3)6
_symmetry_space_group_name_H-M   'P 1'
_cell_length_a   9.76410780
_cell_length_b   10.43598633
_cell_length_c   10.43598681
_cell_angle_alpha   60.00242099
_cell_angle_beta   88.78250941
_cell_angle_gamma   88.78250873
_symmetry_Int_Tables_number   1
_chemical_formula_structural   KMn5(SeO3)6
_chemical_formula_sum   'K2 Mn10 Se12 O36'
_cell_volume   920.68286521
_cell_formula_units_Z   2
loop_
 _symmetry_equiv_pos_site_id
 _symmetry_equiv_pos_as_xyz
  1  'x, y, z'
loop_
 _atom_site_type_symbol
 _atom_site_label
 _atom_site_symmetry_multiplicity
 _atom_site_fract_x
 _atom_site_fract_y
 _atom_site_fract_z
 _atom_site_occupancy
  K  K0  1  0.25000000  0.00036147  0.99963853  1
  K  K1  1  0.75000000  0.99963853  0.00036147  1
  Mn  Mn2  1  0.83329395  0.66918482  0.66808016  1
  Mn  Mn3  1  0.75071953  0.37557112  0.99859474  1
  Mn  Mn4  1  0.24928047  0.62442888  0.00140526  1
  Mn  Mn5  1  0.74928047  0.00140526  0.62442888  1
  Mn  Mn6  1  0.75000000  0.61346868  0.38653132  1
  Mn  Mn7  1  0.25071953  0.99859474  0.37557112  1
  Mn  Mn8  1  0.66670605  0.33191984  0.33081518  1
  Mn  Mn9  1  0.16670605  0.33081518  0.33191984  1
  Mn  Mn10  1  0.33329395  0.66808016  0.66918482  1
  Mn  Mn11  1  0.25000000  0.38653132  0.61346868  1
  Se  Se12  1  0.58310893  0.69464907  0.91935583  1
  Se  Se13  1  0.08422361  0.68817508  0.38628417  1
  Se  Se14  1  0.08310893  0.91935583  0.69464907  1
  Se  Se15  1  0.41689107  0.30535093  0.08064417  1
  Se  Se16  1  0.08900643  0.38735541  0.91113607  1
  Se  Se17  1  0.41577639  0.61371583  0.31182492  1
  Se  Se18  1  0.41099357  0.08886393  0.61264459  1
  Se  Se19  1  0.58422361  0.38628417  0.68817508  1
  Se  Se20  1  0.91099357  0.61264459  0.08886393  1
  Se  Se21  1  0.91689107  0.08064417  0.30535093  1
  Se  Se22  1  0.91577639  0.31182492  0.61371583  1
  Se  Se23  1  0.58900643  0.91113607  0.38735541  1
  O  O24  1  0.18905836  0.54089751  0.85252440  1
  O  O25  1  0.07469026  0.15809084  0.30364883  1
  O  O26  1  0.68881310  0.60718427  0.84901405  1
  O  O27  1  0.68853757  0.54692200  0.59481098  1
  O  O28  1  0.85756689  0.13477291  0.69599783  1
  O  O29  1  0.92757690  0.68817608  0.46828905  1
  O  O30  1  0.15126665  0.30636441  0.80834742  1
  O  O31  1  0.13585867  0.82822156  0.87580900  1
  O  O32  1  0.31118690  0.39281573  0.15098595  1
  O  O33  1  0.35756689  0.69599783  0.13477291  1
  O  O34  1  0.57242310  0.53171095  0.31182392  1
  O  O35  1  0.86414133  0.17177844  0.12419100  1
  O  O36  1  0.18853757  0.59481098  0.54692200  1
  O  O37  1  0.18881310  0.84901405  0.60718427  1
  O  O38  1  0.06968365  0.53550554  0.16154932  1
  O  O39  1  0.56968365  0.16154932  0.53550554  1
  O  O40  1  0.81094164  0.45910249  0.14747560  1
  O  O41  1  0.92530974  0.84190916  0.69635117  1
  O  O42  1  0.31094164  0.14747560  0.45910249  1
  O  O43  1  0.93031635  0.46449446  0.83845068  1
  O  O44  1  0.64243311  0.30400217  0.86522709  1
  O  O45  1  0.84873335  0.69363559  0.19165258  1
  O  O46  1  0.81146243  0.40518902  0.45307800  1
  O  O47  1  0.34873335  0.19165258  0.69363559  1
  O  O48  1  0.65126665  0.80834742  0.30636441  1
  O  O49  1  0.43031635  0.83845068  0.46449446  1
  O  O50  1  0.81118690  0.15098595  0.39281573  1
  O  O51  1  0.42530974  0.69635117  0.84190916  1
  O  O52  1  0.42757690  0.46828905  0.68817608  1
  O  O53  1  0.31146243  0.45307800  0.40518902  1
  O  O54  1  0.63585867  0.87580900  0.82822156  1
  O  O55  1  0.36414133  0.12419100  0.17177844  1
  O  O56  1  0.14243311  0.86522709  0.30400217  1
  O  O57  1  0.68905836  0.85252440  0.54089751  1
  O  O58  1  0.57469026  0.30364883  0.15809084  1
  O  O59  1  0.07242310  0.31182392  0.53171095  1
