# generated using pymatgen
data_K2Cr3(ClF3)2
_symmetry_space_group_name_H-M   'P 1'
_cell_length_a   6.65914879
_cell_length_b   6.88352096
_cell_length_c   11.45185670
_cell_angle_alpha   90.00000000
_cell_angle_beta   90.00000000
_cell_angle_gamma   111.72321336
_symmetry_Int_Tables_number   1
_chemical_formula_structural   K2Cr3(ClF3)2
_chemical_formula_sum   'K4 Cr6 Cl4 F12'
_cell_volume   487.65522926
_cell_formula_units_Z   2
loop_
 _symmetry_equiv_pos_site_id
 _symmetry_equiv_pos_as_xyz
  1  'x, y, z'
loop_
 _atom_site_type_symbol
 _atom_site_label
 _atom_site_symmetry_multiplicity
 _atom_site_fract_x
 _atom_site_fract_y
 _atom_site_fract_z
 _atom_site_occupancy
  K  K0  1  0.33827035  0.64168970  0.94982267  1
  K  K1  1  0.66172965  0.35831030  0.05017733  1
  K  K2  1  0.83827035  0.14168970  0.55017733  1
  K  K3  1  0.16172965  0.85831030  0.44982267  1
  Cr  Cr4  1  0.38293086  0.22176221  0.75323433  1
  Cr  Cr5  1  0.11706914  0.27823779  0.25323433  1
  Cr  Cr6  1  0.00000000  0.00000000  0.00000000  1
  Cr  Cr7  1  0.88293086  0.72176221  0.74676567  1
  Cr  Cr8  1  0.61706914  0.77823779  0.24676567  1
  Cr  Cr9  1  0.50000000  0.50000000  0.50000000  1
  Cl  Cl10  1  0.19400751  0.52564411  0.67017495  1
  Cl  Cl11  1  0.69400751  0.02564411  0.82982505  1
  Cl  Cl12  1  0.30599249  0.97435589  0.17017495  1
  Cl  Cl13  1  0.80599249  0.47435589  0.32982505  1
  F  F14  1  0.87384126  0.01722759  0.31256557  1
  F  F15  1  0.01273207  0.75252250  0.90887896  1
  F  F16  1  0.26256814  0.20594229  0.91609285  1
  F  F17  1  0.98726793  0.24747750  0.09112104  1
  F  F18  1  0.73743186  0.79405771  0.08390715  1
  F  F19  1  0.23743186  0.29405771  0.41609285  1
  F  F20  1  0.48726793  0.74747750  0.40887896  1
  F  F21  1  0.51273207  0.25252250  0.59112104  1
  F  F22  1  0.37384126  0.51722759  0.18743443  1
  F  F23  1  0.76256814  0.70594229  0.58390715  1
  F  F24  1  0.62615874  0.48277241  0.81256557  1
  F  F25  1  0.12615874  0.98277241  0.68743443  1
