# generated using pymatgen
data_Rb2Mo3SO13
_symmetry_space_group_name_H-M   'P 1'
_cell_length_a   9.60367738
_cell_length_b   10.98053510
_cell_length_c   13.68319147
_cell_angle_alpha   90.00000000
_cell_angle_beta   90.00000000
_cell_angle_gamma   111.64468946
_symmetry_Int_Tables_number   1
_chemical_formula_structural   Rb2Mo3SO13
_chemical_formula_sum   'Rb8 Mo12 S4 O52'
_cell_volume   1341.19757695
_cell_formula_units_Z   4
loop_
 _symmetry_equiv_pos_site_id
 _symmetry_equiv_pos_as_xyz
  1  'x, y, z'
loop_
 _atom_site_type_symbol
 _atom_site_label
 _atom_site_symmetry_multiplicity
 _atom_site_fract_x
 _atom_site_fract_y
 _atom_site_fract_z
 _atom_site_occupancy
  Rb  Rb0  1  0.93619118  0.95743257  0.31405735  1
  Rb  Rb1  1  0.48140038  0.94928997  0.80537233  1
  Rb  Rb2  1  0.98140038  0.44928997  0.69462767  1
  Rb  Rb3  1  0.51859962  0.05071003  0.19462767  1
  Rb  Rb4  1  0.43619118  0.45743257  0.18594265  1
  Rb  Rb5  1  0.01859962  0.55071003  0.30537233  1
  Rb  Rb6  1  0.56380882  0.54256743  0.81405735  1
  Rb  Rb7  1  0.06380882  0.04256743  0.68594265  1
  Mo  Mo8  1  0.66830216  0.47521012  0.48439959  1
  Mo  Mo9  1  0.64952577  0.79917718  0.56135406  1
  Mo  Mo10  1  0.17497033  0.63379983  0.00709786  1
  Mo  Mo11  1  0.16830216  0.97521012  0.01560041  1
  Mo  Mo12  1  0.14952577  0.29917718  0.93864594  1
  Mo  Mo13  1  0.82502967  0.36620017  0.99290214  1
  Mo  Mo14  1  0.33169784  0.52478988  0.51560041  1
  Mo  Mo15  1  0.32502967  0.86620017  0.50709786  1
  Mo  Mo16  1  0.35047423  0.20082282  0.43864594  1
  Mo  Mo17  1  0.83169784  0.02478988  0.98439959  1
  Mo  Mo18  1  0.85047423  0.70082282  0.06135406  1
  Mo  Mo19  1  0.67497033  0.13379983  0.49290214  1
  S  S20  1  0.49919224  0.24939153  0.66622992  1
  S  S21  1  0.50080776  0.75060847  0.33377008  1
  S  S22  1  0.99919224  0.74939153  0.83377008  1
  S  S23  1  0.00080776  0.25060847  0.16622992  1
  O  O24  1  0.91258020  0.33560915  0.14391831  1
  O  O25  1  0.78757428  0.39775717  0.87312020  1
  O  O26  1  0.36169631  0.20491651  0.60160117  1
  O  O27  1  0.61548369  0.78422822  0.68684307  1
  O  O28  1  0.38577253  0.71575570  0.53563993  1
  O  O29  1  0.86169631  0.70491651  0.89839883  1
  O  O30  1  0.63830369  0.79508349  0.39839883  1
  O  O31  1  0.69099496  0.51603015  0.36123903  1
  O  O32  1  0.40928275  0.04801551  0.45892436  1
  O  O33  1  0.08741980  0.66439085  0.85608169  1
  O  O34  1  0.58741980  0.16439085  0.64391831  1
  O  O35  1  0.59268163  0.38953513  0.64062677  1
  O  O36  1  0.90399674  0.89108507  0.03588504  1
  O  O37  1  0.71242572  0.10224283  0.37312020  1
  O  O38  1  0.40731837  0.61046487  0.35937323  1
  O  O39  1  0.11548369  0.28422822  0.81315693  1
  O  O40  1  0.41258020  0.83560915  0.35608169  1
  O  O41  1  0.15793387  0.12977582  0.44962332  1
  O  O42  1  0.28757428  0.89775717  0.62687980  1
  O  O43  1  0.14863874  0.47396241  0.47507176  1
  O  O44  1  0.09268163  0.88953513  0.85937323  1
  O  O45  1  0.13830369  0.29508349  0.10160117  1
  O  O46  1  0.85069720  0.19728713  0.54554300  1
  O  O47  1  0.54484480  0.76288207  0.23177472  1
  O  O48  1  0.61422747  0.28424430  0.46436007  1
  O  O49  1  0.84206613  0.87022418  0.55037668  1
  O  O50  1  0.85136126  0.52603759  0.52492824  1
  O  O51  1  0.88451631  0.71577178  0.18684307  1
  O  O52  1  0.09071725  0.45198449  0.95892436  1
  O  O53  1  0.95515520  0.73711793  0.73177472  1
  O  O54  1  0.45515520  0.23711793  0.76822528  1
  O  O55  1  0.04484480  0.26288207  0.26822528  1
  O  O56  1  0.64930280  0.30271287  0.04554300  1
  O  O57  1  0.59071725  0.95198449  0.54107564  1
  O  O58  1  0.65793387  0.62977582  0.05037668  1
  O  O59  1  0.40399674  0.39108507  0.46411496  1
  O  O60  1  0.19099496  0.01603015  0.13876097  1
  O  O61  1  0.90731837  0.11046487  0.14062677  1
  O  O62  1  0.21242572  0.60224283  0.12687980  1
  O  O63  1  0.14930280  0.80271287  0.45445700  1
  O  O64  1  0.64863874  0.97396241  0.02492824  1
  O  O65  1  0.30900504  0.48396985  0.63876097  1
  O  O66  1  0.80900504  0.98396985  0.86123903  1
  O  O67  1  0.59600326  0.60891493  0.53588504  1
  O  O68  1  0.11422747  0.78424430  0.03563993  1
  O  O69  1  0.35069720  0.69728713  0.95445700  1
  O  O70  1  0.09600326  0.10891493  0.96411496  1
  O  O71  1  0.38451631  0.21577178  0.31315693  1
  O  O72  1  0.34206613  0.37022418  0.94962332  1
  O  O73  1  0.90928275  0.54801551  0.04107564  1
  O  O74  1  0.88577253  0.21575570  0.96436007  1
  O  O75  1  0.35136126  0.02603759  0.97507176  1
