# generated using pymatgen
data_Ba3Mo2(P2O9)2
_symmetry_space_group_name_H-M   'P 1'
_cell_length_a   4.92679552
_cell_length_b   9.36587611
_cell_length_c   18.26557441
_cell_angle_alpha   88.30757133
_cell_angle_beta   88.20969701
_cell_angle_gamma   78.51835230
_symmetry_Int_Tables_number   1
_chemical_formula_structural   Ba3Mo2(P2O9)2
_chemical_formula_sum   'Ba6 Mo4 P8 O36'
_cell_volume   825.33858831
_cell_formula_units_Z   2
loop_
 _symmetry_equiv_pos_site_id
 _symmetry_equiv_pos_as_xyz
  1  'x, y, z'
loop_
 _atom_site_type_symbol
 _atom_site_label
 _atom_site_symmetry_multiplicity
 _atom_site_fract_x
 _atom_site_fract_y
 _atom_site_fract_z
 _atom_site_occupancy
  Ba  Ba0  1  0.77376629  0.99679391  0.74803932  1
  Ba  Ba1  1  0.09165158  0.40467430  0.85372554  1
  Ba  Ba2  1  0.90834842  0.59532570  0.14627446  1
  Ba  Ba3  1  0.22623371  0.00320609  0.25196068  1
  Ba  Ba4  1  0.53773012  0.40873930  0.34657925  1
  Ba  Ba5  1  0.46226988  0.59126070  0.65342075  1
  Mo  Mo6  1  0.30708796  0.76635373  0.44751937  1
  Mo  Mo7  1  0.69291204  0.23364627  0.55248063  1
  Mo  Mo8  1  0.17040978  0.22630083  0.05131741  1
  Mo  Mo9  1  0.82959022  0.77369917  0.94868259  1
  P  P10  1  0.23914761  0.14104535  0.43453652  1
  P  P11  1  0.76085239  0.85895465  0.56546348  1
  P  P12  1  0.29990966  0.84735011  0.06980426  1
  P  P13  1  0.13387828  0.28782037  0.67855843  1
  P  P14  1  0.70009034  0.15264989  0.93019574  1
  P  P15  1  0.62969500  0.26589830  0.17720525  1
  P  P16  1  0.37030500  0.73410170  0.82279475  1
  P  P17  1  0.86612172  0.71217963  0.32144157  1
  O  O18  1  0.93093115  0.27061706  0.14575863  1
  O  O19  1  0.20224427  0.40662802  0.03681497  1
  O  O20  1  0.30707841  0.77098074  0.14534078  1
  O  O21  1  0.85205130  0.99238491  0.92432173  1
  O  O22  1  0.69292159  0.22901926  0.85465922  1
  O  O23  1  0.39466167  0.15809887  0.95796064  1
  O  O24  1  0.72521892  0.41265916  0.53451895  1
  O  O25  1  0.73342152  0.81441252  0.25980657  1
  O  O26  1  0.65779060  0.01834304  0.59012747  1
  O  O27  1  0.15926133  0.76212048  0.01522506  1
  O  O28  1  0.51180156  0.82128510  0.87646961  1
  O  O29  1  0.88101068  0.22398276  0.65260602  1
  O  O30  1  0.34220940  0.98165696  0.40987253  1
  O  O31  1  0.97193963  0.55554277  0.29421152  1
  O  O32  1  0.11898932  0.77601724  0.34739398  1
  O  O33  1  0.10838092  0.23556187  0.37017318  1
  O  O34  1  0.84073867  0.23787952  0.98477494  1
  O  O35  1  0.79775573  0.59337198  0.96318503  1
  O  O36  1  0.05170308  0.14009061  0.50373928  1
  O  O37  1  0.26657848  0.18558748  0.74019343  1
  O  O38  1  0.67027973  0.69794200  0.38877034  1
  O  O39  1  0.48157964  0.42456838  0.18844296  1
  O  O40  1  0.51842036  0.57543162  0.81155704  1
  O  O41  1  0.27478108  0.58734084  0.46548105  1
  O  O42  1  0.14794870  0.00761509  0.07567827  1
  O  O43  1  0.06906885  0.72938294  0.85424137  1
  O  O44  1  0.89161908  0.76443813  0.62982682  1
  O  O45  1  0.60533833  0.84190113  0.04203936  1
  O  O46  1  0.32972027  0.30205800  0.61122966  1
  O  O47  1  0.48819844  0.17871490  0.12353039  1
  O  O48  1  0.49974216  0.20254889  0.45732008  1
  O  O49  1  0.33739275  0.82269076  0.74988368  1
  O  O50  1  0.66260725  0.17730924  0.25011632  1
  O  O51  1  0.50025784  0.79745111  0.54267992  1
  O  O52  1  0.02806037  0.44445723  0.70578848  1
  O  O53  1  0.94829692  0.85990939  0.49626072  1
