# generated using pymatgen
data_RbMn6As7O24
_symmetry_space_group_name_H-M   'P 1'
_cell_length_a   5.63490439
_cell_length_b   6.92742265
_cell_length_c   28.22500317
_cell_angle_alpha   90.00000000
_cell_angle_beta   90.00000000
_cell_angle_gamma   107.71959201
_symmetry_Int_Tables_number   1
_chemical_formula_structural   RbMn6As7O24
_chemical_formula_sum   'Rb2 Mn12 As14 O48'
_cell_volume   1049.50236129
_cell_formula_units_Z   2
loop_
 _symmetry_equiv_pos_site_id
 _symmetry_equiv_pos_as_xyz
  1  'x, y, z'
loop_
 _atom_site_type_symbol
 _atom_site_label
 _atom_site_symmetry_multiplicity
 _atom_site_fract_x
 _atom_site_fract_y
 _atom_site_fract_z
 _atom_site_occupancy
  Rb  Rb0  1  0.69786849  0.10184842  0.25000000  1
  Rb  Rb1  1  0.30213151  0.89815158  0.75000000  1
  Mn  Mn2  1  0.81665166  0.81973720  0.54329008  1
  Mn  Mn3  1  0.21407617  0.59944366  0.59819607  1
  Mn  Mn4  1  0.10599525  0.74846084  0.31559479  1
  Mn  Mn5  1  0.89400475  0.25153916  0.81559479  1
  Mn  Mn6  1  0.10599525  0.74846084  0.18440521  1
  Mn  Mn7  1  0.18334834  0.18026280  0.45670992  1
  Mn  Mn8  1  0.89400475  0.25153916  0.68440521  1
  Mn  Mn9  1  0.78592383  0.40055634  0.09819607  1
  Mn  Mn10  1  0.21407617  0.59944366  0.90180393  1
  Mn  Mn11  1  0.78592383  0.40055634  0.40180393  1
  Mn  Mn12  1  0.18334834  0.18026280  0.04329008  1
  Mn  Mn13  1  0.81665166  0.81973720  0.95670992  1
  As  As14  1  0.52476310  0.56679734  0.25000000  1
  As  As15  1  0.72568327  0.30165034  0.52264532  1
  As  As16  1  0.68446551  0.87348623  0.38702232  1
  As  As17  1  0.27431673  0.69834966  0.47735468  1
  As  As18  1  0.27431673  0.69834966  0.02264532  1
  As  As19  1  0.47523690  0.43320266  0.75000000  1
  As  As20  1  0.77377089  0.72626707  0.83663696  1
  As  As21  1  0.31553449  0.12651377  0.88702232  1
  As  As22  1  0.31553449  0.12651377  0.61297768  1
  As  As23  1  0.22622911  0.27373293  0.33663696  1
  As  As24  1  0.77377089  0.72626707  0.66336304  1
  As  As25  1  0.22622911  0.27373293  0.16336304  1
  As  As26  1  0.68446551  0.87348623  0.11297768  1
  As  As27  1  0.72568327  0.30165034  0.97735468  1
  O  O28  1  0.82979108  0.70353551  0.25000000  1
  O  O29  1  0.39183792  0.26854754  0.11305043  1
  O  O30  1  0.04321573  0.43129307  0.16317987  1
  O  O31  1  0.58191271  0.32475220  0.02940874  1
  O  O32  1  0.88828831  0.13014531  0.51992153  1
  O  O33  1  0.10643848  0.47349238  0.04772634  1
  O  O34  1  0.17020892  0.29646449  0.75000000  1
  O  O35  1  0.30742488  0.69144086  0.25000000  1
  O  O36  1  0.89356152  0.52650762  0.95227366  1
  O  O37  1  0.87910995  0.11040950  0.40128189  1
  O  O38  1  0.50434678  0.59464264  0.70072767  1
  O  O39  1  0.10643848  0.47349238  0.45227366  1
  O  O40  1  0.90146385  0.94528953  0.80704126  1
  O  O41  1  0.87910995  0.11040950  0.09871811  1
  O  O42  1  0.11171169  0.86985469  0.01992153  1
  O  O43  1  0.49565322  0.40535736  0.20072767  1
  O  O44  1  0.95678427  0.56870693  0.66317987  1
  O  O45  1  0.12089005  0.88959050  0.90128189  1
  O  O46  1  0.90146385  0.94528953  0.69295874  1
  O  O47  1  0.49565322  0.40535736  0.29927233  1
  O  O48  1  0.44848489  0.20190523  0.94387655  1
  O  O49  1  0.55151511  0.79809477  0.44387655  1
  O  O50  1  0.58191271  0.32475220  0.47059126  1
  O  O51  1  0.09853615  0.05471047  0.30704126  1
  O  O52  1  0.14809971  0.29182784  0.62362820  1
  O  O53  1  0.55151511  0.79809477  0.05612345  1
  O  O54  1  0.60816208  0.73145246  0.61305043  1
  O  O55  1  0.60816208  0.73145246  0.88694957  1
  O  O56  1  0.44848489  0.20190523  0.55612345  1
  O  O57  1  0.14809971  0.29182784  0.87637180  1
  O  O58  1  0.52218940  0.13005759  0.84384460  1
  O  O59  1  0.09853615  0.05471047  0.19295874  1
  O  O60  1  0.41808729  0.67524780  0.97059126  1
  O  O61  1  0.85190029  0.70817216  0.12362820  1
  O  O62  1  0.12089005  0.88959050  0.59871811  1
  O  O63  1  0.11171169  0.86985469  0.48007847  1
  O  O64  1  0.95678427  0.56870693  0.83682013  1
  O  O65  1  0.52218940  0.13005759  0.65615540  1
  O  O66  1  0.04321573  0.43129307  0.33682013  1
  O  O67  1  0.50434678  0.59464264  0.79927233  1
  O  O68  1  0.89356152  0.52650762  0.54772634  1
  O  O69  1  0.47781060  0.86994241  0.34384460  1
  O  O70  1  0.41808729  0.67524780  0.52940874  1
  O  O71  1  0.85190029  0.70817216  0.37637180  1
  O  O72  1  0.88828831  0.13014531  0.98007847  1
  O  O73  1  0.69257512  0.30855914  0.75000000  1
  O  O74  1  0.39183792  0.26854754  0.38694957  1
  O  O75  1  0.47781060  0.86994241  0.15615540  1
