# generated using pymatgen
data_KCa9Mn(PO4)7
_symmetry_space_group_name_H-M   'P 1'
_cell_length_a   13.87156144
_cell_length_b   13.87156150
_cell_length_c   13.87156122
_cell_angle_alpha   44.69547581
_cell_angle_beta   44.69547560
_cell_angle_gamma   44.69547702
_symmetry_Int_Tables_number   1
_chemical_formula_structural   KCa9Mn(PO4)7
_chemical_formula_sum   'K2 Ca18 Mn2 P14 O56'
_cell_volume   1201.02704395
_cell_formula_units_Z   2
loop_
 _symmetry_equiv_pos_site_id
 _symmetry_equiv_pos_as_xyz
  1  'x, y, z'
loop_
 _atom_site_type_symbol
 _atom_site_label
 _atom_site_symmetry_multiplicity
 _atom_site_fract_x
 _atom_site_fract_y
 _atom_site_fract_z
 _atom_site_occupancy
  K  K0  1  0.68395368  0.68395368  0.68395368  1
  K  K1  1  0.18395368  0.18395368  0.18395368  1
  Ca  Ca2  1  0.56506813  0.57421469  0.16047519  1
  Ca  Ca3  1  0.56371399  0.97300626  0.94389502  1
  Ca  Ca4  1  0.34615141  0.90969903  0.94545493  1
  Ca  Ca5  1  0.06506813  0.66047519  0.07421469  1
  Ca  Ca6  1  0.94545493  0.34615141  0.90969903  1
  Ca  Ca7  1  0.16047519  0.56506813  0.57421469  1
  Ca  Ca8  1  0.97300626  0.94389502  0.56371399  1
  Ca  Ca9  1  0.94389502  0.56371399  0.97300626  1
  Ca  Ca10  1  0.47300626  0.06371399  0.44389502  1
  Ca  Ca11  1  0.57421469  0.16047519  0.56506813  1
  Ca  Ca12  1  0.44545493  0.40969903  0.84615141  1
  Ca  Ca13  1  0.07421469  0.06506813  0.66047519  1
  Ca  Ca14  1  0.44389502  0.47300626  0.06371399  1
  Ca  Ca15  1  0.40969903  0.84615141  0.44545493  1
  Ca  Ca16  1  0.84615141  0.44545493  0.40969903  1
  Ca  Ca17  1  0.06371399  0.44389502  0.47300626  1
  Ca  Ca18  1  0.66047519  0.07421469  0.06506813  1
  Ca  Ca19  1  0.90969903  0.94545493  0.34615141  1
  Mn  Mn20  1  0.50138887  0.50138887  0.50138887  1
  Mn  Mn21  1  0.00138887  0.00138887  0.00138887  1
  P  P22  1  0.82054896  0.31510512  0.27289341  1
  P  P23  1  0.18739125  0.68237403  0.72884071  1
  P  P24  1  0.81510512  0.32054896  0.77289341  1
  P  P25  1  0.27289341  0.82054896  0.31510512  1
  P  P26  1  0.68739125  0.22884071  0.18237403  1
  P  P27  1  0.31510512  0.27289341  0.82054896  1
  P  P28  1  0.68237403  0.72884071  0.18739125  1
  P  P29  1  0.77289341  0.81510512  0.32054896  1
  P  P30  1  0.76845246  0.76845246  0.76845246  1
  P  P31  1  0.22884071  0.18237403  0.68739125  1
  P  P32  1  0.72884071  0.18739125  0.68237403  1
  P  P33  1  0.32054896  0.77289341  0.81510512  1
  P  P34  1  0.26845246  0.26845246  0.26845246  1
  P  P35  1  0.18237403  0.68739125  0.22884071  1
  O  O36  1  0.36333795  0.61639667  0.64385948  1
  O  O37  1  0.67620406  0.12878839  0.85152345  1
  O  O38  1  0.61639667  0.64385948  0.36333795  1
  O  O39  1  0.86934693  0.39552960  0.76191140  1
  O  O40  1  0.64518982  0.37439339  0.37069815  1
  O  O41  1  0.64111711  0.38875402  0.84152288  1
  O  O42  1  0.37439339  0.37069815  0.64518982  1
  O  O43  1  0.64385948  0.36333795  0.61639667  1
  O  O44  1  0.76191140  0.86934693  0.39552960  1
  O  O45  1  0.36934693  0.26191140  0.89552960  1
  O  O46  1  0.39141886  0.26226504  0.11139393  1
  O  O47  1  0.19109703  0.16931405  0.61633976  1
  O  O48  1  0.90117995  0.14439910  0.58877056  1
  O  O49  1  0.40117995  0.08877056  0.64439910  1
  O  O50  1  0.16931405  0.61633976  0.19109703  1
  O  O51  1  0.14111711  0.34152288  0.88875402  1
  O  O52  1  0.76226504  0.89141886  0.61139393  1
  O  O53  1  0.87069815  0.87439339  0.14518982  1
  O  O54  1  0.62878839  0.17620406  0.35152345  1
  O  O55  1  0.10963513  0.83797397  0.39428953  1
  O  O56  1  0.26191140  0.89552960  0.36934693  1
  O  O57  1  0.69109703  0.11633976  0.66931405  1
  O  O58  1  0.84152288  0.64111711  0.38875402  1
  O  O59  1  0.08877056  0.64439910  0.40117995  1
  O  O60  1  0.61139393  0.76226504  0.89141886  1
  O  O61  1  0.81002264  0.81002264  0.81002264  1
  O  O62  1  0.39552960  0.76191140  0.86934693  1
  O  O63  1  0.89428953  0.33797397  0.60963513  1
  O  O64  1  0.11633976  0.66931405  0.69109703  1
  O  O65  1  0.88875402  0.14111711  0.34152288  1
  O  O66  1  0.39428953  0.10963513  0.83797397  1
  O  O67  1  0.83797397  0.39428953  0.10963513  1
  O  O68  1  0.11139393  0.39141886  0.26226504  1
  O  O69  1  0.14439910  0.58877056  0.90117995  1
  O  O70  1  0.61633976  0.19109703  0.16931405  1
  O  O71  1  0.26226504  0.11139393  0.39141886  1
  O  O72  1  0.14385948  0.11639667  0.86333795  1
  O  O73  1  0.33797397  0.60963513  0.89428953  1
  O  O74  1  0.66931405  0.69109703  0.11633976  1
  O  O75  1  0.35152345  0.62878839  0.17620406  1
  O  O76  1  0.38875402  0.84152288  0.64111711  1
  O  O77  1  0.12878839  0.85152345  0.67620406  1
  O  O78  1  0.86333795  0.14385948  0.11639667  1
  O  O79  1  0.14518982  0.87069815  0.87439339  1
  O  O80  1  0.87439339  0.14518982  0.87069815  1
  O  O81  1  0.89141886  0.61139393  0.76226504  1
  O  O82  1  0.37069815  0.64518982  0.37439339  1
  O  O83  1  0.85152345  0.67620406  0.12878839  1
  O  O84  1  0.17620406  0.35152345  0.62878839  1
  O  O85  1  0.60963513  0.89428953  0.33797397  1
  O  O86  1  0.34152288  0.88875402  0.14111711  1
  O  O87  1  0.89552960  0.36934693  0.26191140  1
  O  O88  1  0.58877056  0.90117995  0.14439910  1
  O  O89  1  0.31002264  0.31002264  0.31002264  1
  O  O90  1  0.11639667  0.86333795  0.14385948  1
  O  O91  1  0.64439910  0.40117995  0.08877056  1
