# generated using pymatgen
data_NdSbMo2O9
_symmetry_space_group_name_H-M   'P 1'
_cell_length_a   9.90151298
_cell_length_b   9.90151340
_cell_length_c   11.06000221
_cell_angle_alpha   111.67112684
_cell_angle_beta   111.67112786
_cell_angle_gamma   95.86387477
_symmetry_Int_Tables_number   1
_chemical_formula_structural   NdSbMo2O9
_chemical_formula_sum   'Nd4 Sb4 Mo8 O36'
_cell_volume   900.02998288
_cell_formula_units_Z   4
loop_
 _symmetry_equiv_pos_site_id
 _symmetry_equiv_pos_as_xyz
  1  'x, y, z'
loop_
 _atom_site_type_symbol
 _atom_site_label
 _atom_site_symmetry_multiplicity
 _atom_site_fract_x
 _atom_site_fract_y
 _atom_site_fract_z
 _atom_site_occupancy
  Nd  Nd0  1  0.87553984  0.12446016  0.75000000  1
  Nd  Nd1  1  0.67449216  0.32550784  0.25000000  1
  Nd  Nd2  1  0.12446016  0.87553984  0.25000000  1
  Nd  Nd3  1  0.32550784  0.67449216  0.75000000  1
  Sb  Sb4  1  0.37813022  0.35314416  0.46236246  1
  Sb  Sb5  1  0.35314416  0.37813022  0.96236246  1
  Sb  Sb6  1  0.64685584  0.62186978  0.03763754  1
  Sb  Sb7  1  0.62186978  0.64685584  0.53763754  1
  Mo  Mo8  1  0.25908460  0.04897227  0.02639670  1
  Mo  Mo9  1  0.04897227  0.25908460  0.52639670  1
  Mo  Mo10  1  0.74091540  0.95102773  0.97360330  1
  Mo  Mo11  1  0.43476854  0.06063940  0.69526111  1
  Mo  Mo12  1  0.93936060  0.56523146  0.80473889  1
  Mo  Mo13  1  0.06063940  0.43476854  0.19526111  1
  Mo  Mo14  1  0.56523146  0.93936060  0.30473889  1
  Mo  Mo15  1  0.95102773  0.74091540  0.47360330  1
  O  O16  1  0.12410080  0.70280412  0.56181118  1
  O  O17  1  0.62715950  0.78711396  0.19893972  1
  O  O18  1  0.21288604  0.37284050  0.30106028  1
  O  O19  1  0.57579207  0.45929313  0.09797846  1
  O  O20  1  0.55922118  0.08834218  0.25068876  1
  O  O21  1  0.69310789  0.01491767  0.49110173  1
  O  O22  1  0.61812445  0.14035031  0.72295332  1
  O  O23  1  0.59651918  0.78075209  0.92410778  1
  O  O24  1  0.14035031  0.61812445  0.22295332  1
  O  O25  1  0.44077882  0.91165782  0.74931124  1
  O  O26  1  0.78075209  0.59651918  0.42410778  1
  O  O27  1  0.98508233  0.30689211  0.00889827  1
  O  O28  1  0.06376853  0.09561101  0.40021594  1
  O  O29  1  0.42420793  0.54070687  0.90202154  1
  O  O30  1  0.09561101  0.06376853  0.90021594  1
  O  O31  1  0.93623147  0.90438899  0.59978406  1
  O  O32  1  0.85964969  0.38187555  0.77704668  1
  O  O33  1  0.38187555  0.85964969  0.27704668  1
  O  O34  1  0.54070687  0.42420793  0.40202154  1
  O  O35  1  0.94917483  0.77362304  0.32370876  1
  O  O36  1  0.40348082  0.21924791  0.07589222  1
  O  O37  1  0.08834218  0.55922118  0.75068876  1
  O  O38  1  0.21924791  0.40348082  0.57589222  1
  O  O39  1  0.30689211  0.98508233  0.50889827  1
  O  O40  1  0.22637696  0.05082517  0.17629124  1
  O  O41  1  0.78711396  0.62715950  0.69893972  1
  O  O42  1  0.45929313  0.57579207  0.59797846  1
  O  O43  1  0.91165782  0.44077882  0.24931124  1
  O  O44  1  0.77362304  0.94917483  0.82370876  1
  O  O45  1  0.01491767  0.69310789  0.99110173  1
  O  O46  1  0.29719588  0.87589920  0.93818882  1
  O  O47  1  0.70280412  0.12410080  0.06181118  1
  O  O48  1  0.05082517  0.22637696  0.67629124  1
  O  O49  1  0.90438899  0.93623147  0.09978406  1
  O  O50  1  0.37284050  0.21288604  0.80106028  1
  O  O51  1  0.87589920  0.29719588  0.43818882  1
