# generated using pymatgen
data_MoPb3Cl2O5
_symmetry_space_group_name_H-M   'P 1'
_cell_length_a   5.68677636
_cell_length_b   7.26056699
_cell_length_c   11.21520221
_cell_angle_alpha   90.00000000
_cell_angle_beta   90.00000000
_cell_angle_gamma   113.05538046
_symmetry_Int_Tables_number   1
_chemical_formula_structural   MoPb3Cl2O5
_chemical_formula_sum   'Mo2 Pb6 Cl4 O10'
_cell_volume   426.08029850
_cell_formula_units_Z   2
loop_
 _symmetry_equiv_pos_site_id
 _symmetry_equiv_pos_as_xyz
  1  'x, y, z'
loop_
 _atom_site_type_symbol
 _atom_site_label
 _atom_site_symmetry_multiplicity
 _atom_site_fract_x
 _atom_site_fract_y
 _atom_site_fract_z
 _atom_site_occupancy
  Mo  Mo0  1  0.23415980  0.46831959  0.25000000  1
  Mo  Mo1  1  0.76584020  0.53168041  0.75000000  1
  Pb  Pb2  1  0.34741566  0.69483133  0.53125598  1
  Pb  Pb3  1  0.65258434  0.30516867  0.03125598  1
  Pb  Pb4  1  0.34741566  0.69483133  0.96874402  1
  Pb  Pb5  1  0.10164647  0.20329294  0.75000000  1
  Pb  Pb6  1  0.65258434  0.30516867  0.46874402  1
  Pb  Pb7  1  0.89835353  0.79670706  0.25000000  1
  Cl  Cl8  1  0.47797158  0.95594315  0.25000000  1
  Cl  Cl9  1  0.00000000  0.00000000  0.50000000  1
  Cl  Cl10  1  0.52202842  0.04405685  0.75000000  1
  Cl  Cl11  1  0.00000000  0.00000000  0.00000000  1
  O  O12  1  0.03703239  0.54110479  0.36940931  1
  O  O13  1  0.49592760  0.45889521  0.63059069  1
  O  O14  1  0.96296761  0.45889521  0.86940931  1
  O  O15  1  0.96296761  0.45889521  0.63059069  1
  O  O16  1  0.89485025  0.78970050  0.75000000  1
  O  O17  1  0.49592760  0.45889521  0.86940931  1
  O  O18  1  0.03703239  0.54110479  0.13059069  1
  O  O19  1  0.50407240  0.54110479  0.36940931  1
  O  O20  1  0.10514975  0.21029950  0.25000000  1
  O  O21  1  0.50407240  0.54110479  0.13059069  1
