# generated using pymatgen
data_Rb2Mn(PO3)4
_symmetry_space_group_name_H-M   'P 1'
_cell_length_a   7.96555176
_cell_length_b   11.47808312
_cell_length_c   13.22618332
_cell_angle_alpha   90.00000000
_cell_angle_beta   90.00000000
_cell_angle_gamma   102.05325175
_symmetry_Int_Tables_number   1
_chemical_formula_structural   Rb2Mn(PO3)4
_chemical_formula_sum   'Rb8 Mn4 P16 O48'
_cell_volume   1182.60080173
_cell_formula_units_Z   4
loop_
 _symmetry_equiv_pos_site_id
 _symmetry_equiv_pos_as_xyz
  1  'x, y, z'
loop_
 _atom_site_type_symbol
 _atom_site_label
 _atom_site_symmetry_multiplicity
 _atom_site_fract_x
 _atom_site_fract_y
 _atom_site_fract_z
 _atom_site_occupancy
  Rb  Rb0  1  0.90699866  0.34139470  0.13479771  1
  Rb  Rb1  1  0.57759132  0.63621147  0.11720981  1
  Rb  Rb2  1  0.42240868  0.36378853  0.88279019  1
  Rb  Rb3  1  0.07759132  0.13621147  0.38279019  1
  Rb  Rb4  1  0.59300134  0.15860530  0.63479771  1
  Rb  Rb5  1  0.92240868  0.86378853  0.61720981  1
  Rb  Rb6  1  0.09300134  0.65860530  0.86520229  1
  Rb  Rb7  1  0.40699866  0.84139470  0.36520229  1
  Mn  Mn8  1  0.75939963  0.51598547  0.64935973  1
  Mn  Mn9  1  0.25939963  0.01598547  0.85064027  1
  Mn  Mn10  1  0.74060037  0.98401453  0.14935973  1
  Mn  Mn11  1  0.24060037  0.48401453  0.35064027  1
  P  P12  1  0.91189678  0.33774109  0.83160412  1
  P  P13  1  0.66776673  0.58764535  0.40934518  1
  P  P14  1  0.18092495  0.62694611  0.56890375  1
  P  P15  1  0.91250860  0.79772376  0.31467005  1
  P  P16  1  0.31907505  0.87305389  0.06890375  1
  P  P17  1  0.83223327  0.91235465  0.90934518  1
  P  P18  1  0.08749140  0.20227624  0.68532995  1
  P  P19  1  0.81907505  0.37305389  0.43109625  1
  P  P20  1  0.68092495  0.12694611  0.93109625  1
  P  P21  1  0.41250860  0.29772376  0.18532995  1
  P  P22  1  0.33223327  0.41235465  0.59065482  1
  P  P23  1  0.58810322  0.16225891  0.33160412  1
  P  P24  1  0.08810322  0.66225891  0.16839588  1
  P  P25  1  0.16776673  0.08764535  0.09065482  1
  P  P26  1  0.58749140  0.70227624  0.81467005  1
  P  P27  1  0.41189678  0.83774109  0.66839588  1
  O  O28  1  0.29269768  0.90789708  0.71685189  1
  O  O29  1  0.31447727  0.38492536  0.47976389  1
  O  O30  1  0.06778649  0.76711052  0.24670247  1
  O  O31  1  0.80633950  0.25763168  0.92234417  1
  O  O32  1  0.32997707  0.16338515  0.15032612  1
  O  O33  1  0.30633950  0.75763168  0.57765583  1
  O  O34  1  0.18552273  0.11507464  0.97976389  1
  O  O35  1  0.20730232  0.59210292  0.21685189  1
  O  O36  1  0.69366050  0.24236832  0.42234417  1
  O  O37  1  0.50603726  0.59958072  0.35482983  1
  O  O38  1  0.49396274  0.40041928  0.64517017  1
  O  O39  1  0.19366050  0.74236832  0.07765583  1
  O  O40  1  0.96912532  0.37641745  0.36094018  1
  O  O41  1  0.30259251  0.54403358  0.61534348  1
  O  O42  1  0.34530546  0.89442040  0.95770688  1
  O  O43  1  0.84530546  0.39442040  0.54229312  1
  O  O44  1  0.68552273  0.61507464  0.52023611  1
  O  O45  1  0.21698415  0.15921824  0.75106071  1
  O  O46  1  0.67002293  0.83661485  0.84967388  1
  O  O47  1  0.56778649  0.26711052  0.25329753  1
  O  O48  1  0.50514094  0.62661313  0.90024344  1
  O  O49  1  0.78301585  0.84078176  0.24893929  1
  O  O50  1  0.57692715  0.90273658  0.62370651  1
  O  O51  1  0.53087468  0.12358255  0.86094018  1
  O  O52  1  0.00514094  0.12661313  0.59975656  1
  O  O53  1  0.43221351  0.73288948  0.74670247  1
  O  O54  1  0.79269768  0.40789708  0.78314811  1
  O  O55  1  0.99485906  0.87338687  0.40024344  1
  O  O56  1  0.49485906  0.37338687  0.09975656  1
  O  O57  1  0.03087468  0.62358255  0.63905982  1
  O  O58  1  0.00603726  0.09958072  0.14517017  1
  O  O59  1  0.42307285  0.09726342  0.37629349  1
  O  O60  1  0.46912532  0.87641745  0.13905982  1
  O  O61  1  0.28301585  0.34078176  0.25106071  1
  O  O62  1  0.71698415  0.65921824  0.74893929  1
  O  O63  1  0.15469454  0.60557960  0.45770688  1
  O  O64  1  0.81447727  0.88492536  0.02023611  1
  O  O65  1  0.93221351  0.23288948  0.75329753  1
  O  O66  1  0.99396274  0.90041928  0.85482983  1
  O  O67  1  0.82997707  0.66338515  0.34967388  1
  O  O68  1  0.17002293  0.33661485  0.65032612  1
  O  O69  1  0.92307285  0.59726342  0.12370651  1
  O  O70  1  0.70730232  0.09210292  0.28314811  1
  O  O71  1  0.65469454  0.10557960  0.04229312  1
  O  O72  1  0.07692715  0.40273658  0.87629349  1
  O  O73  1  0.19740749  0.95596642  0.11534348  1
  O  O74  1  0.69740749  0.45596642  0.38465652  1
  O  O75  1  0.80259251  0.04403358  0.88465652  1
