# generated using pymatgen
data_Bi10(MoO8)3
_symmetry_space_group_name_H-M   'P 1'
_cell_length_a   5.74264726
_cell_length_b   8.85304181
_cell_length_c   12.30920610
_cell_angle_alpha   95.58856660
_cell_angle_beta   103.49356780
_cell_angle_gamma   89.99584724
_symmetry_Int_Tables_number   1
_chemical_formula_structural   Bi10(MoO8)3
_chemical_formula_sum   'Bi10 Mo3 O24'
_cell_volume   605.46597905
_cell_formula_units_Z   1
loop_
 _symmetry_equiv_pos_site_id
 _symmetry_equiv_pos_as_xyz
  1  'x, y, z'
loop_
 _atom_site_type_symbol
 _atom_site_label
 _atom_site_symmetry_multiplicity
 _atom_site_fract_x
 _atom_site_fract_y
 _atom_site_fract_z
 _atom_site_occupancy
  Bi  Bi0  1  0.47118926  0.67568653  0.92692051  1
  Bi  Bi1  1  0.78692904  0.54668332  0.38828202  1
  Bi  Bi2  1  0.54421554  0.32432323  0.07308037  1
  Bi  Bi3  1  0.27552571  0.81153841  0.47683029  1
  Bi  Bi4  1  0.08248719  0.58806360  0.15126485  1
  Bi  Bi5  1  0.39871037  0.45331427  0.61176286  1
  Bi  Bi6  1  0.17676708  0.24856537  0.29683227  1
  Bi  Bi7  1  0.93131140  0.41191758  0.84879338  1
  Bi  Bi8  1  0.88000962  0.75142466  0.70321888  1
  Bi  Bi9  1  0.79870739  0.18839932  0.52319155  1
  Mo  Mo10  1  0.42820862  0.07358418  0.74741873  1
  Mo  Mo11  1  0.00038923  0.00002572  0.99995411  1
  Mo  Mo12  1  0.68077290  0.92640345  0.25260359  1
  O  O13  1  0.76176719  0.35477852  0.65291767  1
  O  O14  1  0.96370476  0.99504373  0.34587658  1
  O  O15  1  0.10892929  0.64512677  0.34711364  1
  O  O16  1  0.87927465  0.06271713  0.11971920  1
  O  O17  1  0.29652674  0.50000491  0.99999746  1
  O  O18  1  0.54470302  0.65098308  0.55268073  1
  O  O19  1  0.77781509  0.49999421  0.99999983  1
  O  O20  1  0.18480049  0.83797620  0.02738774  1
  O  O21  1  0.48049195  0.08099999  0.21661547  1
  O  O22  1  0.26380646  0.91903126  0.78338427  1
  O  O23  1  0.19954773  0.16914471  0.65178454  1
  O  O24  1  0.55739550  0.22671226  0.85237979  1
  O  O25  1  0.14096323  0.59374247  0.79239531  1
  O  O26  1  0.54779488  0.83087306  0.34823779  1
  O  O27  1  0.70498582  0.77333405  0.14760632  1
  O  O28  1  0.34847860  0.40621560  0.20758688  1
  O  O29  1  0.75941905  0.93736924  0.88020260  1
  O  O30  1  0.86490618  0.41913650  0.21749377  1
  O  O31  1  0.47403137  0.31300453  0.44823516  1
  O  O32  1  0.64750105  0.58088951  0.78251123  1
  O  O33  1  0.02585954  0.68697385  0.55178387  1
  O  O34  1  0.15744731  0.16211969  0.97253056  1
  O  O35  1  0.61771861  0.00492606  0.65408836  1
  O  O36  1  0.99190814  0.34897403  0.44731882  1
