# generated using pymatgen
data_NaMo2P3O13
_symmetry_space_group_name_H-M   'P 1'
_cell_length_a   6.47716955
_cell_length_b   7.21436131
_cell_length_c   22.69559183
_cell_angle_alpha   90.00000000
_cell_angle_beta   90.00000000
_cell_angle_gamma   100.30004392
_symmetry_Int_Tables_number   1
_chemical_formula_structural   NaMo2P3O13
_chemical_formula_sum   'Na4 Mo8 P12 O52'
_cell_volume   1043.44355900
_cell_formula_units_Z   4
loop_
 _symmetry_equiv_pos_site_id
 _symmetry_equiv_pos_as_xyz
  1  'x, y, z'
loop_
 _atom_site_type_symbol
 _atom_site_label
 _atom_site_symmetry_multiplicity
 _atom_site_fract_x
 _atom_site_fract_y
 _atom_site_fract_z
 _atom_site_occupancy
  Na  Na0  1  0.83067376  0.79618949  0.36736885  1
  Na  Na1  1  0.66932624  0.70381051  0.86736885  1
  Na  Na2  1  0.33067376  0.29618949  0.13263115  1
  Na  Na3  1  0.16932624  0.20381051  0.63263115  1
  Mo  Mo4  1  0.21361997  0.95945056  0.79233439  1
  Mo  Mo5  1  0.27407368  0.72300551  0.56352351  1
  Mo  Mo6  1  0.72592632  0.27699449  0.43647649  1
  Mo  Mo7  1  0.71361997  0.45945056  0.70766561  1
  Mo  Mo8  1  0.28638003  0.54054944  0.29233439  1
  Mo  Mo9  1  0.78638003  0.04054944  0.20766561  1
  Mo  Mo10  1  0.22592632  0.77699449  0.06352351  1
  Mo  Mo11  1  0.77407368  0.22300551  0.93647649  1
  P  P12  1  0.12087484  0.64984956  0.91712015  1
  P  P13  1  0.37912516  0.85015044  0.41712015  1
  P  P14  1  0.27719229  0.29777641  0.90131581  1
  P  P15  1  0.72280771  0.70222359  0.09868419  1
  P  P16  1  0.22280771  0.20222359  0.40131581  1
  P  P17  1  0.62087484  0.14984956  0.58287985  1
  P  P18  1  0.72698195  0.08613329  0.79678397  1
  P  P19  1  0.77719229  0.79777641  0.59868419  1
  P  P20  1  0.77301805  0.41386671  0.29678397  1
  P  P21  1  0.22698195  0.58613329  0.70321603  1
  P  P22  1  0.87912516  0.35015044  0.08287985  1
  P  P23  1  0.27301805  0.91386671  0.20321603  1
  O  O24  1  0.48385061  0.29844604  0.93376327  1
  O  O25  1  0.60009894  0.96715374  0.42160670  1
  O  O26  1  0.71843965  0.26670716  0.34660979  1
  O  O27  1  0.27603257  0.79000150  0.47639709  1
  O  O28  1  0.29640399  0.01716517  0.06067161  1
  O  O29  1  0.22396743  0.70999850  0.97639709  1
  O  O30  1  0.69889898  0.18857652  0.73883400  1
  O  O31  1  0.19889898  0.68857652  0.76116600  1
  O  O32  1  0.60747262  0.54307849  0.29331817  1
  O  O33  1  0.76337942  0.70557220  0.65914323  1
  O  O34  1  0.39252738  0.45692151  0.70668183  1
  O  O35  1  0.89252738  0.95692151  0.79331817  1
  O  O36  1  0.28156035  0.73329284  0.65339021  1
  O  O37  1  0.51614939  0.70155396  0.06623673  1
  O  O38  1  0.77603257  0.29000150  0.02360291  1
  O  O39  1  0.63443577  0.31562862  0.62463220  1
  O  O40  1  0.76058160  0.94181704  0.27628807  1
  O  O41  1  0.86556423  0.18437138  0.12463220  1
  O  O42  1  0.01614939  0.20155396  0.43376327  1
  O  O43  1  0.97959982  0.55562511  0.31107285  1
  O  O44  1  0.02040018  0.44437489  0.68892715  1
  O  O45  1  0.52040018  0.94437489  0.81107285  1
  O  O46  1  0.20359601  0.48283483  0.56067161  1
  O  O47  1  0.22387037  0.98168756  0.38787282  1
  O  O48  1  0.30110102  0.81142348  0.26116600  1
  O  O49  1  0.26058160  0.44181704  0.22371193  1
  O  O50  1  0.70359601  0.98283483  0.93932839  1
  O  O51  1  0.13443577  0.81562862  0.87536780  1
  O  O52  1  0.78156035  0.23329284  0.84660979  1
  O  O53  1  0.09259611  0.22553402  0.94229104  1
  O  O54  1  0.98385061  0.79844604  0.56623673  1
  O  O55  1  0.79640399  0.51716517  0.43932839  1
  O  O56  1  0.72387037  0.48168756  0.11212718  1
  O  O57  1  0.10009894  0.46715374  0.07839330  1
  O  O58  1  0.89990106  0.53284626  0.92160670  1
  O  O59  1  0.77612963  0.01831244  0.61212718  1
  O  O60  1  0.47959982  0.05562511  0.18892715  1
  O  O61  1  0.26337942  0.20557220  0.84085677  1
  O  O62  1  0.80110102  0.31142348  0.23883400  1
  O  O63  1  0.73662058  0.79442780  0.15914323  1
  O  O64  1  0.72396743  0.20999850  0.52360291  1
  O  O65  1  0.21843965  0.76670716  0.15339021  1
  O  O66  1  0.23941840  0.05818296  0.72371193  1
  O  O67  1  0.27612963  0.51831244  0.88787282  1
  O  O68  1  0.10747262  0.04307849  0.20668183  1
  O  O69  1  0.36556423  0.68437138  0.37536780  1
  O  O70  1  0.40740389  0.27446598  0.44229104  1
  O  O71  1  0.90740389  0.77446598  0.05770896  1
  O  O72  1  0.59259611  0.72553402  0.55770896  1
  O  O73  1  0.23662058  0.29442780  0.34085677  1
  O  O74  1  0.73941840  0.55818296  0.77628807  1
  O  O75  1  0.39990106  0.03284626  0.57839330  1
