# generated using pymatgen
data_Ca2VClO4
_symmetry_space_group_name_H-M   'P 1'
_cell_length_a   6.39796028
_cell_length_b   7.20438948
_cell_length_c   11.19028815
_cell_angle_alpha   90.00000000
_cell_angle_beta   90.00000000
_cell_angle_gamma   90.00000000
_symmetry_Int_Tables_number   1
_chemical_formula_structural   Ca2VClO4
_chemical_formula_sum   'Ca8 V4 Cl4 O16'
_cell_volume   515.79840246
_cell_formula_units_Z   4
loop_
 _symmetry_equiv_pos_site_id
 _symmetry_equiv_pos_as_xyz
  1  'x, y, z'
loop_
 _atom_site_type_symbol
 _atom_site_label
 _atom_site_symmetry_multiplicity
 _atom_site_fract_x
 _atom_site_fract_y
 _atom_site_fract_z
 _atom_site_occupancy
  Ca  Ca0  1  0.85888274  0.97259254  0.25000000  1
  Ca  Ca1  1  0.14111726  0.47259254  0.25000000  1
  Ca  Ca2  1  0.37933172  0.75000000  0.00000000  1
  Ca  Ca3  1  0.62066828  0.25000000  0.50000000  1
  Ca  Ca4  1  0.85888274  0.52740746  0.75000000  1
  Ca  Ca5  1  0.14111726  0.02740746  0.75000000  1
  Ca  Ca6  1  0.37933172  0.75000000  0.50000000  1
  Ca  Ca7  1  0.62066828  0.25000000  0.00000000  1
  V  V8  1  0.87314235  0.75000000  0.00000000  1
  V  V9  1  0.12685765  0.25000000  0.00000000  1
  V  V10  1  0.87314235  0.75000000  0.50000000  1
  V  V11  1  0.12685765  0.25000000  0.50000000  1
  Cl  Cl12  1  0.50959878  0.80481637  0.75000000  1
  Cl  Cl13  1  0.49040122  0.19518363  0.25000000  1
  Cl  Cl14  1  0.49040122  0.30481637  0.75000000  1
  Cl  Cl15  1  0.50959878  0.69518363  0.25000000  1
  O  O16  1  0.03499534  0.73067695  0.12475783  1
  O  O17  1  0.29132316  0.43605338  0.02906084  1
  O  O18  1  0.03499534  0.76932305  0.87524217  1
  O  O19  1  0.29132316  0.06394662  0.52906084  1
  O  O20  1  0.96500466  0.26932305  0.87524217  1
  O  O21  1  0.70867684  0.56394662  0.52906084  1
  O  O22  1  0.03499534  0.73067695  0.37524217  1
  O  O23  1  0.29132316  0.43605338  0.47093916  1
  O  O24  1  0.70867684  0.93605338  0.02906084  1
  O  O25  1  0.29132316  0.06394662  0.97093916  1
  O  O26  1  0.70867684  0.93605338  0.47093916  1
  O  O27  1  0.96500466  0.23067695  0.37524217  1
  O  O28  1  0.70867684  0.56394662  0.97093916  1
  O  O29  1  0.96500466  0.26932305  0.62475783  1
  O  O30  1  0.96500466  0.23067695  0.12475783  1
  O  O31  1  0.03499534  0.76932305  0.62475783  1
