# generated using pymatgen
data_Cr3B7IO13
_symmetry_space_group_name_H-M   'P 1'
_cell_length_a   8.72642865
_cell_length_b   8.72642798
_cell_length_c   8.72642811
_cell_angle_alpha   59.99999947
_cell_angle_beta   60.00000201
_cell_angle_gamma   60.00000101
_symmetry_Int_Tables_number   1
_chemical_formula_structural   Cr3B7IO13
_chemical_formula_sum   'Cr6 B14 I2 O26'
_cell_volume   469.88824068
_cell_formula_units_Z   2
loop_
 _symmetry_equiv_pos_site_id
 _symmetry_equiv_pos_as_xyz
  1  'x, y, z'
loop_
 _atom_site_type_symbol
 _atom_site_label
 _atom_site_symmetry_multiplicity
 _atom_site_fract_x
 _atom_site_fract_y
 _atom_site_fract_z
 _atom_site_occupancy
  Cr  Cr0  1  0.00000000  0.00000000  0.50000000  1
  Cr  Cr1  1  0.50000000  0.00000000  0.50000000  1
  Cr  Cr2  1  0.50000000  0.00000000  0.00000000  1
  Cr  Cr3  1  0.00000000  0.50000000  0.50000000  1
  Cr  Cr4  1  0.50000000  0.50000000  0.00000000  1
  Cr  Cr5  1  0.00000000  0.50000000  0.00000000  1
  B  B6  1  0.75000000  0.75000000  0.25000000  1
  B  B7  1  0.57974625  0.26076025  0.57974625  1
  B  B8  1  0.25000000  0.75000000  0.25000000  1
  B  B9  1  0.07974625  0.07974625  0.76076025  1
  B  B10  1  0.75000000  0.25000000  0.25000000  1
  B  B11  1  0.76076025  0.07974625  0.07974625  1
  B  B12  1  0.25000000  0.25000000  0.75000000  1
  B  B13  1  0.75000000  0.25000000  0.75000000  1
  B  B14  1  0.26076025  0.57974625  0.57974625  1
  B  B15  1  0.25000000  0.75000000  0.75000000  1
  B  B16  1  0.57974625  0.57974625  0.57974625  1
  B  B17  1  0.57974625  0.57974625  0.26076025  1
  B  B18  1  0.07974625  0.07974625  0.07974625  1
  B  B19  1  0.07974625  0.76076025  0.07974625  1
  I  I20  1  0.75000000  0.75000000  0.75000000  1
  I  I21  1  0.25000000  0.25000000  0.25000000  1
  O  O22  1  0.20495249  0.60511309  0.43567259  1
  O  O23  1  0.75426183  0.20495249  0.43567259  1
  O  O24  1  0.60511309  0.75426183  0.43567259  1
  O  O25  1  0.50000000  0.50000000  0.50000000  1
  O  O26  1  0.70495249  0.10511309  0.25426183  1
  O  O27  1  0.93567259  0.25426183  0.10511309  1
  O  O28  1  0.43567259  0.60511309  0.75426183  1
  O  O29  1  0.00000000  0.00000000  0.00000000  1
  O  O30  1  0.20495249  0.75426183  0.60511309  1
  O  O31  1  0.20495249  0.43567259  0.75426183  1
  O  O32  1  0.25426183  0.93567259  0.70495249  1
  O  O33  1  0.25426183  0.10511309  0.93567259  1
  O  O34  1  0.75426183  0.43567259  0.60511309  1
  O  O35  1  0.10511309  0.93567259  0.25426183  1
  O  O36  1  0.75426183  0.60511309  0.20495249  1
  O  O37  1  0.70495249  0.25426183  0.93567259  1
  O  O38  1  0.60511309  0.20495249  0.75426183  1
  O  O39  1  0.60511309  0.43567259  0.20495249  1
  O  O40  1  0.93567259  0.10511309  0.70495249  1
  O  O41  1  0.70495249  0.93567259  0.10511309  1
  O  O42  1  0.25426183  0.70495249  0.10511309  1
  O  O43  1  0.43567259  0.75426183  0.20495249  1
  O  O44  1  0.10511309  0.25426183  0.70495249  1
  O  O45  1  0.43567259  0.20495249  0.60511309  1
  O  O46  1  0.93567259  0.70495249  0.25426183  1
  O  O47  1  0.10511309  0.70495249  0.93567259  1
