# generated using pymatgen
data_BaVOF4
_symmetry_space_group_name_H-M   'P 1'
_cell_length_a   5.49846707
_cell_length_b   5.49840219
_cell_length_c   14.59215667
_cell_angle_alpha   100.20140818
_cell_angle_beta   100.17823704
_cell_angle_gamma   93.51155133
_symmetry_Int_Tables_number   1
_chemical_formula_structural   BaVOF4
_chemical_formula_sum   'Ba4 V4 O4 F16'
_cell_volume   425.39964378
_cell_formula_units_Z   4
loop_
 _symmetry_equiv_pos_site_id
 _symmetry_equiv_pos_as_xyz
  1  'x, y, z'
loop_
 _atom_site_type_symbol
 _atom_site_label
 _atom_site_symmetry_multiplicity
 _atom_site_fract_x
 _atom_site_fract_y
 _atom_site_fract_z
 _atom_site_occupancy
  Ba  Ba0  1  0.81637157  0.29031159  0.10923034  1
  Ba  Ba1  1  0.18106841  0.70717973  0.89078735  1
  Ba  Ba2  1  0.54041839  0.56638275  0.60921127  1
  Ba  Ba3  1  0.95717641  0.93113038  0.39081259  1
  V  V4  1  0.07073473  0.08066960  0.65485422  1
  V  V5  1  0.66570705  0.17575062  0.84511382  1
  V  V6  1  0.42580926  0.41580911  0.34512630  1
  V  V7  1  0.33056919  0.82068778  0.15491024  1
  O  O8  1  0.40283059  0.56176012  0.09394720  1
  O  O9  1  0.46773138  0.30899227  0.90606189  1
  O  O10  1  0.55912313  0.21805571  0.40611506  1
  O  O11  1  0.81201299  0.15308600  0.59386519  1
  F  F12  1  0.27824049  0.11699858  0.56212717  1
  F  F13  1  0.21846726  0.16609263  0.23716867  1
  F  F14  1  0.03501203  0.72764596  0.59792804  1
  F  F15  1  0.36713255  0.02800490  0.06216110  1
  F  F16  1  0.12973163  0.43711698  0.40205211  1
  F  F17  1  0.96582922  0.30500406  0.93786906  1
  F  F18  1  0.97757683  0.78514024  0.09798396  1
  F  F19  1  0.67985706  0.49663038  0.27553902  1
  F  F20  1  0.68695965  0.87966362  0.90199152  1
  F  F21  1  0.22129566  0.40432412  0.72443681  1
  F  F22  1  0.23125757  0.67890461  0.26288039  1
  F  F23  1  0.65416333  0.97114441  0.22448937  1
  F  F24  1  0.41618271  0.96839355  0.73708827  1
  F  F25  1  0.92899436  0.98129255  0.76280761  1
  F  F26  1  0.74684649  0.42975720  0.77557809  1
  F  F27  1  0.55490008  0.71607054  0.43786332  1
