# generated using pymatgen
data_Ba5Li2(WO5)3
_symmetry_space_group_name_H-M   'P 1'
_cell_length_a   5.84644339
_cell_length_b   5.84644310
_cell_length_c   24.33998835
_cell_angle_alpha   90.00000000
_cell_angle_beta   90.00000000
_cell_angle_gamma   120.00000170
_symmetry_Int_Tables_number   1
_chemical_formula_structural   Ba5Li2(WO5)3
_chemical_formula_sum   'Ba10 Li4 W6 O30'
_cell_volume   720.50079851
_cell_formula_units_Z   2
loop_
 _symmetry_equiv_pos_site_id
 _symmetry_equiv_pos_as_xyz
  1  'x, y, z'
loop_
 _atom_site_type_symbol
 _atom_site_label
 _atom_site_symmetry_multiplicity
 _atom_site_fract_x
 _atom_site_fract_y
 _atom_site_fract_z
 _atom_site_occupancy
  Ba  Ba0  1  0.00000000  0.00000000  0.14973438  1
  Ba  Ba1  1  0.00000000  0.00000000  0.84987680  1
  Ba  Ba2  1  0.66666700  0.33333300  0.95771085  1
  Ba  Ba3  1  0.66666700  0.33333300  0.55302592  1
  Ba  Ba4  1  0.00000000  0.00000000  0.64973438  1
  Ba  Ba5  1  0.33333300  0.66666700  0.05302592  1
  Ba  Ba6  1  0.00000000  0.00000000  0.34987680  1
  Ba  Ba7  1  0.66666700  0.33333300  0.24238180  1
  Ba  Ba8  1  0.33333300  0.66666700  0.45771085  1
  Ba  Ba9  1  0.33333300  0.66666700  0.74238180  1
  Li  Li10  1  0.66666700  0.33333300  0.68120773  1
  Li  Li11  1  0.33333300  0.66666700  0.18120773  1
  Li  Li12  1  0.00000000  0.00000000  0.00921145  1
  Li  Li13  1  0.00000000  0.00000000  0.50921145  1
  W  W14  1  0.33333300  0.66666700  0.90241218  1
  W  W15  1  0.66666700  0.33333300  0.79910367  1
  W  W16  1  0.33333300  0.66666700  0.29910367  1
  W  W17  1  0.66666700  0.33333300  0.40241218  1
  W  W18  1  0.33333300  0.66666700  0.59928158  1
  W  W19  1  0.66666700  0.33333300  0.09928158  1
  O  O20  1  0.35170459  0.17585229  0.05281756  1
  O  O21  1  0.17683126  0.82316874  0.94283728  1
  O  O22  1  0.50017761  0.00035522  0.35088349  1
  O  O23  1  0.82414771  0.64829541  0.05281756  1
  O  O24  1  0.49066442  0.98132884  0.64681560  1
  O  O25  1  0.64633747  0.82316874  0.94283728  1
  O  O26  1  0.17736410  0.35472821  0.25866395  1
  O  O27  1  0.35472821  0.17736410  0.75866395  1
  O  O28  1  0.82263590  0.64527179  0.75866395  1
  O  O29  1  0.17736410  0.82263590  0.25866395  1
  O  O30  1  0.00035522  0.50017761  0.85088349  1
  O  O31  1  0.82316874  0.17683126  0.44283728  1
  O  O32  1  0.35366253  0.17683126  0.44283728  1
  O  O33  1  0.50017761  0.49982239  0.35088349  1
  O  O34  1  0.99964478  0.49982239  0.35088349  1
  O  O35  1  0.49982239  0.50017761  0.85088349  1
  O  O36  1  0.17683126  0.35366253  0.94283728  1
  O  O37  1  0.01867116  0.50933558  0.64681560  1
  O  O38  1  0.17585229  0.35170459  0.55281756  1
  O  O39  1  0.82414771  0.17585229  0.05281756  1
  O  O40  1  0.49066442  0.50933558  0.64681560  1
  O  O41  1  0.64829541  0.82414771  0.55281756  1
  O  O42  1  0.98132884  0.49066442  0.14681560  1
  O  O43  1  0.82263590  0.17736410  0.75866395  1
  O  O44  1  0.50933558  0.49066442  0.14681560  1
  O  O45  1  0.50933558  0.01867116  0.14681560  1
  O  O46  1  0.49982239  0.99964478  0.85088349  1
  O  O47  1  0.64527179  0.82263590  0.25866395  1
  O  O48  1  0.82316874  0.64633747  0.44283728  1
  O  O49  1  0.17585229  0.82414771  0.55281756  1
