# generated using pymatgen
data_Nd2Te2W2O13
_symmetry_space_group_name_H-M   'P 1'
_cell_length_a   6.73116628
_cell_length_b   6.99305262
_cell_length_c   11.77325269
_cell_angle_alpha   90.58221907
_cell_angle_beta   98.38253118
_cell_angle_gamma   93.55247256
_symmetry_Int_Tables_number   1
_chemical_formula_structural   Nd2Te2W2O13
_chemical_formula_sum   'Nd4 Te4 W4 O26'
_cell_volume   547.10614481
_cell_formula_units_Z   2
loop_
 _symmetry_equiv_pos_site_id
 _symmetry_equiv_pos_as_xyz
  1  'x, y, z'
loop_
 _atom_site_type_symbol
 _atom_site_label
 _atom_site_symmetry_multiplicity
 _atom_site_fract_x
 _atom_site_fract_y
 _atom_site_fract_z
 _atom_site_occupancy
  Nd  Nd0  1  0.76930367  0.87074545  0.88171320  1
  Nd  Nd1  1  0.63229824  0.37178982  0.36756870  1
  Nd  Nd2  1  0.36770176  0.62821018  0.63243130  1
  Nd  Nd3  1  0.23069633  0.12925455  0.11828680  1
  Te  Te4  1  0.24856137  0.61281022  0.94918998  1
  Te  Te5  1  0.75143863  0.38718978  0.05081002  1
  Te  Te6  1  0.17026563  0.17903704  0.44131554  1
  Te  Te7  1  0.82973437  0.82096296  0.55868446  1
  W  W8  1  0.11031951  0.62312765  0.29753197  1
  W  W9  1  0.24654308  0.11882690  0.81332886  1
  W  W10  1  0.88968049  0.37687235  0.70246803  1
  W  W11  1  0.75345692  0.88117310  0.18667114  1
  O  O12  1  0.42318457  0.67963860  0.84241742  1
  O  O13  1  0.17907343  0.75052375  0.43509205  1
  O  O14  1  0.92388446  0.16793458  0.80375916  1
  O  O15  1  0.79714642  0.04671204  0.31028336  1
  O  O16  1  0.15626305  0.95241810  0.93034452  1
  O  O17  1  0.01148752  0.41400787  0.14590104  1
  O  O18  1  0.00934407  0.38744203  0.37743105  1
  O  O19  1  0.57681543  0.32036140  0.15758258  1
  O  O20  1  0.07611554  0.83206542  0.19624084  1
  O  O21  1  0.84373695  0.04758190  0.06965548  1
  O  O22  1  0.27180338  0.33149637  0.95171812  1
  O  O23  1  0.20221718  0.34799587  0.71937861  1
  O  O24  1  0.72819662  0.66850363  0.04828188  1
  O  O25  1  0.61852197  0.65391663  0.48679951  1
  O  O26  1  0.48590315  0.89946245  0.14587636  1
  O  O27  1  0.34970250  0.54164325  0.27683615  1
  O  O28  1  0.67797665  0.85436719  0.67987673  1
  O  O29  1  0.20285358  0.95328796  0.68971664  1
  O  O30  1  0.79778282  0.65200413  0.28062139  1
  O  O31  1  0.38147803  0.34608337  0.51320049  1
  O  O32  1  0.32202335  0.14563281  0.32012327  1
  O  O33  1  0.99065593  0.61255797  0.62256895  1
  O  O34  1  0.65029750  0.45835675  0.72316385  1
  O  O35  1  0.82092657  0.24947625  0.56490795  1
  O  O36  1  0.51409685  0.10053755  0.85412364  1
  O  O37  1  0.98851248  0.58599213  0.85409896  1
