# generated using pymatgen
data_Na5CrP2(O4F)2
_symmetry_space_group_name_H-M   'P 1'
_cell_length_a   10.71576129
_cell_length_b   10.71576159
_cell_length_c   6.76644866
_cell_angle_alpha   90.00000000
_cell_angle_beta   90.00000000
_cell_angle_gamma   119.99999911
_symmetry_Int_Tables_number   1
_chemical_formula_structural   Na5CrP2(O4F)2
_chemical_formula_sum   'Na15 Cr3 P6 O24 F6'
_cell_volume   672.87981354
_cell_formula_units_Z   3
loop_
 _symmetry_equiv_pos_site_id
 _symmetry_equiv_pos_as_xyz
  1  'x, y, z'
loop_
 _atom_site_type_symbol
 _atom_site_label
 _atom_site_symmetry_multiplicity
 _atom_site_fract_x
 _atom_site_fract_y
 _atom_site_fract_z
 _atom_site_occupancy
  Na  Na0  1  0.33333300  0.66666700  0.57620454  1
  Na  Na1  1  0.66666700  0.33333300  0.50395361  1
  Na  Na2  1  0.00000000  0.00000000  0.43678865  1
  Na  Na3  1  0.33333300  0.66666700  0.01924546  1
  Na  Na4  1  0.83874925  0.18957214  0.24345136  1
  Na  Na5  1  0.98294880  0.50634952  0.76330276  1
  Na  Na6  1  0.16695215  0.83326121  0.50273308  1
  Na  Na7  1  0.81042786  0.64917712  0.24345136  1
  Na  Na8  1  0.49365048  0.47659928  0.76330276  1
  Na  Na9  1  0.35082288  0.16125075  0.24345136  1
  Na  Na10  1  0.16673879  0.33369094  0.50273308  1
  Na  Na11  1  0.00000000  0.00000000  0.99493006  1
  Na  Na12  1  0.66666700  0.33333300  0.00317953  1
  Na  Na13  1  0.52340072  0.01705120  0.76330276  1
  Na  Na14  1  0.66630906  0.83304785  0.50273308  1
  Cr  Cr15  1  0.66687632  0.83340328  0.00355423  1
  Cr  Cr16  1  0.16659672  0.83347305  0.00355423  1
  Cr  Cr17  1  0.16652695  0.33312368  0.00355423  1
  P  P18  1  0.48110637  0.51649202  0.25423942  1
  P  P19  1  0.48350798  0.96461435  0.25423942  1
  P  P20  1  0.03538565  0.51889363  0.25423942  1
  P  P21  1  0.84997613  0.70229583  0.75350252  1
  P  P22  1  0.29770417  0.14768030  0.75350252  1
  P  P23  1  0.85231970  0.15002387  0.75350252  1
  O  O24  1  0.40723209  0.50466684  0.45345366  1
  O  O25  1  0.08942324  0.40885664  0.21562891  1
  O  O26  1  0.49533316  0.90256525  0.45345366  1
  O  O27  1  0.01426606  0.75630493  0.79048620  1
  O  O28  1  0.55994391  0.42872702  0.24917309  1
  O  O29  1  0.83691443  0.76320383  0.55402888  1
  O  O30  1  0.92628940  0.16308557  0.55402888  1
  O  O31  1  0.46428922  0.22632382  0.76035543  1
  O  O32  1  0.09743475  0.59276791  0.45345366  1
  O  O33  1  0.23376181  0.03766895  0.92947219  1
  O  O34  1  0.09818360  0.62910235  0.07835498  1
  O  O35  1  0.23679617  0.07371060  0.55402888  1
  O  O36  1  0.37089765  0.46908124  0.07835498  1
  O  O37  1  0.31943341  0.91057676  0.21562891  1
  O  O38  1  0.59114336  0.68056659  0.21562891  1
  O  O39  1  0.24369507  0.25796112  0.79048620  1
  O  O40  1  0.57127298  0.13121689  0.24917309  1
  O  O41  1  0.53091876  0.90181640  0.07835498  1
  O  O42  1  0.77367618  0.23796541  0.76035543  1
  O  O43  1  0.74203888  0.98573394  0.79048620  1
  O  O44  1  0.76203459  0.53571078  0.76035543  1
  O  O45  1  0.80390714  0.76623819  0.92947219  1
  O  O46  1  0.96233105  0.19609286  0.92947219  1
  O  O47  1  0.86878311  0.44005609  0.24917309  1
  F  F48  1  0.28971018  0.81516319  0.80201240  1
  F  F49  1  0.04410945  0.85174485  0.20668360  1
  F  F50  1  0.52545300  0.71028982  0.80201240  1
  F  F51  1  0.14825515  0.19236460  0.20668360  1
  F  F52  1  0.18483681  0.47454700  0.80201240  1
  F  F53  1  0.80763540  0.95589055  0.20668360  1
