# generated using pymatgen
data_K2MnP2O7
_symmetry_space_group_name_H-M   'P 1'
_cell_length_a   5.60369838
_cell_length_b   9.69772454
_cell_length_c   12.87421237
_cell_angle_alpha   104.46560125
_cell_angle_beta   90.00000000
_cell_angle_gamma   90.00000000
_symmetry_Int_Tables_number   1
_chemical_formula_structural   K2MnP2O7
_chemical_formula_sum   'K8 Mn4 P8 O28'
_cell_volume   677.44525205
_cell_formula_units_Z   4
loop_
 _symmetry_equiv_pos_site_id
 _symmetry_equiv_pos_as_xyz
  1  'x, y, z'
loop_
 _atom_site_type_symbol
 _atom_site_label
 _atom_site_symmetry_multiplicity
 _atom_site_fract_x
 _atom_site_fract_y
 _atom_site_fract_z
 _atom_site_occupancy
  K  K0  1  0.73324248  0.37040113  0.86099406  1
  K  K1  1  0.76675752  0.87040113  0.36099406  1
  K  K2  1  0.27306547  0.35857011  0.32346691  1
  K  K3  1  0.26675752  0.62959887  0.13900594  1
  K  K4  1  0.72693453  0.64142989  0.67653309  1
  K  K5  1  0.23324248  0.12959887  0.63900594  1
  K  K6  1  0.22693453  0.85857011  0.82346691  1
  K  K7  1  0.77306547  0.14142989  0.17653309  1
  Mn  Mn8  1  0.75772273  0.74878249  0.98186668  1
  Mn  Mn9  1  0.25772273  0.75121751  0.51813332  1
  Mn  Mn10  1  0.74227727  0.24878249  0.48186668  1
  Mn  Mn11  1  0.24227727  0.25121751  0.01813332  1
  P  P12  1  0.74062508  0.96919393  0.63775800  1
  P  P13  1  0.75937492  0.46919393  0.13775800  1
  P  P14  1  0.77536788  0.55218230  0.37912511  1
  P  P15  1  0.24062508  0.53080607  0.86224200  1
  P  P16  1  0.22463212  0.44781770  0.62087489  1
  P  P17  1  0.72463212  0.05218230  0.87912511  1
  P  P18  1  0.27536788  0.94781770  0.12087489  1
  P  P19  1  0.25937492  0.03080607  0.36224200  1
  O  O20  1  0.95472728  0.86852304  0.61208261  1
  O  O21  1  0.50252460  0.89374505  0.64428113  1
  O  O22  1  0.04527272  0.13147696  0.38791739  1
  O  O23  1  0.97311395  0.38354659  0.60252397  1
  O  O24  1  0.02688605  0.61645341  0.39747603  1
  O  O25  1  0.26768105  0.10779293  0.12799199  1
  O  O26  1  0.77091421  0.57807014  0.07002355  1
  O  O27  1  0.73231895  0.89220707  0.87200801  1
  O  O28  1  0.99747540  0.39374505  0.14428113  1
  O  O29  1  0.80041946  0.07103481  0.75872178  1
  O  O30  1  0.08575842  0.85894419  0.04945660  1
  O  O31  1  0.23231895  0.60779293  0.62799199  1
  O  O32  1  0.49747540  0.10625495  0.35571887  1
  O  O33  1  0.76768105  0.39220707  0.37200801  1
  O  O34  1  0.69958054  0.57103481  0.25872178  1
  O  O35  1  0.19958054  0.92896519  0.24127822  1
  O  O36  1  0.72908579  0.07807014  0.57002355  1
  O  O37  1  0.45472728  0.63147696  0.88791739  1
  O  O38  1  0.22908579  0.42192986  0.92997645  1
  O  O39  1  0.27091421  0.92192986  0.42997645  1
  O  O40  1  0.00252460  0.60625495  0.85571887  1
  O  O41  1  0.30041946  0.42896519  0.74127822  1
  O  O42  1  0.41424158  0.35894419  0.54945660  1
  O  O43  1  0.52688605  0.88354659  0.10252397  1
  O  O44  1  0.58575842  0.64105581  0.45054340  1
  O  O45  1  0.47311395  0.11645341  0.89747603  1
  O  O46  1  0.54527272  0.36852204  0.11208261  1
  O  O47  1  0.91424158  0.14105581  0.95054340  1
