# generated using pymatgen
data_Mn(IO3)2
_symmetry_space_group_name_H-M   'P 1'
_cell_length_a   5.33024010
_cell_length_b   11.37338915
_cell_length_c   11.31225262
_cell_angle_alpha   120.52410979
_cell_angle_beta   90.00000000
_cell_angle_gamma   90.00000000
_symmetry_Int_Tables_number   1
_chemical_formula_structural   Mn(IO3)2
_chemical_formula_sum   'Mn4 I8 O24'
_cell_volume   590.74282531
_cell_formula_units_Z   4
loop_
 _symmetry_equiv_pos_site_id
 _symmetry_equiv_pos_as_xyz
  1  'x, y, z'
loop_
 _atom_site_type_symbol
 _atom_site_label
 _atom_site_symmetry_multiplicity
 _atom_site_fract_x
 _atom_site_fract_y
 _atom_site_fract_z
 _atom_site_occupancy
  Mn  Mn0  1  0.31855698  0.51061744  0.75384547  1
  Mn  Mn1  1  0.81855698  0.48938256  0.24615453  1
  Mn  Mn2  1  0.81726350  0.98859671  0.24407842  1
  Mn  Mn3  1  0.31726350  0.01140329  0.75592158  1
  I  I4  1  0.74097994  0.33453974  0.43384601  1
  I  I5  1  0.73706644  0.83546002  0.43244772  1
  I  I6  1  0.71862882  0.33500786  0.89944621  1
  I  I7  1  0.72213388  0.83371447  0.89739396  1
  I  I8  1  0.24097994  0.66546026  0.56615399  1
  I  I9  1  0.22213388  0.16628553  0.10260604  1
  I  I10  1  0.21862882  0.66499214  0.10055379  1
  I  I11  1  0.23706644  0.16453998  0.56755228  1
  O  O12  1  0.60527451  0.85505517  0.05981527  1
  O  O13  1  0.03296429  0.13222172  0.42291844  1
  O  O14  1  0.58844867  0.44815219  0.38365290  1
  O  O15  1  0.60366634  0.35633995  0.06227706  1
  O  O16  1  0.54741910  0.97214494  0.89557978  1
  O  O17  1  0.53125817  0.18670546  0.77656521  1
  O  O18  1  0.53704276  0.36475201  0.57784081  1
  O  O19  1  0.08844867  0.55184781  0.61634710  1
  O  O20  1  0.58218252  0.94620973  0.37935452  1
  O  O21  1  0.53468276  0.68551893  0.77415974  1
  O  O22  1  0.59667920  0.17265213  0.30385581  1
  O  O23  1  0.10527451  0.14494483  0.94018473  1
  O  O24  1  0.10366634  0.64366005  0.93772294  1
  O  O25  1  0.53296429  0.86777828  0.57708156  1
  O  O26  1  0.59456079  0.67209293  0.30470332  1
  O  O27  1  0.54169132  0.47274408  0.89730304  1
  O  O28  1  0.03704276  0.63524799  0.42215919  1
  O  O29  1  0.09667920  0.82734787  0.69614419  1
  O  O30  1  0.04169132  0.52725592  0.10269696  1
  O  O31  1  0.08218252  0.05379027  0.62064548  1
  O  O32  1  0.04741910  0.02785506  0.10442022  1
  O  O33  1  0.03468276  0.31448107  0.22584026  1
  O  O34  1  0.09456079  0.32790707  0.69529668  1
  O  O35  1  0.03125817  0.81329454  0.22343479  1
