# generated using pymatgen
data_Sr2NiSe2(ClO3)2
_symmetry_space_group_name_H-M   'P 1'
_cell_length_a   5.41324256
_cell_length_b   6.53099118
_cell_length_c   12.41334777
_cell_angle_alpha   90.00000000
_cell_angle_beta   92.97827407
_cell_angle_gamma   90.00000000
_symmetry_Int_Tables_number   1
_chemical_formula_structural   Sr2NiSe2(ClO3)2
_chemical_formula_sum   'Sr4 Ni2 Se4 Cl4 O12'
_cell_volume   438.26673946
_cell_formula_units_Z   2
loop_
 _symmetry_equiv_pos_site_id
 _symmetry_equiv_pos_as_xyz
  1  'x, y, z'
loop_
 _atom_site_type_symbol
 _atom_site_label
 _atom_site_symmetry_multiplicity
 _atom_site_fract_x
 _atom_site_fract_y
 _atom_site_fract_z
 _atom_site_occupancy
  Sr  Sr0  1  0.48513695  0.79875284  0.26595017  1
  Sr  Sr1  1  0.51486305  0.20124716  0.73404983  1
  Sr  Sr2  1  0.01486305  0.29875284  0.23404983  1
  Sr  Sr3  1  0.98513695  0.70124716  0.76595017  1
  Ni  Ni4  1  0.50000000  0.50000000  0.00000000  1
  Ni  Ni5  1  0.00000000  0.00000000  0.50000000  1
  Se  Se6  1  0.50551662  0.26071251  0.42643518  1
  Se  Se7  1  0.00551662  0.23928749  0.92643518  1
  Se  Se8  1  0.99448338  0.76071251  0.07356482  1
  Se  Se9  1  0.49448338  0.73928749  0.57356482  1
  Cl  Cl10  1  0.45389632  0.82028762  0.89732691  1
  Cl  Cl11  1  0.54610368  0.17971238  0.10267309  1
  Cl  Cl12  1  0.04610368  0.32028762  0.60267309  1
  Cl  Cl13  1  0.95389632  0.67971238  0.39732691  1
  O  O14  1  0.25646426  0.37362967  0.87878018  1
  O  O15  1  0.27804849  0.07606743  0.39402809  1
  O  O16  1  0.93912833  0.07036012  0.82432611  1
  O  O17  1  0.74353574  0.62637033  0.12121982  1
  O  O18  1  0.77804849  0.42393257  0.89402809  1
  O  O19  1  0.56087167  0.57036012  0.67567389  1
  O  O20  1  0.43912833  0.42963988  0.32432611  1
  O  O21  1  0.06087167  0.92963988  0.17567389  1
  O  O22  1  0.22195151  0.57606743  0.10597191  1
  O  O23  1  0.75646426  0.12637033  0.37878018  1
  O  O24  1  0.24353574  0.87362967  0.62121982  1
  O  O25  1  0.72195151  0.92393257  0.60597191  1
