# generated using pymatgen
data_NaLi2Mo2P3O14
_symmetry_space_group_name_H-M   'P 1'
_cell_length_a   8.25004095
_cell_length_b   8.99275926
_cell_length_c   17.82888357
_cell_angle_alpha   76.96711076
_cell_angle_beta   76.62241281
_cell_angle_gamma   62.69645070
_symmetry_Int_Tables_number   1
_chemical_formula_structural   NaLi2Mo2P3O14
_chemical_formula_sum   'Na4 Li8 Mo8 P12 O56'
_cell_volume   1132.52079928
_cell_formula_units_Z   4
loop_
 _symmetry_equiv_pos_site_id
 _symmetry_equiv_pos_as_xyz
  1  'x, y, z'
loop_
 _atom_site_type_symbol
 _atom_site_label
 _atom_site_symmetry_multiplicity
 _atom_site_fract_x
 _atom_site_fract_y
 _atom_site_fract_z
 _atom_site_occupancy
  Na  Na0  1  0.00000000  0.50000000  0.00000000  1
  Na  Na1  1  0.90655641  0.75000000  0.25000000  1
  Na  Na2  1  0.50000000  0.00000000  0.50000000  1
  Na  Na3  1  0.09344359  0.25000000  0.75000000  1
  Li  Li4  1  0.72557591  0.06297633  0.14555699  1
  Li  Li5  1  0.51781401  0.01736293  0.74301547  1
  Li  Li6  1  0.27819241  0.48263707  0.75698453  1
  Li  Li7  1  0.72180759  0.51736293  0.24301547  1
  Li  Li8  1  0.48218599  0.98263707  0.25698453  1
  Li  Li9  1  0.93410923  0.43702367  0.35444301  1
  Li  Li10  1  0.27442409  0.93702367  0.85444301  1
  Li  Li11  1  0.06589077  0.56297633  0.64555699  1
  Mo  Mo12  1  0.69807810  0.58400111  0.56003187  1
  Mo  Mo13  1  0.30192190  0.41599889  0.43996813  1
  Mo  Mo14  1  0.15788892  0.08400111  0.06003187  1
  Mo  Mo15  1  0.43324388  0.49950429  0.15902805  1
  Mo  Mo16  1  0.09177621  0.00049571  0.34097195  1
  Mo  Mo17  1  0.84211108  0.91599889  0.93996813  1
  Mo  Mo18  1  0.56675612  0.50049571  0.84097195  1
  Mo  Mo19  1  0.90822379  0.99950429  0.65902805  1
  P  P20  1  0.15133056  0.29823762  0.19395346  1
  P  P21  1  0.51348234  0.68939658  0.38854617  1
  P  P22  1  0.02571597  0.23253271  0.48829575  1
  P  P23  1  0.48651766  0.31060342  0.61145383  1
  P  P24  1  0.25345657  0.73253271  0.98829575  1
  P  P25  1  0.59142510  0.81060342  0.11145383  1
  P  P26  1  0.40857490  0.18939658  0.88854617  1
  P  P27  1  0.35647936  0.79823762  0.69395346  1
  P  P28  1  0.97428403  0.76746729  0.51170425  1
  P  P29  1  0.64352064  0.20176238  0.30604654  1
  P  P30  1  0.84866944  0.70176238  0.80604654  1
  P  P31  1  0.74654343  0.26746729  0.01170425  1
  O  O32  1  0.49845768  0.21648811  0.38189764  1
  O  O33  1  0.60940906  0.05442073  0.89460447  1
  O  O34  1  0.58781280  0.63573812  0.14899867  1
  O  O35  1  0.00923672  0.56067558  0.76516975  1
  O  O36  1  0.99272491  0.99016139  0.87806230  1
  O  O37  1  0.99076328  0.43932442  0.23483025  1
  O  O38  1  0.41218720  0.36426188  0.85100133  1
  O  O39  1  0.37255060  0.86426188  0.35100133  1
  O  O40  1  0.33508105  0.93932442  0.73483025  1
  O  O41  1  0.93436209  0.13191735  0.70561316  1
  O  O42  1  0.66655992  0.86278271  0.16702538  1
  O  O43  1  0.24608300  0.91100392  0.98307335  1
  O  O44  1  0.90315657  0.71648811  0.88189764  1
  O  O45  1  0.57755141  0.37670680  0.25158175  1
  O  O46  1  0.69636801  0.63721729  0.33297462  1
  O  O47  1  0.66491895  0.06067558  0.26516975  1
  O  O48  1  0.13905140  0.49016139  0.37806230  1
  O  O49  1  0.20583996  0.12329320  0.24841825  1
  O  O50  1  0.06563791  0.86808265  0.29438684  1
  O  O51  1  0.52812853  0.71006006  0.47003056  1
  O  O52  1  0.33344008  0.13721729  0.83297462  1
  O  O53  1  0.00727509  0.00983861  0.12193770  1
  O  O54  1  0.85983973  0.41100392  0.48307335  1
  O  O55  1  0.62744940  0.13573812  0.64899867  1
  O  O56  1  0.79416004  0.87670680  0.75158175  1
  O  O57  1  0.36274520  0.60473230  0.05074441  1
  O  O58  1  0.06782349  0.18448278  0.40555904  1
  O  O59  1  0.05600043  0.74118140  0.00471146  1
  O  O60  1  0.77189260  0.36808265  0.79438684  1
  O  O61  1  0.19810671  0.24118140  0.50471146  1
  O  O62  1  0.09684343  0.28351189  0.11810236  1
  O  O63  1  0.30363199  0.36278271  0.66702538  1
  O  O64  1  0.34213369  0.68448278  0.90555904  1
  O  O65  1  0.55843426  0.44557927  0.60539553  1
  O  O66  1  0.98177809  0.10473230  0.55074441  1
  O  O67  1  0.22810740  0.63191735  0.20561316  1
  O  O68  1  0.65786631  0.31551722  0.09444096  1
  O  O69  1  0.75391700  0.08899608  0.01692665  1
  O  O70  1  0.39059094  0.94557927  0.10539553  1
  O  O71  1  0.33318289  0.31936689  0.17167874  1
  O  O72  1  0.80189329  0.75881860  0.49528854  1
  O  O73  1  0.70821915  0.78993994  0.02996944  1
  O  O74  1  0.17577148  0.81936689  0.67167874  1
  O  O75  1  0.01822191  0.89526770  0.44925559  1
  O  O76  1  0.63725480  0.39526770  0.94925559  1
  O  O77  1  0.44156574  0.55442073  0.39460447  1
  O  O78  1  0.94399957  0.25881860  0.99528854  1
  O  O79  1  0.29178085  0.21006006  0.97003056  1
  O  O80  1  0.93217651  0.81551722  0.59444096  1
  O  O81  1  0.86094860  0.50983861  0.62193770  1
  O  O82  1  0.66681711  0.68063311  0.82832126  1
  O  O83  1  0.82422852  0.18063311  0.32832126  1
  O  O84  1  0.50154232  0.78351189  0.61810236  1
  O  O85  1  0.42244859  0.62329320  0.74841825  1
  O  O86  1  0.14016027  0.58899608  0.51692665  1
  O  O87  1  0.47187147  0.28993994  0.52996944  1
