# generated using pymatgen
data_Sr9LuV7O28
_symmetry_space_group_name_H-M   'P 1'
_cell_length_a   14.89978261
_cell_length_b   14.89978213
_cell_length_c   14.89978266
_cell_angle_alpha   44.83848663
_cell_angle_beta   44.83848852
_cell_angle_gamma   44.83848615
_symmetry_Int_Tables_number   1
_chemical_formula_structural   Sr9LuV7O28
_chemical_formula_sum   'Sr18 Lu2 V14 O56'
_cell_volume   1496.35010480
_cell_formula_units_Z   2
loop_
 _symmetry_equiv_pos_site_id
 _symmetry_equiv_pos_as_xyz
  1  'x, y, z'
loop_
 _atom_site_type_symbol
 _atom_site_label
 _atom_site_symmetry_multiplicity
 _atom_site_fract_x
 _atom_site_fract_y
 _atom_site_fract_z
 _atom_site_occupancy
  Sr  Sr0  1  0.47032066  0.05140308  0.45352162  1
  Sr  Sr1  1  0.35321602  0.90734991  0.93513089  1
  Sr  Sr2  1  0.43513089  0.40734991  0.85321602  1
  Sr  Sr3  1  0.56696604  0.57746043  0.15349951  1
  Sr  Sr4  1  0.57746043  0.15349951  0.56696604  1
  Sr  Sr5  1  0.90734991  0.93513089  0.35321602  1
  Sr  Sr6  1  0.85321602  0.43513089  0.40734991  1
  Sr  Sr7  1  0.55140308  0.97032066  0.95352162  1
  Sr  Sr8  1  0.06696604  0.65349951  0.07746043  1
  Sr  Sr9  1  0.65349951  0.07746043  0.06696604  1
  Sr  Sr10  1  0.05140308  0.45352162  0.47032066  1
  Sr  Sr11  1  0.45352162  0.47032066  0.05140308  1
  Sr  Sr12  1  0.07746043  0.06696604  0.65349951  1
  Sr  Sr13  1  0.97032066  0.95352162  0.55140308  1
  Sr  Sr14  1  0.95352162  0.55140308  0.97032066  1
  Sr  Sr15  1  0.93513089  0.35321602  0.90734991  1
  Sr  Sr16  1  0.15349951  0.56696604  0.57746043  1
  Sr  Sr17  1  0.40734991  0.85321602  0.43513089  1
  Lu  Lu18  1  0.49990350  0.49990350  0.49990350  1
  Lu  Lu19  1  0.99990350  0.99990350  0.99990350  1
  V  V20  1  0.27621486  0.82056573  0.30865627  1
  V  V21  1  0.77621486  0.80865627  0.32056573  1
  V  V22  1  0.80865627  0.32056573  0.77621486  1
  V  V23  1  0.71998870  0.18719157  0.68770379  1
  V  V24  1  0.32056573  0.77621486  0.80865627  1
  V  V25  1  0.21998870  0.18770379  0.68719157  1
  V  V26  1  0.82056573  0.30865627  0.27621486  1
  V  V27  1  0.77097480  0.77097480  0.77097480  1
  V  V28  1  0.18770379  0.68719157  0.21998870  1
  V  V29  1  0.68719157  0.21998870  0.18770379  1
  V  V30  1  0.27097480  0.27097480  0.27097480  1
  V  V31  1  0.68770379  0.71998870  0.18719157  1
  V  V32  1  0.30865627  0.27621486  0.82056573  1
  V  V33  1  0.18719157  0.68770379  0.71998870  1
  O  O34  1  0.31420747  0.31420747  0.31420747  1
  O  O35  1  0.85735340  0.62873414  0.37551134  1
  O  O36  1  0.63608464  0.38049360  0.37812373  1
  O  O37  1  0.76328347  0.85832714  0.40440321  1
  O  O38  1  0.68688510  0.10644214  0.67649453  1
  O  O39  1  0.87551134  0.12873414  0.35735340  1
  O  O40  1  0.10762820  0.83503635  0.39384377  1
  O  O41  1  0.11091644  0.87102648  0.13007648  1
  O  O42  1  0.88049360  0.13608464  0.87812373  1
  O  O43  1  0.36331661  0.63521935  0.15557255  1
  O  O44  1  0.13608464  0.87812373  0.88049360  1
  O  O45  1  0.39891694  0.27556871  0.10331087  1
  O  O46  1  0.15557255  0.36331661  0.63521935  1
  O  O47  1  0.12873414  0.35735340  0.87551134  1
  O  O48  1  0.89859845  0.14337920  0.59309927  1
  O  O49  1  0.18688510  0.17649453  0.60644214  1
  O  O50  1  0.87812373  0.88049360  0.13608464  1
  O  O51  1  0.13007648  0.11091644  0.87102648  1
  O  O52  1  0.77556871  0.89891694  0.60331087  1
  O  O53  1  0.64337920  0.39859845  0.09309927  1
  O  O54  1  0.83503635  0.39384377  0.10762820  1
  O  O55  1  0.10331087  0.39891694  0.27556871  1
  O  O56  1  0.67649453  0.68688510  0.10644214  1
  O  O57  1  0.60644214  0.18688510  0.17649453  1
  O  O58  1  0.14337920  0.59309927  0.89859845  1
  O  O59  1  0.63521935  0.15557255  0.36331661  1
  O  O60  1  0.81420747  0.81420747  0.81420747  1
  O  O61  1  0.17649453  0.60644214  0.18688510  1
  O  O62  1  0.59309927  0.89859845  0.14337920  1
  O  O63  1  0.37551134  0.85735340  0.62873414  1
  O  O64  1  0.13521935  0.86331661  0.65557255  1
  O  O65  1  0.63007648  0.37102648  0.61091644  1
  O  O66  1  0.86331661  0.65557255  0.13521935  1
  O  O67  1  0.10644214  0.67649453  0.68688510  1
  O  O68  1  0.89891694  0.60331087  0.77556871  1
  O  O69  1  0.33503635  0.60762820  0.89384377  1
  O  O70  1  0.35832714  0.26328347  0.90440321  1
  O  O71  1  0.62873414  0.37551134  0.85735340  1
  O  O72  1  0.39859845  0.09309927  0.64337920  1
  O  O73  1  0.90440321  0.35832714  0.26328347  1
  O  O74  1  0.37102648  0.61091644  0.63007648  1
  O  O75  1  0.60331087  0.77556871  0.89891694  1
  O  O76  1  0.35735340  0.87551134  0.12873414  1
  O  O77  1  0.65557255  0.13521935  0.86331661  1
  O  O78  1  0.09309927  0.64337920  0.39859845  1
  O  O79  1  0.89384377  0.33503635  0.60762820  1
  O  O80  1  0.61091644  0.63007648  0.37102648  1
  O  O81  1  0.85832714  0.40440321  0.76328347  1
  O  O82  1  0.60762820  0.89384377  0.33503635  1
  O  O83  1  0.87102648  0.13007648  0.11091644  1
  O  O84  1  0.37812373  0.63608464  0.38049360  1
  O  O85  1  0.40440321  0.76328347  0.85832714  1
  O  O86  1  0.26328347  0.90440321  0.35832714  1
  O  O87  1  0.38049360  0.37812373  0.63608464  1
  O  O88  1  0.39384377  0.10762820  0.83503635  1
  O  O89  1  0.27556871  0.10331087  0.39891694  1
