# generated using pymatgen
data_RbCr2BiO8
_symmetry_space_group_name_H-M   'P 1'
_cell_length_a   5.76568717
_cell_length_b   10.25961559
_cell_length_c   13.45428063
_cell_angle_alpha   90.00000000
_cell_angle_beta   90.00000000
_cell_angle_gamma   90.00000000
_symmetry_Int_Tables_number   1
_chemical_formula_structural   RbCr2BiO8
_chemical_formula_sum   'Rb4 Cr8 Bi4 O32'
_cell_volume   795.87093723
_cell_formula_units_Z   4
loop_
 _symmetry_equiv_pos_site_id
 _symmetry_equiv_pos_as_xyz
  1  'x, y, z'
loop_
 _atom_site_type_symbol
 _atom_site_label
 _atom_site_symmetry_multiplicity
 _atom_site_fract_x
 _atom_site_fract_y
 _atom_site_fract_z
 _atom_site_occupancy
  Rb  Rb0  1  0.25000000  0.58037446  0.75000000  1
  Rb  Rb1  1  0.25000000  0.91962554  0.25000000  1
  Rb  Rb2  1  0.75000000  0.08037446  0.75000000  1
  Rb  Rb3  1  0.75000000  0.41962554  0.25000000  1
  Cr  Cr4  1  0.73463514  0.41454171  0.91737159  1
  Cr  Cr5  1  0.26536486  0.58545829  0.08262841  1
  Cr  Cr6  1  0.73463514  0.08545829  0.08262841  1
  Cr  Cr7  1  0.26536486  0.91454171  0.91737159  1
  Cr  Cr8  1  0.23463514  0.91454171  0.58262841  1
  Cr  Cr9  1  0.76536486  0.41454171  0.58262841  1
  Cr  Cr10  1  0.76536486  0.08545829  0.41737159  1
  Cr  Cr11  1  0.23463514  0.58545829  0.41737159  1
  Bi  Bi12  1  0.29573673  0.25000000  0.50000000  1
  Bi  Bi13  1  0.79573673  0.75000000  0.00000000  1
  Bi  Bi14  1  0.20426327  0.25000000  0.00000000  1
  Bi  Bi15  1  0.70426327  0.75000000  0.50000000  1
  O  O16  1  0.47265786  0.34038760  0.90042080  1
  O  O17  1  0.81676829  0.10234627  0.96689828  1
  O  O18  1  0.05963574  0.65505249  0.14999686  1
  O  O19  1  0.94036426  0.15505249  0.14999686  1
  O  O20  1  0.21085324  0.42590057  0.38992687  1
  O  O21  1  0.97265786  0.84038760  0.59957920  1
  O  O22  1  0.28914676  0.07409943  0.88992687  1
  O  O23  1  0.31676829  0.60234627  0.53310172  1
  O  O24  1  0.18323171  0.89765373  0.03310172  1
  O  O25  1  0.55963574  0.34494751  0.64999686  1
  O  O26  1  0.81676829  0.39765373  0.03310172  1
  O  O27  1  0.68323171  0.39765373  0.46689828  1
  O  O28  1  0.52734214  0.84038760  0.90042080  1
  O  O29  1  0.55963574  0.15505249  0.35000314  1
  O  O30  1  0.44036426  0.65505249  0.35000314  1
  O  O31  1  0.21085324  0.07409943  0.61007313  1
  O  O32  1  0.18323171  0.60234627  0.96689828  1
  O  O33  1  0.71085324  0.92590057  0.11007313  1
  O  O34  1  0.47265786  0.15961240  0.09957920  1
  O  O35  1  0.97265786  0.65961240  0.40042080  1
  O  O36  1  0.94036426  0.34494751  0.85000314  1
  O  O37  1  0.78914676  0.92590057  0.38992687  1
  O  O38  1  0.78914676  0.57409943  0.61007313  1
  O  O39  1  0.05963574  0.84494751  0.85000314  1
  O  O40  1  0.68323171  0.10234627  0.53310172  1
  O  O41  1  0.02734214  0.34038760  0.59957920  1
  O  O42  1  0.28914676  0.42590057  0.11007313  1
  O  O43  1  0.44036426  0.84494751  0.64999686  1
  O  O44  1  0.02734214  0.15961240  0.40042080  1
  O  O45  1  0.71085324  0.57409943  0.88992687  1
  O  O46  1  0.31676829  0.89765373  0.46689828  1
  O  O47  1  0.52734214  0.65961240  0.09957920  1
