# generated using pymatgen
data_KNiAsO4
_symmetry_space_group_name_H-M   'P 1'
_cell_length_a   10.08972726
_cell_length_b   10.08972707
_cell_length_c   10.08972752
_cell_angle_alpha   29.05895096
_cell_angle_beta   29.05895284
_cell_angle_gamma   29.05895088
_symmetry_Int_Tables_number   1
_chemical_formula_structural   KNiAsO4
_chemical_formula_sum   'K2 Ni2 As2 O8'
_cell_volume   214.34874716
_cell_formula_units_Z   2
loop_
 _symmetry_equiv_pos_site_id
 _symmetry_equiv_pos_as_xyz
  1  'x, y, z'
loop_
 _atom_site_type_symbol
 _atom_site_label
 _atom_site_symmetry_multiplicity
 _atom_site_fract_x
 _atom_site_fract_y
 _atom_site_fract_z
 _atom_site_occupancy
  K  K0  1  0.71098177  0.71098177  0.71098177  1
  K  K1  1  0.28901823  0.28901823  0.28901823  1
  Ni  Ni2  1  0.16518921  0.16518921  0.16518921  1
  Ni  Ni3  1  0.83481079  0.83481079  0.83481079  1
  As  As4  1  0.56035113  0.56035113  0.56035113  1
  As  As5  1  0.43964887  0.43964887  0.43964887  1
  O  O6  1  0.87216089  0.53613200  0.21690546  1
  O  O7  1  0.21690546  0.87216089  0.53613200  1
  O  O8  1  0.38087913  0.38087913  0.38087913  1
  O  O9  1  0.46386800  0.78309454  0.12783911  1
  O  O10  1  0.12783911  0.46386800  0.78309454  1
  O  O11  1  0.53613200  0.21690546  0.87216089  1
  O  O12  1  0.78309454  0.12783911  0.46386800  1
  O  O13  1  0.61912087  0.61912087  0.61912087  1
