# generated using pymatgen
data_Cr(PO3)3
_symmetry_space_group_name_H-M   'P 1'
_cell_length_a   6.32518083
_cell_length_b   8.44846627
_cell_length_c   15.48992018
_cell_angle_alpha   90.00000000
_cell_angle_beta   90.00000000
_cell_angle_gamma   105.96998083
_symmetry_Int_Tables_number   1
_chemical_formula_structural   Cr(PO3)3
_chemical_formula_sum   'Cr4 P12 O36'
_cell_volume   795.80528506
_cell_formula_units_Z   4
loop_
 _symmetry_equiv_pos_site_id
 _symmetry_equiv_pos_as_xyz
  1  'x, y, z'
loop_
 _atom_site_type_symbol
 _atom_site_label
 _atom_site_symmetry_multiplicity
 _atom_site_fract_x
 _atom_site_fract_y
 _atom_site_fract_z
 _atom_site_occupancy
  Cr  Cr0  1  0.88151833  0.12464131  0.63681410  1
  Cr  Cr1  1  0.88151833  0.62464131  0.86318590  1
  Cr  Cr2  1  0.11848167  0.37535869  0.13681410  1
  Cr  Cr3  1  0.11848167  0.87535869  0.36318590  1
  P  P4  1  0.84922897  0.27817509  0.95587452  1
  P  P5  1  0.58758055  0.79066071  0.38742126  1
  P  P6  1  0.41241945  0.20933929  0.61257874  1
  P  P7  1  0.20774787  0.01584830  0.16085659  1
  P  P8  1  0.79225213  0.48415170  0.66085659  1
  P  P9  1  0.58758055  0.29066071  0.11257874  1
  P  P10  1  0.20774787  0.51584830  0.33914341  1
  P  P11  1  0.41241945  0.70933929  0.88742126  1
  P  P12  1  0.15077103  0.22182491  0.45587452  1
  P  P13  1  0.84922897  0.77817509  0.54412548  1
  P  P14  1  0.15077103  0.72182491  0.04412548  1
  P  P15  1  0.79225213  0.98415170  0.83914341  1
  O  O16  1  0.43575360  0.89915327  0.38781573  1
  O  O17  1  0.16366932  0.90499365  0.07472067  1
  O  O18  1  0.83633068  0.09500635  0.92527933  1
  O  O19  1  0.17391012  0.11966267  0.37903700  1
  O  O20  1  0.53457538  0.38770486  0.65168902  1
  O  O21  1  0.83633068  0.59500635  0.57472067  1
  O  O22  1  0.19879894  0.64579143  0.84045202  1
  O  O23  1  0.80120106  0.85420857  0.34045202  1
  O  O24  1  0.53457538  0.88770486  0.84831098  1
  O  O25  1  0.06753973  0.63246695  0.34680078  1
  O  O26  1  0.05204953  0.33708322  0.01088655  1
  O  O27  1  0.82608988  0.38033733  0.87903700  1
  O  O28  1  0.18427979  0.40533432  0.26266237  1
  O  O29  1  0.62990648  0.24481675  0.01408831  1
  O  O30  1  0.94795047  0.66291678  0.98911345  1
  O  O31  1  0.19879894  0.14579143  0.65954798  1
  O  O32  1  0.56424640  0.10084673  0.61218427  1
  O  O33  1  0.80120106  0.35420857  0.15954798  1
  O  O34  1  0.37009352  0.25518325  0.51408831  1
  O  O35  1  0.93246027  0.86753305  0.84680078  1
  O  O36  1  0.81572021  0.09466568  0.76266237  1
  O  O37  1  0.81572021  0.59466568  0.73733763  1
  O  O38  1  0.43575360  0.39915327  0.11218427  1
  O  O39  1  0.05204953  0.83708322  0.48911345  1
  O  O40  1  0.94795047  0.16291678  0.51088655  1
  O  O41  1  0.18427979  0.90533432  0.23733763  1
  O  O42  1  0.46542462  0.11229514  0.15168902  1
  O  O43  1  0.17391012  0.61966267  0.12096300  1
  O  O44  1  0.16366932  0.40499365  0.42527933  1
  O  O45  1  0.37009352  0.75518325  0.98591169  1
  O  O46  1  0.46542462  0.61229514  0.34831098  1
  O  O47  1  0.06753973  0.13246695  0.15319922  1
  O  O48  1  0.82608988  0.88033733  0.62096300  1
  O  O49  1  0.62990648  0.74481675  0.48591169  1
  O  O50  1  0.56424640  0.60084673  0.88781573  1
  O  O51  1  0.93246027  0.36753305  0.65319922  1
