# generated using pymatgen
data_K4Th(MoO4)4
_symmetry_space_group_name_H-M   'P 1'
_cell_length_a   10.69356449
_cell_length_b   10.69356521
_cell_length_c   10.69356457
_cell_angle_alpha   102.95139006
_cell_angle_beta   112.82624641
_cell_angle_gamma   112.82624611
_symmetry_Int_Tables_number   1
_chemical_formula_structural   K4Th(MoO4)4
_chemical_formula_sum   'K8 Th2 Mo8 O32'
_cell_volume   932.33956310
_cell_formula_units_Z   2
loop_
 _symmetry_equiv_pos_site_id
 _symmetry_equiv_pos_as_xyz
  1  'x, y, z'
loop_
 _atom_site_type_symbol
 _atom_site_label
 _atom_site_symmetry_multiplicity
 _atom_site_fract_x
 _atom_site_fract_y
 _atom_site_fract_z
 _atom_site_occupancy
  K  K0  1  0.60879092  0.45349226  0.36861529  1
  K  K1  1  0.58487697  0.34470134  0.95349226  1
  K  K2  1  0.89120908  0.25982437  0.84470134  1
  K  K3  1  0.91512303  0.86861529  0.75982437  1
  K  K4  1  0.41512303  0.65529866  0.04650774  1
  K  K5  1  0.08487697  0.13138471  0.24017563  1
  K  K6  1  0.39120908  0.54650774  0.63138471  1
  K  K7  1  0.10879092  0.74017563  0.15529866  1
  Th  Th8  1  0.25000000  0.87500000  0.62500000  1
  Th  Th9  1  0.75000000  0.12500000  0.37500000  1
  Mo  Mo10  1  0.83801077  0.79404668  0.31197044  1
  Mo  Mo11  1  0.66198923  0.97395967  0.95603591  1
  Mo  Mo12  1  0.33801077  0.02604033  0.04396409  1
  Mo  Mo13  1  0.01792376  0.54396409  0.70595332  1
  Mo  Mo14  1  0.16198923  0.20595332  0.68802956  1
  Mo  Mo15  1  0.98207624  0.45603591  0.29404668  1
  Mo  Mo16  1  0.51792376  0.81197044  0.47395967  1
  Mo  Mo17  1  0.48207624  0.18802956  0.52604033  1
  O  O18  1  0.07535639  0.66159601  0.37856750  1
  O  O19  1  0.80210760  0.01077433  0.89794355  1
  O  O20  1  0.93680082  0.84880496  0.21684783  1
  O  O21  1  0.01651470  0.15662298  0.49367723  1
  O  O22  1  0.28302852  0.12143250  0.69678889  1
  O  O23  1  0.78302852  0.08623963  0.16159601  1
  O  O24  1  0.63195713  0.28315217  0.71995299  1
  O  O25  1  0.69789240  0.59583595  0.20866673  1
  O  O26  1  0.11283078  0.60205645  0.90416405  1
  O  O27  1  0.30210760  0.40416405  0.79133327  1
  O  O28  1  0.57535639  0.19678889  0.41376037  1
  O  O29  1  0.61283078  0.70866673  0.51077433  1
  O  O30  1  0.51651470  0.02283747  0.85989172  1
  O  O31  1  0.92464361  0.33840399  0.62143250  1
  O  O32  1  0.48348530  0.97716253  0.14010828  1
  O  O33  1  0.66294575  0.00632277  0.52283747  1
  O  O34  1  0.06319918  0.15119504  0.78315217  1
  O  O35  1  0.43680082  0.21995299  0.08799586  1
  O  O36  1  0.33705425  0.99367723  0.47716253  1
  O  O37  1  0.71697148  0.87856750  0.30321111  1
  O  O38  1  0.56319918  0.78004701  0.91200414  1
  O  O39  1  0.42464361  0.80321111  0.58623963  1
  O  O40  1  0.83705425  0.35989172  0.34337702  1
  O  O41  1  0.19789240  0.98922567  0.10205645  1
  O  O42  1  0.13195713  0.41200414  0.34880496  1
  O  O43  1  0.88716922  0.39794355  0.09583595  1
  O  O44  1  0.21697148  0.91376037  0.83840399  1
  O  O45  1  0.36804287  0.71684783  0.28004701  1
  O  O46  1  0.98348530  0.84337702  0.50632277  1
  O  O47  1  0.86804287  0.58799586  0.65119504  1
  O  O48  1  0.16294575  0.64010828  0.65662298  1
  O  O49  1  0.38716922  0.29133327  0.48922567  1
