# generated using pymatgen
data_LaMg5
_symmetry_space_group_name_H-M   'P 1'
_cell_length_a   13.03056067
_cell_length_b   3.22689099
_cell_length_c   7.66277389
_cell_angle_alpha   90.00000000
_cell_angle_beta   104.74628136
_cell_angle_gamma   90.00000000
_symmetry_Int_Tables_number   1
_chemical_formula_structural   LaMg5
_chemical_formula_sum   'La2 Mg10'
_cell_volume   311.59317277
_cell_formula_units_Z   2
loop_
 _symmetry_equiv_pos_site_id
 _symmetry_equiv_pos_as_xyz
  1  'x, y, z'
loop_
 _atom_site_type_symbol
 _atom_site_label
 _atom_site_symmetry_multiplicity
 _atom_site_fract_x
 _atom_site_fract_y
 _atom_site_fract_z
 _atom_site_occupancy
  La  La0  1  0.38683504  0.00000000  0.27095731  1
  La  La1  1  0.88683504  0.50000000  0.27095731  1
  Mg  Mg2  1  0.00986442  0.00000000  0.99191002  1
  Mg  Mg3  1  0.16229551  0.50000000  0.33893258  1
  Mg  Mg4  1  0.06304626  -0.00000000  0.62083821  1
  Mg  Mg5  1  0.33273027  -0.00000000  0.67754825  1
  Mg  Mg6  1  0.21189550  0.50000000  0.93314663  1
  Mg  Mg7  1  0.50986442  0.50000000  0.99191002  1
  Mg  Mg8  1  0.66229551  0.00000000  0.33893258  1
  Mg  Mg9  1  0.56304626  0.50000000  0.62083821  1
  Mg  Mg10  1  0.83273027  0.50000000  0.67754825  1
  Mg  Mg11  1  0.71189550  0.00000000  0.93314663  1
