# generated using pymatgen
data_Cs5CaNi4F15
_symmetry_space_group_name_H-M   'P 1'
_cell_length_a   6.31489239
_cell_length_b   6.31489195
_cell_length_c   25.59410873
_cell_angle_alpha   90.00000000
_cell_angle_beta   90.00000000
_cell_angle_gamma   120.00000236
_symmetry_Int_Tables_number   1
_chemical_formula_structural   Cs5CaNi4F15
_chemical_formula_sum   'Cs10 Ca2 Ni8 F30'
_cell_volume   883.89873065
_cell_formula_units_Z   2
loop_
 _symmetry_equiv_pos_site_id
 _symmetry_equiv_pos_as_xyz
  1  'x, y, z'
loop_
 _atom_site_type_symbol
 _atom_site_label
 _atom_site_symmetry_multiplicity
 _atom_site_fract_x
 _atom_site_fract_y
 _atom_site_fract_z
 _atom_site_occupancy
  Cs  Cs0  1  0.66666700  0.33333300  0.94195585  1
  Cs  Cs1  1  0.00000000  0.00000000  0.84502978  1
  Cs  Cs2  1  0.00000000  0.00000000  0.15497022  1
  Cs  Cs3  1  0.33333300  0.66666700  0.05804415  1
  Cs  Cs4  1  0.33333300  0.66666700  0.44195585  1
  Cs  Cs5  1  0.00000000  0.00000000  0.65497022  1
  Cs  Cs6  1  0.66666700  0.33333300  0.75000000  1
  Cs  Cs7  1  0.66666700  0.33333300  0.55804415  1
  Cs  Cs8  1  0.33333300  0.66666700  0.25000000  1
  Cs  Cs9  1  0.00000000  0.00000000  0.34502978  1
  Ca  Ca10  1  0.00000000  0.00000000  0.00000000  1
  Ca  Ca11  1  0.00000000  0.00000000  0.50000000  1
  Ni  Ni12  1  0.66666700  0.33333300  0.09069654  1
  Ni  Ni13  1  0.33333300  0.66666700  0.69723938  1
  Ni  Ni14  1  0.33333300  0.66666700  0.90930346  1
  Ni  Ni15  1  0.66666700  0.33333300  0.40930346  1
  Ni  Ni16  1  0.66666700  0.33333300  0.30276062  1
  Ni  Ni17  1  0.33333300  0.66666700  0.59069654  1
  Ni  Ni18  1  0.66666700  0.33333300  0.19723938  1
  Ni  Ni19  1  0.33333300  0.66666700  0.80276062  1
  F  F20  1  0.52578976  0.47421024  0.35392682  1
  F  F21  1  0.47421024  0.94842047  0.64607318  1
  F  F22  1  0.82493893  0.64987785  0.45065609  1
  F  F23  1  0.94842047  0.47421024  0.35392682  1
  F  F24  1  0.47421024  0.52578976  0.64607318  1
  F  F25  1  0.47421024  0.94842047  0.85392682  1
  F  F26  1  0.17506107  0.35012215  0.54934391  1
  F  F27  1  0.94842047  0.47421024  0.14607318  1
  F  F28  1  0.64987785  0.82493893  0.54934391  1
  F  F29  1  0.80791317  0.61582634  0.25000000  1
  F  F30  1  0.38417366  0.19208683  0.25000000  1
  F  F31  1  0.17506107  0.82493893  0.54934391  1
  F  F32  1  0.82493893  0.17506107  0.45065609  1
  F  F33  1  0.82493893  0.64987785  0.04934391  1
  F  F34  1  0.05157953  0.52578976  0.64607318  1
  F  F35  1  0.64987785  0.82493893  0.95065609  1
  F  F36  1  0.61582634  0.80791317  0.75000000  1
  F  F37  1  0.05157953  0.52578976  0.85392682  1
  F  F38  1  0.17506107  0.82493893  0.95065609  1
  F  F39  1  0.80791317  0.19208683  0.25000000  1
  F  F40  1  0.52578976  0.05157953  0.35392682  1
  F  F41  1  0.52578976  0.47421024  0.14607318  1
  F  F42  1  0.35012215  0.17506107  0.04934391  1
  F  F43  1  0.17506107  0.35012215  0.95065609  1
  F  F44  1  0.35012215  0.17506107  0.45065609  1
  F  F45  1  0.19208683  0.80791317  0.75000000  1
  F  F46  1  0.52578976  0.05157953  0.14607318  1
  F  F47  1  0.19208683  0.38417366  0.75000000  1
  F  F48  1  0.47421024  0.52578976  0.85392682  1
  F  F49  1  0.82493893  0.17506107  0.04934391  1
