# generated using pymatgen
data_La2Mg
_symmetry_space_group_name_H-M   'P 1'
_cell_length_a   6.21659320
_cell_length_b   6.21659373
_cell_length_c   17.68127947
_cell_angle_alpha   90.00000000
_cell_angle_beta   90.00000000
_cell_angle_gamma   120.00000309
_symmetry_Int_Tables_number   1
_chemical_formula_structural   La2Mg
_chemical_formula_sum   'La12 Mg6'
_cell_volume   591.76495494
_cell_formula_units_Z   6
loop_
 _symmetry_equiv_pos_site_id
 _symmetry_equiv_pos_as_xyz
  1  'x, y, z'
loop_
 _atom_site_type_symbol
 _atom_site_label
 _atom_site_symmetry_multiplicity
 _atom_site_fract_x
 _atom_site_fract_y
 _atom_site_fract_z
 _atom_site_occupancy
  La  La0  1  0.67798426  0.67798426  0.00000000  1
  La  La1  1  0.32201574  1.00000000  0.00000000  1
  La  La2  1  0.33333300  0.66666700  0.16666700  1
  La  La3  1  1.00000000  0.32201574  0.00000000  1
  La  La4  1  0.34465026  0.01131726  0.33333300  1
  La  La5  1  0.98868274  0.33333300  0.33333300  1
  La  La6  1  -0.00000000  -0.00000000  0.50000000  1
  La  La7  1  0.66666700  0.65534974  0.33333300  1
  La  La8  1  0.01131726  0.34465026  0.66666700  1
  La  La9  1  0.65534974  0.66666700  0.66666700  1
  La  La10  1  0.66666700  0.33333300  0.83333300  1
  La  La11  1  0.33333300  0.98868274  0.66666700  1
  Mg  Mg12  1  0.66666700  0.33333300  0.16596653  1
  Mg  Mg13  1  -0.00000000  -0.00000000  0.16736747  1
  Mg  Mg14  1  0.33333300  0.66666700  0.49929953  1
  Mg  Mg15  1  0.66666700  0.33333300  0.50070047  1
  Mg  Mg16  1  -0.00000000  -0.00000000  0.83263253  1
  Mg  Mg17  1  0.33333300  0.66666700  0.83403347  1
