# generated using pymatgen
data_Ag6Mo2ClO7F3
_symmetry_space_group_name_H-M   'P 1'
_cell_length_a   7.59653764
_cell_length_b   7.59653762
_cell_length_c   6.01988522
_cell_angle_alpha   90.00000000
_cell_angle_beta   90.00000000
_cell_angle_gamma   120.00000010
_symmetry_Int_Tables_number   1
_chemical_formula_structural   Ag6Mo2ClO7F3
_chemical_formula_sum   'Ag6 Mo2 Cl1 O7 F3'
_cell_volume   300.85014751
_cell_formula_units_Z   1
loop_
 _symmetry_equiv_pos_site_id
 _symmetry_equiv_pos_as_xyz
  1  'x, y, z'
loop_
 _atom_site_type_symbol
 _atom_site_label
 _atom_site_symmetry_multiplicity
 _atom_site_fract_x
 _atom_site_fract_y
 _atom_site_fract_z
 _atom_site_occupancy
  Ag  Ag0  1  0.82382870  0.17617130  0.18903416  1
  Ag  Ag1  1  0.49506495  0.50493505  0.72992326  1
  Ag  Ag2  1  0.49506495  0.99012990  0.72992326  1
  Ag  Ag3  1  0.82382870  0.64765740  0.18903416  1
  Ag  Ag4  1  0.35234260  0.17617130  0.18903416  1
  Ag  Ag5  1  0.00987010  0.50493505  0.72992326  1
  Mo  Mo6  1  0.33333300  0.66666700  0.23839206  1
  Mo  Mo7  1  0.00000000  0.00000000  0.68525219  1
  Cl  Cl8  1  0.66666700  0.33333300  0.49236540  1
  O  O9  1  0.87680996  0.12319004  0.81764057  1
  O  O10  1  0.46041195  0.53958805  0.12407785  1
  O  O11  1  0.24638008  0.12319004  0.81764057  1
  O  O12  1  0.33333300  0.66666700  0.54336594  1
  O  O13  1  0.07917610  0.53958805  0.12407785  1
  O  O14  1  0.87680996  0.75361992  0.81764057  1
  O  O15  1  0.46041195  0.92082390  0.12407785  1
  F  F16  1  0.76915976  0.88457988  0.43971564  1
  F  F17  1  0.11542012  0.88457988  0.43971564  1
  F  F18  1  0.11542012  0.23084024  0.43971564  1
