# generated using pymatgen
data_V2Ni(PO5)2
_symmetry_space_group_name_H-M   'P 1'
_cell_length_a   6.42264663
_cell_length_b   7.41765023
_cell_length_c   7.39031413
_cell_angle_alpha   90.00000000
_cell_angle_beta   89.87820428
_cell_angle_gamma   90.00000000
_symmetry_Int_Tables_number   1
_chemical_formula_structural   V2Ni(PO5)2
_chemical_formula_sum   'V4 Ni2 P4 O20'
_cell_volume   352.08076244
_cell_formula_units_Z   2
loop_
 _symmetry_equiv_pos_site_id
 _symmetry_equiv_pos_as_xyz
  1  'x, y, z'
loop_
 _atom_site_type_symbol
 _atom_site_label
 _atom_site_symmetry_multiplicity
 _atom_site_fract_x
 _atom_site_fract_y
 _atom_site_fract_z
 _atom_site_occupancy
  V  V0  1  0.74502393  0.27929024  0.83418252  1
  V  V1  1  0.25497607  0.77929024  0.66581748  1
  V  V2  1  0.25497607  0.72070976  0.16581748  1
  V  V3  1  0.74502393  0.22070976  0.33418252  1
  Ni  Ni4  1  0.00000000  0.00000000  0.00000000  1
  Ni  Ni5  1  0.00000000  0.50000000  0.50000000  1
  P  P6  1  0.74971302  0.62196878  0.12773912  1
  P  P7  1  0.74971302  0.87803122  0.62773912  1
  P  P8  1  0.25028698  0.12196878  0.37226088  1
  P  P9  1  0.25028698  0.37803122  0.87226088  1
  O  O10  1  0.77898618  0.00497044  0.79457844  1
  O  O11  1  0.22723900  0.66421922  0.39048811  1
  O  O12  1  0.93811752  0.74578573  0.62399015  1
  O  O13  1  0.06188248  0.25421427  0.37600985  1
  O  O14  1  0.93811752  0.75421427  0.12399015  1
  O  O15  1  0.22101382  0.50497044  0.70542156  1
  O  O16  1  0.22101382  0.99502956  0.20542156  1
  O  O17  1  0.55405221  0.73955903  0.14625223  1
  O  O18  1  0.25454159  0.00956363  0.54644849  1
  O  O19  1  0.55405221  0.76044097  0.64625223  1
  O  O20  1  0.25454159  0.49043637  0.04644849  1
  O  O21  1  0.74545841  0.99043637  0.45355151  1
  O  O22  1  0.77276100  0.33578078  0.60951189  1
  O  O23  1  0.44594779  0.26044097  0.85374777  1
  O  O24  1  0.22723900  0.83578078  0.89048811  1
  O  O25  1  0.77276100  0.16421922  0.10951189  1
  O  O26  1  0.74545841  0.50956363  0.95355151  1
  O  O27  1  0.06188248  0.24578573  0.87600985  1
  O  O28  1  0.77898618  0.49502956  0.29457844  1
  O  O29  1  0.44594779  0.23955903  0.35374777  1
