# generated using pymatgen
data_Fe3B7ClO13
_symmetry_space_group_name_H-M   'P 1'
_cell_length_a   8.70715943
_cell_length_b   8.70715997
_cell_length_c   8.70715962
_cell_angle_alpha   60.09888680
_cell_angle_beta   60.09888474
_cell_angle_gamma   60.09888748
_symmetry_Int_Tables_number   1
_chemical_formula_structural   Fe3B7ClO13
_chemical_formula_sum   'Fe6 B14 Cl2 O26'
_cell_volume   467.82833250
_cell_formula_units_Z   2
loop_
 _symmetry_equiv_pos_site_id
 _symmetry_equiv_pos_as_xyz
  1  'x, y, z'
loop_
 _atom_site_type_symbol
 _atom_site_label
 _atom_site_symmetry_multiplicity
 _atom_site_fract_x
 _atom_site_fract_y
 _atom_site_fract_z
 _atom_site_occupancy
  Fe  Fe0  1  0.97306296  0.53279909  0.97421878  1
  Fe  Fe1  1  0.03279909  0.47306296  0.47421878  1
  Fe  Fe2  1  0.47306296  0.47421878  0.03279909  1
  Fe  Fe3  1  0.97421878  0.97306296  0.53279909  1
  Fe  Fe4  1  0.53279909  0.97421878  0.97306296  1
  Fe  Fe5  1  0.47421878  0.03279909  0.47306296  1
  B  B6  1  0.57075511  0.57347021  0.26811945  1
  B  B7  1  0.75454849  0.24829483  0.24531455  1
  B  B8  1  0.10300147  0.10300147  0.10300147  1
  B  B9  1  0.24829483  0.24531455  0.75454849  1
  B  B10  1  0.60300147  0.60300147  0.60300147  1
  B  B11  1  0.07347021  0.07075511  0.76811945  1
  B  B12  1  0.07075511  0.76811945  0.07347021  1
  B  B13  1  0.25454849  0.74531455  0.74829483  1
  B  B14  1  0.74531455  0.74829483  0.25454849  1
  B  B15  1  0.26811945  0.57075511  0.57347021  1
  B  B16  1  0.57347021  0.26811945  0.57075511  1
  B  B17  1  0.76811945  0.07347021  0.07075511  1
  B  B18  1  0.24531455  0.75454849  0.24829483  1
  B  B19  1  0.74829483  0.25454849  0.74531455  1
  Cl  Cl20  1  0.76750738  0.76750738  0.76750738  1
  Cl  Cl21  1  0.26750738  0.26750738  0.26750738  1
  O  O22  1  0.74275795  0.60330961  0.21748411  1
  O  O23  1  0.68712152  0.93532566  0.11528371  1
  O  O24  1  0.48639772  0.48639772  0.48639772  1
  O  O25  1  0.43290026  0.74961715  0.20256492  1
  O  O26  1  0.10330961  0.24275795  0.71748411  1
  O  O27  1  0.21748411  0.74275795  0.60330961  1
  O  O28  1  0.76309821  0.44653043  0.60799046  1
  O  O29  1  0.44653043  0.60799046  0.76309821  1
  O  O30  1  0.26309821  0.10799046  0.94653043  1
  O  O31  1  0.43532566  0.18712152  0.61528371  1
  O  O32  1  0.61528371  0.43532566  0.18712152  1
  O  O33  1  0.71748411  0.10330961  0.24275795  1
  O  O34  1  0.20256492  0.43290026  0.74961715  1
  O  O35  1  0.24275795  0.71748411  0.10330961  1
  O  O36  1  0.74961715  0.20256492  0.43290026  1
  O  O37  1  0.93532566  0.11528371  0.68712152  1
  O  O38  1  0.18712152  0.61528371  0.43532566  1
  O  O39  1  0.10799046  0.94653043  0.26309821  1
  O  O40  1  0.98639772  0.98639772  0.98639772  1
  O  O41  1  0.93290026  0.70256492  0.24961715  1
  O  O42  1  0.60330961  0.21748411  0.74275795  1
  O  O43  1  0.70256492  0.24961715  0.93290026  1
  O  O44  1  0.60799046  0.76309821  0.44653043  1
  O  O45  1  0.94653043  0.26309821  0.10799046  1
  O  O46  1  0.11528371  0.68712152  0.93532566  1
  O  O47  1  0.24961715  0.93290026  0.70256492  1
