# generated using pymatgen
data_Ba3Na2Cr4F20
_symmetry_space_group_name_H-M   'P 1'
_cell_length_a   5.54881059
_cell_length_b   7.41403762
_cell_length_c   21.02565008
_cell_angle_alpha   90.00000000
_cell_angle_beta   90.00000000
_cell_angle_gamma   90.79376648
_symmetry_Int_Tables_number   1
_chemical_formula_structural   Ba3Na2Cr4F20
_chemical_formula_sum   'Ba6 Na4 Cr8 F40'
_cell_volume   864.89311569
_cell_formula_units_Z   2
loop_
 _symmetry_equiv_pos_site_id
 _symmetry_equiv_pos_as_xyz
  1  'x, y, z'
loop_
 _atom_site_type_symbol
 _atom_site_label
 _atom_site_symmetry_multiplicity
 _atom_site_fract_x
 _atom_site_fract_y
 _atom_site_fract_z
 _atom_site_occupancy
  Ba  Ba0  1  0.97196334  0.00592585  0.77678254  1
  Ba  Ba1  1  0.47196334  0.50592585  0.72321746  1
  Ba  Ba2  1  0.52803666  0.49407415  0.27678254  1
  Ba  Ba3  1  0.50000000  0.50000000  0.50000000  1
  Ba  Ba4  1  0.02803666  0.99407415  0.22321746  1
  Ba  Ba5  1  0.00000000  0.00000000  0.00000000  1
  Na  Na6  1  0.98322039  0.77379094  0.40897943  1
  Na  Na7  1  0.48322039  0.27379094  0.09102057  1
  Na  Na8  1  0.01677961  0.22620906  0.59102057  1
  Na  Na9  1  0.51677961  0.72620906  0.90897943  1
  Cr  Cr10  1  0.48098397  0.78696594  0.10335762  1
  Cr  Cr11  1  0.52710889  0.03193241  0.63837626  1
  Cr  Cr12  1  0.98098397  0.28696594  0.39664238  1
  Cr  Cr13  1  0.02710889  0.53193241  0.86162374  1
  Cr  Cr14  1  0.47289111  0.96806759  0.36162374  1
  Cr  Cr15  1  0.01901603  0.71303406  0.60335762  1
  Cr  Cr16  1  0.51901603  0.21303406  0.89664238  1
  Cr  Cr17  1  0.97289111  0.46806759  0.13837626  1
  F  F18  1  0.75343894  0.64249942  0.82164975  1
  F  F19  1  0.25979380  0.79430533  0.32099170  1
  F  F20  1  0.75979380  0.29430533  0.17900830  1
  F  F21  1  0.82200808  0.35460495  0.90793540  1
  F  F22  1  0.76703830  0.93551282  0.11147625  1
  F  F23  1  0.55346807  0.22873093  0.80570179  1
  F  F24  1  0.06698021  0.37221836  0.78943626  1
  F  F25  1  0.26703830  0.43551282  0.38852375  1
  F  F26  1  0.50063102  0.18800420  0.98816946  1
  F  F27  1  0.78429694  0.50071134  0.39259738  1
  F  F28  1  0.74020620  0.20569467  0.67900830  1
  F  F29  1  0.74656106  0.85750058  0.32164975  1
  F  F30  1  0.94653193  0.27126907  0.30570179  1
  F  F31  1  0.17799192  0.64539505  0.09206460  1
  F  F32  1  0.24656106  0.35750058  0.17835025  1
  F  F33  1  0.23296170  0.06448718  0.88852375  1
  F  F34  1  0.56698021  0.87221836  0.71056374  1
  F  F35  1  0.44653193  0.77126907  0.19429821  1
  F  F36  1  0.05346807  0.72873093  0.69429821  1
  F  F37  1  0.67294664  0.56371486  0.09820767  1
  F  F38  1  0.49936898  0.81199580  0.01183054  1
  F  F39  1  0.67799192  0.14539505  0.40793540  1
  F  F40  1  0.50494930  0.80614487  0.43281359  1
  F  F41  1  0.00063102  0.68800420  0.51183054  1
  F  F42  1  0.43301979  0.12778164  0.28943626  1
  F  F43  1  0.73296170  0.56448718  0.61147625  1
  F  F44  1  0.32200808  0.85460495  0.59206460  1
  F  F45  1  0.21570306  0.49928866  0.60740262  1
  F  F46  1  0.28429694  0.00071134  0.10740262  1
  F  F47  1  0.49505070  0.19385513  0.56718641  1
  F  F48  1  0.93301979  0.62778164  0.21056374  1
  F  F49  1  0.99936898  0.31199580  0.48816946  1
  F  F50  1  0.17294664  0.06371486  0.40179233  1
  F  F51  1  0.99505070  0.69385513  0.93281359  1
  F  F52  1  0.24020620  0.70569467  0.82099170  1
  F  F53  1  0.32705336  0.43628514  0.90179233  1
  F  F54  1  0.71570306  0.99928866  0.89259738  1
  F  F55  1  0.25343894  0.14249942  0.67835025  1
  F  F56  1  0.82705336  0.93628514  0.59820767  1
  F  F57  1  0.00494930  0.30614487  0.06718641  1
