# generated using pymatgen
data_RbV3Cd3O11
_symmetry_space_group_name_H-M   'P 1'
_cell_length_a   8.56877577
_cell_length_b   9.96822880
_cell_length_c   12.87439551
_cell_angle_alpha   90.00000000
_cell_angle_beta   98.32746727
_cell_angle_gamma   90.00000000
_symmetry_Int_Tables_number   1
_chemical_formula_structural   RbV3Cd3O11
_chemical_formula_sum   'Rb4 V12 Cd12 O44'
_cell_volume   1088.07871904
_cell_formula_units_Z   4
loop_
 _symmetry_equiv_pos_site_id
 _symmetry_equiv_pos_as_xyz
  1  'x, y, z'
loop_
 _atom_site_type_symbol
 _atom_site_label
 _atom_site_symmetry_multiplicity
 _atom_site_fract_x
 _atom_site_fract_y
 _atom_site_fract_z
 _atom_site_occupancy
  Rb  Rb0  1  0.11137655  0.25242797  0.50973676  1
  Rb  Rb1  1  0.88862345  0.75242797  0.99026324  1
  Rb  Rb2  1  0.88862345  0.74757203  0.49026324  1
  Rb  Rb3  1  0.11137655  0.24757203  0.00973676  1
  V  V4  1  0.32083681  0.32478707  0.78416084  1
  V  V5  1  0.23556449  0.56815327  0.14926906  1
  V  V6  1  0.23556449  0.93184673  0.64926906  1
  V  V7  1  0.77754828  0.43220894  0.60539182  1
  V  V8  1  0.76443551  0.43184673  0.85073094  1
  V  V9  1  0.67916319  0.67521293  0.21583916  1
  V  V10  1  0.32083681  0.17521293  0.28416084  1
  V  V11  1  0.22245172  0.56779106  0.39460818  1
  V  V12  1  0.67916319  0.82478707  0.71583916  1
  V  V13  1  0.22245172  0.93220894  0.89460818  1
  V  V14  1  0.77754828  0.06779106  0.10539182  1
  V  V15  1  0.76443551  0.06815327  0.35073094  1
  Cd  Cd16  1  0.56742373  0.10490937  0.84695539  1
  Cd  Cd17  1  0.54762400  0.35483174  0.06781899  1
  Cd  Cd18  1  0.08031424  0.62489579  0.76125274  1
  Cd  Cd19  1  0.08031424  0.87510421  0.26125274  1
  Cd  Cd20  1  0.91968576  0.12489579  0.73874726  1
  Cd  Cd21  1  0.54762400  0.14516826  0.56781899  1
  Cd  Cd22  1  0.45237600  0.64516826  0.93218101  1
  Cd  Cd23  1  0.56742373  0.39509063  0.34695539  1
  Cd  Cd24  1  0.45237600  0.85483174  0.43218101  1
  Cd  Cd25  1  0.91968576  0.37510421  0.23874726  1
  Cd  Cd26  1  0.43257627  0.60490937  0.65304461  1
  Cd  Cd27  1  0.43257627  0.89509063  0.15304461  1
  O  O28  1  0.32106648  0.99226549  0.28296761  1
  O  O29  1  0.13120144  0.23048059  0.26635681  1
  O  O30  1  0.86879856  0.73048059  0.23364319  1
  O  O31  1  0.21580504  0.74377483  0.39667313  1
  O  O32  1  0.32397660  0.50479206  0.50750266  1
  O  O33  1  0.13120144  0.26951941  0.76635681  1
  O  O34  1  0.21748660  0.74171169  0.14909993  1
  O  O35  1  0.03792954  0.50162904  0.37653396  1
  O  O36  1  0.65365044  0.48950955  0.94483954  1
  O  O37  1  0.41661293  0.26735113  0.90726332  1
  O  O38  1  0.67659869  0.01640311  0.21686744  1
  O  O39  1  0.67893352  0.00773451  0.71703239  1
  O  O40  1  0.67602340  0.49520794  0.49249734  1
  O  O41  1  0.58338707  0.76735113  0.59273668  1
  O  O42  1  0.78251340  0.25828831  0.85090007  1
  O  O43  1  0.34634956  0.51049045  0.05516046  1
  O  O44  1  0.32340131  0.51640311  0.28313256  1
  O  O45  1  0.58338707  0.73264887  0.09273668  1
  O  O46  1  0.57984062  0.73932166  0.31283212  1
  O  O47  1  0.78419496  0.25622517  0.60332687  1
  O  O48  1  0.34634956  0.98950955  0.55516046  1
  O  O49  1  0.67659869  0.48359689  0.71686744  1
  O  O50  1  0.96207046  0.00162904  0.12346604  1
  O  O51  1  0.32397660  0.99520794  0.00750266  1
  O  O52  1  0.78251340  0.24171169  0.35090007  1
  O  O53  1  0.05377332  0.00214358  0.62758308  1
  O  O54  1  0.57984062  0.76067834  0.81283212  1
  O  O55  1  0.94622668  0.99785642  0.37241692  1
  O  O56  1  0.03792954  0.99837096  0.87653396  1
  O  O57  1  0.32340131  0.98359689  0.78313256  1
  O  O58  1  0.42015938  0.26067834  0.68716788  1
  O  O59  1  0.94622668  0.50214358  0.87241692  1
  O  O60  1  0.78419496  0.24377483  0.10332687  1
  O  O61  1  0.67893352  0.49226549  0.21703239  1
  O  O62  1  0.67602340  0.00479206  0.99249734  1
  O  O63  1  0.21580504  0.75622517  0.89667313  1
  O  O64  1  0.41661293  0.23264887  0.40726332  1
  O  O65  1  0.96207046  0.49837096  0.62346604  1
  O  O66  1  0.65365044  0.01049045  0.44483954  1
  O  O67  1  0.42015938  0.23932166  0.18716788  1
  O  O68  1  0.05377332  0.49785642  0.12758308  1
  O  O69  1  0.86879856  0.76951941  0.73364319  1
  O  O70  1  0.32106648  0.50773451  0.78296761  1
  O  O71  1  0.21748660  0.75828831  0.64909993  1
