# generated using pymatgen
data_KMo2P3O13
_symmetry_space_group_name_H-M   'P 1'
_cell_length_a   9.02546579
_cell_length_b   9.02633715
_cell_length_c   9.02633665
_cell_angle_alpha   105.44874573
_cell_angle_beta   111.01636915
_cell_angle_gamma   111.01637401
_symmetry_Int_Tables_number   1
_chemical_formula_structural   KMo2P3O13
_chemical_formula_sum   'K2 Mo4 P6 O26'
_cell_volume   571.15450283
_cell_formula_units_Z   2
loop_
 _symmetry_equiv_pos_site_id
 _symmetry_equiv_pos_as_xyz
  1  'x, y, z'
loop_
 _atom_site_type_symbol
 _atom_site_label
 _atom_site_symmetry_multiplicity
 _atom_site_fract_x
 _atom_site_fract_y
 _atom_site_fract_z
 _atom_site_occupancy
  K  K0  1  0.00000000  0.00000000  0.50000000  1
  K  K1  1  0.50000000  0.50000000  0.00000000  1
  Mo  Mo2  1  0.83178001  0.67329136  0.83866031  1
  Mo  Mo3  1  0.33178001  0.83866031  0.67329136  1
  Mo  Mo4  1  0.66821999  0.16133969  0.32670864  1
  Mo  Mo5  1  0.16821999  0.32670864  0.16133969  1
  P  P6  1  0.75000000  0.98832687  0.01167313  1
  P  P7  1  0.43714936  0.76051639  0.35021499  1
  P  P8  1  0.93714936  0.35021499  0.76051639  1
  P  P9  1  0.06285064  0.64978501  0.23948361  1
  P  P10  1  0.25000000  0.01167313  0.98832687  1
  P  P11  1  0.56285064  0.23948361  0.64978501  1
  O  O12  1  0.91755366  0.10380372  0.00366416  1
  O  O13  1  0.28894595  0.20675028  0.05655481  1
  O  O14  1  0.03391877  0.46155741  0.19831563  1
  O  O15  1  0.78894595  0.05655481  0.20675028  1
  O  O16  1  0.09211400  0.34694438  0.89620155  1
  O  O17  1  0.76991714  0.69691778  0.64869500  1
  O  O18  1  0.89960944  0.25289898  0.56990035  1
  O  O19  1  0.08244634  0.89619628  0.99633584  1
  O  O20  1  0.26991714  0.64869500  0.69691778  1
  O  O21  1  0.23008286  0.30308222  0.35130500  1
  O  O22  1  0.58244634  0.99633584  0.89619628  1
  O  O23  1  0.59211400  0.89620155  0.34694438  1
  O  O24  1  0.10039056  0.74710102  0.43009965  1
  O  O25  1  0.71105405  0.79324972  0.94344519  1
  O  O26  1  0.60039056  0.43009965  0.74710102  1
  O  O27  1  0.21105405  0.94344519  0.79324972  1
  O  O28  1  0.53391877  0.19831563  0.46155741  1
  O  O29  1  0.90788600  0.65305562  0.10379845  1
  O  O30  1  0.41755366  0.00366416  0.10380372  1
  O  O31  1  0.46608123  0.80168437  0.53844259  1
  O  O32  1  0.40788600  0.10379845  0.65305562  1
  O  O33  1  0.96608123  0.53844259  0.80168437  1
  O  O34  1  0.25000000  0.76060705  0.23939295  1
  O  O35  1  0.39960944  0.56990035  0.25289898  1
  O  O36  1  0.73008286  0.35130500  0.30308222  1
  O  O37  1  0.75000000  0.23939295  0.76060705  1
