# generated using pymatgen
data_VZnSe2O7
_symmetry_space_group_name_H-M   'P 1'
_cell_length_a   7.57666241
_cell_length_b   7.61786181
_cell_length_c   12.79076125
_cell_angle_alpha   90.00000000
_cell_angle_beta   90.00000000
_cell_angle_gamma   117.44865639
_symmetry_Int_Tables_number   1
_chemical_formula_structural   VZnSe2O7
_chemical_formula_sum   'V4 Zn4 Se8 O28'
_cell_volume   655.14693781
_cell_formula_units_Z   4
loop_
 _symmetry_equiv_pos_site_id
 _symmetry_equiv_pos_as_xyz
  1  'x, y, z'
loop_
 _atom_site_type_symbol
 _atom_site_label
 _atom_site_symmetry_multiplicity
 _atom_site_fract_x
 _atom_site_fract_y
 _atom_site_fract_z
 _atom_site_occupancy
  V  V0  1  0.73993530  0.77702729  0.24555237  1
  V  V1  1  0.76006470  0.72297271  0.74555237  1
  V  V2  1  0.23993530  0.27702729  0.25444763  1
  V  V3  1  0.26006470  0.22297271  0.75444763  1
  Zn  Zn4  1  0.79699929  0.51290435  0.00774576  1
  Zn  Zn5  1  0.29699929  0.01290435  0.49225424  1
  Zn  Zn6  1  0.70300071  0.98709565  0.50774576  1
  Zn  Zn7  1  0.20300071  0.48709565  0.99225424  1
  Se  Se8  1  0.17733230  0.33904080  0.51171466  1
  Se  Se9  1  0.67733230  0.83904080  0.98828534  1
  Se  Se10  1  0.32266770  0.16095920  0.01171466  1
  Se  Se11  1  0.92820217  0.39172613  0.76950616  1
  Se  Se12  1  0.82266770  0.66095920  0.48828534  1
  Se  Se13  1  0.07179783  0.60827387  0.23049384  1
  Se  Se14  1  0.42820217  0.89172613  0.73049384  1
  Se  Se15  1  0.57179783  0.10827387  0.26950616  1
  O  O16  1  0.22925883  0.28736631  0.09540079  1
  O  O17  1  0.45744554  0.11937618  0.77163227  1
  O  O18  1  0.54802331  0.51448275  0.73089353  1
  O  O19  1  0.04255446  0.38062382  0.27163227  1
  O  O20  1  0.93152961  0.24791778  0.53684306  1
  O  O21  1  0.45197669  0.48551725  0.26910647  1
  O  O22  1  0.43152961  0.74791778  0.96315694  1
  O  O23  1  0.54424527  0.07689124  0.40656072  1
  O  O24  1  0.54255446  0.88062382  0.22836773  1
  O  O25  1  0.16319558  0.42721523  0.73665861  1
  O  O26  1  0.95197669  0.98551725  0.23089353  1
  O  O27  1  0.04424527  0.57689124  0.09343928  1
  O  O28  1  0.33680442  0.07278477  0.23665861  1
  O  O29  1  0.56847039  0.25208222  0.03684306  1
  O  O30  1  0.06847039  0.75208222  0.46315694  1
  O  O31  1  0.66319558  0.92721523  0.76334139  1
  O  O32  1  0.27074117  0.21263369  0.59540079  1
  O  O33  1  0.72925883  0.78736631  0.40459921  1
  O  O34  1  0.95744554  0.61937618  0.72836773  1
  O  O35  1  0.69018025  0.69343277  0.09207702  1
  O  O36  1  0.45575473  0.92310876  0.59343928  1
  O  O37  1  0.83680442  0.57278477  0.26334139  1
  O  O38  1  0.77074117  0.71263369  0.90459921  1
  O  O39  1  0.30981975  0.30656723  0.90792298  1
  O  O40  1  0.04802331  0.01448275  0.76910647  1
  O  O41  1  0.19018025  0.19343277  0.40792298  1
  O  O42  1  0.80981975  0.80656723  0.59207702  1
  O  O43  1  0.95575473  0.42310876  0.90656072  1
