# generated using pymatgen
data_Na2TiFe5(Si3O10)2
_symmetry_space_group_name_H-M   'P 1'
_cell_length_a   9.06055528
_cell_length_b   9.84188719
_cell_length_c   10.54993102
_cell_angle_alpha   64.97742142
_cell_angle_beta   83.20729984
_cell_angle_gamma   65.76261984
_symmetry_Int_Tables_number   1
_chemical_formula_structural   Na2TiFe5(Si3O10)2
_chemical_formula_sum   'Na4 Ti2 Fe10 Si12 O40'
_cell_volume   775.57935774
_cell_formula_units_Z   2
loop_
 _symmetry_equiv_pos_site_id
 _symmetry_equiv_pos_as_xyz
  1  'x, y, z'
loop_
 _atom_site_type_symbol
 _atom_site_label
 _atom_site_symmetry_multiplicity
 _atom_site_fract_x
 _atom_site_fract_y
 _atom_site_fract_z
 _atom_site_occupancy
  Na  Na0  1  0.37068050  0.38569377  0.95063293  1
  Na  Na1  1  0.62931950  0.61430623  0.04936707  1
  Na  Na2  1  0.61385087  0.63173482  0.57774073  1
  Na  Na3  1  0.38614913  0.36826518  0.42225927  1
  Ti  Ti4  1  0.74222355  0.74346085  0.25360959  1
  Ti  Ti5  1  0.25777645  0.25653915  0.74639041  1
  Fe  Fe6  1  0.17854664  0.14756720  0.53132495  1
  Fe  Fe7  1  0.15201631  0.18025710  0.05354880  1
  Fe  Fe8  1  0.05125512  0.06119999  0.84232783  1
  Fe  Fe9  1  0.82145336  0.85243280  0.46867505  1
  Fe  Fe10  1  0.93336280  0.94258351  0.65269549  1
  Fe  Fe11  1  0.50000000  0.00000000  0.00000000  1
  Fe  Fe12  1  0.84798369  0.81974290  0.94645120  1
  Fe  Fe13  1  0.06663720  0.05741649  0.34730451  1
  Fe  Fe14  1  0.94874488  0.93880001  0.15767217  1
  Fe  Fe15  1  0.00000000  0.50000000  0.50000000  1
  Si  Si16  1  0.77577282  0.33637477  0.94144477  1
  Si  Si17  1  0.94930663  0.55876832  0.79322983  1
  Si  Si18  1  0.44573332  0.05542640  0.29545790  1
  Si  Si19  1  0.05069337  0.44123168  0.20677017  1
  Si  Si20  1  0.34578530  0.76395714  0.24995007  1
  Si  Si21  1  0.24138897  0.65870169  0.55064991  1
  Si  Si22  1  0.32928635  0.76721518  0.75544397  1
  Si  Si23  1  0.55426668  0.94457360  0.70454210  1
  Si  Si24  1  0.75861103  0.34129831  0.44935009  1
  Si  Si25  1  0.22422718  0.66362523  0.05855523  1
  Si  Si26  1  0.65421470  0.23604286  0.75004993  1
  Si  Si27  1  0.67071365  0.23278482  0.24455603  1
  O  O28  1  0.12506268  0.39771149  0.85081954  1
  O  O29  1  0.36946532  0.67490635  0.42319360  1
  O  O30  1  0.82017676  0.06845221  0.79267151  1
  O  O31  1  0.29790447  0.04597163  0.39855832  1
  O  O32  1  0.26276209  0.07872393  0.90847976  1
  O  O33  1  0.17982324  0.93154779  0.20732849  1
  O  O34  1  0.73723791  0.92127607  0.09152024  1
  O  O35  1  0.49162624  0.80496928  0.70362456  1
  O  O36  1  0.60421559  0.87692450  0.35995997  1
  O  O37  1  0.88286690  0.60777355  0.63520605  1
  O  O38  1  0.92021420  0.73822473  0.33054128  1
  O  O39  1  0.06370413  0.83303232  0.00967788  1
  O  O40  1  0.93629587  0.16696768  0.99032212  1
  O  O41  1  0.64988998  0.33763708  0.07045511  1
  O  O42  1  0.32084190  0.63640046  0.19579826  1
  O  O43  1  0.81344698  0.49841370  0.90120418  1
  O  O44  1  0.16374064  0.93122969  0.71003330  1
  O  O45  1  0.92544616  0.17377071  0.49185929  1
  O  O46  1  0.87493732  0.60228851  0.14918046  1
  O  O47  1  0.39192273  0.12023663  0.12975192  1
  O  O48  1  0.63053468  0.32509365  0.57680640  1
  O  O49  1  0.39578441  0.12307550  0.64004003  1
  O  O50  1  0.70209553  0.95402837  0.60144168  1
  O  O51  1  0.18655302  0.50158630  0.09879582  1
  O  O52  1  0.48440571  0.22594612  0.81469030  1
  O  O53  1  0.35011002  0.66236292  0.92954489  1
  O  O54  1  0.07978580  0.26177527  0.66945872  1
  O  O55  1  0.77391936  0.51243941  0.41686661  1
  O  O56  1  0.22608064  0.48756059  0.58313339  1
  O  O57  1  0.83625936  0.06877031  0.28996670  1
  O  O58  1  0.07455384  0.82622929  0.50814071  1
  O  O59  1  0.50837376  0.19503072  0.29637544  1
  O  O60  1  0.33665130  0.64033684  0.68774820  1
  O  O61  1  0.11713310  0.39222645  0.36479395  1
  O  O62  1  0.60807727  0.87976337  0.87024808  1
  O  O63  1  0.04219475  0.28782467  0.18831263  1
  O  O64  1  0.95780525  0.71217533  0.81168737  1
  O  O65  1  0.67915810  0.36359954  0.80420174  1
  O  O66  1  0.51559429  0.77405388  0.18530970  1
  O  O67  1  0.66334870  0.35966316  0.31225180  1
