# generated using pymatgen
data_TlCu2P2O7
_symmetry_space_group_name_H-M   'P 1'
_cell_length_a   8.98774688
_cell_length_b   9.39046354
_cell_length_c   16.70623156
_cell_angle_alpha   90.00000000
_cell_angle_beta   90.00000000
_cell_angle_gamma   90.00000000
_symmetry_Int_Tables_number   1
_chemical_formula_structural   TlCu2P2O7
_chemical_formula_sum   'Tl8 Cu16 P16 O56'
_cell_volume   1409.99106482
_cell_formula_units_Z   8
loop_
 _symmetry_equiv_pos_site_id
 _symmetry_equiv_pos_as_xyz
  1  'x, y, z'
loop_
 _atom_site_type_symbol
 _atom_site_label
 _atom_site_symmetry_multiplicity
 _atom_site_fract_x
 _atom_site_fract_y
 _atom_site_fract_z
 _atom_site_occupancy
  Tl  Tl0  1  0.70789731  0.50147939  0.66748527  1
  Tl  Tl1  1  0.70789731  0.99852061  0.16748527  1
  Tl  Tl2  1  0.20789731  0.50147939  0.83251473  1
  Tl  Tl3  1  0.79210269  0.00147939  0.66748527  1
  Tl  Tl4  1  0.29210269  0.00147939  0.83251473  1
  Tl  Tl5  1  0.29210269  0.49852061  0.33251473  1
  Tl  Tl6  1  0.20789731  0.99852061  0.33251473  1
  Tl  Tl7  1  0.79210269  0.49852061  0.16748527  1
  Cu  Cu8  1  0.04646858  0.75857630  0.68243932  1
  Cu  Cu9  1  0.95353142  0.25857630  0.81756068  1
  Cu  Cu10  1  0.72178475  0.02109312  0.93325047  1
  Cu  Cu11  1  0.22178475  0.47890688  0.06674953  1
  Cu  Cu12  1  0.27821525  0.52109312  0.56674953  1
  Cu  Cu13  1  0.54646858  0.75857630  0.81756068  1
  Cu  Cu14  1  0.04646858  0.74142370  0.18243932  1
  Cu  Cu15  1  0.95353142  0.24142370  0.31756068  1
  Cu  Cu16  1  0.77821525  0.52109312  0.93325047  1
  Cu  Cu17  1  0.54646858  0.74142370  0.31756068  1
  Cu  Cu18  1  0.45353142  0.24142370  0.18243932  1
  Cu  Cu19  1  0.77821525  0.97890688  0.43325047  1
  Cu  Cu20  1  0.45353142  0.25857630  0.68243932  1
  Cu  Cu21  1  0.27821525  0.97890688  0.06674953  1
  Cu  Cu22  1  0.22178475  0.02109312  0.56674953  1
  Cu  Cu23  1  0.72178475  0.47890688  0.43325047  1
  P  P24  1  0.92526415  0.71078397  0.51769421  1
  P  P25  1  0.92410752  0.71484067  0.34973801  1
  P  P26  1  0.42410752  0.71484067  0.15026199  1
  P  P27  1  0.07589248  0.21484067  0.15026199  1
  P  P28  1  0.57473585  0.21078397  0.51769421  1
  P  P29  1  0.07473585  0.21078397  0.98230579  1
  P  P30  1  0.42526415  0.78921603  0.48230579  1
  P  P31  1  0.92526415  0.78921603  0.01769421  1
  P  P32  1  0.57473585  0.28921603  0.01769421  1
  P  P33  1  0.57589248  0.21484067  0.34973801  1
  P  P34  1  0.92410752  0.78515933  0.84973801  1
  P  P35  1  0.42410752  0.78515933  0.65026199  1
  P  P36  1  0.57589248  0.28515933  0.84973801  1
  P  P37  1  0.42526415  0.71078397  0.98230579  1
  P  P38  1  0.07473585  0.28921603  0.48230579  1
  P  P39  1  0.07589248  0.28515933  0.65026199  1
  O  O40  1  0.45523218  0.17988995  0.58120967  1
  O  O41  1  0.37879765  0.62751659  0.65341830  1
  O  O42  1  0.62725194  0.36636519  0.52049316  1
  O  O43  1  0.12120235  0.37248341  0.15341830  1
  O  O44  1  0.01228433  0.68753643  0.43322634  1
  O  O45  1  0.51228433  0.68753643  0.06677366  1
  O  O46  1  0.04476782  0.82011005  0.08120967  1
  O  O47  1  0.79879797  0.60089427  0.51968740  1
  O  O48  1  0.79879797  0.89910573  0.01968740  1
  O  O49  1  0.62725194  0.13363481  0.02049316  1
  O  O50  1  0.95390584  0.18046405  0.21241287  1
  O  O51  1  0.70828295  0.38849245  0.84671259  1
  O  O52  1  0.87274806  0.86636519  0.52049316  1
  O  O53  1  0.29879797  0.60089427  0.98031260  1
  O  O54  1  0.54609416  0.68046405  0.21241287  1
  O  O55  1  0.45523218  0.32011005  0.08120967  1
  O  O56  1  0.95390584  0.31953595  0.71241287  1
  O  O57  1  0.20120203  0.10089427  0.98031260  1
  O  O58  1  0.20120203  0.39910573  0.48031260  1
  O  O59  1  0.70828295  0.11150755  0.34671259  1
  O  O60  1  0.45390584  0.18046405  0.28758713  1
  O  O61  1  0.98771567  0.31246357  0.56677366  1
  O  O62  1  0.62120235  0.37248341  0.34658170  1
  O  O63  1  0.62120235  0.12751659  0.84658170  1
  O  O64  1  0.54476782  0.82011005  0.41879033  1
  O  O65  1  0.37274806  0.86636519  0.97950684  1
  O  O66  1  0.12725194  0.13363481  0.47950684  1
  O  O67  1  0.20828295  0.38849245  0.65328741  1
  O  O68  1  0.29171705  0.61150755  0.15328741  1
  O  O69  1  0.70120203  0.39910573  0.01968740  1
  O  O70  1  0.29171705  0.88849245  0.65328741  1
  O  O71  1  0.95523218  0.17988995  0.91879033  1
  O  O72  1  0.04609416  0.68046405  0.28758713  1
  O  O73  1  0.45390584  0.31953595  0.78758713  1
  O  O74  1  0.79171705  0.61150755  0.34671259  1
  O  O75  1  0.04609416  0.81953595  0.78758713  1
  O  O76  1  0.87274806  0.63363481  0.02049316  1
  O  O77  1  0.54476782  0.67988995  0.91879033  1
  O  O78  1  0.87879765  0.62751659  0.84658170  1
  O  O79  1  0.48771567  0.18753643  0.43322634  1
  O  O80  1  0.70120203  0.10089427  0.51968740  1
  O  O81  1  0.98771567  0.18753643  0.06677366  1
  O  O82  1  0.54609416  0.81953595  0.71241287  1
  O  O83  1  0.12725194  0.36636519  0.97950684  1
  O  O84  1  0.20828295  0.11150755  0.15328741  1
  O  O85  1  0.37879765  0.87248341  0.15341830  1
  O  O86  1  0.95523218  0.32011005  0.41879033  1
  O  O87  1  0.12120235  0.12751659  0.65341830  1
  O  O88  1  0.51228433  0.81246357  0.56677366  1
  O  O89  1  0.29879797  0.89910573  0.48031260  1
  O  O90  1  0.01228433  0.81246357  0.93322634  1
  O  O91  1  0.79171705  0.88849245  0.84671259  1
  O  O92  1  0.87879765  0.87248341  0.34658170  1
  O  O93  1  0.48771567  0.31246357  0.93322634  1
  O  O94  1  0.04476782  0.67988995  0.58120967  1
  O  O95  1  0.37274806  0.63363481  0.47950684  1
