# generated using pymatgen
data_Cr2PBrO4
_symmetry_space_group_name_H-M   'P 1'
_cell_length_a   6.33274009
_cell_length_b   6.50605380
_cell_length_c   11.86138300
_cell_angle_alpha   90.00000000
_cell_angle_beta   90.00000000
_cell_angle_gamma   90.73707011
_symmetry_Int_Tables_number   1
_chemical_formula_structural   Cr2PBrO4
_chemical_formula_sum   'Cr8 P4 Br4 O16'
_cell_volume   488.66215587
_cell_formula_units_Z   4
loop_
 _symmetry_equiv_pos_site_id
 _symmetry_equiv_pos_as_xyz
  1  'x, y, z'
loop_
 _atom_site_type_symbol
 _atom_site_label
 _atom_site_symmetry_multiplicity
 _atom_site_fract_x
 _atom_site_fract_y
 _atom_site_fract_z
 _atom_site_occupancy
  Cr  Cr0  1  0.00604232  0.14234955  0.11345633  1
  Cr  Cr1  1  0.99395768  0.85765045  0.88654367  1
  Cr  Cr2  1  0.15229322  0.53284417  0.39463730  1
  Cr  Cr3  1  0.50604232  0.14234955  0.38654367  1
  Cr  Cr4  1  0.34770678  0.46715583  0.89463730  1
  Cr  Cr5  1  0.65229322  0.53284417  0.10536270  1
  Cr  Cr6  1  0.49395768  0.85765045  0.61345633  1
  Cr  Cr7  1  0.84770678  0.46715583  0.60536270  1
  P  P8  1  0.13433949  0.64252410  0.12692898  1
  P  P9  1  0.36566051  0.35747590  0.62692898  1
  P  P10  1  0.63433949  0.64252410  0.37307102  1
  P  P11  1  0.86566051  0.35747590  0.87307102  1
  Br  Br12  1  0.98996183  0.87170033  0.66628289  1
  Br  Br13  1  0.48996183  0.87170033  0.83371711  1
  Br  Br14  1  0.51003817  0.12829967  0.16628289  1
  Br  Br15  1  0.01003817  0.12829967  0.33371711  1
  O  O16  1  0.31795691  0.30969925  0.74878769  1
  O  O17  1  0.16235377  0.41798484  0.56051243  1
  O  O18  1  0.81795691  0.30969925  0.75121231  1
  O  O19  1  0.53270643  0.83298990  0.43437116  1
  O  O20  1  0.46729357  0.16701010  0.56562884  1
  O  O21  1  0.18204309  0.69030075  0.24878769  1
  O  O22  1  0.83764623  0.58201516  0.43948757  1
  O  O23  1  0.47071680  0.45910093  0.38320773  1
  O  O24  1  0.96729357  0.16701010  0.93437116  1
  O  O25  1  0.97071680  0.45910093  0.11679227  1
  O  O26  1  0.66235377  0.41798484  0.93948757  1
  O  O27  1  0.52928320  0.54089907  0.61679227  1
  O  O28  1  0.33764623  0.58201516  0.06051243  1
  O  O29  1  0.68204309  0.69030075  0.25121231  1
  O  O30  1  0.03270643  0.83298990  0.06562884  1
  O  O31  1  0.02928320  0.54089907  0.88320773  1
