# generated using pymatgen
data_K4Mn(MoO4)3
_symmetry_space_group_name_H-M   'P 1'
_cell_length_a   7.97391582
_cell_length_b   10.12784047
_cell_length_c   10.32354566
_cell_angle_alpha   92.82842594
_cell_angle_beta   106.86753088
_cell_angle_gamma   106.31581992
_symmetry_Int_Tables_number   1
_chemical_formula_structural   K4Mn(MoO4)3
_chemical_formula_sum   'K8 Mn2 Mo6 O24'
_cell_volume   757.90332375
_cell_formula_units_Z   2
loop_
 _symmetry_equiv_pos_site_id
 _symmetry_equiv_pos_as_xyz
  1  'x, y, z'
loop_
 _atom_site_type_symbol
 _atom_site_label
 _atom_site_symmetry_multiplicity
 _atom_site_fract_x
 _atom_site_fract_y
 _atom_site_fract_z
 _atom_site_occupancy
  K  K0  1  0.77332197  0.23632393  0.27356768  1
  K  K1  1  0.25149350  0.47567080  0.02176539  1
  K  K2  1  0.65034524  0.56879773  0.38666558  1
  K  K3  1  0.74850650  0.52432920  0.97823461  1
  K  K4  1  0.50000000  0.00000000  0.50000000  1
  K  K5  1  0.22667803  0.76367607  0.72643232  1
  K  K6  1  0.00000000  0.00000000  0.50000000  1
  K  K7  1  0.34965476  0.43120227  0.61333442  1
  Mn  Mn8  1  0.16310449  0.87902730  0.05323653  1
  Mn  Mn9  1  0.83689551  0.12097270  0.94676347  1
  Mo  Mo10  1  0.61914774  0.84630784  0.11534634  1
  Mo  Mo11  1  0.12385126  0.64418915  0.31787380  1
  Mo  Mo12  1  0.76155365  0.80684632  0.75175351  1
  Mo  Mo13  1  0.38085226  0.15369216  0.88465366  1
  Mo  Mo14  1  0.23844635  0.19315368  0.24824649  1
  Mo  Mo15  1  0.87614874  0.35581085  0.68212620  1
  O  O16  1  0.60806159  0.15640786  0.99168871  1
  O  O17  1  0.55528136  0.68636265  0.76155021  1
  O  O18  1  0.30953557  0.57394997  0.37492170  1
  O  O19  1  0.88637187  0.30474072  0.85153340  1
  O  O20  1  0.44471864  0.31363735  0.23844979  1
  O  O21  1  0.39193841  0.84359214  0.00831129  1
  O  O22  1  0.96103833  0.77476020  0.87007711  1
  O  O23  1  0.15590635  0.78697428  0.44312404  1
  O  O24  1  0.69046443  0.42605003  0.62507830  1
  O  O25  1  0.91195914  0.51081788  0.29684279  1
  O  O26  1  0.79446684  0.92372468  0.03855981  1
  O  O27  1  0.11362813  0.69525928  0.14846660  1
  O  O28  1  0.84409365  0.21302572  0.55687596  1
  O  O29  1  0.61081583  0.66982786  0.13286005  1
  O  O30  1  0.03896167  0.22523980  0.12992289  1
  O  O31  1  0.74712242  0.98278807  0.76642139  1
  O  O32  1  0.20553316  0.07627532  0.96144019  1
  O  O33  1  0.25287758  0.01721193  0.23357861  1
  O  O34  1  0.08804086  0.48918212  0.70315721  1
  O  O35  1  0.32378464  0.05683123  0.71971919  1
  O  O36  1  0.21942063  0.21886475  0.41439373  1
  O  O37  1  0.38918417  0.33017214  0.86713995  1
  O  O38  1  0.78057937  0.78113525  0.58560627  1
  O  O39  1  0.67621536  0.94316877  0.28028081  1
