# generated using pymatgen
data_BaFe2P2O7F2
_symmetry_space_group_name_H-M   'P 1'
_cell_length_a   4.66892638
_cell_length_b   6.93007987
_cell_length_c   12.04696225
_cell_angle_alpha   90.00000000
_cell_angle_beta   90.00000000
_cell_angle_gamma   90.00000000
_symmetry_Int_Tables_number   1
_chemical_formula_structural   BaFe2P2O7F2
_chemical_formula_sum   'Ba2 Fe4 P4 O14 F4'
_cell_volume   389.79190474
_cell_formula_units_Z   2
loop_
 _symmetry_equiv_pos_site_id
 _symmetry_equiv_pos_as_xyz
  1  'x, y, z'
loop_
 _atom_site_type_symbol
 _atom_site_label
 _atom_site_symmetry_multiplicity
 _atom_site_fract_x
 _atom_site_fract_y
 _atom_site_fract_z
 _atom_site_occupancy
  Ba  Ba0  1  0.39203258  0.25000000  0.75000000  1
  Ba  Ba1  1  0.60796742  0.75000000  0.25000000  1
  Fe  Fe2  1  0.00000000  0.00000000  0.50000000  1
  Fe  Fe3  1  0.00000000  0.50000000  0.50000000  1
  Fe  Fe4  1  0.00000000  0.50000000  0.00000000  1
  Fe  Fe5  1  0.00000000  0.00000000  0.00000000  1
  P  P6  1  0.51323459  0.25000000  0.37393624  1
  P  P7  1  0.48676541  0.75000000  0.87393624  1
  P  P8  1  0.48676541  0.75000000  0.62606376  1
  P  P9  1  0.51323459  0.25000000  0.12606376  1
  O  O10  1  0.74948331  0.75000000  0.94987113  1
  O  O11  1  0.30981629  0.93483262  0.88387655  1
  O  O12  1  0.69018371  0.06516738  0.38387655  1
  O  O13  1  0.30981629  0.56516738  0.61612345  1
  O  O14  1  0.69018371  0.06516738  0.11612345  1
  O  O15  1  0.25051669  0.25000000  0.05012887  1
  O  O16  1  0.69018371  0.43483262  0.38387655  1
  O  O17  1  0.69018371  0.43483262  0.11612345  1
  O  O18  1  0.25051669  0.25000000  0.44987113  1
  O  O19  1  0.30981629  0.56516738  0.88387655  1
  O  O20  1  0.30981629  0.93483262  0.61612345  1
  O  O21  1  0.62590762  0.75000000  0.75000000  1
  O  O22  1  0.37409238  0.25000000  0.25000000  1
  O  O23  1  0.74948331  0.75000000  0.55012887  1
  F  F24  1  0.12836779  0.75000000  0.38605252  1
  F  F25  1  0.12836779  0.75000000  0.11394748  1
  F  F26  1  0.87163221  0.25000000  0.61394748  1
  F  F27  1  0.87163221  0.25000000  0.88605252  1
