# generated using pymatgen
data_LaSbMo2O9
_symmetry_space_group_name_H-M   'P 1'
_cell_length_a   10.00851742
_cell_length_b   10.00851747
_cell_length_c   11.14819796
_cell_angle_alpha   111.50530941
_cell_angle_beta   111.50530951
_cell_angle_gamma   96.18990740
_symmetry_Int_Tables_number   1
_chemical_formula_structural   LaSbMo2O9
_chemical_formula_sum   'La4 Sb4 Mo8 O36'
_cell_volume   928.03438460
_cell_formula_units_Z   4
loop_
 _symmetry_equiv_pos_site_id
 _symmetry_equiv_pos_as_xyz
  1  'x, y, z'
loop_
 _atom_site_type_symbol
 _atom_site_label
 _atom_site_symmetry_multiplicity
 _atom_site_fract_x
 _atom_site_fract_y
 _atom_site_fract_z
 _atom_site_occupancy
  La  La0  1  0.87632956  0.12367044  0.75000000  1
  La  La1  1  0.12367044  0.87632956  0.25000000  1
  La  La2  1  0.67666042  0.32333958  0.25000000  1
  La  La3  1  0.32333958  0.67666042  0.75000000  1
  Sb  Sb4  1  0.35561244  0.37719331  0.96147031  1
  Sb  Sb5  1  0.64438756  0.62280669  0.03852969  1
  Sb  Sb6  1  0.62280669  0.64438756  0.53852969  1
  Sb  Sb7  1  0.37719331  0.35561244  0.46147031  1
  Mo  Mo8  1  0.56476188  0.93683853  0.30393833  1
  Mo  Mo9  1  0.25940096  0.04994030  0.02680399  1
  Mo  Mo10  1  0.95005970  0.74059904  0.47319601  1
  Mo  Mo11  1  0.43523812  0.06316147  0.69606167  1
  Mo  Mo12  1  0.04994030  0.25940096  0.52680399  1
  Mo  Mo13  1  0.06316147  0.43523812  0.19606167  1
  Mo  Mo14  1  0.74059904  0.95005970  0.97319601  1
  Mo  Mo15  1  0.93683853  0.56476188  0.80393833  1
  O  O16  1  0.78254742  0.59731915  0.42591585  1
  O  O17  1  0.70335711  0.12165471  0.05939301  1
  O  O18  1  0.78402512  0.62252293  0.69746956  1
  O  O19  1  0.61653910  0.13894898  0.72071150  1
  O  O20  1  0.21745258  0.40268085  0.57408415  1
  O  O21  1  0.93806441  0.90362476  0.59844832  1
  O  O22  1  0.40268085  0.21745258  0.07408415  1
  O  O23  1  0.13894898  0.61653910  0.22071150  1
  O  O24  1  0.59731915  0.78254742  0.92591585  1
  O  O25  1  0.29664289  0.87834529  0.94060699  1
  O  O26  1  0.38346090  0.86105102  0.27928850  1
  O  O27  1  0.45947041  0.57534561  0.59688252  1
  O  O28  1  0.22909278  0.05361789  0.17713034  1
  O  O29  1  0.30743343  0.98918081  0.51208868  1
  O  O30  1  0.37747707  0.21597488  0.80253044  1
  O  O31  1  0.69256657  0.01081919  0.48791132  1
  O  O32  1  0.54052959  0.42465439  0.40311748  1
  O  O33  1  0.91573423  0.43947996  0.24966656  1
  O  O34  1  0.43947996  0.91573423  0.74966656  1
  O  O35  1  0.21597488  0.37747707  0.30253044  1
  O  O36  1  0.06193559  0.09637524  0.40155168  1
  O  O37  1  0.01081919  0.69256657  0.98791132  1
  O  O38  1  0.12165471  0.70335711  0.55939301  1
  O  O39  1  0.77090722  0.94638211  0.82286966  1
  O  O40  1  0.56052004  0.08426577  0.25033344  1
  O  O41  1  0.62252293  0.78402512  0.19746956  1
  O  O42  1  0.86105102  0.38346090  0.77928850  1
  O  O43  1  0.90362476  0.93806441  0.09844832  1
  O  O44  1  0.94638211  0.77090722  0.32286966  1
  O  O45  1  0.42465439  0.54052959  0.90311748  1
  O  O46  1  0.57534561  0.45947041  0.09688252  1
  O  O47  1  0.08426577  0.56052004  0.75033344  1
  O  O48  1  0.09637524  0.06193559  0.90155168  1
  O  O49  1  0.05361789  0.22909278  0.67713034  1
  O  O50  1  0.98918081  0.30743343  0.01208868  1
  O  O51  1  0.87834529  0.29664289  0.44060699  1
