# generated using pymatgen
data_Mg5Ti
_symmetry_space_group_name_H-M   'P 1'
_cell_length_a   3.09608584
_cell_length_b   3.09608640
_cell_length_c   15.43491576
_cell_angle_alpha   90.00000000
_cell_angle_beta   90.00000000
_cell_angle_gamma   120.00000572
_symmetry_Int_Tables_number   1
_chemical_formula_structural   Mg5Ti
_chemical_formula_sum   'Mg5 Ti1'
_cell_volume   128.13298246
_cell_formula_units_Z   1
loop_
 _symmetry_equiv_pos_site_id
 _symmetry_equiv_pos_as_xyz
  1  'x, y, z'
loop_
 _atom_site_type_symbol
 _atom_site_label
 _atom_site_symmetry_multiplicity
 _atom_site_fract_x
 _atom_site_fract_y
 _atom_site_fract_z
 _atom_site_occupancy
  Mg  Mg0  1  0.66666700  0.33333300  0.83711578  1
  Mg  Mg1  1  -0.00000000  -0.00000000  0.66704221  1
  Mg  Mg2  1  0.66666700  0.33333300  0.50000000  1
  Mg  Mg3  1  -0.00000000  -0.00000000  0.33295779  1
  Mg  Mg4  1  0.66666700  0.33333300  0.16288422  1
  Ti  Ti5  1  -0.00000000  -0.00000000  0.00000000  1
