# generated using pymatgen
data_CrP2Pb5O13
_symmetry_space_group_name_H-M   'P 1'
_cell_length_a   9.62105819
_cell_length_b   10.49379657
_cell_length_c   13.71209518
_cell_angle_alpha   90.00000000
_cell_angle_beta   90.00000000
_cell_angle_gamma   90.00000000
_symmetry_Int_Tables_number   1
_chemical_formula_structural   CrP2Pb5O13
_chemical_formula_sum   'Cr4 P8 Pb20 O52'
_cell_volume   1384.39270248
_cell_formula_units_Z   4
loop_
 _symmetry_equiv_pos_site_id
 _symmetry_equiv_pos_as_xyz
  1  'x, y, z'
loop_
 _atom_site_type_symbol
 _atom_site_label
 _atom_site_symmetry_multiplicity
 _atom_site_fract_x
 _atom_site_fract_y
 _atom_site_fract_z
 _atom_site_occupancy
  Cr  Cr0  1  0.57054656  0.75000000  0.99917260  1
  Cr  Cr1  1  0.07054656  0.25000000  0.50082740  1
  Cr  Cr2  1  0.42945344  0.25000000  0.00082740  1
  Cr  Cr3  1  0.92945344  0.75000000  0.49917260  1
  P  P4  1  0.43035459  0.96673194  0.66000373  1
  P  P5  1  0.43035459  0.53326806  0.66000373  1
  P  P6  1  0.06964541  0.96673194  0.16000373  1
  P  P7  1  0.06964541  0.53326806  0.16000373  1
  P  P8  1  0.56964541  0.03326806  0.33999627  1
  P  P9  1  0.93035459  0.46673194  0.83999627  1
  P  P10  1  0.56964541  0.46673194  0.33999627  1
  P  P11  1  0.93035459  0.03326806  0.83999627  1
  Pb  Pb12  1  0.21337274  0.94334464  0.42415931  1
  Pb  Pb13  1  0.29617525  0.25000000  0.23567307  1
  Pb  Pb14  1  0.65774416  0.25000000  0.77937569  1
  Pb  Pb15  1  0.34225584  0.75000000  0.22062431  1
  Pb  Pb16  1  0.15774416  0.75000000  0.72062431  1
  Pb  Pb17  1  0.79617525  0.75000000  0.26432693  1
  Pb  Pb18  1  0.71337274  0.05665536  0.07584069  1
  Pb  Pb19  1  0.21337274  0.55665536  0.42415931  1
  Pb  Pb20  1  0.97121671  0.75000000  0.97633254  1
  Pb  Pb21  1  0.20382475  0.25000000  0.73567307  1
  Pb  Pb22  1  0.02878329  0.25000000  0.02366746  1
  Pb  Pb23  1  0.47121671  0.25000000  0.52366746  1
  Pb  Pb24  1  0.28662726  0.94334464  0.92415931  1
  Pb  Pb25  1  0.71337274  0.44334464  0.07584069  1
  Pb  Pb26  1  0.78662726  0.05665536  0.57584069  1
  Pb  Pb27  1  0.28662726  0.55665536  0.92415931  1
  Pb  Pb28  1  0.84225584  0.25000000  0.27937569  1
  Pb  Pb29  1  0.70382475  0.75000000  0.76432693  1
  Pb  Pb30  1  0.52878329  0.75000000  0.47633254  1
  Pb  Pb31  1  0.78662726  0.44334464  0.57584069  1
  O  O32  1  0.67510167  0.25000000  0.61258420  1
  O  O33  1  0.59239121  0.61293236  0.32863824  1
  O  O34  1  0.09239121  0.38706764  0.17136176  1
  O  O35  1  0.15460453  0.25000000  0.39377997  1
  O  O36  1  0.34769068  0.60492537  0.74111930  1
  O  O37  1  0.88018491  0.41914781  0.94215853  1
  O  O38  1  0.84769068  0.10492537  0.75888070  1
  O  O39  1  0.10718434  0.12150123  0.56684839  1
  O  O40  1  0.58943512  0.56259970  0.66853247  1
  O  O41  1  0.08943512  0.43740030  0.83146753  1
  O  O42  1  0.59239121  0.88706764  0.32863824  1
  O  O43  1  0.61981509  0.08085219  0.44215853  1
  O  O44  1  0.38018491  0.58085219  0.55784147  1
  O  O45  1  0.08943512  0.06259970  0.83146753  1
  O  O46  1  0.34539547  0.25000000  0.89377997  1
  O  O47  1  0.38018491  0.91914781  0.55784147  1
  O  O48  1  0.90760879  0.88706764  0.82863824  1
  O  O49  1  0.60152328  0.25000000  0.97944317  1
  O  O50  1  0.89847672  0.25000000  0.47944317  1
  O  O51  1  0.10152328  0.75000000  0.52055683  1
  O  O52  1  0.89281566  0.87849877  0.43315161  1
  O  O53  1  0.34769068  0.89507463  0.74111930  1
  O  O54  1  0.11981509  0.58085219  0.05784147  1
  O  O55  1  0.84539547  0.75000000  0.60622003  1
  O  O56  1  0.40760879  0.11293236  0.67136176  1
  O  O57  1  0.17510167  0.75000000  0.88741580  1
  O  O58  1  0.11981509  0.91914781  0.05784147  1
  O  O59  1  0.91056488  0.93740030  0.16853247  1
  O  O60  1  0.09239121  0.11293236  0.17136176  1
  O  O61  1  0.32489833  0.75000000  0.38741580  1
  O  O62  1  0.39281566  0.12150123  0.06684839  1
  O  O63  1  0.15230932  0.89507463  0.24111930  1
  O  O64  1  0.41056488  0.43740030  0.33146753  1
  O  O65  1  0.15230932  0.60492537  0.24111930  1
  O  O66  1  0.61981509  0.41914781  0.44215853  1
  O  O67  1  0.82489833  0.25000000  0.11258420  1
  O  O68  1  0.65230932  0.39507463  0.25888070  1
  O  O69  1  0.10718434  0.37849877  0.56684839  1
  O  O70  1  0.88018491  0.08085219  0.94215853  1
  O  O71  1  0.39281566  0.37849877  0.06684839  1
  O  O72  1  0.41056488  0.06259970  0.33146753  1
  O  O73  1  0.91056488  0.56259970  0.16853247  1
  O  O74  1  0.65460453  0.75000000  0.10622003  1
  O  O75  1  0.90760879  0.61293236  0.82863824  1
  O  O76  1  0.84769068  0.39507463  0.75888070  1
  O  O77  1  0.40760879  0.38706764  0.67136176  1
  O  O78  1  0.58943512  0.93740030  0.66853247  1
  O  O79  1  0.60718434  0.62150123  0.93315161  1
  O  O80  1  0.65230932  0.10492537  0.25888070  1
  O  O81  1  0.60718434  0.87849877  0.93315161  1
  O  O82  1  0.89281566  0.62150123  0.43315161  1
  O  O83  1  0.39847672  0.75000000  0.02055683  1
