# generated using pymatgen
data_K2BiMoPO8
_symmetry_space_group_name_H-M   'P 1'
_cell_length_a   7.14914597
_cell_length_b   12.35450810
_cell_length_c   12.35450868
_cell_angle_alpha   61.24460460
_cell_angle_beta   73.18193983
_cell_angle_gamma   73.18194232
_symmetry_Int_Tables_number   1
_chemical_formula_structural   K2BiMoPO8
_chemical_formula_sum   'K8 Bi4 Mo4 P4 O32'
_cell_volume   900.94381190
_cell_formula_units_Z   4
loop_
 _symmetry_equiv_pos_site_id
 _symmetry_equiv_pos_as_xyz
  1  'x, y, z'
loop_
 _atom_site_type_symbol
 _atom_site_label
 _atom_site_symmetry_multiplicity
 _atom_site_fract_x
 _atom_site_fract_y
 _atom_site_fract_z
 _atom_site_occupancy
  K  K0  1  0.12281133  0.76524818  0.42361824  1
  K  K1  1  0.62281133  0.92361824  0.26524818  1
  K  K2  1  0.81167776  0.57638176  0.23475182  1
  K  K3  1  0.87718867  0.23475182  0.57638176  1
  K  K4  1  0.18832224  0.42361824  0.76524818  1
  K  K5  1  0.31167776  0.73475182  0.07638176  1
  K  K6  1  0.37718867  0.07638176  0.73475182  1
  K  K7  1  0.68832224  0.26524818  0.92361824  1
  Bi  Bi8  1  0.25000000  0.32966337  0.17033663  1
  Bi  Bi9  1  0.75000000  0.17033663  0.32966337  1
  Bi  Bi10  1  0.75000000  0.67033663  0.82966337  1
  Bi  Bi11  1  0.25000000  0.82966337  0.67033663  1
  Mo  Mo12  1  0.16792232  0.08207768  0.08207768  1
  Mo  Mo13  1  0.33207768  0.41792232  0.41792232  1
  Mo  Mo14  1  0.83207768  0.91792232  0.91792232  1
  Mo  Mo15  1  0.66792232  0.58207768  0.58207768  1
  P  P16  1  0.75000000  0.42705100  0.07294900  1
  P  P17  1  0.25000000  0.57294900  0.92705100  1
  P  P18  1  0.75000000  0.92705100  0.57294900  1
  P  P19  1  0.25000000  0.07294900  0.42705100  1
  O  O20  1  0.59318966  0.33791736  0.13961664  1
  O  O21  1  0.58607108  0.33421691  0.39995213  1
  O  O22  1  0.09318966  0.63961664  0.83791736  1
  O  O23  1  0.40681034  0.66208264  0.86038336  1
  O  O24  1  0.28500148  0.93822002  0.43861840  1
  O  O25  1  0.90681034  0.36038336  0.16208264  1
  O  O26  1  0.57072366  0.86038336  0.66208264  1
  O  O27  1  0.78500148  0.93861840  0.43822002  1
  O  O28  1  0.17975988  0.39995213  0.33421691  1
  O  O29  1  0.27800519  0.91976870  0.14378765  1
  O  O30  1  0.22199481  0.35621235  0.58023130  1
  O  O31  1  0.77800519  0.64378765  0.41976870  1
  O  O32  1  0.32024012  0.16578309  0.10004787  1
  O  O33  1  0.07072366  0.16208264  0.36038336  1
  O  O34  1  0.84156253  0.85621235  0.08023130  1
  O  O35  1  0.33816110  0.43822002  0.93861840  1
  O  O36  1  0.66183890  0.56177998  0.06138160  1
  O  O37  1  0.34156253  0.58023130  0.35621235  1
  O  O38  1  0.82024012  0.60004787  0.66578309  1
  O  O39  1  0.08607108  0.89995213  0.83421691  1
  O  O40  1  0.21499852  0.06138160  0.56177998  1
  O  O41  1  0.72199481  0.08023130  0.85621235  1
  O  O42  1  0.91392892  0.10004787  0.16578309  1
  O  O43  1  0.71499852  0.06177998  0.56138160  1
  O  O44  1  0.67975988  0.83421691  0.89995213  1
  O  O45  1  0.15843747  0.14378765  0.91976870  1
  O  O46  1  0.16183890  0.56138160  0.06177998  1
  O  O47  1  0.65843747  0.41976870  0.64378765  1
  O  O48  1  0.41392892  0.66578309  0.60004787  1
  O  O49  1  0.42927634  0.13961664  0.33791736  1
  O  O50  1  0.83816110  0.43861840  0.93822002  1
  O  O51  1  0.92927634  0.83791736  0.63961664  1
