# generated using pymatgen
data_CsMn(PO3)4
_symmetry_space_group_name_H-M   'P 1'
_cell_length_a   5.33326477
_cell_length_b   7.55547461
_cell_length_c   13.84409005
_cell_angle_alpha   90.00000000
_cell_angle_beta   90.00000000
_cell_angle_gamma   102.24374841
_symmetry_Int_Tables_number   1
_chemical_formula_structural   CsMn(PO3)4
_chemical_formula_sum   'Cs2 Mn2 P8 O24'
_cell_volume   545.16363603
_cell_formula_units_Z   2
loop_
 _symmetry_equiv_pos_site_id
 _symmetry_equiv_pos_as_xyz
  1  'x, y, z'
loop_
 _atom_site_type_symbol
 _atom_site_label
 _atom_site_symmetry_multiplicity
 _atom_site_fract_x
 _atom_site_fract_y
 _atom_site_fract_z
 _atom_site_occupancy
  Cs  Cs0  1  0.61603760  0.83389286  0.00118874  1
  Cs  Cs1  1  0.38396240  0.16610714  0.50118874  1
  Mn  Mn2  1  0.49808673  0.48640633  0.23523542  1
  Mn  Mn3  1  0.50191327  0.51359367  0.73523542  1
  P  P4  1  0.00342080  0.44529808  0.87542073  1
  P  P5  1  0.21046163  0.13685118  0.81948304  1
  P  P6  1  0.99657920  0.55470192  0.37542073  1
  P  P7  1  0.13797820  0.09717322  0.17846223  1
  P  P8  1  0.00011081  0.42695796  0.09511157  1
  P  P9  1  0.99988919  0.57304204  0.59511157  1
  P  P10  1  0.86202180  0.90282678  0.67846223  1
  P  P11  1  0.78953837  0.86314882  0.31948304  1
  O  O12  1  0.22019628  0.53287820  0.15497424  1
  O  O13  1  0.74519100  0.47623721  0.10464075  1
  O  O14  1  0.02557518  0.78636261  0.61297552  1
  O  O15  1  0.10335235  0.45641234  0.98584085  1
  O  O16  1  0.75307516  0.50201299  0.86683058  1
  O  O17  1  0.97303270  0.23556797  0.84855174  1
  O  O18  1  0.97442482  0.21363739  0.11297552  1
  O  O19  1  0.82950900  0.06351100  0.62349620  1
  O  O20  1  0.17049100  0.93648900  0.12349620  1
  O  O21  1  0.63685113  0.74648053  0.23983461  1
  O  O22  1  0.24692484  0.49798701  0.36683058  1
  O  O23  1  0.25480900  0.52376279  0.60464075  1
  O  O24  1  0.77980372  0.46712180  0.65497424  1
  O  O25  1  0.89664765  0.54358766  0.48584085  1
  O  O26  1  0.94540214  0.04572912  0.26990712  1
  O  O27  1  0.34011719  0.08920069  0.90667123  1
  O  O28  1  0.62819637  0.77373577  0.72035683  1
  O  O29  1  0.05459786  0.95427088  0.76990712  1
  O  O30  1  0.65988281  0.91079931  0.40667123  1
  O  O31  1  0.22993137  0.55886880  0.82077960  1
  O  O32  1  0.77006863  0.44113120  0.32077960  1
  O  O33  1  0.02696730  0.76443203  0.34855174  1
  O  O34  1  0.36314887  0.25351947  0.73983461  1
  O  O35  1  0.37180363  0.22626423  0.22035683  1
