# generated using pymatgen
data_NiBiPO5
_symmetry_space_group_name_H-M   'P 1'
_cell_length_a   5.24684092
_cell_length_b   7.30169416
_cell_length_c   11.30940123
_cell_angle_alpha   90.00000000
_cell_angle_beta   90.00000000
_cell_angle_gamma   107.44808104
_symmetry_Int_Tables_number   1
_chemical_formula_structural   NiBiPO5
_chemical_formula_sum   'Ni4 Bi4 P4 O20'
_cell_volume   413.33723975
_cell_formula_units_Z   4
loop_
 _symmetry_equiv_pos_site_id
 _symmetry_equiv_pos_as_xyz
  1  'x, y, z'
loop_
 _atom_site_type_symbol
 _atom_site_label
 _atom_site_symmetry_multiplicity
 _atom_site_fract_x
 _atom_site_fract_y
 _atom_site_fract_z
 _atom_site_occupancy
  Ni  Ni0  1  0.13052390  0.68520557  0.57892647  1
  Ni  Ni1  1  0.36947610  0.81479443  0.07892647  1
  Ni  Ni2  1  0.86947610  0.31479443  0.42107353  1
  Ni  Ni3  1  0.63052390  0.18520557  0.92107353  1
  Bi  Bi4  1  0.11432552  0.18944396  0.10139637  1
  Bi  Bi5  1  0.38567448  0.31055604  0.60139637  1
  Bi  Bi6  1  0.88567448  0.81055604  0.89860363  1
  Bi  Bi7  1  0.61432552  0.68944396  0.39860363  1
  P  P8  1  0.28284375  0.47596040  0.84810304  1
  P  P9  1  0.78284375  0.97596040  0.65189696  1
  P  P10  1  0.71715625  0.52403960  0.15189696  1
  P  P11  1  0.21715625  0.02403960  0.34810304  1
  O  O12  1  0.24273958  0.48488685  0.47483354  1
  O  O13  1  0.19045593  0.51251531  0.72172982  1
  O  O14  1  0.48750254  0.61538936  0.17282883  1
  O  O15  1  0.98750254  0.11538936  0.32717117  1
  O  O16  1  0.30954407  0.98748469  0.22172982  1
  O  O17  1  0.80954407  0.48748469  0.27827018  1
  O  O18  1  0.45212330  0.16088919  0.41844611  1
  O  O19  1  0.25726042  0.01511315  0.97483354  1
  O  O20  1  0.51249746  0.38461064  0.82717117  1
  O  O21  1  0.39259540  0.66727549  0.91734236  1
  O  O22  1  0.10740460  0.83272451  0.41734236  1
  O  O23  1  0.95212330  0.66088919  0.08155389  1
  O  O24  1  0.75726042  0.51511315  0.52516646  1
  O  O25  1  0.74273958  0.98488685  0.02516646  1
  O  O26  1  0.54787670  0.83911081  0.58155389  1
  O  O27  1  0.89259540  0.16727549  0.58265764  1
  O  O28  1  0.60740460  0.33272451  0.08265764  1
  O  O29  1  0.69045593  0.01251531  0.77827018  1
  O  O30  1  0.01249746  0.88461064  0.67282883  1
  O  O31  1  0.04787670  0.33911081  0.91844611  1
