# generated using pymatgen
data_KVOF4
_symmetry_space_group_name_H-M   'P 1'
_cell_length_a   5.64153388
_cell_length_b   5.68503914
_cell_length_c   14.00243046
_cell_angle_alpha   90.00000000
_cell_angle_beta   90.00000000
_cell_angle_gamma   95.84609647
_symmetry_Int_Tables_number   1
_chemical_formula_structural   KVOF4
_chemical_formula_sum   'K4 V4 O4 F16'
_cell_volume   446.75504019
_cell_formula_units_Z   4
loop_
 _symmetry_equiv_pos_site_id
 _symmetry_equiv_pos_as_xyz
  1  'x, y, z'
loop_
 _atom_site_type_symbol
 _atom_site_label
 _atom_site_symmetry_multiplicity
 _atom_site_fract_x
 _atom_site_fract_y
 _atom_site_fract_z
 _atom_site_occupancy
  K  K0  1  0.54566486  0.73072645  0.12294352  1
  K  K1  1  0.04566486  0.73072645  0.37705648  1
  K  K2  1  0.45433514  0.26927355  0.87705648  1
  K  K3  1  0.95433514  0.26927355  0.62294352  1
  V  V4  1  0.55554310  0.21595678  0.35394115  1
  V  V5  1  0.05554310  0.21595678  0.14605885  1
  V  V6  1  0.44445690  0.78404322  0.64605885  1
  V  V7  1  0.94445690  0.78404322  0.85394115  1
  O  O8  1  0.33536498  0.29860288  0.41392924  1
  O  O9  1  0.66463502  0.70139712  0.58607076  1
  O  O10  1  0.83536498  0.29860288  0.08607076  1
  O  O11  1  0.16463602  0.70139712  0.91392924  1
  F  F12  1  0.43715081  0.09146750  0.60794341  1
  F  F13  1  0.68960223  0.70390949  0.93448424  1
  F  F14  1  0.60386127  0.91417003  0.75488083  1
  F  F15  1  0.15347046  0.48025256  0.21686747  1
  F  F16  1  0.34652954  0.51974744  0.71686747  1
  F  F17  1  0.93715081  0.09146750  0.89205659  1
  F  F18  1  0.10386127  0.91417003  0.74511917  1
  F  F19  1  0.65347046  0.48025256  0.28313253  1
  F  F20  1  0.06284919  0.90853250  0.10794341  1
  F  F21  1  0.18960223  0.70390949  0.56551576  1
  F  F22  1  0.89613873  0.08582997  0.25488083  1
  F  F23  1  0.31039777  0.29609051  0.06551576  1
  F  F24  1  0.81039777  0.29609051  0.43448424  1
  F  F25  1  0.39613873  0.08582997  0.24511917  1
  F  F26  1  0.84652954  0.51974744  0.78313253  1
  F  F27  1  0.56284919  0.90853250  0.39205659  1
