# generated using pymatgen
data_Li4WO5
_symmetry_space_group_name_H-M   'P 1'
_cell_length_a   5.15752604
_cell_length_b   5.18879485
_cell_length_c   7.90646568
_cell_angle_alpha   102.22013427
_cell_angle_beta   108.82217247
_cell_angle_gamma   101.34153113
_symmetry_Int_Tables_number   1
_chemical_formula_structural   Li4WO5
_chemical_formula_sum   'Li8 W2 O10'
_cell_volume   187.53535673
_cell_formula_units_Z   2
loop_
 _symmetry_equiv_pos_site_id
 _symmetry_equiv_pos_as_xyz
  1  'x, y, z'
loop_
 _atom_site_type_symbol
 _atom_site_label
 _atom_site_symmetry_multiplicity
 _atom_site_fract_x
 _atom_site_fract_y
 _atom_site_fract_z
 _atom_site_occupancy
  Li  Li0  1  0.69386062  0.00337837  0.39064875  1
  Li  Li1  1  0.32022223  0.50426331  0.09868138  1
  Li  Li2  1  0.12632666  0.50211657  0.69611596  1
  Li  Li3  1  0.50000000  0.00000000  0.00000000  1
  Li  Li4  1  0.67977777  0.49573669  0.90131862  1
  Li  Li5  1  0.87367334  0.49788343  0.30388404  1
  Li  Li6  1  0.30613938  0.99662163  0.60935125  1
  Li  Li7  1  0.50000000  0.50000000  0.50000000  1
  W  W8  1  0.89259296  0.99971511  0.78371702  1
  W  W9  1  0.10740704  0.00028489  0.21628298  1
  O  O10  1  0.28350194  0.76786278  0.33494062  1
  O  O11  1  0.47093413  0.23931521  0.24931752  1
  O  O12  1  0.52906587  0.76068479  0.75068248  1
  O  O13  1  0.72797220  0.76418099  0.15462945  1
  O  O14  1  0.71649806  0.23213722  0.66505938  1
  O  O15  1  0.91041497  0.21589105  0.04155914  1
  O  O16  1  0.09404011  0.24006706  0.42799026  1
  O  O17  1  0.08958503  0.78410895  0.95844086  1
  O  O18  1  0.27202780  0.23581901  0.84537055  1
  O  O19  1  0.90595989  0.75993294  0.57200974  1
