# generated using pymatgen
data_Rb3MnO3
_symmetry_space_group_name_H-M   'P 1'
_cell_length_a   7.04484436
_cell_length_b   7.17349120
_cell_length_c   12.06770965
_cell_angle_alpha   90.00000000
_cell_angle_beta   90.00000000
_cell_angle_gamma   98.27023992
_symmetry_Int_Tables_number   1
_chemical_formula_structural   Rb3MnO3
_chemical_formula_sum   'Rb12 Mn4 O12'
_cell_volume   603.51322411
_cell_formula_units_Z   4
loop_
 _symmetry_equiv_pos_site_id
 _symmetry_equiv_pos_as_xyz
  1  'x, y, z'
loop_
 _atom_site_type_symbol
 _atom_site_label
 _atom_site_symmetry_multiplicity
 _atom_site_fract_x
 _atom_site_fract_y
 _atom_site_fract_z
 _atom_site_occupancy
  Rb  Rb0  1  0.00712189  0.07360751  0.27230818  1
  Rb  Rb1  1  0.99287811  0.92639249  0.72769182  1
  Rb  Rb2  1  0.53118980  0.50627541  0.71007270  1
  Rb  Rb3  1  0.53118980  0.00627541  0.78992730  1
  Rb  Rb4  1  0.46881020  0.49372459  0.28992730  1
  Rb  Rb5  1  0.34209670  0.64186917  0.98976750  1
  Rb  Rb6  1  0.34209670  0.14186917  0.51023250  1
  Rb  Rb7  1  0.65790330  0.85813083  0.48976750  1
  Rb  Rb8  1  0.46881020  0.99372459  0.21007270  1
  Rb  Rb9  1  0.65790330  0.35813083  0.01023250  1
  Rb  Rb10  1  0.00712189  0.57360751  0.22769182  1
  Rb  Rb11  1  0.99287811  0.42639249  0.77230818  1
  Mn  Mn12  1  0.15792824  0.15657528  0.99634814  1
  Mn  Mn13  1  0.84207176  0.84342472  0.00365186  1
  Mn  Mn14  1  0.84207176  0.34342472  0.49634814  1
  Mn  Mn15  1  0.15792824  0.65657528  0.50365186  1
  O  O16  1  0.27293449  0.80102215  0.38339624  1
  O  O17  1  0.89844590  0.09299547  0.92923567  1
  O  O18  1  0.29990002  0.77319946  0.62499542  1
  O  O19  1  0.70009998  0.22680054  0.37500458  1
  O  O20  1  0.70009998  0.72680054  0.12499542  1
  O  O21  1  0.10155410  0.40700453  0.42923567  1
  O  O22  1  0.89844590  0.59299547  0.57076433  1
  O  O23  1  0.72706551  0.69897785  0.88339624  1
  O  O24  1  0.72706551  0.19897785  0.61660376  1
  O  O25  1  0.27293449  0.30102215  0.11660376  1
  O  O26  1  0.29990002  0.27319946  0.87500458  1
  O  O27  1  0.10155410  0.90700453  0.07076433  1
