# generated using pymatgen
data_YMg3
_symmetry_space_group_name_H-M   'P 1'
_cell_length_a   3.27673516
_cell_length_b   10.99348449
_cell_length_c   5.75883509
_cell_angle_alpha   90.00000000
_cell_angle_beta   90.00000000
_cell_angle_gamma   90.00000000
_symmetry_Int_Tables_number   1
_chemical_formula_structural   YMg3
_chemical_formula_sum   'Y2 Mg6'
_cell_volume   207.44900279
_cell_formula_units_Z   2
loop_
 _symmetry_equiv_pos_site_id
 _symmetry_equiv_pos_as_xyz
  1  'x, y, z'
loop_
 _atom_site_type_symbol
 _atom_site_label
 _atom_site_symmetry_multiplicity
 _atom_site_fract_x
 _atom_site_fract_y
 _atom_site_fract_z
 _atom_site_occupancy
  Y  Y0  1  0.50000000  0.50000000  0.83666959  1
  Y  Y1  1  0.00000000  -0.00000000  0.33666959  1
  Mg  Mg2  1  -0.00000000  0.50000000  0.33058855  1
  Mg  Mg3  1  0.50000000  0.74752413  0.49970393  1
  Mg  Mg4  1  0.00000000  0.75247587  0.99970393  1
  Mg  Mg5  1  0.50000000  -0.00000000  0.83058855  1
  Mg  Mg6  1  0.00000000  0.24752413  0.99970393  1
  Mg  Mg7  1  0.50000000  0.25247587  0.49970393  1
