# generated using pymatgen
data_NaPr4I7N2
_symmetry_space_group_name_H-M   'P 1'
_cell_length_a   11.23718742
_cell_length_b   12.19621261
_cell_length_c   14.51525583
_cell_angle_alpha   90.00000000
_cell_angle_beta   90.00000000
_cell_angle_gamma   90.00000000
_symmetry_Int_Tables_number   1
_chemical_formula_structural   NaPr4I7N2
_chemical_formula_sum   'Na4 Pr16 I28 N8'
_cell_volume   1989.33216893
_cell_formula_units_Z   4
loop_
 _symmetry_equiv_pos_site_id
 _symmetry_equiv_pos_as_xyz
  1  'x, y, z'
loop_
 _atom_site_type_symbol
 _atom_site_label
 _atom_site_symmetry_multiplicity
 _atom_site_fract_x
 _atom_site_fract_y
 _atom_site_fract_z
 _atom_site_occupancy
  Na  Na0  1  0.95021224  0.75452761  0.09681842  1
  Na  Na1  1  0.45021224  0.25452761  0.40318158  1
  Na  Na2  1  0.54978776  0.75452761  0.59681842  1
  Na  Na3  1  0.04978776  0.25452761  0.90318158  1
  Pr  Pr4  1  0.89616291  0.55720215  0.58713905  1
  Pr  Pr5  1  0.41683671  0.82088880  0.10139313  1
  Pr  Pr6  1  0.87635244  0.08012106  0.58224173  1
  Pr  Pr7  1  0.62364756  0.08012106  0.08224173  1
  Pr  Pr8  1  0.91683671  0.32088880  0.39860687  1
  Pr  Pr9  1  0.08316329  0.82088880  0.60139313  1
  Pr  Pr10  1  0.12297451  0.31415101  0.58479044  1
  Pr  Pr11  1  0.37635244  0.58012106  0.91775827  1
  Pr  Pr12  1  0.58316329  0.32088880  0.89860687  1
  Pr  Pr13  1  0.37702549  0.31415101  0.08479044  1
  Pr  Pr14  1  0.10383709  0.05720215  0.41286095  1
  Pr  Pr15  1  0.87702549  0.81415101  0.41520956  1
  Pr  Pr16  1  0.39616291  0.05720215  0.91286095  1
  Pr  Pr17  1  0.60383709  0.55720215  0.08713905  1
  Pr  Pr18  1  0.62297451  0.81415101  0.91520956  1
  Pr  Pr19  1  0.12364756  0.58012106  0.41775827  1
  I  I20  1  0.18961611  0.78849792  0.97759215  1
  I  I21  1  0.18831111  0.29287289  0.29551097  1
  I  I22  1  0.87086854  0.09305064  0.27464460  1
  I  I23  1  0.59394815  0.33083958  0.23073449  1
  I  I24  1  0.43387146  0.03479074  0.24603139  1
  I  I25  1  0.18073017  0.11305176  0.04659542  1
  I  I26  1  0.12913146  0.59305064  0.72535540  1
  I  I27  1  0.09394815  0.83083958  0.26926551  1
  I  I28  1  0.65206558  0.95825724  0.48452972  1
  I  I29  1  0.34793442  0.45825724  0.51547028  1
  I  I30  1  0.31038389  0.78849792  0.47759215  1
  I  I31  1  0.62913146  0.09305064  0.77464460  1
  I  I32  1  0.81038389  0.28849792  0.02240785  1
  I  I33  1  0.68073017  0.61305176  0.45340458  1
  I  I34  1  0.40605185  0.83083958  0.76926551  1
  I  I35  1  0.56612854  0.53479074  0.75396861  1
  I  I36  1  0.37086854  0.59305064  0.22535540  1
  I  I37  1  0.68831111  0.79287289  0.20448903  1
  I  I38  1  0.90605185  0.33083958  0.73073449  1
  I  I39  1  0.68961611  0.28849792  0.52240785  1
  I  I40  1  0.31168889  0.29287289  0.79551097  1
  I  I41  1  0.31926983  0.11305176  0.54659542  1
  I  I42  1  0.15206558  0.45825724  0.01547028  1
  I  I43  1  0.84793442  0.95825724  0.98452972  1
  I  I44  1  0.93387146  0.53479074  0.25396861  1
  I  I45  1  0.81926983  0.61305176  0.95340458  1
  I  I46  1  0.06612854  0.03479074  0.74603139  1
  I  I47  1  0.81168889  0.79287289  0.70448903  1
  N  N48  1  0.98468755  0.94345233  0.50311454  1
  N  N49  1  0.49452219  0.19262627  0.99675489  1
  N  N50  1  0.51531245  0.94345233  0.00311454  1
  N  N51  1  0.48468755  0.44345233  0.99688546  1
  N  N52  1  0.01531245  0.44345233  0.49688546  1
  N  N53  1  0.50547781  0.69262627  0.00324511  1
  N  N54  1  0.00547781  0.19262627  0.49675489  1
  N  N55  1  0.99452219  0.69262627  0.50324511  1
