# generated using pymatgen
data_NaV3(PO4)3
_symmetry_space_group_name_H-M   'P 1'
_cell_length_a   6.56838332
_cell_length_b   9.16078587
_cell_length_c   9.16078666
_cell_angle_alpha   71.30362144
_cell_angle_beta   68.99156527
_cell_angle_gamma   68.99156239
_symmetry_Int_Tables_number   1
_chemical_formula_structural   NaV3(PO4)3
_chemical_formula_sum   'Na2 V6 P6 O24'
_cell_volume   468.56588862
_cell_formula_units_Z   2
loop_
 _symmetry_equiv_pos_site_id
 _symmetry_equiv_pos_as_xyz
  1  'x, y, z'
loop_
 _atom_site_type_symbol
 _atom_site_label
 _atom_site_symmetry_multiplicity
 _atom_site_fract_x
 _atom_site_fract_y
 _atom_site_fract_z
 _atom_site_occupancy
  Na  Na0  1  0.35061602  0.25000000  0.25000000  1
  Na  Na1  1  0.64938398  0.75000000  0.75000000  1
  V  V2  1  0.11395882  0.88604118  0.38604118  1
  V  V3  1  0.00000000  0.00000000  0.00000000  1
  V  V4  1  0.88604118  0.61395882  0.11395882  1
  V  V5  1  0.88604118  0.11395882  0.61395882  1
  V  V6  1  0.11395882  0.38604118  0.88604118  1
  V  V7  1  0.50000000  0.50000000  0.50000000  1
  P  P8  1  0.32347806  0.17652194  0.67652194  1
  P  P9  1  0.32347806  0.67652194  0.17652194  1
  P  P10  1  0.16656816  0.75000000  0.75000000  1
  P  P11  1  0.83343184  0.25000000  0.25000000  1
  P  P12  1  0.67652194  0.32347806  0.82347806  1
  P  P13  1  0.67652194  0.82347806  0.32347806  1
  O  O14  1  0.28774424  0.64659207  0.36541828  1
  O  O15  1  0.57085065  0.07933747  0.64970729  1
  O  O16  1  0.42914935  0.35029271  0.92066253  1
  O  O17  1  0.60841936  0.34453522  0.34453522  1
  O  O18  1  0.79975459  0.85340793  0.13458172  1
  O  O19  1  0.39158064  0.65546478  0.65546478  1
  O  O20  1  0.79975459  0.13458172  0.85340793  1
  O  O21  1  0.57085065  0.64970729  0.07933747  1
  O  O22  1  0.79989542  0.85029271  0.42066253  1
  O  O23  1  0.01609680  0.63477383  0.86522617  1
  O  O24  1  0.20024541  0.86541828  0.14659207  1
  O  O25  1  0.28774424  0.36541828  0.64659207  1
  O  O26  1  0.71225576  0.63458172  0.35340793  1
  O  O27  1  0.01609680  0.86522617  0.63477383  1
  O  O28  1  0.98390320  0.13477383  0.36522617  1
  O  O29  1  0.79748980  0.15546478  0.15546478  1
  O  O30  1  0.71225576  0.35340793  0.63458172  1
  O  O31  1  0.20251020  0.84453522  0.84453522  1
  O  O32  1  0.20024541  0.14659207  0.86541828  1
  O  O33  1  0.20010458  0.57933747  0.14970729  1
  O  O34  1  0.79989542  0.42066253  0.85029271  1
  O  O35  1  0.42914935  0.92066253  0.35029271  1
  O  O36  1  0.98390320  0.36522617  0.13477383  1
  O  O37  1  0.20010458  0.14970729  0.57933747  1
