# generated using pymatgen
data_KMoIO6
_symmetry_space_group_name_H-M   'P 1'
_cell_length_a   7.56546554
_cell_length_b   7.72046906
_cell_length_c   10.80280705
_cell_angle_alpha   109.82203580
_cell_angle_beta   90.00000000
_cell_angle_gamma   90.00000000
_symmetry_Int_Tables_number   1
_chemical_formula_structural   KMoIO6
_chemical_formula_sum   'K4 Mo4 I4 O24'
_cell_volume   593.59520634
_cell_formula_units_Z   4
loop_
 _symmetry_equiv_pos_site_id
 _symmetry_equiv_pos_as_xyz
  1  'x, y, z'
loop_
 _atom_site_type_symbol
 _atom_site_label
 _atom_site_symmetry_multiplicity
 _atom_site_fract_x
 _atom_site_fract_y
 _atom_site_fract_z
 _atom_site_occupancy
  K  K0  1  0.72883532  0.84146724  0.92259510  1
  K  K1  1  0.22883532  0.65853276  0.57740490  1
  K  K2  1  0.27116468  0.15853276  0.07740490  1
  K  K3  1  0.77116468  0.34146724  0.42259510  1
  Mo  Mo4  1  -0.00137408  0.76859923  0.27817123  1
  Mo  Mo5  1  0.49862592  0.73140077  0.22182877  1
  Mo  Mo6  1  1.00137408  0.23140077  0.72182877  1
  Mo  Mo7  1  0.50137408  0.26859923  0.77817123  1
  I  I8  1  0.67459233  0.85649719  0.54417434  1
  I  I9  1  0.82540767  0.35649719  0.04417434  1
  I  I10  1  0.32540767  0.14350281  0.45582566  1
  I  I11  1  0.17459233  0.64350281  0.95582566  1
  O  O12  1  0.04747679  0.81759985  0.08890610  1
  O  O13  1  0.95252321  0.18240015  0.91109390  1
  O  O14  1  0.97117569  0.51729997  0.86918282  1
  O  O15  1  0.74387730  0.72215983  0.19811032  1
  O  O16  1  0.05109908  0.99866905  0.64433008  1
  O  O17  1  0.02882431  0.48270003  0.13081718  1
  O  O18  1  0.28703187  0.28041697  0.35317456  1
  O  O19  1  0.52882431  0.01729997  0.36918282  1
  O  O20  1  0.71296813  0.71958303  0.64682544  1
  O  O21  1  0.47117569  0.98270003  0.63081718  1
  O  O22  1  0.54747679  0.68240015  0.41109390  1
  O  O23  1  0.21296813  0.78041697  0.85317456  1
  O  O24  1  0.44890092  0.49866905  0.14433108  1
  O  O25  1  0.25612270  0.27784017  0.80188968  1
  O  O26  1  0.75612270  0.22215983  0.69811032  1
  O  O27  1  0.24387730  0.77784017  0.30188968  1
  O  O28  1  0.78703187  0.21958303  0.14682544  1
  O  O29  1  0.55109908  0.50133095  0.85566992  1
  O  O30  1  0.56594174  0.17145689  0.89985331  1
  O  O31  1  0.06594174  0.32854311  0.60014669  1
  O  O32  1  0.43405826  0.82854311  0.10014669  1
  O  O33  1  0.93405826  0.67145689  0.39985331  1
  O  O34  1  0.94890092  0.00133095  0.35566892  1
  O  O35  1  0.45252321  0.31759985  0.58890610  1
