# generated using pymatgen
data_RbAg2(AsSe2)3
_symmetry_space_group_name_H-M   'P 1'
_cell_length_a   7.82250230
_cell_length_b   10.16758791
_cell_length_c   17.63319531
_cell_angle_alpha   90.28997584
_cell_angle_beta   90.00000000
_cell_angle_gamma   90.00000000
_symmetry_Int_Tables_number   1
_chemical_formula_structural   RbAg2(AsSe2)3
_chemical_formula_sum   'Rb4 Ag8 As12 Se24'
_cell_volume   1402.45550428
_cell_formula_units_Z   4
loop_
 _symmetry_equiv_pos_site_id
 _symmetry_equiv_pos_as_xyz
  1  'x, y, z'
loop_
 _atom_site_type_symbol
 _atom_site_label
 _atom_site_symmetry_multiplicity
 _atom_site_fract_x
 _atom_site_fract_y
 _atom_site_fract_z
 _atom_site_occupancy
  Rb  Rb0  1  0.32488459  0.49341486  0.33237689  1
  Rb  Rb1  1  0.67511541  0.50658514  0.66762311  1
  Rb  Rb2  1  0.17511541  0.99341486  0.83237689  1
  Rb  Rb3  1  0.82488459  0.00658514  0.16762311  1
  Ag  Ag4  1  0.03835999  0.03293129  0.58077810  1
  Ag  Ag5  1  0.01502089  0.34953514  0.99931010  1
  Ag  Ag6  1  0.51502089  0.15046486  0.50068990  1
  Ag  Ag7  1  0.96164001  0.96706871  0.41922190  1
  Ag  Ag8  1  0.53835999  0.46706871  0.91922190  1
  Ag  Ag9  1  0.98497911  0.65046486  0.00068990  1
  Ag  Ag10  1  0.48497911  0.84953514  0.49931010  1
  Ag  Ag11  1  0.46164001  0.53293129  0.08077810  1
  As  As12  1  0.65046088  0.80689005  0.85337976  1
  As  As13  1  0.13033796  0.43018024  0.77677535  1
  As  As14  1  0.88167590  0.63199911  0.41858745  1
  As  As15  1  0.38167590  0.86800089  0.08141255  1
  As  As16  1  0.34953912  0.19310995  0.14662024  1
  As  As17  1  0.61832410  0.13199911  0.91858745  1
  As  As18  1  0.84953912  0.30689005  0.35337976  1
  As  As19  1  0.63033796  0.06981976  0.72322465  1
  As  As20  1  0.11832410  0.36800089  0.58141255  1
  As  As21  1  0.15046088  0.69310995  0.64662024  1
  As  As22  1  0.36966204  0.93018024  0.27677535  1
  As  As23  1  0.86966204  0.56981976  0.22322465  1
  Se  Se24  1  0.25035433  0.84575797  0.39204281  1
  Se  Se25  1  0.24964567  0.34575797  0.89204281  1
  Se  Se26  1  0.69688561  0.36965346  0.23562595  1
  Se  Se27  1  0.19688561  0.13034654  0.26437405  1
  Se  Se28  1  0.77963200  0.22075676  0.81097134  1
  Se  Se29  1  0.22036800  0.77924324  0.18902866  1
  Se  Se30  1  0.19543967  0.21607444  0.48276719  1
  Se  Se31  1  0.79774204  0.60380035  0.87196736  1
  Se  Se32  1  0.72036800  0.72075676  0.31097134  1
  Se  Se33  1  0.20225796  0.39619965  0.12803264  1
  Se  Se34  1  0.29774204  0.89619965  0.62803264  1
  Se  Se35  1  0.69543967  0.28392556  0.01723281  1
  Se  Se36  1  0.70225796  0.10380035  0.37196736  1
  Se  Se37  1  0.80311439  0.86965346  0.73562595  1
  Se  Se38  1  0.29622553  0.56122211  0.54865271  1
  Se  Se39  1  0.70377447  0.43877789  0.45134729  1
  Se  Se40  1  0.20377447  0.06122211  0.04865271  1
  Se  Se41  1  0.80456033  0.78392556  0.51723281  1
  Se  Se42  1  0.27963200  0.27924324  0.68902866  1
  Se  Se43  1  0.79622553  0.93877789  0.95134729  1
  Se  Se44  1  0.30456033  0.71607444  0.98276719  1
  Se  Se45  1  0.75035433  0.65424203  0.10795719  1
  Se  Se46  1  0.30311439  0.63034654  0.76437405  1
  Se  Se47  1  0.74964567  0.15424203  0.60795719  1
