# generated using pymatgen
data_P4N3Cl11
_symmetry_space_group_name_H-M   'P 1'
_cell_length_a   11.53048715
_cell_length_b   15.22091519
_cell_length_c   15.27227298
_cell_angle_alpha   114.57155620
_cell_angle_beta   90.00000000
_cell_angle_gamma   90.00000000
_symmetry_Int_Tables_number   1
_chemical_formula_structural   P4N3Cl11
_chemical_formula_sum   'P16 N12 Cl44'
_cell_volume   2437.62794506
_cell_formula_units_Z   4
loop_
 _symmetry_equiv_pos_site_id
 _symmetry_equiv_pos_as_xyz
  1  'x, y, z'
loop_
 _atom_site_type_symbol
 _atom_site_label
 _atom_site_symmetry_multiplicity
 _atom_site_fract_x
 _atom_site_fract_y
 _atom_site_fract_z
 _atom_site_occupancy
  P  P0  1  0.90732368  0.08361667  0.19856916  1
  P  P1  1  0.28034404  0.12282947  0.63325097  1
  P  P2  1  0.09267632  0.58361667  0.19856916  1
  P  P3  1  0.71965596  0.87717053  0.36674903  1
  P  P4  1  0.30379276  0.87251261  0.88664163  1
  P  P5  1  0.28034404  0.37717053  0.36674903  1
  P  P6  1  0.69620724  0.37251261  0.88664163  1
  P  P7  1  0.09168532  0.49031449  0.33222270  1
  P  P8  1  0.30379276  0.62748739  0.11335837  1
  P  P9  1  0.90831468  0.99031449  0.33222270  1
  P  P10  1  0.69620724  0.12748739  0.11335837  1
  P  P11  1  0.09168532  0.00968551  0.66777730  1
  P  P12  1  0.90831468  0.50968551  0.66777730  1
  P  P13  1  0.09267632  0.91638333  0.80143084  1
  P  P14  1  0.71965596  0.62282947  0.63325097  1
  P  P15  1  0.90732368  0.41638333  0.80143084  1
  N  N16  1  0.15799786  0.09782201  0.66118423  1
  N  N17  1  0.15799786  0.40217799  0.33881577  1
  N  N18  1  0.82039757  0.09096184  0.12210956  1
  N  N19  1  0.17960243  0.90903816  0.87789044  1
  N  N20  1  0.13768250  0.51942940  0.25046321  1
  N  N21  1  0.86231750  0.01942940  0.25046321  1
  N  N22  1  0.84200214  0.59782201  0.66118423  1
  N  N23  1  0.13768250  0.98057060  0.74953679  1
  N  N24  1  0.84200214  0.90217799  0.33881577  1
  N  N25  1  0.17960243  0.59096184  0.12210956  1
  N  N26  1  0.86231750  0.48057060  0.74953679  1
  N  N27  1  0.82039757  0.40903816  0.87789044  1
  Cl  Cl28  1  0.41619351  0.07473866  0.68273487  1
  Cl  Cl29  1  0.70317578  0.76598954  0.68358224  1
  Cl  Cl30  1  0.66085763  0.41798320  0.02673655  1
  Cl  Cl31  1  0.29682422  0.23401046  0.31641776  1
  Cl  Cl32  1  0.33914237  0.91798320  0.02673655  1
  Cl  Cl33  1  0.43107058  0.92057794  0.82834574  1
  Cl  Cl34  1  0.04807342  0.71773354  0.29500694  1
  Cl  Cl35  1  0.56892942  0.07942206  0.17165426  1
  Cl  Cl36  1  0.92271643  0.04282423  0.68462846  1
  Cl  Cl37  1  0.66085763  0.08201680  0.97326345  1
  Cl  Cl38  1  0.63784033  0.50154233  0.25555267  1
  Cl  Cl39  1  0.41619351  0.42526134  0.31726513  1
  Cl  Cl40  1  0.04807342  0.78226646  0.70499306  1
  Cl  Cl41  1  0.70317578  0.73401046  0.31641776  1
  Cl  Cl42  1  0.90241900  0.39398343  0.53809875  1
  Cl  Cl43  1  0.09758100  0.60601657  0.46190125  1
  Cl  Cl44  1  0.94399498  0.53314403  0.12743998  1
  Cl  Cl45  1  0.69404676  0.92679815  0.50931908  1
  Cl  Cl46  1  0.09758100  0.89398343  0.53809875  1
  Cl  Cl47  1  0.36215967  0.49845767  0.74444733  1
  Cl  Cl48  1  0.92271643  0.45717577  0.31537154  1
  Cl  Cl49  1  0.31984871  0.77201380  0.17195577  1
  Cl  Cl50  1  0.36215967  0.00154233  0.25555267  1
  Cl  Cl51  1  0.95192658  0.21773354  0.29500694  1
  Cl  Cl52  1  0.95192658  0.28226646  0.70499306  1
  Cl  Cl53  1  0.05600502  0.03314403  0.12743998  1
  Cl  Cl54  1  0.07728357  0.95717577  0.31537154  1
  Cl  Cl55  1  0.56892942  0.42057794  0.82834574  1
  Cl  Cl56  1  0.94399498  0.96685597  0.87256002  1
  Cl  Cl57  1  0.68015129  0.27201380  0.17195577  1
  Cl  Cl58  1  0.68015129  0.22798620  0.82804423  1
  Cl  Cl59  1  0.90241900  0.10601657  0.46190125  1
  Cl  Cl60  1  0.29682422  0.26598954  0.68358224  1
  Cl  Cl61  1  0.30595324  0.42679815  0.50931908  1
  Cl  Cl62  1  0.07728357  0.54282423  0.68462846  1
  Cl  Cl63  1  0.69404676  0.57320185  0.49068092  1
  Cl  Cl64  1  0.58380649  0.57473866  0.68273487  1
  Cl  Cl65  1  0.58380649  0.92526134  0.31726513  1
  Cl  Cl66  1  0.43107058  0.57942206  0.17165426  1
  Cl  Cl67  1  0.31984871  0.72798620  0.82804423  1
  Cl  Cl68  1  0.63784033  0.99845767  0.74444733  1
  Cl  Cl69  1  0.33914237  0.58201680  0.97326345  1
  Cl  Cl70  1  0.05600502  0.46685597  0.87256002  1
  Cl  Cl71  1  0.30595324  0.07320185  0.49068092  1
