# generated using pymatgen
data_Ce3CuGeSe7
_symmetry_space_group_name_H-M   'P 1'
_cell_length_a   10.63026376
_cell_length_b   10.63026344
_cell_length_c   6.16822306
_cell_angle_alpha   90.00000000
_cell_angle_beta   90.00000000
_cell_angle_gamma   120.00000098
_symmetry_Int_Tables_number   1
_chemical_formula_structural   Ce3CuGeSe7
_chemical_formula_sum   'Ce6 Cu2 Ge2 Se14'
_cell_volume   603.64105017
_cell_formula_units_Z   2
loop_
 _symmetry_equiv_pos_site_id
 _symmetry_equiv_pos_as_xyz
  1  'x, y, z'
loop_
 _atom_site_type_symbol
 _atom_site_label
 _atom_site_symmetry_multiplicity
 _atom_site_fract_x
 _atom_site_fract_y
 _atom_site_fract_z
 _atom_site_occupancy
  Ce  Ce0  1  0.64311510  0.77318674  0.74880961  1
  Ce  Ce1  1  0.77318674  0.13007164  0.24880961  1
  Ce  Ce2  1  0.13007164  0.35688490  0.74880961  1
  Ce  Ce3  1  0.35688490  0.22681326  0.24880961  1
  Ce  Ce4  1  0.86992836  0.64311510  0.24880961  1
  Ce  Ce5  1  0.22681326  0.86992836  0.74880961  1
  Cu  Cu6  1  0.00000000  0.00000000  0.71975801  1
  Cu  Cu7  1  0.00000000  0.00000000  0.21975801  1
  Ge  Ge8  1  0.66666700  0.33333300  0.83069117  1
  Ge  Ge9  1  0.33333300  0.66666700  0.33069117  1
  Se  Se10  1  0.42125299  0.51679343  0.49124268  1
  Se  Se11  1  0.25486771  0.16179925  0.73167625  1
  Se  Se12  1  0.09306846  0.25486771  0.23167625  1
  Se  Se13  1  0.51679343  0.09554044  0.99124268  1
  Se  Se14  1  0.83820075  0.09306846  0.73167625  1
  Se  Se15  1  0.66666700  0.33333300  0.44376520  1
  Se  Se16  1  0.09554044  0.57874701  0.49124268  1
  Se  Se17  1  0.90445956  0.42125299  0.99124268  1
  Se  Se18  1  0.74513229  0.83820075  0.23167625  1
  Se  Se19  1  0.57874701  0.48320657  0.99124268  1
  Se  Se20  1  0.48320657  0.90445956  0.49124268  1
  Se  Se21  1  0.16179925  0.90693154  0.23167625  1
  Se  Se22  1  0.33333300  0.66666700  0.94376520  1
  Se  Se23  1  0.90693154  0.74513229  0.73167625  1
