# generated using pymatgen
data_W2NCl8
_symmetry_space_group_name_H-M   'P 1'
_cell_length_a   6.70367317
_cell_length_b   6.75469685
_cell_length_c   7.05456317
_cell_angle_alpha   89.95334366
_cell_angle_beta   82.19914477
_cell_angle_gamma   82.96276557
_symmetry_Int_Tables_number   1
_chemical_formula_structural   W2NCl8
_chemical_formula_sum   'W2 N1 Cl8'
_cell_volume   314.05871739
_cell_formula_units_Z   1
loop_
 _symmetry_equiv_pos_site_id
 _symmetry_equiv_pos_as_xyz
  1  'x, y, z'
loop_
 _atom_site_type_symbol
 _atom_site_label
 _atom_site_symmetry_multiplicity
 _atom_site_fract_x
 _atom_site_fract_y
 _atom_site_fract_z
 _atom_site_occupancy
  W  W0  1  0.05102419  0.58935652  0.23164862  1
  W  W1  1  0.94897581  0.41064348  0.76835138  1
  N  N2  1  0.00000000  0.50000000  0.00000000  1
  Cl  Cl3  1  0.64547930  0.60948793  0.77377338  1
  Cl  Cl4  1  0.89472742  0.31972610  0.41018769  1
  Cl  Cl5  1  0.25701653  0.21926230  0.69531394  1
  Cl  Cl6  1  0.79155683  0.13992712  0.86927598  1
  Cl  Cl7  1  0.20844317  0.86007288  0.13072402  1
  Cl  Cl8  1  0.35452070  0.39051207  0.22622662  1
  Cl  Cl9  1  0.10527258  0.68027390  0.58981231  1
  Cl  Cl10  1  0.74298347  0.78073770  0.30468606  1
