# generated using pymatgen
data_Rb5Ta(TlAs2)2
_symmetry_space_group_name_H-M   'P 1'
_cell_length_a   8.02034429
_cell_length_b   11.25778408
_cell_length_c   19.48784278
_cell_angle_alpha   90.00000000
_cell_angle_beta   90.00000000
_cell_angle_gamma   90.00000000
_symmetry_Int_Tables_number   1
_chemical_formula_structural   Rb5Ta(TlAs2)2
_chemical_formula_sum   'Rb20 Ta4 Tl8 As16'
_cell_volume   1759.58274190
_cell_formula_units_Z   4
loop_
 _symmetry_equiv_pos_site_id
 _symmetry_equiv_pos_as_xyz
  1  'x, y, z'
loop_
 _atom_site_type_symbol
 _atom_site_label
 _atom_site_symmetry_multiplicity
 _atom_site_fract_x
 _atom_site_fract_y
 _atom_site_fract_z
 _atom_site_occupancy
  Rb  Rb0  1  0.89327494  0.75000000  0.52214683  1
  Rb  Rb1  1  0.69279649  0.02464410  0.42191551  1
  Rb  Rb2  1  0.48010929  0.94509071  0.25149518  1
  Rb  Rb3  1  0.98010929  0.05490929  0.24850482  1
  Rb  Rb4  1  0.01989071  0.94509071  0.75149518  1
  Rb  Rb5  1  0.98010929  0.44509071  0.24850482  1
  Rb  Rb6  1  0.10672506  0.25000000  0.47785317  1
  Rb  Rb7  1  0.80720351  0.47535590  0.92191551  1
  Rb  Rb8  1  0.51989071  0.05490929  0.74850482  1
  Rb  Rb9  1  0.69279649  0.47535590  0.42191551  1
  Rb  Rb10  1  0.30720351  0.52464410  0.57808449  1
  Rb  Rb11  1  0.39327494  0.25000000  0.97785317  1
  Rb  Rb12  1  0.30720351  0.97535590  0.57808449  1
  Rb  Rb13  1  0.51989071  0.44509071  0.74850482  1
  Rb  Rb14  1  0.60672506  0.75000000  0.02214683  1
  Rb  Rb15  1  0.19279649  0.52464410  0.07808449  1
  Rb  Rb16  1  0.80720351  0.02464410  0.92191551  1
  Rb  Rb17  1  0.48010929  0.55490929  0.25149518  1
  Rb  Rb18  1  0.19279649  0.97535590  0.07808449  1
  Rb  Rb19  1  0.01989071  0.55490929  0.75149518  1
  Ta  Ta20  1  0.41731571  0.75000000  0.83688140  1
  Ta  Ta21  1  0.58268429  0.25000000  0.16311860  1
  Ta  Ta22  1  0.91731571  0.25000000  0.66311860  1
  Ta  Ta23  1  0.08268429  0.75000000  0.33688140  1
  Tl  Tl24  1  0.67393148  0.75000000  0.68739777  1
  Tl  Tl25  1  0.41755960  0.75000000  0.44552724  1
  Tl  Tl26  1  0.91755960  0.25000000  0.05447276  1
  Tl  Tl27  1  0.58244040  0.25000000  0.55447276  1
  Tl  Tl28  1  0.32606852  0.25000000  0.31260223  1
  Tl  Tl29  1  0.82606852  0.75000000  0.18739777  1
  Tl  Tl30  1  0.08244040  0.75000000  0.94552724  1
  Tl  Tl31  1  0.17393148  0.25000000  0.81260223  1
  As  As32  1  0.19555230  0.93042375  0.39739179  1
  As  As33  1  0.16783058  0.75000000  0.21125248  1
  As  As34  1  0.33216942  0.75000000  0.71125248  1
  As  As35  1  0.30444770  0.93042375  0.89739179  1
  As  As36  1  0.77124450  0.75000000  0.33612369  1
  As  As37  1  0.30444770  0.56957625  0.89739179  1
  As  As38  1  0.80444770  0.06957625  0.60260821  1
  As  As39  1  0.22875550  0.25000000  0.66387631  1
  As  As40  1  0.80444770  0.43042375  0.60260821  1
  As  As41  1  0.83216942  0.25000000  0.78874752  1
  As  As42  1  0.69555230  0.06957625  0.10260821  1
  As  As43  1  0.72875550  0.75000000  0.83612369  1
  As  As44  1  0.66783058  0.25000000  0.28874752  1
  As  As45  1  0.27124450  0.25000000  0.16387631  1
  As  As46  1  0.19555230  0.56957625  0.39739179  1
  As  As47  1  0.69555230  0.43042375  0.10260821  1
