# generated using pymatgen
data_YMg
_symmetry_space_group_name_H-M   'P 1'
_cell_length_a   12.44142125
_cell_length_b   3.45953582
_cell_length_c   5.75856972
_cell_angle_alpha   90.00000000
_cell_angle_beta   114.38598861
_cell_angle_gamma   90.00000000
_symmetry_Int_Tables_number   1
_chemical_formula_structural   YMg
_chemical_formula_sum   'Y4 Mg4'
_cell_volume   225.74501126
_cell_formula_units_Z   4
loop_
 _symmetry_equiv_pos_site_id
 _symmetry_equiv_pos_as_xyz
  1  'x, y, z'
loop_
 _atom_site_type_symbol
 _atom_site_label
 _atom_site_symmetry_multiplicity
 _atom_site_fract_x
 _atom_site_fract_y
 _atom_site_fract_z
 _atom_site_occupancy
  Y  Y0  1  0.62063417  0.50000000  0.80212207  1
  Y  Y1  1  0.87936583  0.00000000  0.19787793  1
  Y  Y2  1  0.12063417  -0.00000000  0.80212207  1
  Y  Y3  1  0.37936583  0.50000000  0.19787793  1
  Mg  Mg4  1  0.86756084  0.50000000  0.69688957  1
  Mg  Mg5  1  0.63243916  -0.00000000  0.30311043  1
  Mg  Mg6  1  0.36756084  0.00000000  0.69688957  1
  Mg  Mg7  1  0.13243916  0.50000000  0.30311043  1
