# generated using pymatgen
data_NaGa3Se5
_symmetry_space_group_name_H-M   'P 1'
_cell_length_a   9.98622567
_cell_length_b   13.92243202
_cell_length_c   27.56890720
_cell_angle_alpha   90.00000000
_cell_angle_beta   90.00000000
_cell_angle_gamma   90.00000000
_symmetry_Int_Tables_number   1
_chemical_formula_structural   NaGa3Se5
_chemical_formula_sum   'Na16 Ga48 Se80'
_cell_volume   3832.97541433
_cell_formula_units_Z   16
loop_
 _symmetry_equiv_pos_site_id
 _symmetry_equiv_pos_as_xyz
  1  'x, y, z'
loop_
 _atom_site_type_symbol
 _atom_site_label
 _atom_site_symmetry_multiplicity
 _atom_site_fract_x
 _atom_site_fract_y
 _atom_site_fract_z
 _atom_site_occupancy
  Na  Na0  1  0.49584765  0.25209531  0.80969261  1
  Na  Na1  1  0.74481839  0.88333987  0.87818012  1
  Na  Na2  1  0.49984058  0.75928828  0.56038516  1
  Na  Na3  1  0.99584765  0.74790469  0.69030739  1
  Na  Na4  1  0.23927009  0.13120643  0.12840557  1
  Na  Na5  1  0.00015942  0.25928828  0.43961484  1
  Na  Na6  1  0.00415235  0.75209531  0.19030739  1
  Na  Na7  1  0.25518161  0.61666013  0.37818012  1
  Na  Na8  1  0.99984058  0.24071172  0.93961484  1
  Na  Na9  1  0.76072991  0.36879357  0.62840557  1
  Na  Na10  1  0.24481839  0.11666013  0.62181988  1
  Na  Na11  1  0.50015942  0.74071172  0.06038516  1
  Na  Na12  1  0.50415235  0.24790469  0.30969261  1
  Na  Na13  1  0.26072991  0.63120643  0.87159443  1
  Na  Na14  1  0.73927009  0.86879357  0.37159443  1
  Na  Na15  1  0.75518161  0.38333987  0.12181988  1
  Ga  Ga16  1  0.41832588  0.06943003  0.90170957  1
  Ga  Ga17  1  0.93573388  0.10297540  0.69488747  1
  Ga  Ga18  1  0.61481890  0.97129759  0.25730859  1
  Ga  Ga19  1  0.09837407  0.72133760  0.98275729  1
  Ga  Ga20  1  0.68544846  0.89457326  0.69788802  1
  Ga  Ga21  1  0.11481890  0.02870241  0.24269141  1
  Ga  Ga22  1  0.86201518  0.27791945  0.79513595  1
  Ga  Ga23  1  0.31455154  0.60542674  0.19788802  1
  Ga  Ga24  1  0.10334363  0.00730419  0.47463536  1
  Ga  Ga25  1  0.11537115  0.91088765  0.89531068  1
  Ga  Ga26  1  0.66503462  0.69925335  0.78412672  1
  Ga  Ga27  1  0.33496538  0.80074665  0.28412672  1
  Ga  Ga28  1  0.56426612  0.60297540  0.30511253  1
  Ga  Ga29  1  0.88518110  0.47129759  0.74269141  1
  Ga  Ga30  1  0.16503462  0.30074665  0.71587328  1
  Ga  Ga31  1  0.39665637  0.50730419  0.52536464  1
  Ga  Ga32  1  0.06426612  0.39702460  0.19488747  1
  Ga  Ga33  1  0.90162593  0.77866240  0.48275729  1
  Ga  Ga34  1  0.25607965  0.98303693  0.01665773  1
  Ga  Ga35  1  0.40162593  0.22133760  0.01724271  1
  Ga  Ga36  1  0.43573388  0.89702460  0.80511253  1
  Ga  Ga37  1  0.88462885  0.58911235  0.39531068  1
  Ga  Ga38  1  0.17198845  0.53476163  0.64044345  1
  Ga  Ga39  1  0.74392035  0.51696307  0.51665773  1
  Ga  Ga40  1  0.36201518  0.72208055  0.70486405  1
  Ga  Ga41  1  0.83496538  0.19925335  0.21587328  1
  Ga  Ga42  1  0.32801155  0.03476163  0.35955655  1
  Ga  Ga43  1  0.89250545  0.94235929  0.99705195  1
  Ga  Ga44  1  0.10749455  0.55764071  0.49705195  1
  Ga  Ga45  1  0.24392035  0.48303693  0.98334227  1
  Ga  Ga46  1  0.89665637  0.49269581  0.97463536  1
  Ga  Ga47  1  0.81455154  0.39457326  0.30211198  1
  Ga  Ga48  1  0.67198845  0.46523837  0.85955655  1
  Ga  Ga49  1  0.58167412  0.43056997  0.40170957  1
  Ga  Ga50  1  0.61537115  0.08911235  0.60468932  1
  Ga  Ga51  1  0.60334363  0.99269581  0.02536464  1
  Ga  Ga52  1  0.13798482  0.22208055  0.29513595  1
  Ga  Ga53  1  0.91832588  0.93056997  0.59829043  1
  Ga  Ga54  1  0.82801155  0.96523837  0.14044345  1
  Ga  Ga55  1  0.38462885  0.41088765  0.10468932  1
  Ga  Ga56  1  0.38518110  0.52870241  0.75730859  1
  Ga  Ga57  1  0.39250545  0.05764071  0.50294805  1
  Ga  Ga58  1  0.75607965  0.01696307  0.48334227  1
  Ga  Ga59  1  0.08167412  0.56943003  0.09829043  1
  Ga  Ga60  1  0.63798482  0.77791945  0.20486405  1
  Ga  Ga61  1  0.18544846  0.10542674  0.80211198  1
  Ga  Ga62  1  0.60749455  0.44235929  0.00294805  1
  Ga  Ga63  1  0.59837407  0.27866240  0.51724271  1
  Se  Se64  1  0.48143716  0.25180747  0.09863407  1
  Se  Se65  1  0.06604743  0.86979232  0.53185806  1
  Se  Se66  1  0.18049381  0.14853782  0.02016832  1
  Se  Se67  1  0.68615635  0.33201171  0.23462372  1
  Se  Se68  1  0.98738671  0.25330567  0.15311378  1
  Se  Se69  1  0.21366110  0.65343490  0.76530616  1
  Se  Se70  1  0.56279592  0.60997293  0.21424572  1
  Se  Se71  1  0.56598427  0.04278277  0.33518859  1
  Se  Se72  1  0.98143716  0.74819253  0.40136593  1
  Se  Se73  1  0.94649065  0.02473768  0.92132116  1
  Se  Se74  1  0.93504164  0.11842834  0.28677279  1
  Se  Se75  1  0.67544820  0.07507670  0.18551100  1
  Se  Se76  1  0.68710186  0.07322184  0.69118300  1
  Se  Se77  1  0.43395257  0.36979232  0.46814194  1
  Se  Se78  1  0.01261329  0.24669433  0.65311378  1
  Se  Se79  1  0.51856284  0.24819253  0.59863407  1
  Se  Se80  1  0.81471341  0.05770959  0.06163086  1
  Se  Se81  1  0.75348911  0.81304296  0.62409839  1
  Se  Se82  1  0.71366110  0.34656510  0.73469384  1
  Se  Se83  1  0.28633890  0.15343490  0.23469384  1
  Se  Se84  1  0.82455180  0.57507670  0.81448900  1
  Se  Se85  1  0.33271492  0.91876033  0.93784530  1
  Se  Se86  1  0.68528659  0.55770959  0.93836914  1
  Se  Se87  1  0.92195653  0.04520471  0.42117558  1
  Se  Se88  1  0.31144258  0.64856733  0.48427261  1
  Se  Se89  1  0.31384365  0.16798829  0.73462372  1
  Se  Se90  1  0.18528659  0.44229041  0.56163086  1
  Se  Se91  1  0.55350935  0.52473768  0.07867884  1
  Se  Se92  1  0.74726750  0.80062562  0.12784544  1
  Se  Se93  1  0.81950619  0.35146218  0.52016832  1
  Se  Se94  1  0.44649065  0.97526232  0.57867884  1
  Se  Se95  1  0.81289814  0.57322184  0.30881700  1
  Se  Se96  1  0.93555645  0.53356165  0.16606041  1
  Se  Se97  1  0.57804347  0.54520471  0.57882442  1
  Se  Se98  1  0.56604743  0.13020768  0.96814194  1
  Se  Se99  1  0.18710186  0.92677816  0.80881700  1
  Se  Se100  1  0.93395257  0.63020768  0.03185806  1
  Se  Se101  1  0.06598427  0.95721723  0.16481141  1
  Se  Se102  1  0.01856284  0.75180747  0.90136593  1
  Se  Se103  1  0.66728508  0.58123967  0.43784530  1
  Se  Se104  1  0.58084519  0.13612146  0.46191111  1
  Se  Se105  1  0.51261329  0.75330567  0.84688622  1
  Se  Se106  1  0.68049381  0.85146218  0.47983168  1
  Se  Se107  1  0.06279592  0.39002707  0.28575428  1
  Se  Se108  1  0.74651089  0.31304296  0.37590161  1
  Se  Se109  1  0.93401573  0.54278277  0.66481141  1
  Se  Se110  1  0.48738671  0.74669433  0.34688622  1
  Se  Se111  1  0.68855742  0.85143267  0.98427261  1
  Se  Se112  1  0.41915481  0.36387854  0.96191111  1
  Se  Se113  1  0.81384365  0.83201171  0.76537628  1
  Se  Se114  1  0.18615635  0.66798829  0.26537628  1
  Se  Se115  1  0.75273250  0.30062562  0.87215456  1
  Se  Se116  1  0.06444355  0.96643835  0.66606041  1
  Se  Se117  1  0.43720408  0.89002707  0.71424572  1
  Se  Se118  1  0.08084519  0.86387854  0.03808889  1
  Se  Se119  1  0.83271492  0.08123967  0.56215470  1
  Se  Se120  1  0.93720408  0.10997293  0.78575428  1
  Se  Se121  1  0.18855742  0.14856733  0.51572739  1
  Se  Se122  1  0.24726750  0.19937438  0.37215456  1
  Se  Se123  1  0.07804347  0.45479529  0.92117558  1
  Se  Se124  1  0.24651089  0.68695704  0.12409839  1
  Se  Se125  1  0.05350935  0.47526232  0.42132116  1
  Se  Se126  1  0.56495836  0.61842834  0.71322721  1
  Se  Se127  1  0.25273250  0.69937438  0.62784544  1
  Se  Se128  1  0.31471341  0.94229041  0.43836914  1
  Se  Se129  1  0.17544820  0.92492330  0.31448900  1
  Se  Se130  1  0.31950619  0.64853782  0.97983168  1
  Se  Se131  1  0.56444355  0.03356165  0.83393959  1
  Se  Se132  1  0.32455180  0.42492330  0.68551100  1
  Se  Se133  1  0.81144258  0.35143267  0.01572739  1
  Se  Se134  1  0.43555645  0.46643835  0.33393959  1
  Se  Se135  1  0.06495836  0.38157166  0.78677279  1
  Se  Se136  1  0.43504164  0.88157166  0.21322721  1
  Se  Se137  1  0.31289814  0.42677816  0.19118300  1
  Se  Se138  1  0.78633890  0.84656510  0.26530616  1
  Se  Se139  1  0.91915481  0.63612146  0.53808889  1
  Se  Se140  1  0.16728508  0.41876033  0.06215470  1
  Se  Se141  1  0.43401573  0.45721723  0.83518859  1
  Se  Se142  1  0.42195653  0.95479529  0.07882442  1
  Se  Se143  1  0.25348911  0.18695704  0.87590161  1
