# generated using pymatgen
data_LaSe2
_symmetry_space_group_name_H-M   'P 1'
_cell_length_a   4.28006777
_cell_length_b   8.56277307
_cell_length_c   8.63809200
_cell_angle_alpha   89.78884390
_cell_angle_beta   90.00000000
_cell_angle_gamma   90.00000000
_symmetry_Int_Tables_number   1
_chemical_formula_structural   LaSe2
_chemical_formula_sum   'La4 Se8'
_cell_volume   316.57743532
_cell_formula_units_Z   4
loop_
 _symmetry_equiv_pos_site_id
 _symmetry_equiv_pos_as_xyz
  1  'x, y, z'
loop_
 _atom_site_type_symbol
 _atom_site_label
 _atom_site_symmetry_multiplicity
 _atom_site_fract_x
 _atom_site_fract_y
 _atom_site_fract_z
 _atom_site_occupancy
  La  La0  1  0.22024017  0.87223299  0.27645581  1
  La  La1  1  0.27975983  0.37223299  0.27645581  1
  La  La2  1  0.77975983  0.12776701  0.72354419  1
  La  La3  1  0.72024017  0.62776701  0.72354419  1
  Se  Se4  1  0.67765002  0.88276137  0.00237077  1
  Se  Se5  1  0.17765002  0.61723863  0.99762923  1
  Se  Se6  1  0.82234998  0.38276137  0.00237077  1
  Se  Se7  1  0.75862263  0.12509455  0.36548513  1
  Se  Se8  1  0.25862263  0.37490545  0.63451487  1
  Se  Se9  1  0.32234998  0.11723863  0.99762923  1
  Se  Se10  1  0.74137737  0.62509455  0.36548513  1
  Se  Se11  1  0.24137737  0.87490545  0.63451487  1
