# generated using pymatgen
data_TlGaCl4
_symmetry_space_group_name_H-M   'P 1'
_cell_length_a   7.24620501
_cell_length_b   9.64456705
_cell_length_c   11.01714067
_cell_angle_alpha   90.00000000
_cell_angle_beta   90.00000000
_cell_angle_gamma   90.00000000
_symmetry_Int_Tables_number   1
_chemical_formula_structural   TlGaCl4
_chemical_formula_sum   'Tl4 Ga4 Cl16'
_cell_volume   769.94951245
_cell_formula_units_Z   4
loop_
 _symmetry_equiv_pos_site_id
 _symmetry_equiv_pos_as_xyz
  1  'x, y, z'
loop_
 _atom_site_type_symbol
 _atom_site_label
 _atom_site_symmetry_multiplicity
 _atom_site_fract_x
 _atom_site_fract_y
 _atom_site_fract_z
 _atom_site_occupancy
  Tl  Tl0  1  0.75000000  0.30869532  0.18847811  1
  Tl  Tl1  1  0.75000000  0.19130468  0.68847811  1
  Tl  Tl2  1  0.25000000  0.80869532  0.31152189  1
  Tl  Tl3  1  0.25000000  0.69130468  0.81152189  1
  Ga  Ga4  1  0.75000000  0.81389184  0.06528709  1
  Ga  Ga5  1  0.75000000  0.68610816  0.56528709  1
  Ga  Ga6  1  0.25000000  0.31389184  0.43471291  1
  Ga  Ga7  1  0.25000000  0.18610816  0.93471291  1
  Cl  Cl8  1  0.99735714  0.67943134  0.07405120  1
  Cl  Cl9  1  0.25000000  0.07231175  0.10678785  1
  Cl  Cl10  1  0.00264286  0.17943134  0.42594880  1
  Cl  Cl11  1  0.75000000  0.57231175  0.39321215  1
  Cl  Cl12  1  0.75000000  0.95171040  0.22405451  1
  Cl  Cl13  1  0.50264286  0.82056866  0.57405120  1
  Cl  Cl14  1  0.49735714  0.32056866  0.92594880  1
  Cl  Cl15  1  0.75000000  0.54828960  0.72405451  1
  Cl  Cl16  1  0.75000000  0.92768825  0.89321215  1
  Cl  Cl17  1  0.99735714  0.82056866  0.57405120  1
  Cl  Cl18  1  0.49735714  0.17943134  0.42594880  1
  Cl  Cl19  1  0.25000000  0.42768825  0.60678785  1
  Cl  Cl20  1  0.00264286  0.32056866  0.92594880  1
  Cl  Cl21  1  0.25000000  0.45171040  0.27594549  1
  Cl  Cl22  1  0.25000000  0.04828960  0.77594549  1
  Cl  Cl23  1  0.50264286  0.67943134  0.07405120  1
