# generated using pymatgen
data_Nd4Te3N2
_symmetry_space_group_name_H-M   'P 1'
_cell_length_a   7.43035174
_cell_length_b   11.43199337
_cell_length_c   11.78029537
_cell_angle_alpha   90.00000000
_cell_angle_beta   90.00000000
_cell_angle_gamma   90.00000000
_symmetry_Int_Tables_number   1
_chemical_formula_structural   Nd4Te3N2
_chemical_formula_sum   'Nd16 Te12 N8'
_cell_volume   1000.66225077
_cell_formula_units_Z   4
loop_
 _symmetry_equiv_pos_site_id
 _symmetry_equiv_pos_as_xyz
  1  'x, y, z'
loop_
 _atom_site_type_symbol
 _atom_site_label
 _atom_site_symmetry_multiplicity
 _atom_site_fract_x
 _atom_site_fract_y
 _atom_site_fract_z
 _atom_site_occupancy
  Nd  Nd0  1  0.14517327  0.39037313  0.04938940  1
  Nd  Nd1  1  0.40952595  0.15878278  0.75000000  1
  Nd  Nd2  1  0.35482673  0.89037313  0.95061060  1
  Nd  Nd3  1  0.73051439  0.46847885  0.25000000  1
  Nd  Nd4  1  0.85482673  0.60962687  0.54938940  1
  Nd  Nd5  1  0.76948561  0.96847885  0.75000000  1
  Nd  Nd6  1  0.26948561  0.53152115  0.75000000  1
  Nd  Nd7  1  0.14517327  0.39037313  0.45061060  1
  Nd  Nd8  1  0.35482673  0.89037313  0.54938940  1
  Nd  Nd9  1  0.09047405  0.65878278  0.25000000  1
  Nd  Nd10  1  0.90952595  0.34121722  0.75000000  1
  Nd  Nd11  1  0.23051439  0.03152115  0.25000000  1
  Nd  Nd12  1  0.64517327  0.10962687  0.45061060  1
  Nd  Nd13  1  0.59047405  0.84121722  0.25000000  1
  Nd  Nd14  1  0.85482673  0.60962687  0.95061060  1
  Nd  Nd15  1  0.64517327  0.10962687  0.04938940  1
  Te  Te16  1  0.06549983  0.13567117  0.92077227  1
  Te  Te17  1  0.08293704  0.77459739  0.75000000  1
  Te  Te18  1  0.56549983  0.36432883  0.92077227  1
  Te  Te19  1  0.58293704  0.72540261  0.75000000  1
  Te  Te20  1  0.93450017  0.86432883  0.07922773  1
  Te  Te21  1  0.43450017  0.63567117  0.07922773  1
  Te  Te22  1  0.91706296  0.22540261  0.25000000  1
  Te  Te23  1  0.93450017  0.86432883  0.42077227  1
  Te  Te24  1  0.06549983  0.13567117  0.57922773  1
  Te  Te25  1  0.43450017  0.63567117  0.42077227  1
  Te  Te26  1  0.56549983  0.36432883  0.57922773  1
  Te  Te27  1  0.41706296  0.27459739  0.25000000  1
  N  N28  1  0.44714548  0.96762101  0.37807952  1
  N  N29  1  0.55285452  0.03237899  0.87807952  1
  N  N30  1  0.94714548  0.53237899  0.37807952  1
  N  N31  1  0.05285452  0.46762101  0.62192048  1
  N  N32  1  0.94714548  0.53237899  0.12192048  1
  N  N33  1  0.05285452  0.46762101  0.87807952  1
  N  N34  1  0.55285452  0.03237899  0.62192048  1
  N  N35  1  0.44714548  0.96762101  0.12192048  1
