# generated using pymatgen
data_V2Ga8Cu3
_symmetry_space_group_name_H-M   'P 1'
_cell_length_a   10.24841296
_cell_length_b   10.24841302
_cell_length_c   10.24841329
_cell_angle_alpha   109.47122115
_cell_angle_beta   109.47122127
_cell_angle_gamma   109.47121988
_symmetry_Int_Tables_number   1
_chemical_formula_structural   V2Ga8Cu3
_chemical_formula_sum   'V8 Ga32 Cu12'
_cell_volume   828.60581043
_cell_formula_units_Z   4
loop_
 _symmetry_equiv_pos_site_id
 _symmetry_equiv_pos_as_xyz
  1  'x, y, z'
loop_
 _atom_site_type_symbol
 _atom_site_label
 _atom_site_symmetry_multiplicity
 _atom_site_fract_x
 _atom_site_fract_y
 _atom_site_fract_z
 _atom_site_occupancy
  V  V0  1  0.50000000  0.00000000  0.02421291  1
  V  V1  1  0.52421291  0.50000000  1.00000000  1
  V  V2  1  0.00000000  0.02421291  0.50000000  1
  V  V3  1  0.50000000  0.00000000  0.52421291  1
  V  V4  1  0.00000000  0.52421291  0.50000000  1
  V  V5  1  0.47578709  0.47578709  0.47578709  1
  V  V6  1  0.02421291  0.50000000  1.00000000  1
  V  V7  1  0.97578709  0.97578709  0.97578709  1
  Ga  Ga8  1  0.99635835  0.74216105  0.00613545  1
  Ga  Ga9  1  0.77339950  0.50000000  1.00000000  1
  Ga  Ga10  1  0.50613545  0.24216105  0.49635835  1
  Ga  Ga11  1  0.00364165  0.24580270  0.00977710  1
  Ga  Ga12  1  0.76397440  0.25419730  0.25783895  1
  Ga  Ga13  1  0.49022290  0.73602560  0.99386455  1
  Ga  Ga14  1  0.49635835  0.50613545  0.24216105  1
  Ga  Ga15  1  0.00000000  0.77339950  0.50000000  1
  Ga  Ga16  1  0.99022290  0.49386455  0.23602560  1
  Ga  Ga17  1  0.75419730  0.26397440  0.75783895  1
  Ga  Ga18  1  0.24216105  0.49635835  0.50613545  1
  Ga  Ga19  1  0.22660050  0.22660050  0.22660050  1
  Ga  Ga20  1  0.25419730  0.25783895  0.76397440  1
  Ga  Ga21  1  0.00977710  0.00364165  0.24580270  1
  Ga  Ga22  1  0.27339950  0.50000000  1.00000000  1
  Ga  Ga23  1  0.74580270  0.50364165  0.50977710  1
  Ga  Ga24  1  0.72660050  0.72660050  0.72660050  1
  Ga  Ga25  1  0.74216105  0.00613545  0.99635835  1
  Ga  Ga26  1  0.49386455  0.23602560  0.99022290  1
  Ga  Ga27  1  0.25783895  0.76397440  0.25419730  1
  Ga  Ga28  1  0.73602560  0.99386455  0.49022290  1
  Ga  Ga29  1  0.23602560  0.99022290  0.49386455  1
  Ga  Ga30  1  0.50000000  0.00000000  0.77339950  1
  Ga  Ga31  1  0.99386455  0.49022290  0.73602560  1
  Ga  Ga32  1  0.75783895  0.75419730  0.26397440  1
  Ga  Ga33  1  0.50364165  0.50977710  0.74580270  1
  Ga  Ga34  1  0.50000000  0.00000000  0.27339950  1
  Ga  Ga35  1  0.00000000  0.27339950  0.50000000  1
  Ga  Ga36  1  0.26397440  0.75783895  0.75419730  1
  Ga  Ga37  1  0.24580270  0.00977710  0.00364165  1
  Ga  Ga38  1  0.50977710  0.74580270  0.50364165  1
  Ga  Ga39  1  0.00613545  0.99635835  0.74216105  1
  Cu  Cu40  1  0.25000000  0.74523711  0.49523711  1
  Cu  Cu41  1  0.25476289  0.25000000  0.50476289  1
  Cu  Cu42  1  0.75000000  0.75476289  0.00476289  1
  Cu  Cu43  1  0.49523711  0.25000000  0.74523711  1
  Cu  Cu44  1  0.74523711  0.49523711  0.25000000  1
  Cu  Cu45  1  0.75476289  0.00476289  0.75000000  1
  Cu  Cu46  1  0.00476289  0.75000000  0.75476289  1
  Cu  Cu47  1  0.24523711  0.75000000  0.99523711  1
  Cu  Cu48  1  0.50476289  0.25476289  0.25000000  1
  Cu  Cu49  1  0.99523711  0.24523711  0.75000000  1
  Cu  Cu50  1  0.75000000  0.99523711  0.24523711  1
  Cu  Cu51  1  0.25000000  0.50476289  0.25476289  1
