# generated using pymatgen
data_MgZn
_symmetry_space_group_name_H-M   'P 1'
_cell_length_a   4.80030427
_cell_length_b   3.04994603
_cell_length_c   15.17576086
_cell_angle_alpha   90.00000000
_cell_angle_beta   90.00000000
_cell_angle_gamma   90.00000000
_symmetry_Int_Tables_number   1
_chemical_formula_structural   MgZn
_chemical_formula_sum   'Mg6 Zn6'
_cell_volume   222.18329083
_cell_formula_units_Z   6
loop_
 _symmetry_equiv_pos_site_id
 _symmetry_equiv_pos_as_xyz
  1  'x, y, z'
loop_
 _atom_site_type_symbol
 _atom_site_label
 _atom_site_symmetry_multiplicity
 _atom_site_fract_x
 _atom_site_fract_y
 _atom_site_fract_z
 _atom_site_occupancy
  Mg  Mg0  1  -0.00000000  0.50000000  0.50171389  1
  Mg  Mg1  1  -0.00000000  0.50000000  0.82695144  1
  Mg  Mg2  1  0.50000000  0.00000000  0.56072079  1
  Mg  Mg3  1  -0.00000000  -0.00000000  0.00171389  1
  Mg  Mg4  1  -0.00000000  0.00000000  0.32695144  1
  Mg  Mg5  1  0.50000000  0.50000000  0.06072079  1
  Zn  Zn6  1  -0.00000000  -0.00000000  0.66675928  1
  Zn  Zn7  1  0.50000000  -0.00000000  0.88686972  1
  Zn  Zn8  1  0.50000000  0.50000000  0.72365188  1
  Zn  Zn9  1  -0.00000000  0.50000000  0.16675928  1
  Zn  Zn10  1  0.50000000  0.50000000  0.38686972  1
  Zn  Zn11  1  0.50000000  0.00000000  0.22365188  1
