# generated using pymatgen
data_Pr4Te3N2
_symmetry_space_group_name_H-M   'P 1'
_cell_length_a   7.47471681
_cell_length_b   11.52857719
_cell_length_c   11.85068693
_cell_angle_alpha   90.00000000
_cell_angle_beta   90.00000000
_cell_angle_gamma   90.00000000
_symmetry_Int_Tables_number   1
_chemical_formula_structural   Pr4Te3N2
_chemical_formula_sum   'Pr16 Te12 N8'
_cell_volume   1021.20746387
_cell_formula_units_Z   4
loop_
 _symmetry_equiv_pos_site_id
 _symmetry_equiv_pos_as_xyz
  1  'x, y, z'
loop_
 _atom_site_type_symbol
 _atom_site_label
 _atom_site_symmetry_multiplicity
 _atom_site_fract_x
 _atom_site_fract_y
 _atom_site_fract_z
 _atom_site_occupancy
  Pr  Pr0  1  0.85430496  0.60976377  0.54999487  1
  Pr  Pr1  1  0.14569504  0.39023623  0.45000513  1
  Pr  Pr2  1  0.09021888  0.65950729  0.25000000  1
  Pr  Pr3  1  0.22797485  0.03102917  0.25000000  1
  Pr  Pr4  1  0.27202515  0.53102917  0.75000000  1
  Pr  Pr5  1  0.40978112  0.15950729  0.75000000  1
  Pr  Pr6  1  0.14569504  0.39023623  0.04999487  1
  Pr  Pr7  1  0.77202515  0.96897083  0.75000000  1
  Pr  Pr8  1  0.72797485  0.46897083  0.25000000  1
  Pr  Pr9  1  0.59021888  0.84049271  0.25000000  1
  Pr  Pr10  1  0.35430496  0.89023623  0.54999487  1
  Pr  Pr11  1  0.64569504  0.10976377  0.04999487  1
  Pr  Pr12  1  0.35430496  0.89023623  0.95000513  1
  Pr  Pr13  1  0.90978112  0.34049271  0.75000000  1
  Pr  Pr14  1  0.85430496  0.60976377  0.95000513  1
  Pr  Pr15  1  0.64569504  0.10976377  0.45000513  1
  Te  Te16  1  0.91761844  0.22713221  0.25000000  1
  Te  Te17  1  0.08238156  0.77286779  0.75000000  1
  Te  Te18  1  0.56610571  0.36460832  0.57872138  1
  Te  Te19  1  0.06610571  0.13539168  0.92127862  1
  Te  Te20  1  0.41761844  0.27286779  0.25000000  1
  Te  Te21  1  0.58238156  0.72713221  0.75000000  1
  Te  Te22  1  0.56610571  0.36460832  0.92127862  1
  Te  Te23  1  0.43389429  0.63539168  0.42127862  1
  Te  Te24  1  0.93389429  0.86460832  0.07872138  1
  Te  Te25  1  0.93389429  0.86460832  0.42127862  1
  Te  Te26  1  0.06610571  0.13539168  0.57872138  1
  Te  Te27  1  0.43389429  0.63539168  0.07872138  1
  N  N28  1  0.05357461  0.46713448  0.62189566  1
  N  N29  1  0.55357461  0.03286552  0.87810434  1
  N  N30  1  0.44642539  0.96713448  0.37810434  1
  N  N31  1  0.94642539  0.53286552  0.37810434  1
  N  N32  1  0.94642539  0.53286552  0.12189566  1
  N  N33  1  0.44642539  0.96713448  0.12189566  1
  N  N34  1  0.55357461  0.03286552  0.62189566  1
  N  N35  1  0.05357461  0.46713448  0.87810434  1
