# generated using pymatgen
data_Ce4Ru3
_symmetry_space_group_name_H-M   'P 1'
_cell_length_a   6.03041150
_cell_length_b   7.81031230
_cell_length_c   8.05296731
_cell_angle_alpha   112.46893888
_cell_angle_beta   103.94670070
_cell_angle_gamma   105.96630151
_symmetry_Int_Tables_number   1
_chemical_formula_structural   Ce4Ru3
_chemical_formula_sum   'Ce8 Ru6'
_cell_volume   310.34772161
_cell_formula_units_Z   2
loop_
 _symmetry_equiv_pos_site_id
 _symmetry_equiv_pos_as_xyz
  1  'x, y, z'
loop_
 _atom_site_type_symbol
 _atom_site_label
 _atom_site_symmetry_multiplicity
 _atom_site_fract_x
 _atom_site_fract_y
 _atom_site_fract_z
 _atom_site_occupancy
  Ce  Ce0  1  0.04430898  0.87881896  0.26735608  1
  Ce  Ce1  1  0.62523266  0.34866221  1.00000571  1
  Ce  Ce2  1  0.95569102  0.12118104  0.73264392  1
  Ce  Ce3  1  0.22314610  0.38861453  0.26740778  1
  Ce  Ce4  1  0.66619405  0.16625577  0.33239740  1
  Ce  Ce5  1  0.37476734  0.65133779  -0.00000571  1
  Ce  Ce6  1  0.33380595  0.83374423  0.66760260  1
  Ce  Ce7  1  0.77685390  0.61138547  0.73259222  1
  Ru  Ru8  1  0.56266850  0.81788600  0.39757573  1
  Ru  Ru9  1  0.24369938  0.99319021  -0.00002075  1
  Ru  Ru10  1  0.16517638  0.42046078  0.60241882  1
  Ru  Ru11  1  0.83482362  0.57953922  0.39758118  1
  Ru  Ru12  1  0.75630062  0.00680979  1.00002075  1
  Ru  Ru13  1  0.43733150  0.18211400  0.60242427  1
