# generated using pymatgen
data_Dy5C2I9
_symmetry_space_group_name_H-M   'P 1'
_cell_length_a   10.92481437
_cell_length_b   12.63059321
_cell_length_c   17.45651604
_cell_angle_alpha   90.00000000
_cell_angle_beta   90.00000000
_cell_angle_gamma   105.75376366
_symmetry_Int_Tables_number   1
_chemical_formula_structural   Dy5C2I9
_chemical_formula_sum   'Dy20 C8 I36'
_cell_volume   2318.29062621
_cell_formula_units_Z   4
loop_
 _symmetry_equiv_pos_site_id
 _symmetry_equiv_pos_as_xyz
  1  'x, y, z'
loop_
 _atom_site_type_symbol
 _atom_site_label
 _atom_site_symmetry_multiplicity
 _atom_site_fract_x
 _atom_site_fract_y
 _atom_site_fract_z
 _atom_site_occupancy
  Dy  Dy0  1  0.73963271  0.25250965  0.55341648  1
  Dy  Dy1  1  0.14436590  0.44614329  0.82096897  1
  Dy  Dy2  1  0.69931109  0.21620539  0.34505186  1
  Dy  Dy3  1  0.61651411  0.96625793  0.46060939  1
  Dy  Dy4  1  0.76036729  0.24749035  0.05341648  1
  Dy  Dy5  1  0.85563410  0.55385671  0.17903103  1
  Dy  Dy6  1  0.88348589  0.53374207  0.96060939  1
  Dy  Dy7  1  0.38348589  0.03374207  0.53939061  1
  Dy  Dy8  1  0.03690897  0.19945060  0.94234139  1
  Dy  Dy9  1  0.35563410  0.05385671  0.32096897  1
  Dy  Dy10  1  0.53690897  0.69945060  0.55765861  1
  Dy  Dy11  1  0.19931109  0.71620539  0.15494814  1
  Dy  Dy12  1  0.80068891  0.28379461  0.84505186  1
  Dy  Dy13  1  0.46309103  0.30054940  0.44234139  1
  Dy  Dy14  1  0.96309103  0.80054940  0.05765861  1
  Dy  Dy15  1  0.26036729  0.74749035  0.44658352  1
  Dy  Dy16  1  0.64436590  0.94614329  0.67903103  1
  Dy  Dy17  1  0.30068891  0.78379461  0.65494814  1
  Dy  Dy18  1  0.11651411  0.46625793  0.03939061  1
  Dy  Dy19  1  0.23963271  0.75250965  0.94658352  1
  C  C20  1  0.40698586  0.83740068  0.53043352  1
  C  C21  1  0.00602068  0.38335162  0.91571242  1
  C  C22  1  0.59301414  0.16259932  0.46956648  1
  C  C23  1  0.49397932  0.11664838  0.41571242  1
  C  C24  1  0.90698586  0.33740068  0.96956648  1
  C  C25  1  0.50602068  0.88335162  0.58428758  1
  C  C26  1  0.09301414  0.66259932  0.03043352  1
  C  C27  1  0.99397932  0.61664838  0.08428758  1
  I  I28  1  0.06582345  0.65482226  0.56520435  1
  I  I29  1  0.24575489  0.25030385  0.81922504  1
  I  I30  1  0.14105252  0.95687315  0.94154083  1
  I  I31  1  0.54806066  0.14207589  0.19287058  1
  I  I32  1  0.57239172  0.16734599  0.69694181  1
  I  I33  1  0.04806066  0.64207589  0.30712942  1
  I  I34  1  0.64001234  0.43947650  0.31704508  1
  I  I35  1  0.85475427  0.05624425  0.56620896  1
  I  I36  1  0.35998766  0.56052350  0.68295492  1
  I  I37  1  0.45193934  0.85792411  0.80712942  1
  I  I38  1  0.64105252  0.45687315  0.55845917  1
  I  I39  1  0.07239172  0.66734599  0.80305819  1
  I  I40  1  0.31444042  0.53352148  0.17338321  1
  I  I41  1  0.92760828  0.33265401  0.19694181  1
  I  I42  1  0.81444042  0.03352148  0.32661679  1
  I  I43  1  0.85894748  0.04312685  0.05845917  1
  I  I44  1  0.22945246  0.26571031  0.06263693  1
  I  I45  1  0.43417655  0.84517774  0.06520435  1
  I  I46  1  0.77054754  0.73428969  0.93736307  1
  I  I47  1  0.68555958  0.46647852  0.82661679  1
  I  I48  1  0.72945246  0.76571031  0.43736307  1
  I  I49  1  0.14001234  0.93947650  0.18295492  1
  I  I50  1  0.18555958  0.96647852  0.67338321  1
  I  I51  1  0.95193934  0.35792411  0.69287058  1
  I  I52  1  0.85998766  0.06052350  0.81704508  1
  I  I53  1  0.93417655  0.34517774  0.43479565  1
  I  I54  1  0.74575489  0.75030385  0.68077496  1
  I  I55  1  0.35894748  0.54312685  0.44154083  1
  I  I56  1  0.14524573  0.94375575  0.43379104  1
  I  I57  1  0.64524573  0.44375575  0.06620896  1
  I  I58  1  0.25424511  0.24969615  0.31922504  1
  I  I59  1  0.35475427  0.55624425  0.93379104  1
  I  I60  1  0.56582345  0.15482226  0.93479565  1
  I  I61  1  0.75424511  0.74969615  0.18077496  1
  I  I62  1  0.27054754  0.23428969  0.56263693  1
  I  I63  1  0.42760828  0.83265401  0.30305819  1
