# generated using pymatgen
data_Ca(AlCl4)2
_symmetry_space_group_name_H-M   'P 1'
_cell_length_a   11.67061473
_cell_length_b   11.67061459
_cell_length_c   12.93287798
_cell_angle_alpha   116.82066546
_cell_angle_beta   116.82066515
_cell_angle_gamma   90.00000115
_symmetry_Int_Tables_number   1
_chemical_formula_structural   Ca(AlCl4)2
_chemical_formula_sum   'Ca4 Al8 Cl32'
_cell_volume   1356.28418182
_cell_formula_units_Z   4
loop_
 _symmetry_equiv_pos_site_id
 _symmetry_equiv_pos_as_xyz
  1  'x, y, z'
loop_
 _atom_site_type_symbol
 _atom_site_label
 _atom_site_symmetry_multiplicity
 _atom_site_fract_x
 _atom_site_fract_y
 _atom_site_fract_z
 _atom_site_occupancy
  Ca  Ca0  1  0.37500000  0.62500000  0.75000000  1
  Ca  Ca1  1  0.62500000  0.37500000  0.25000000  1
  Ca  Ca2  1  0.12500000  0.87500000  0.25000000  1
  Ca  Ca3  1  0.87500000  0.12500000  0.75000000  1
  Al  Al4  1  0.25000000  0.22432735  0.00000000  1
  Al  Al5  1  0.22432735  0.75000000  0.50000000  1
  Al  Al6  1  0.72432735  0.75000000  0.50000000  1
  Al  Al7  1  0.75000000  0.27567265  0.00000000  1
  Al  Al8  1  0.27567265  0.25000000  0.50000000  1
  Al  Al9  1  0.25000000  0.72432735  0.00000000  1
  Al  Al10  1  0.75000000  0.77567265  0.00000000  1
  Al  Al11  1  0.77567265  0.25000000  0.50000000  1
  Cl  Cl12  1  0.58113509  0.19261387  0.32480002  1
  Cl  Cl13  1  0.19261387  0.74366493  0.82480002  1
  Cl  Cl14  1  0.25633507  0.36781385  0.67519998  1
  Cl  Cl15  1  0.60011780  0.87944042  0.01061592  1
  Cl  Cl16  1  0.91049812  0.37944042  0.01061592  1
  Cl  Cl17  1  0.87944042  0.41049812  0.51061592  1
  Cl  Cl18  1  0.41886491  0.80738613  0.67519998  1
  Cl  Cl19  1  0.63218615  0.58113509  0.82480002  1
  Cl  Cl20  1  0.08113509  0.13218615  0.32480002  1
  Cl  Cl21  1  0.62055958  0.89988220  0.48938408  1
  Cl  Cl22  1  0.41049812  0.63117550  0.01061592  1
  Cl  Cl23  1  0.08950188  0.62055958  0.98938408  1
  Cl  Cl24  1  0.12055958  0.58950188  0.48938408  1
  Cl  Cl25  1  0.86781385  0.75633507  0.17519998  1
  Cl  Cl26  1  0.91886491  0.86781385  0.67519998  1
  Cl  Cl27  1  0.13218615  0.24366493  0.82480002  1
  Cl  Cl28  1  0.58950188  0.36882450  0.98938408  1
  Cl  Cl29  1  0.30738613  0.91886491  0.17519998  1
  Cl  Cl30  1  0.69261387  0.08113509  0.82480002  1
  Cl  Cl31  1  0.74366493  0.63218615  0.32480002  1
  Cl  Cl32  1  0.13117550  0.91049812  0.51061592  1
  Cl  Cl33  1  0.86882450  0.08950188  0.48938408  1
  Cl  Cl34  1  0.80738613  0.25633507  0.17519998  1
  Cl  Cl35  1  0.75633507  0.30738613  0.67519998  1
  Cl  Cl36  1  0.89988220  0.86882450  0.98938408  1
  Cl  Cl37  1  0.39988220  0.12055958  0.98938408  1
  Cl  Cl38  1  0.24366493  0.69261387  0.32480002  1
  Cl  Cl39  1  0.37944042  0.10011780  0.51061592  1
  Cl  Cl40  1  0.10011780  0.13117550  0.01061592  1
  Cl  Cl41  1  0.63117550  0.60011780  0.51061592  1
  Cl  Cl42  1  0.36781385  0.41886491  0.17519998  1
  Cl  Cl43  1  0.36882450  0.39988220  0.48938408  1
