# generated using pymatgen
data_Hf3Tl2(CuSe4)2
_symmetry_space_group_name_H-M   'P 1'
_cell_length_a   3.82185802
_cell_length_b   7.70729672
_cell_length_c   13.39510418
_cell_angle_alpha   82.06573367
_cell_angle_beta   81.78201786
_cell_angle_gamma   75.64207795
_symmetry_Int_Tables_number   1
_chemical_formula_structural   Hf3Tl2(CuSe4)2
_chemical_formula_sum   'Hf3 Tl2 Cu2 Se8'
_cell_volume   376.14771270
_cell_formula_units_Z   1
loop_
 _symmetry_equiv_pos_site_id
 _symmetry_equiv_pos_as_xyz
  1  'x, y, z'
loop_
 _atom_site_type_symbol
 _atom_site_label
 _atom_site_symmetry_multiplicity
 _atom_site_fract_x
 _atom_site_fract_y
 _atom_site_fract_z
 _atom_site_occupancy
  Hf  Hf0  1  0.34493921  0.92995210  0.38017300  1
  Hf  Hf1  1  0.65506079  0.07004790  0.61982700  1
  Hf  Hf2  1  0.50000000  0.00000000  0.00000000  1
  Tl  Tl3  1  0.66857219  0.46456841  0.19837307  1
  Tl  Tl4  1  0.33142781  0.53543159  0.80162693  1
  Cu  Cu5  1  0.96027123  0.88341326  0.19797880  1
  Cu  Cu6  1  0.03972877  0.11658674  0.80202120  1
  Se  Se7  1  0.10740236  0.74574334  0.03960553  1
  Se  Se8  1  0.98009633  0.68498076  0.35543968  1
  Se  Se9  1  0.01990367  0.31501924  0.64456032  1
  Se  Se10  1  0.29505361  0.82807728  0.58136880  1
  Se  Se11  1  0.70494639  0.17192272  0.41863120  1
  Se  Se12  1  0.64278270  0.90434059  0.80920070  1
  Se  Se13  1  0.35721730  0.09565941  0.19079930  1
  Se  Se14  1  0.89259764  0.25425666  0.96039447  1
