# generated using pymatgen
data_CsTiCu3Se4
_symmetry_space_group_name_H-M   'P 1'
_cell_length_a   5.82540742
_cell_length_b   7.85482013
_cell_length_c   10.39528129
_cell_angle_alpha   90.00000000
_cell_angle_beta   106.30062029
_cell_angle_gamma   90.00000000
_symmetry_Int_Tables_number   1
_chemical_formula_structural   CsTiCu3Se4
_chemical_formula_sum   'Cs2 Ti2 Cu6 Se8'
_cell_volume   456.54181400
_cell_formula_units_Z   2
loop_
 _symmetry_equiv_pos_site_id
 _symmetry_equiv_pos_as_xyz
  1  'x, y, z'
loop_
 _atom_site_type_symbol
 _atom_site_label
 _atom_site_symmetry_multiplicity
 _atom_site_fract_x
 _atom_site_fract_y
 _atom_site_fract_z
 _atom_site_occupancy
  Cs  Cs0  1  0.82158104  0.75000000  0.62199006  1
  Cs  Cs1  1  0.17841896  0.25000000  0.37800994  1
  Ti  Ti2  1  0.64804186  0.25000000  0.79468321  1
  Ti  Ti3  1  0.35195814  0.75000000  0.20531679  1
  Cu  Cu4  1  0.27789575  0.49422241  0.99786696  1
  Cu  Cu5  1  0.14990159  0.25000000  0.80033869  1
  Cu  Cu6  1  0.85009841  0.75000000  0.19966131  1
  Cu  Cu7  1  0.72210425  0.50577759  0.00213304  1
  Cu  Cu8  1  0.72210425  0.99422241  0.00213304  1
  Cu  Cu9  1  0.27789575  0.00577759  0.99786696  1
  Se  Se10  1  0.40228888  0.50311799  0.78921898  1
  Se  Se11  1  0.59771112  0.00311799  0.21078102  1
  Se  Se12  1  0.40228888  0.99688201  0.78921898  1
  Se  Se13  1  0.59771112  0.49688201  0.21078102  1
  Se  Se14  1  0.01791143  0.75000000  0.99691556  1
  Se  Se15  1  0.98208857  0.25000000  0.00308444  1
  Se  Se16  1  0.20177292  0.75000000  0.39381390  1
  Se  Se17  1  0.79822708  0.25000000  0.60618610  1
