# generated using pymatgen
data_TaI5
_symmetry_space_group_name_H-M   'P 1'
_cell_length_a   7.12453675
_cell_length_b   15.08173403
_cell_length_c   20.91725088
_cell_angle_alpha   90.00000000
_cell_angle_beta   90.00000000
_cell_angle_gamma   90.00000000
_symmetry_Int_Tables_number   1
_chemical_formula_structural   TaI5
_chemical_formula_sum   'Ta8 I40'
_cell_volume   2247.56631193
_cell_formula_units_Z   8
loop_
 _symmetry_equiv_pos_site_id
 _symmetry_equiv_pos_as_xyz
  1  'x, y, z'
loop_
 _atom_site_type_symbol
 _atom_site_label
 _atom_site_symmetry_multiplicity
 _atom_site_fract_x
 _atom_site_fract_y
 _atom_site_fract_z
 _atom_site_occupancy
  Ta  Ta0  1  0.49770354  0.12552036  0.14141242  1
  Ta  Ta1  1  0.49770354  0.12552036  0.35858758  1
  Ta  Ta2  1  0.50229646  0.87447964  0.85858758  1
  Ta  Ta3  1  0.00229646  0.62552036  0.14141242  1
  Ta  Ta4  1  0.99770354  0.37447964  0.85858758  1
  Ta  Ta5  1  0.99770354  0.37447964  0.64141242  1
  Ta  Ta6  1  0.50229646  0.87447964  0.64141242  1
  Ta  Ta7  1  0.00229646  0.62552036  0.35858758  1
  I  I8  1  0.25794550  0.04507826  0.43722984  1
  I  I9  1  0.21108001  0.30286633  0.75000000  1
  I  I10  1  0.76231415  0.70529807  0.06238393  1
  I  I11  1  0.28407005  0.05415029  0.25000000  1
  I  I12  1  0.75794550  0.45492174  0.93722984  1
  I  I13  1  0.27707272  0.27277208  0.15101388  1
  I  I14  1  0.21592995  0.55415029  0.25000000  1
  I  I15  1  0.21868271  0.52162518  0.84864731  1
  I  I16  1  0.72292728  0.72722792  0.84898612  1
  I  I17  1  0.71868271  0.97837482  0.34864731  1
  I  I18  1  0.78407005  0.44584971  0.75000000  1
  I  I19  1  0.22292728  0.77277208  0.34898612  1
  I  I20  1  0.28131729  0.02162518  0.65135269  1
  I  I21  1  0.77707272  0.22722792  0.84898612  1
  I  I22  1  0.73768585  0.20529807  0.06238393  1
  I  I23  1  0.27707272  0.27277208  0.34898612  1
  I  I24  1  0.23768585  0.29470193  0.93761607  1
  I  I25  1  0.24205450  0.54507826  0.43722984  1
  I  I26  1  0.73768585  0.20529807  0.43761607  1
  I  I27  1  0.23768585  0.29470193  0.56238393  1
  I  I28  1  0.71108001  0.19713367  0.25000000  1
  I  I29  1  0.22292728  0.77277208  0.15101388  1
  I  I30  1  0.78891999  0.69713367  0.25000000  1
  I  I31  1  0.77707272  0.22722792  0.65101388  1
  I  I32  1  0.28131729  0.02162518  0.84864731  1
  I  I33  1  0.28891999  0.80286633  0.75000000  1
  I  I34  1  0.78131729  0.47837482  0.15135269  1
  I  I35  1  0.74205450  0.95492174  0.93722984  1
  I  I36  1  0.71592995  0.94584971  0.75000000  1
  I  I37  1  0.24205450  0.54507826  0.06277016  1
  I  I38  1  0.76231415  0.70529807  0.43761607  1
  I  I39  1  0.25794550  0.04507826  0.06277016  1
  I  I40  1  0.21868271  0.52162518  0.65135269  1
  I  I41  1  0.72292728  0.72722792  0.65101388  1
  I  I42  1  0.78131729  0.47837482  0.34864731  1
  I  I43  1  0.75794550  0.45492174  0.56277016  1
  I  I44  1  0.71868271  0.97837482  0.15135269  1
  I  I45  1  0.74205450  0.95492174  0.56277016  1
  I  I46  1  0.26231415  0.79470193  0.93761607  1
  I  I47  1  0.26231415  0.79470193  0.56238393  1
