# generated using pymatgen
data_Sm3(Ge3Pt2)2
_symmetry_space_group_name_H-M   'P 1'
_cell_length_a   4.41439580
_cell_length_b   8.86925865
_cell_length_c   26.40110320
_cell_angle_alpha   90.00000000
_cell_angle_beta   90.00000000
_cell_angle_gamma   90.00000000
_symmetry_Int_Tables_number   1
_chemical_formula_structural   Sm3(Ge3Pt2)2
_chemical_formula_sum   'Sm12 Ge24 Pt16'
_cell_volume   1033.66703168
_cell_formula_units_Z   4
loop_
 _symmetry_equiv_pos_site_id
 _symmetry_equiv_pos_as_xyz
  1  'x, y, z'
loop_
 _atom_site_type_symbol
 _atom_site_label
 _atom_site_symmetry_multiplicity
 _atom_site_fract_x
 _atom_site_fract_y
 _atom_site_fract_z
 _atom_site_occupancy
  Sm  Sm0  1  0.25000000  0.11348834  0.59225156  1
  Sm  Sm1  1  0.75000000  0.12570577  0.28010631  1
  Sm  Sm2  1  0.75000000  0.61348834  0.90774844  1
  Sm  Sm3  1  0.75000000  0.36465051  0.40717983  1
  Sm  Sm4  1  0.75000000  0.88651166  0.40774844  1
  Sm  Sm5  1  0.75000000  0.37429423  0.78010631  1
  Sm  Sm6  1  0.75000000  0.13534949  0.90717983  1
  Sm  Sm7  1  0.25000000  0.63534949  0.59282017  1
  Sm  Sm8  1  0.25000000  0.38651166  0.09225156  1
  Sm  Sm9  1  0.25000000  0.87429423  0.71989369  1
  Sm  Sm10  1  0.25000000  0.62570577  0.21989369  1
  Sm  Sm11  1  0.25000000  0.86465051  0.09282017  1
  Ge  Ge12  1  0.75000000  0.02217828  0.78426873  1
  Ge  Ge13  1  0.75000000  0.62588955  0.13854453  1
  Ge  Ge14  1  0.25000000  0.37411045  0.86145547  1
  Ge  Ge15  1  0.25000000  0.62732204  0.99735920  1
  Ge  Ge16  1  0.25000000  0.27312241  0.21544755  1
  Ge  Ge17  1  0.25000000  0.52217828  0.71573127  1
  Ge  Ge18  1  0.75000000  0.72687759  0.78455245  1
  Ge  Ge19  1  0.75000000  0.37267796  0.00264080  1
  Ge  Ge20  1  0.75000000  0.12639035  0.14206358  1
  Ge  Ge21  1  0.25000000  0.22687759  0.71544755  1
  Ge  Ge22  1  0.75000000  0.77312241  0.28455245  1
  Ge  Ge23  1  0.25000000  0.62639035  0.35793642  1
  Ge  Ge24  1  0.75000000  0.47782172  0.28426873  1
  Ge  Ge25  1  0.75000000  0.87411045  0.63854453  1
  Ge  Ge26  1  0.25000000  0.12194448  0.00141986  1
  Ge  Ge27  1  0.25000000  0.37805552  0.50141986  1
  Ge  Ge28  1  0.25000000  0.12588955  0.36145547  1
  Ge  Ge29  1  0.75000000  0.87805552  0.99858014  1
  Ge  Ge30  1  0.25000000  0.97782172  0.21573127  1
  Ge  Ge31  1  0.75000000  0.12732204  0.50264080  1
  Ge  Ge32  1  0.75000000  0.37360965  0.64206358  1
  Ge  Ge33  1  0.75000000  0.62194448  0.49858014  1
  Ge  Ge34  1  0.25000000  0.87360965  0.85793642  1
  Ge  Ge35  1  0.25000000  0.87267796  0.49735920  1
  Pt  Pt36  1  0.75000000  0.37699232  0.18774147  1
  Pt  Pt37  1  0.25000000  0.37510980  0.31230587  1
  Pt  Pt38  1  0.75000000  0.87078324  0.54446623  1
  Pt  Pt39  1  0.75000000  0.12300768  0.68774147  1
  Pt  Pt40  1  0.25000000  0.87699232  0.31225853  1
  Pt  Pt41  1  0.75000000  0.12161416  0.04967417  1
  Pt  Pt42  1  0.25000000  0.62161416  0.45032583  1
  Pt  Pt43  1  0.25000000  0.12489020  0.81230587  1
  Pt  Pt44  1  0.25000000  0.37078324  0.95553377  1
  Pt  Pt45  1  0.75000000  0.62921676  0.04446623  1
  Pt  Pt46  1  0.75000000  0.37838584  0.54967417  1
  Pt  Pt47  1  0.25000000  0.87838584  0.95032583  1
  Pt  Pt48  1  0.25000000  0.12921676  0.45553377  1
  Pt  Pt49  1  0.75000000  0.62489020  0.68769413  1
  Pt  Pt50  1  0.25000000  0.62300768  0.81225853  1
  Pt  Pt51  1  0.75000000  0.87510980  0.18769413  1
