# generated using pymatgen
data_Nb2Tl3CuSe12
_symmetry_space_group_name_H-M   'P 1'
_cell_length_a   9.83325147
_cell_length_b   13.76184282
_cell_length_c   15.28911973
_cell_angle_alpha   90.00000000
_cell_angle_beta   95.77640956
_cell_angle_gamma   90.00000000
_symmetry_Int_Tables_number   1
_chemical_formula_structural   Nb2Tl3CuSe12
_chemical_formula_sum   'Nb8 Tl12 Cu4 Se48'
_cell_volume   2058.47385981
_cell_formula_units_Z   4
loop_
 _symmetry_equiv_pos_site_id
 _symmetry_equiv_pos_as_xyz
  1  'x, y, z'
loop_
 _atom_site_type_symbol
 _atom_site_label
 _atom_site_symmetry_multiplicity
 _atom_site_fract_x
 _atom_site_fract_y
 _atom_site_fract_z
 _atom_site_occupancy
  Nb  Nb0  1  0.67457734  0.22212821  0.08281385  1
  Nb  Nb1  1  0.82542266  0.72212821  0.41718615  1
  Nb  Nb2  1  0.32542266  0.77787179  0.91718615  1
  Nb  Nb3  1  0.17457734  0.27787179  0.58281385  1
  Nb  Nb4  1  0.50594755  0.72442704  0.72138702  1
  Nb  Nb5  1  0.99405245  0.22442704  0.77861298  1
  Nb  Nb6  1  0.49405245  0.27557296  0.27861298  1
  Nb  Nb7  1  0.00594755  0.77557296  0.22138702  1
  Tl  Tl8  1  0.86712829  0.59235577  0.76527761  1
  Tl  Tl9  1  0.25780951  0.57982917  0.50078550  1
  Tl  Tl10  1  0.47514860  0.62332098  0.14291596  1
  Tl  Tl11  1  0.24219049  0.07982917  -0.00078550  1
  Tl  Tl12  1  0.36712829  0.90764423  0.26527761  1
  Tl  Tl13  1  0.74219049  0.42017083  0.49921450  1
  Tl  Tl14  1  0.02485140  0.12332098  0.35708404  1
  Tl  Tl15  1  0.63287171  0.09235577  0.73472239  1
  Tl  Tl16  1  0.13287171  0.40764423  0.23472239  1
  Tl  Tl17  1  0.97514860  0.87667902  0.64291596  1
  Tl  Tl18  1  0.75780951  0.92017083  1.00078550  1
  Tl  Tl19  1  0.52485140  0.37667902  0.85708404  1
  Cu  Cu20  1  0.82085206  0.18805462  0.92767373  1
  Cu  Cu21  1  0.32085206  0.31194538  0.42767373  1
  Cu  Cu22  1  0.67914794  0.68805462  0.57232627  1
  Cu  Cu23  1  0.17914794  0.81194538  0.07232627  1
  Se  Se24  1  0.96041235  0.60561960  0.32312262  1
  Se  Se25  1  0.03958765  0.39438040  0.67687738  1
  Se  Se26  1  0.27790028  0.43042967  0.66852103  1
  Se  Se27  1  0.70912901  0.22427378  0.37879271  1
  Se  Se28  1  0.22209972  0.93042967  0.83147897  1
  Se  Se29  1  0.76825653  0.29170406  0.69855898  1
  Se  Se30  1  0.07591437  0.93218248  0.15912076  1
  Se  Se31  1  0.50639635  0.11407669  0.51367864  1
  Se  Se32  1  0.74375226  0.32112113  0.25066537  1
  Se  Se33  1  0.12819934  0.64375276  0.13272305  1
  Se  Se34  1  0.83181779  0.90926600  0.43655530  1
  Se  Se35  1  0.49360365  0.88592331  0.48632136  1
  Se  Se36  1  0.42408563  0.43218248  0.34087924  1
  Se  Se37  1  0.33181779  0.59073400  0.93655530  1
  Se  Se38  1  0.57591437  0.56781752  0.65912076  1
  Se  Se39  1  0.93958828  0.23100880  0.07290741  1
  Se  Se40  1  0.00639635  0.38592331  0.01367864  1
  Se  Se41  1  0.72209972  0.56957033  0.33147897  1
  Se  Se42  1  0.04151311  0.83493315  0.39307778  1
  Se  Se43  1  0.79087099  0.72427378  0.12120729  1
  Se  Se44  1  0.62819934  0.85624724  0.63272305  1
  Se  Se45  1  0.41983877  0.83972641  0.06290508  1
  Se  Se46  1  0.91983877  0.66027359  0.56290508  1
  Se  Se47  1  0.08016123  0.33972641  0.43709492  1
  Se  Se48  1  0.16818221  0.09073400  0.56344470  1
  Se  Se49  1  0.24375226  0.17887887  0.75066537  1
  Se  Se50  1  0.92408563  0.06781752  0.84087924  1
  Se  Se51  1  0.53958765  0.10561960  0.17687738  1
  Se  Se52  1  0.37180066  0.14375276  0.36727695  1
  Se  Se53  1  0.54151311  0.66506685  0.89307778  1
  Se  Se54  1  0.25624774  0.67887887  0.74933463  1
  Se  Se55  1  0.43958828  0.26899120  0.57290741  1
  Se  Se56  1  0.29087099  0.77572622  0.62120729  1
  Se  Se57  1  0.06041172  0.76899120  0.92709259  1
  Se  Se58  1  0.99360365  0.61407669  0.98632136  1
  Se  Se59  1  0.75624774  0.82112113  0.24933463  1
  Se  Se60  1  0.20912901  0.27572622  0.87879271  1
  Se  Se61  1  0.26825653  0.20829594  0.19855898  1
  Se  Se62  1  0.46041235  0.89438040  0.82312262  1
  Se  Se63  1  0.87180066  0.35624724  0.86727695  1
  Se  Se64  1  0.77790028  0.06957033  0.16852103  1
  Se  Se65  1  0.56041172  0.73100880  0.42709259  1
  Se  Se66  1  0.95848689  0.16506685  0.60692222  1
  Se  Se67  1  0.23174347  0.70829594  0.30144102  1
  Se  Se68  1  0.58016123  0.16027359  0.93709492  1
  Se  Se69  1  0.45848689  0.33493315  0.10692222  1
  Se  Se70  1  0.66818221  0.40926600  0.06344470  1
  Se  Se71  1  0.73174347  0.79170406  0.80144102  1
