# generated using pymatgen
data_Pr3OsI3
_symmetry_space_group_name_H-M   'P 1'
_cell_length_a   4.37538692
_cell_length_b   9.43649335
_cell_length_c   12.74279149
_cell_angle_alpha   93.08322409
_cell_angle_beta   90.00000000
_cell_angle_gamma   90.00000000
_symmetry_Int_Tables_number   1
_chemical_formula_structural   Pr3OsI3
_chemical_formula_sum   'Pr6 Os2 I6'
_cell_volume   525.36672899
_cell_formula_units_Z   2
loop_
 _symmetry_equiv_pos_site_id
 _symmetry_equiv_pos_as_xyz
  1  'x, y, z'
loop_
 _atom_site_type_symbol
 _atom_site_label
 _atom_site_symmetry_multiplicity
 _atom_site_fract_x
 _atom_site_fract_y
 _atom_site_fract_z
 _atom_site_occupancy
  Pr  Pr0  1  0.75000000  0.30848995  0.11890924  1
  Pr  Pr1  1  0.25000000  0.11636056  0.33145829  1
  Pr  Pr2  1  0.25000000  0.69151005  0.88109076  1
  Pr  Pr3  1  0.25000000  0.09430575  0.89041948  1
  Pr  Pr4  1  0.75000000  0.88363944  0.66854171  1
  Pr  Pr5  1  0.75000000  0.90569425  0.10958052  1
  Os  Os6  1  0.25000000  0.11047161  0.12020372  1
  Os  Os7  1  0.75000000  0.88952839  0.87979628  1
  I  I8  1  0.25000000  0.60501926  0.13167482  1
  I  I9  1  0.75000000  0.86975089  0.38168425  1
  I  I10  1  0.75000000  0.39498074  0.86832518  1
  I  I11  1  0.25000000  0.63516065  0.62399585  1
  I  I12  1  0.75000000  0.36483935  0.37600415  1
  I  I13  1  0.25000000  0.13024911  0.61831575  1
