# generated using pymatgen
data_La5Si5I3
_symmetry_space_group_name_H-M   'P 1'
_cell_length_a   4.27180126
_cell_length_b   12.29815773
_cell_length_c   15.83413208
_cell_angle_alpha   110.13728967
_cell_angle_beta   90.00000000
_cell_angle_gamma   100.00164608
_symmetry_Int_Tables_number   1
_chemical_formula_structural   La5Si5I3
_chemical_formula_sum   'La10 Si10 I6'
_cell_volume   767.52101026
_cell_formula_units_Z   2
loop_
 _symmetry_equiv_pos_site_id
 _symmetry_equiv_pos_as_xyz
  1  'x, y, z'
loop_
 _atom_site_type_symbol
 _atom_site_label
 _atom_site_symmetry_multiplicity
 _atom_site_fract_x
 _atom_site_fract_y
 _atom_site_fract_z
 _atom_site_occupancy
  La  La0  1  0.33823259  0.67646519  0.94201406  1
  La  La1  1  0.91456450  0.82912900  0.43685482  1
  La  La2  1  0.08543550  0.17087100  0.56314518  1
  La  La3  1  0.01670910  0.03341820  0.29068303  1
  La  La4  1  0.98329090  0.96658180  0.70931697  1
  La  La5  1  0.83587279  0.67174558  0.16611277  1
  La  La6  1  0.73829101  0.47658202  0.32987322  1
  La  La7  1  0.66176741  0.32353481  0.05798594  1
  La  La8  1  0.16412721  0.32825442  0.83388723  1
  La  La9  1  0.26170899  0.52341798  0.67012678  1
  Si  Si10  1  0.50831358  0.01662716  0.42715670  1
  Si  Si11  1  0.42403081  0.84806162  0.29308954  1
  Si  Si12  1  0.49168642  0.98337284  0.57284330  1
  Si  Si13  1  0.74972596  0.49945193  0.96023500  1
  Si  Si14  1  0.67176734  0.34353469  0.68141421  1
  Si  Si15  1  0.24062930  0.48125861  0.18966271  1
  Si  Si16  1  0.75937070  0.51874139  0.81033729  1
  Si  Si17  1  0.32823266  0.65646531  0.31858579  1
  Si  Si18  1  0.57596919  0.15193838  0.70691046  1
  Si  Si19  1  0.25027404  0.50054807  0.03976500  1
  I  I20  1  0.59112487  0.18224973  0.20514908  1
  I  I21  1  0.06079019  0.12158037  0.93296521  1
  I  I22  1  0.93920981  0.87841963  0.06703479  1
  I  I23  1  0.82721244  0.65442488  0.56277866  1
  I  I24  1  0.40887513  0.81775027  0.79485092  1
  I  I25  1  0.17278756  0.34557512  0.43722134  1
