# generated using pymatgen
data_GaI2
_symmetry_space_group_name_H-M   'P 1'
_cell_length_a   15.83948948
_cell_length_b   15.83948955
_cell_length_c   15.83948951
_cell_angle_alpha   117.36302197
_cell_angle_beta   117.36302209
_cell_angle_gamma   117.36301542
_symmetry_Int_Tables_number   1
_chemical_formula_structural   GaI2
_chemical_formula_sum   'Ga12 I24'
_cell_volume   1648.26719622
_cell_formula_units_Z   12
loop_
 _symmetry_equiv_pos_site_id
 _symmetry_equiv_pos_as_xyz
  1  'x, y, z'
loop_
 _atom_site_type_symbol
 _atom_site_label
 _atom_site_symmetry_multiplicity
 _atom_site_fract_x
 _atom_site_fract_y
 _atom_site_fract_z
 _atom_site_occupancy
  Ga  Ga0  1  0.25582590  0.94341150  0.10439381  1
  Ga  Ga1  1  0.29708170  0.10725142  0.91655939  1
  Ga  Ga2  1  0.79708170  0.41655939  0.60725142  1
  Ga  Ga3  1  0.10725142  0.91655939  0.29708170  1
  Ga  Ga4  1  0.44341150  0.75582590  0.60439381  1
  Ga  Ga5  1  0.75582590  0.60439381  0.44341150  1
  Ga  Ga6  1  0.60439381  0.44341150  0.75582590  1
  Ga  Ga7  1  0.41655939  0.60725142  0.79708170  1
  Ga  Ga8  1  0.94341150  0.10439381  0.25582590  1
  Ga  Ga9  1  0.60725142  0.79708170  0.41655939  1
  Ga  Ga10  1  0.10439381  0.25582590  0.94341150  1
  Ga  Ga11  1  0.91655939  0.29708170  0.10725142  1
  I  I12  1  0.14466607  0.55021200  0.21691296  1
  I  I13  1  0.04544726  0.45183391  0.38396319  1
  I  I14  1  0.59453377  0.39660651  0.49621151  1
  I  I15  1  0.21691296  0.14466607  0.55021200  1
  I  I16  1  0.34759489  0.60080486  0.09968935  1
  I  I17  1  0.99621151  0.89660651  0.09453377  1
  I  I18  1  0.38396319  0.04544726  0.45183391  1
  I  I19  1  0.95183391  0.54544726  0.88396319  1
  I  I20  1  0.64466607  0.71691296  0.05021200  1
  I  I21  1  0.49621151  0.59453377  0.39660651  1
  I  I22  1  0.09968935  0.34759489  0.60080486  1
  I  I23  1  0.84759489  0.59968935  0.10080486  1
  I  I24  1  0.55021200  0.21691296  0.14466607  1
  I  I25  1  0.45183391  0.38396319  0.04544726  1
  I  I26  1  0.89660651  0.09453377  0.99621151  1
  I  I27  1  0.39660651  0.49621151  0.59453377  1
  I  I28  1  0.10080486  0.84759489  0.59968935  1
  I  I29  1  0.60080486  0.09968935  0.34759489  1
  I  I30  1  0.09453377  0.99621151  0.89660651  1
  I  I31  1  0.05021200  0.64466607  0.71691296  1
  I  I32  1  0.54544726  0.88396319  0.95183391  1
  I  I33  1  0.59968935  0.10080486  0.84759489  1
  I  I34  1  0.88396319  0.95183391  0.54544726  1
  I  I35  1  0.71691296  0.05021200  0.64466607  1
