# generated using pymatgen
data_Dy4CdRh
_symmetry_space_group_name_H-M   'P 1'
_cell_length_a   9.62495174
_cell_length_b   9.62495175
_cell_length_c   9.62495173
_cell_angle_alpha   60.00000012
_cell_angle_beta   60.00000006
_cell_angle_gamma   59.99999807
_symmetry_Int_Tables_number   1
_chemical_formula_structural   Dy4CdRh
_chemical_formula_sum   'Dy16 Cd4 Rh4'
_cell_volume   630.49359394
_cell_formula_units_Z   4
loop_
 _symmetry_equiv_pos_site_id
 _symmetry_equiv_pos_as_xyz
  1  'x, y, z'
loop_
 _atom_site_type_symbol
 _atom_site_label
 _atom_site_symmetry_multiplicity
 _atom_site_fract_x
 _atom_site_fract_y
 _atom_site_fract_z
 _atom_site_occupancy
  Dy  Dy0  1  0.93618647  0.56381353  0.56381353  1
  Dy  Dy1  1  0.34954126  0.34954126  0.34954126  1
  Dy  Dy2  1  0.81054582  0.81054582  0.18945418  1
  Dy  Dy3  1  0.56381353  0.56381353  0.93618647  1
  Dy  Dy4  1  0.56381353  0.93618647  0.56381353  1
  Dy  Dy5  1  0.81054582  0.18945418  0.18945418  1
  Dy  Dy6  1  0.93618647  0.93618647  0.56381353  1
  Dy  Dy7  1  0.34954126  0.95137621  0.34954126  1
  Dy  Dy8  1  0.18945418  0.81054582  0.18945418  1
  Dy  Dy9  1  0.95137621  0.34954126  0.34954126  1
  Dy  Dy10  1  0.18945418  0.81054582  0.81054582  1
  Dy  Dy11  1  0.18945418  0.18945418  0.81054582  1
  Dy  Dy12  1  0.34954126  0.34954126  0.95137621  1
  Dy  Dy13  1  0.81054582  0.18945418  0.81054582  1
  Dy  Dy14  1  0.56381353  0.93618647  0.93618647  1
  Dy  Dy15  1  0.93618647  0.56381353  0.93618647  1
  Cd  Cd16  1  0.58072076  0.25783771  0.58072076  1
  Cd  Cd17  1  0.25783771  0.58072076  0.58072076  1
  Cd  Cd18  1  0.58072076  0.58072076  0.25783771  1
  Cd  Cd19  1  0.58072076  0.58072076  0.58072076  1
  Rh  Rh20  1  0.14247755  0.14247755  0.57256736  1
  Rh  Rh21  1  0.14247755  0.57256736  0.14247755  1
  Rh  Rh22  1  0.57256736  0.14247755  0.14247755  1
  Rh  Rh23  1  0.14247755  0.14247755  0.14247755  1
