# generated using pymatgen
data_Y3(Ge3Pt2)2
_symmetry_space_group_name_H-M   'P 1'
_cell_length_a   4.36151498
_cell_length_b   8.80589420
_cell_length_c   13.37570582
_cell_angle_alpha   99.45899498
_cell_angle_beta   90.00000000
_cell_angle_gamma   90.00000000
_symmetry_Int_Tables_number   1
_chemical_formula_structural   Y3(Ge3Pt2)2
_chemical_formula_sum   'Y6 Ge12 Pt8'
_cell_volume   506.73643429
_cell_formula_units_Z   2
loop_
 _symmetry_equiv_pos_site_id
 _symmetry_equiv_pos_as_xyz
  1  'x, y, z'
loop_
 _atom_site_type_symbol
 _atom_site_label
 _atom_site_symmetry_multiplicity
 _atom_site_fract_x
 _atom_site_fract_y
 _atom_site_fract_z
 _atom_site_occupancy
  Y  Y0  1  0.25000000  0.23471504  0.43850953  1
  Y  Y1  1  0.25000000  0.40969626  0.18752119  1
  Y  Y2  1  0.75000000  0.76528496  0.56149047  1
  Y  Y3  1  0.75000000  0.59030374  0.81247881  1
  Y  Y4  1  0.75000000  0.06568504  0.81393492  1
  Y  Y5  1  0.25000000  0.93431496  0.18606508  1
  Ge  Ge6  1  0.75000000  0.41393943  0.56773058  1
  Ge  Ge7  1  0.75000000  0.87378708  0.00567097  1
  Ge  Ge8  1  0.75000000  0.11954967  0.56712396  1
  Ge  Ge9  1  0.25000000  0.30394152  0.71589535  1
  Ge  Ge10  1  0.75000000  0.69605848  0.28410465  1
  Ge  Ge11  1  0.75000000  0.19433639  0.27797576  1
  Ge  Ge12  1  0.25000000  0.12621292  0.99432903  1
  Ge  Ge13  1  0.25000000  0.80566361  0.72202424  1
  Ge  Ge14  1  0.25000000  0.62263766  0.00159546  1
  Ge  Ge15  1  0.25000000  0.88045033  0.43287604  1
  Ge  Ge16  1  0.75000000  0.37736234  0.99840454  1
  Ge  Ge17  1  0.25000000  0.58606057  0.43226942  1
  Pt  Pt18  1  0.75000000  0.64684619  0.10061437  1
  Pt  Pt19  1  0.25000000  0.02967000  0.62464780  1
  Pt  Pt20  1  0.75000000  0.15134962  0.09112494  1
  Pt  Pt21  1  0.75000000  0.97033000  0.37535220  1
  Pt  Pt22  1  0.25000000  0.35315381  0.89938563  1
  Pt  Pt23  1  0.25000000  0.84865038  0.90887506  1
  Pt  Pt24  1  0.75000000  0.46680956  0.37568371  1
  Pt  Pt25  1  0.25000000  0.53319044  0.62431629  1
