# generated using pymatgen
data_Ba2Ge(TeSe)2
_symmetry_space_group_name_H-M   'P 1'
_cell_length_a   7.28759733
_cell_length_b   7.56382473
_cell_length_c   9.49392997
_cell_angle_alpha   108.45543084
_cell_angle_beta   90.00000000
_cell_angle_gamma   90.00000000
_symmetry_Int_Tables_number   1
_chemical_formula_structural   Ba2Ge(TeSe)2
_chemical_formula_sum   'Ba4 Ge2 Te4 Se4'
_cell_volume   496.41091524
_cell_formula_units_Z   2
loop_
 _symmetry_equiv_pos_site_id
 _symmetry_equiv_pos_as_xyz
  1  'x, y, z'
loop_
 _atom_site_type_symbol
 _atom_site_label
 _atom_site_symmetry_multiplicity
 _atom_site_fract_x
 _atom_site_fract_y
 _atom_site_fract_z
 _atom_site_occupancy
  Ba  Ba0  1  0.25000000  0.23793756  0.05973919  1
  Ba  Ba1  1  0.25000000  0.21372461  0.55115134  1
  Ba  Ba2  1  0.75000000  0.78627539  0.44884866  1
  Ba  Ba3  1  0.75000000  0.76206244  0.94026081  1
  Ge  Ge4  1  0.25000000  0.78866208  0.70298400  1
  Ge  Ge5  1  0.75000000  0.21133792  0.29701600  1
  Te  Te6  1  0.25000000  0.59827696  0.88865741  1
  Te  Te7  1  0.25000000  0.62089627  0.41774044  1
  Te  Te8  1  0.75000000  0.37910373  0.58225956  1
  Te  Te9  1  0.75000000  0.40172304  0.11134259  1
  Se  Se10  1  0.50480317  0.99750139  0.75984994  1
  Se  Se11  1  0.00480317  0.00249861  0.24015006  1
  Se  Se12  1  0.49519683  0.00249861  0.24015006  1
  Se  Se13  1  0.99519683  0.99750139  0.75984994  1
