# generated using pymatgen
data_K5Ag2(AsSe3)3
_symmetry_space_group_name_H-M   'P 1'
_cell_length_a   12.84957747
_cell_length_b   12.81368865
_cell_length_c   14.34079996
_cell_angle_alpha   90.00000000
_cell_angle_beta   90.00000000
_cell_angle_gamma   90.00000000
_symmetry_Int_Tables_number   1
_chemical_formula_structural   K5Ag2(AsSe3)3
_chemical_formula_sum   'K20 Ag8 As12 Se36'
_cell_volume   2361.21966848
_cell_formula_units_Z   4
loop_
 _symmetry_equiv_pos_site_id
 _symmetry_equiv_pos_as_xyz
  1  'x, y, z'
loop_
 _atom_site_type_symbol
 _atom_site_label
 _atom_site_symmetry_multiplicity
 _atom_site_fract_x
 _atom_site_fract_y
 _atom_site_fract_z
 _atom_site_occupancy
  K  K0  1  0.98070512  0.07902743  0.17285095  1
  K  K1  1  0.51929488  0.92097257  0.67285095  1
  K  K2  1  0.17308117  0.25000000  0.49150336  1
  K  K3  1  0.82691883  0.75000000  0.50849664  1
  K  K4  1  0.32303932  0.07620583  0.99602226  1
  K  K5  1  0.67696068  0.92379417  0.00397774  1
  K  K6  1  0.32691883  0.75000000  0.99150336  1
  K  K7  1  0.82303932  0.07620583  0.50397774  1
  K  K8  1  0.01929488  0.92097257  0.82714905  1
  K  K9  1  0.67696068  0.57620583  0.00397774  1
  K  K10  1  0.67308117  0.25000000  0.00849664  1
  K  K11  1  0.01929488  0.57902743  0.82714905  1
  K  K12  1  0.32303932  0.42379417  0.99602226  1
  K  K13  1  0.51929488  0.57902743  0.67285095  1
  K  K14  1  0.17696068  0.92379417  0.49602226  1
  K  K15  1  0.48070512  0.42097257  0.32714905  1
  K  K16  1  0.48070512  0.07902743  0.32714905  1
  K  K17  1  0.98070512  0.42097257  0.17285095  1
  K  K18  1  0.17696068  0.57620583  0.49602226  1
  K  K19  1  0.82303932  0.42379417  0.50397774  1
  Ag  Ag20  1  0.23724599  0.41106977  0.71269795  1
  Ag  Ag21  1  0.76275401  0.91106977  0.28730205  1
  Ag  Ag22  1  0.26275401  0.91106977  0.21269795  1
  Ag  Ag23  1  0.76275401  0.58893023  0.28730205  1
  Ag  Ag24  1  0.73724599  0.41106977  0.78730205  1
  Ag  Ag25  1  0.26275401  0.58893023  0.21269795  1
  Ag  Ag26  1  0.23724599  0.08893023  0.71269795  1
  Ag  Ag27  1  0.73724599  0.08893023  0.78730205  1
  As  As28  1  0.97955240  0.25000000  0.90722964  1
  As  As29  1  0.53216445  0.75000000  0.21801163  1
  As  As30  1  0.46783555  0.25000000  0.78198837  1
  As  As31  1  0.74909498  0.75000000  0.79647294  1
  As  As32  1  0.96783555  0.25000000  0.71801163  1
  As  As33  1  0.03216445  0.75000000  0.28198837  1
  As  As34  1  0.52044760  0.75000000  0.40722964  1
  As  As35  1  0.47955240  0.25000000  0.59277036  1
  As  As36  1  0.24909498  0.75000000  0.70352706  1
  As  As37  1  0.02044760  0.75000000  0.09277036  1
  As  As38  1  0.25090502  0.25000000  0.20352706  1
  As  As39  1  0.75090502  0.25000000  0.29647294  1
  Se  Se40  1  0.78560286  0.25000000  0.67703163  1
  Se  Se41  1  0.03880843  0.40392050  0.64843127  1
  Se  Se42  1  0.53880843  0.09607950  0.85156873  1
  Se  Se43  1  0.12438675  0.89882438  0.06795243  1
  Se  Se44  1  0.53880843  0.40392050  0.85156873  1
  Se  Se45  1  0.07531185  0.75000000  0.65398165  1
  Se  Se46  1  0.78502477  0.90110094  0.70439115  1
  Se  Se47  1  0.96119157  0.59607950  0.35156873  1
  Se  Se48  1  0.78502477  0.59889906  0.70439115  1
  Se  Se49  1  0.85666095  0.75000000  0.93134679  1
  Se  Se50  1  0.64333905  0.25000000  0.43134679  1
  Se  Se51  1  0.42468815  0.25000000  0.15398165  1
  Se  Se52  1  0.71497523  0.40110094  0.20439115  1
  Se  Se53  1  0.35666095  0.75000000  0.56865321  1
  Se  Se54  1  0.28560286  0.25000000  0.82296837  1
  Se  Se55  1  0.12438675  0.60117562  0.06795243  1
  Se  Se56  1  0.14333905  0.25000000  0.06865321  1
  Se  Se57  1  0.57531185  0.75000000  0.84601835  1
  Se  Se58  1  0.37561325  0.39882438  0.56795243  1
  Se  Se59  1  0.92468815  0.25000000  0.34601835  1
  Se  Se60  1  0.87561325  0.10117562  0.93204757  1
  Se  Se61  1  0.28502477  0.90110094  0.79560885  1
  Se  Se62  1  0.03880843  0.09607950  0.64843127  1
  Se  Se63  1  0.37561325  0.10117562  0.56795243  1
  Se  Se64  1  0.62438675  0.60117562  0.43204757  1
  Se  Se65  1  0.46119157  0.59607950  0.14843127  1
  Se  Se66  1  0.71497523  0.09889906  0.20439115  1
  Se  Se67  1  0.62438675  0.89882438  0.43204757  1
  Se  Se68  1  0.87561325  0.39882438  0.93204757  1
  Se  Se69  1  0.46119157  0.90392050  0.14843127  1
  Se  Se70  1  0.21497523  0.09889906  0.29560885  1
  Se  Se71  1  0.21497523  0.40110094  0.29560885  1
  Se  Se72  1  0.71439714  0.75000000  0.17703163  1
  Se  Se73  1  0.96119157  0.90392050  0.35156873  1
  Se  Se74  1  0.21439714  0.75000000  0.32296837  1
  Se  Se75  1  0.28502477  0.59889906  0.79560885  1
