# generated using pymatgen
data_Ba(BSe3)2
_symmetry_space_group_name_H-M   'P 1'
_cell_length_a   6.93254970
_cell_length_b   6.93255007
_cell_length_c   10.64058537
_cell_angle_alpha   90.00000000
_cell_angle_beta   90.00000000
_cell_angle_gamma   111.73061028
_symmetry_Int_Tables_number   1
_chemical_formula_structural   Ba(BSe3)2
_chemical_formula_sum   'Ba2 B4 Se12'
_cell_volume   475.04724946
_cell_formula_units_Z   2
loop_
 _symmetry_equiv_pos_site_id
 _symmetry_equiv_pos_as_xyz
  1  'x, y, z'
loop_
 _atom_site_type_symbol
 _atom_site_label
 _atom_site_symmetry_multiplicity
 _atom_site_fract_x
 _atom_site_fract_y
 _atom_site_fract_z
 _atom_site_occupancy
  Ba  Ba0  1  0.50000000  0.50000000  0.50000000  1
  Ba  Ba1  1  0.00000000  0.00000000  0.00000000  1
  B  B2  1  0.61328635  0.38671365  0.00000000  1
  B  B3  1  0.38671365  0.61328635  0.00000000  1
  B  B4  1  0.88671365  0.11328635  0.50000000  1
  B  B5  1  0.11328635  0.88671365  0.50000000  1
  Se  Se6  1  0.89218623  0.47721441  0.09197493  1
  Se  Se7  1  0.40084886  0.40084886  0.13529133  1
  Se  Se8  1  0.52278559  0.10781377  0.90802507  1
  Se  Se9  1  0.97721441  0.39218623  0.40802507  1
  Se  Se10  1  0.02278559  0.60781377  0.59197493  1
  Se  Se11  1  0.47721441  0.89218623  0.09197493  1
  Se  Se12  1  0.60781377  0.02278559  0.59197493  1
  Se  Se13  1  0.10781377  0.52278559  0.90802507  1
  Se  Se14  1  0.09915114  0.09915114  0.63529133  1
  Se  Se15  1  0.59915114  0.59915114  0.86470867  1
  Se  Se16  1  0.90084886  0.90084886  0.36470867  1
  Se  Se17  1  0.39218623  0.97721441  0.40802507  1
