# generated using pymatgen
data_Cu2P8Se3I2
_symmetry_space_group_name_H-M   'P 1'
_cell_length_a   9.43779131
_cell_length_b   12.84300663
_cell_length_c   13.91783306
_cell_angle_alpha   90.00000000
_cell_angle_beta   90.00000000
_cell_angle_gamma   90.00000000
_symmetry_Int_Tables_number   1
_chemical_formula_structural   Cu2P8Se3I2
_chemical_formula_sum   'Cu8 P32 Se12 I8'
_cell_volume   1686.97520586
_cell_formula_units_Z   4
loop_
 _symmetry_equiv_pos_site_id
 _symmetry_equiv_pos_as_xyz
  1  'x, y, z'
loop_
 _atom_site_type_symbol
 _atom_site_label
 _atom_site_symmetry_multiplicity
 _atom_site_fract_x
 _atom_site_fract_y
 _atom_site_fract_z
 _atom_site_occupancy
  Cu  Cu0  1  0.00215458  0.87186392  0.25000000  1
  Cu  Cu1  1  0.99784542  0.37186392  0.25000000  1
  Cu  Cu2  1  0.80718291  0.08217415  0.25000000  1
  Cu  Cu3  1  0.99784542  0.12813608  0.75000000  1
  Cu  Cu4  1  0.00215458  0.62813608  0.75000000  1
  Cu  Cu5  1  0.80718291  0.41782585  0.75000000  1
  Cu  Cu6  1  0.19281709  0.91782585  0.75000000  1
  Cu  Cu7  1  0.19281709  0.58217415  0.25000000  1
  P  P8  1  0.23249349  0.83060781  0.61266802  1
  P  P9  1  0.07682467  0.69583933  0.60873601  1
  P  P10  1  0.44202487  0.74512872  0.07919695  1
  P  P11  1  0.07682467  0.80416067  0.10873601  1
  P  P12  1  0.18254184  0.92434372  0.48030859  1
  P  P13  1  0.44202487  0.75487128  0.92080305  1
  P  P14  1  0.07682467  0.69583933  0.89126399  1
  P  P15  1  0.55797513  0.25487128  0.92080305  1
  P  P16  1  0.55797513  0.25487128  0.57919695  1
  P  P17  1  0.76750651  0.16939219  0.38733198  1
  P  P18  1  0.81745816  0.42434372  0.48030859  1
  P  P19  1  0.23249349  0.66939219  0.38733198  1
  P  P20  1  0.23249349  0.66939219  0.11266802  1
  P  P21  1  0.76750651  0.33060781  0.88733198  1
  P  P22  1  0.92317533  0.19583933  0.60873601  1
  P  P23  1  0.18254184  0.57565628  0.98030859  1
  P  P24  1  0.81745816  0.07565628  0.98030859  1
  P  P25  1  0.07682467  0.80416067  0.39126399  1
  P  P26  1  0.55797513  0.24512872  0.07919695  1
  P  P27  1  0.55797513  0.24512872  0.42080305  1
  P  P28  1  0.76750651  0.33060781  0.61266802  1
  P  P29  1  0.92317533  0.30416067  0.39126399  1
  P  P30  1  0.81745816  0.07565628  0.51969141  1
  P  P31  1  0.18254184  0.57565628  0.51969141  1
  P  P32  1  0.18254184  0.92434372  0.01969141  1
  P  P33  1  0.76750651  0.16939219  0.11266802  1
  P  P34  1  0.92317533  0.19583933  0.89126399  1
  P  P35  1  0.44202487  0.75487128  0.57919695  1
  P  P36  1  0.81745816  0.42434372  0.01969141  1
  P  P37  1  0.92317533  0.30416067  0.10873601  1
  P  P38  1  0.44202487  0.74512872  0.42080305  1
  P  P39  1  0.23249349  0.83060781  0.88733198  1
  Se  Se40  1  0.91107845  0.75000000  0.00000000  1
  Se  Se41  1  0.39135952  0.58337118  0.89543854  1
  Se  Se42  1  0.60864048  0.41662882  0.10456146  1
  Se  Se43  1  0.60864048  0.08337118  0.60456146  1
  Se  Se44  1  0.60864048  0.08337118  0.89543854  1
  Se  Se45  1  0.60864048  0.41662882  0.39543854  1
  Se  Se46  1  0.08892155  0.25000000  0.00000000  1
  Se  Se47  1  0.39135952  0.58337118  0.60456146  1
  Se  Se48  1  0.39135952  0.91662882  0.10456146  1
  Se  Se49  1  0.91107845  0.75000000  0.50000000  1
  Se  Se50  1  0.39135952  0.91662882  0.39543854  1
  Se  Se51  1  0.08892155  0.25000000  0.50000000  1
  I  I52  1  0.27794228  0.38782315  0.25000000  1
  I  I53  1  0.90798950  0.93014771  0.75000000  1
  I  I54  1  0.09201050  0.43014771  0.75000000  1
  I  I55  1  0.90798950  0.56985229  0.25000000  1
  I  I56  1  0.72205772  0.88782315  0.25000000  1
  I  I57  1  0.27794228  0.11217685  0.75000000  1
  I  I58  1  0.09201050  0.06985229  0.25000000  1
  I  I59  1  0.72205772  0.61217685  0.75000000  1
