# generated using pymatgen
data_CaCuSn
_symmetry_space_group_name_H-M   'P 1'
_cell_length_a   4.61465273
_cell_length_b   7.96044862
_cell_length_c   11.93141745
_cell_angle_alpha   109.48693497
_cell_angle_beta   101.15024352
_cell_angle_gamma   90.00000082
_symmetry_Int_Tables_number   1
_chemical_formula_structural   CaCuSn
_chemical_formula_sum   'Ca6 Cu6 Sn6'
_cell_volume   404.40353915
_cell_formula_units_Z   6
loop_
 _symmetry_equiv_pos_site_id
 _symmetry_equiv_pos_as_xyz
  1  'x, y, z'
loop_
 _atom_site_type_symbol
 _atom_site_label
 _atom_site_symmetry_multiplicity
 _atom_site_fract_x
 _atom_site_fract_y
 _atom_site_fract_z
 _atom_site_occupancy
  Ca  Ca0  1  0.83487660  0.90958682  0.66975320  1
  Ca  Ca1  1  0.66877402  0.66834697  0.33754803  1
  Ca  Ca2  1  0.50000000  0.57484628  0.00000000  1
  Ca  Ca3  1  0.00000000  0.99873511  0.00000000  1
  Ca  Ca4  1  0.16512340  0.23983361  0.33024680  1
  Ca  Ca5  1  0.33122598  0.33079893  0.66245197  1
  Cu  Cu6  1  0.76803755  0.47018288  0.53607510  1
  Cu  Cu7  1  0.92753653  0.29949532  0.85507306  1
  Cu  Cu8  1  0.23196245  0.93410778  0.46392490  1
  Cu  Cu9  1  0.60308250  0.97400887  0.20616500  1
  Cu  Cu10  1  0.07246347  0.44442226  0.14492694  1
  Cu  Cu11  1  0.39691750  0.76784387  0.79383500  1
  Sn  Sn12  1  0.43140982  0.13278000  0.86281964  1
  Sn  Sn13  1  0.90252160  0.60315429  0.80504320  1
  Sn  Sn14  1  0.26602025  0.63991304  0.53204050  1
  Sn  Sn15  1  0.73397975  0.10787253  0.46795950  1
  Sn  Sn16  1  0.56859018  0.26996036  0.13718036  1
  Sn  Sn17  1  0.09747840  0.79811109  0.19495680  1
