# generated using pymatgen
data_Nb(Te2I3)2
_symmetry_space_group_name_H-M   'P 1'
_cell_length_a   8.32470374
_cell_length_b   11.52733491
_cell_length_c   12.34792081
_cell_angle_alpha   111.46366238
_cell_angle_beta   107.38856721
_cell_angle_gamma   98.41750012
_symmetry_Int_Tables_number   1
_chemical_formula_structural   Nb(Te2I3)2
_chemical_formula_sum   'Nb2 Te8 I12'
_cell_volume   1007.78267382
_cell_formula_units_Z   2
loop_
 _symmetry_equiv_pos_site_id
 _symmetry_equiv_pos_as_xyz
  1  'x, y, z'
loop_
 _atom_site_type_symbol
 _atom_site_label
 _atom_site_symmetry_multiplicity
 _atom_site_fract_x
 _atom_site_fract_y
 _atom_site_fract_z
 _atom_site_occupancy
  Nb  Nb0  1  0.48721387  0.35364967  0.45861787  1
  Nb  Nb1  1  0.51278613  0.64635033  0.54138213  1
  Te  Te2  1  0.58330268  0.83726093  0.80082566  1
  Te  Te3  1  0.71857976  0.52292084  0.41553774  1
  Te  Te4  1  0.28142024  0.47707916  0.58446226  1
  Te  Te5  1  0.52485625  0.21811396  0.62321858  1
  Te  Te6  1  0.78517731  0.55668183  0.65562003  1
  Te  Te7  1  0.47514375  0.78188604  0.37678142  1
  Te  Te8  1  0.41669732  0.16273907  0.19917434  1
  Te  Te9  1  0.21482269  0.44331817  0.34437997  1
  I  I10  1  0.79338158  0.89644723  0.63926602  1
  I  I11  1  0.15931433  0.65011874  0.15845432  1
  I  I12  1  0.20661842  0.10355277  0.36073398  1
  I  I13  1  0.66861962  0.23246397  0.10803553  1
  I  I14  1  0.70314134  0.74338374  0.24755254  1
  I  I15  1  0.29685866  0.25661626  0.75244746  1
  I  I16  1  0.86238788  0.80352483  0.97266520  1
  I  I17  1  0.84068567  0.34988126  0.84154568  1
  I  I18  1  0.27130167  0.81436650  0.56200629  1
  I  I19  1  0.13761212  0.19647517  0.02733480  1
  I  I20  1  0.33138038  0.76753603  0.89196447  1
  I  I21  1  0.72869833  0.18563350  0.43799371  1
