# generated using pymatgen
data_TeI4
_symmetry_space_group_name_H-M   'P 1'
_cell_length_a   14.69489067
_cell_length_b   15.21765123
_cell_length_c   17.53049929
_cell_angle_alpha   90.00000000
_cell_angle_beta   90.00000000
_cell_angle_gamma   90.00000000
_symmetry_Int_Tables_number   1
_chemical_formula_structural   TeI4
_chemical_formula_sum   'Te16 I64'
_cell_volume   3920.20042260
_cell_formula_units_Z   16
loop_
 _symmetry_equiv_pos_site_id
 _symmetry_equiv_pos_as_xyz
  1  'x, y, z'
loop_
 _atom_site_type_symbol
 _atom_site_label
 _atom_site_symmetry_multiplicity
 _atom_site_fract_x
 _atom_site_fract_y
 _atom_site_fract_z
 _atom_site_occupancy
  Te  Te0  1  0.13820305  0.32840866  0.11199515  1
  Te  Te1  1  0.13820305  0.32840866  0.38800485  1
  Te  Te2  1  0.13525900  0.06131452  0.25000000  1
  Te  Te3  1  0.64049328  0.90604287  0.25000000  1
  Te  Te4  1  0.36179695  0.82840866  0.61199515  1
  Te  Te5  1  0.35950672  0.09395713  0.75000000  1
  Te  Te6  1  0.36474100  0.56131452  0.75000000  1
  Te  Te7  1  0.14049328  0.59395713  0.25000000  1
  Te  Te8  1  0.86179695  0.67159134  0.88800485  1
  Te  Te9  1  0.86179695  0.67159134  0.61199515  1
  Te  Te10  1  0.63820305  0.17159134  0.11199515  1
  Te  Te11  1  0.85950672  0.40604287  0.75000000  1
  Te  Te12  1  0.63820305  0.17159134  0.38800485  1
  Te  Te13  1  0.63525900  0.43868548  0.25000000  1
  Te  Te14  1  0.36179695  0.82840866  0.88800485  1
  Te  Te15  1  0.86474100  0.93868548  0.75000000  1
  I  I16  1  0.26057394  0.40346385  0.00842487  1
  I  I17  1  0.47975550  0.98715651  0.62387553  1
  I  I18  1  0.76057394  0.09653615  0.49157513  1
  I  I19  1  0.02354235  0.25416202  0.00184872  1
  I  I20  1  0.24585007  0.66544804  0.62509329  1
  I  I21  1  0.73942606  0.59653615  0.99157513  1
  I  I22  1  0.25278775  0.16496331  0.63299074  1
  I  I23  1  0.97645765  0.74583798  0.99815128  1
  I  I24  1  0.97122731  0.01102128  0.63117485  1
  I  I25  1  0.26865531  0.93021393  0.25000000  1
  I  I26  1  0.24282339  0.91212869  0.75000000  1
  I  I27  1  0.52024450  0.01284349  0.12387553  1
  I  I28  1  0.52354235  0.24583798  0.00184872  1
  I  I29  1  0.02877269  0.98897872  0.13117485  1
  I  I30  1  0.47975550  0.98715651  0.87612447  1
  I  I31  1  0.97645765  0.74583798  0.50184872  1
  I  I32  1  0.47122731  0.48897872  0.63117485  1
  I  I33  1  0.75278775  0.33503669  0.63299074  1
  I  I34  1  0.24721225  0.66496331  0.13299074  1
  I  I35  1  0.25414993  0.16544804  0.37490671  1
  I  I36  1  0.23942606  0.90346385  0.50842487  1
  I  I37  1  0.49685534  0.22269156  0.75000000  1
  I  I38  1  0.74585007  0.83455196  0.87490671  1
  I  I39  1  0.97975550  0.51284349  0.62387553  1
  I  I40  1  0.51693420  0.25743198  0.25000000  1
  I  I41  1  0.75414993  0.33455196  0.37490671  1
  I  I42  1  0.01693420  0.24256802  0.25000000  1
  I  I43  1  0.02024450  0.48715651  0.37612447  1
  I  I44  1  0.74282339  0.58787131  0.75000000  1
  I  I45  1  0.76865531  0.56978607  0.25000000  1
  I  I46  1  0.52024450  0.01284349  0.37612447  1
  I  I47  1  0.02877269  0.98897872  0.36882515  1
  I  I48  1  0.98306580  0.75743198  0.75000000  1
  I  I49  1  0.23134469  0.43021393  0.75000000  1
  I  I50  1  0.99685534  0.27730844  0.75000000  1
  I  I51  1  0.50314466  0.77730844  0.25000000  1
  I  I52  1  0.02354235  0.25416202  0.49815128  1
  I  I53  1  0.73134469  0.06978607  0.75000000  1
  I  I54  1  0.75278775  0.33503669  0.86700926  1
  I  I55  1  0.00314466  0.72269156  0.25000000  1
  I  I56  1  0.74721225  0.83503669  0.13299074  1
  I  I57  1  0.52877269  0.51102128  0.13117485  1
  I  I58  1  0.74721225  0.83503669  0.36700926  1
  I  I59  1  0.26057394  0.40346385  0.49157513  1
  I  I60  1  0.74585007  0.83455196  0.62509329  1
  I  I61  1  0.75414993  0.33455196  0.12509329  1
  I  I62  1  0.97122731  0.01102128  0.86882515  1
  I  I63  1  0.23942606  0.90346385  0.99157513  1
  I  I64  1  0.25278775  0.16496331  0.86700926  1
  I  I65  1  0.25414993  0.16544804  0.12509329  1
  I  I66  1  0.73942606  0.59653615  0.50842487  1
  I  I67  1  0.97975550  0.51284349  0.87612447  1
  I  I68  1  0.47645765  0.75416202  0.50184872  1
  I  I69  1  0.02024450  0.48715651  0.12387553  1
  I  I70  1  0.24585007  0.66544804  0.87490671  1
  I  I71  1  0.75717661  0.08787131  0.25000000  1
  I  I72  1  0.47645765  0.75416202  0.99815128  1
  I  I73  1  0.76057394  0.09653615  0.00842487  1
  I  I74  1  0.52354235  0.24583798  0.49815128  1
  I  I75  1  0.47122731  0.48897872  0.86882515  1
  I  I76  1  0.24721225  0.66496331  0.36700926  1
  I  I77  1  0.25717661  0.41212869  0.25000000  1
  I  I78  1  0.52877269  0.51102128  0.36882515  1
  I  I79  1  0.48306580  0.74256802  0.75000000  1
