# generated using pymatgen
data_Y(AlCl4)3
_symmetry_space_group_name_H-M   'P 1'
_cell_length_a   10.78764194
_cell_length_b   10.78764201
_cell_length_c   16.03433339
_cell_angle_alpha   90.00000000
_cell_angle_beta   90.00000000
_cell_angle_gamma   119.99999978
_symmetry_Int_Tables_number   1
_chemical_formula_structural   Y(AlCl4)3
_chemical_formula_sum   'Y3 Al9 Cl36'
_cell_volume   1615.97482609
_cell_formula_units_Z   3
loop_
 _symmetry_equiv_pos_site_id
 _symmetry_equiv_pos_as_xyz
  1  'x, y, z'
loop_
 _atom_site_type_symbol
 _atom_site_label
 _atom_site_symmetry_multiplicity
 _atom_site_fract_x
 _atom_site_fract_y
 _atom_site_fract_z
 _atom_site_occupancy
  Y  Y0  1  0.50350423  0.49649577  0.33333300  1
  Y  Y1  1  0.99299153  0.49649577  0.00000000  1
  Y  Y2  1  0.50350423  0.00700847  0.66666700  1
  Al  Al3  1  0.63451422  0.76057551  0.73086080  1
  Al  Al4  1  0.73216449  0.26783551  0.83333300  1
  Al  Al5  1  0.63451422  0.87393871  0.26913920  1
  Al  Al6  1  0.23942449  0.36548578  0.93580520  1
  Al  Al7  1  0.23942449  0.87393871  0.06419480  1
  Al  Al8  1  0.12606129  0.36548578  0.39752780  1
  Al  Al9  1  0.53567102  0.26783551  0.50000000  1
  Al  Al10  1  0.12606129  0.76057551  0.60247220  1
  Al  Al11  1  0.73216449  0.46432898  0.16666700  1
  Cl  Cl12  1  0.65328143  0.87687368  0.61216255  1
  Cl  Cl13  1  0.40757489  0.19851738  0.61261998  1
  Cl  Cl14  1  0.83406857  0.83930856  0.78944192  1
  Cl  Cl15  1  0.83583349  0.33919655  0.14883795  1
  Cl  Cl16  1  0.50400280  0.84005335  0.79558368  1
  Cl  Cl17  1  1.00523999  0.83930856  0.54389108  1
  Cl  Cl18  1  0.16069144  -0.00523999  0.12277592  1
  Cl  Cl19  1  0.66080345  0.16416651  0.51782905  1
  Cl  Cl20  1  0.02756205  0.53814480  0.62245352  1
  Cl  Cl21  1  0.51058275  0.53814480  0.71087948  1
  Cl  Cl22  1  0.15994665  0.49599720  0.87108332  1
  Cl  Cl23  1  0.83406857  -0.00523999  0.21055808  1
  Cl  Cl24  1  0.50336306  0.16416651  0.81550395  1
  Cl  Cl25  1  0.65328143  0.77640775  0.38783745  1
  Cl  Cl26  1  0.66080345  0.49663694  0.48217095  1
  Cl  Cl27  1  1.00523999  0.16593143  0.45610892  1
  Cl  Cl28  1  0.79094250  0.19851738  0.72071302  1
  Cl  Cl29  1  0.83583349  0.49663694  0.85116205  1
  Cl  Cl30  1  0.33605055  0.84005335  0.53774932  1
  Cl  Cl31  1  0.22359225  0.87687368  0.72117045  1
  Cl  Cl32  1  0.46185520  0.97243795  0.04421348  1
  Cl  Cl33  1  0.12312632  0.34671857  0.05450345  1
  Cl  Cl34  1  0.80148262  0.59242511  0.05404602  1
  Cl  Cl35  1  0.22359225  0.34671857  0.27882955  1
  Cl  Cl36  1  0.16069144  0.16593143  0.87722408  1
  Cl  Cl37  1  0.50336306  0.33919655  0.18449605  1
  Cl  Cl38  1  0.15994665  0.66394945  0.12891668  1
  Cl  Cl39  1  0.12312632  0.77640775  0.94549655  1
  Cl  Cl40  1  0.80148262  0.20905750  0.94595398  1
  Cl  Cl41  1  0.79094250  0.59242511  0.27928698  1
  Cl  Cl42  1  0.46185520  0.48941725  0.95578652  1
  Cl  Cl43  1  0.51058275  0.97243795  0.28912052  1
  Cl  Cl44  1  0.40757489  0.20905750  0.38738002  1
  Cl  Cl45  1  0.33605055  0.49599720  0.46225068  1
  Cl  Cl46  1  0.02756205  0.48941725  0.37754648  1
  Cl  Cl47  1  0.50400280  0.66394945  0.20441632  1
