# generated using pymatgen
data_BeI2
_symmetry_space_group_name_H-M   'P 1'
_cell_length_a   6.50542480
_cell_length_b   6.14326064
_cell_length_c   7.55410306
_cell_angle_alpha   113.99252318
_cell_angle_beta   115.50493576
_cell_angle_gamma   90.00000538
_symmetry_Int_Tables_number   1
_chemical_formula_structural   BeI2
_chemical_formula_sum   'Be2 I4'
_cell_volume   243.25698503
_cell_formula_units_Z   2
loop_
 _symmetry_equiv_pos_site_id
 _symmetry_equiv_pos_as_xyz
  1  'x, y, z'
loop_
 _atom_site_type_symbol
 _atom_site_label
 _atom_site_symmetry_multiplicity
 _atom_site_fract_x
 _atom_site_fract_y
 _atom_site_fract_z
 _atom_site_occupancy
  Be  Be0  1  0.00000000  0.75000000  0.00000000  1
  Be  Be1  1  0.00000000  0.25000000  0.00000000  1
  I  I2  1  0.90441651  0.60940289  0.21880577  1
  I  I3  1  0.31438926  0.10940289  0.21880577  1
  I  I4  1  0.68561074  0.89059711  0.78119423  1
  I  I5  1  0.09558349  0.39059711  0.78119423  1
