# generated using pymatgen
data_NaNd(GaSe2)4
_symmetry_space_group_name_H-M   'P 1'
_cell_length_a   12.50537884
_cell_length_b   12.50537888
_cell_length_c   12.48149520
_cell_angle_alpha   105.38534635
_cell_angle_beta   105.38534642
_cell_angle_gamma   118.05989383
_symmetry_Int_Tables_number   1
_chemical_formula_structural   NaNd(GaSe2)4
_chemical_formula_sum   'Na4 Nd4 Ga16 Se32'
_cell_volume   1475.89567570
_cell_formula_units_Z   4
loop_
 _symmetry_equiv_pos_site_id
 _symmetry_equiv_pos_as_xyz
  1  'x, y, z'
loop_
 _atom_site_type_symbol
 _atom_site_label
 _atom_site_symmetry_multiplicity
 _atom_site_fract_x
 _atom_site_fract_y
 _atom_site_fract_z
 _atom_site_occupancy
  Na  Na0  1  0.62162579  0.37837421  0.25000000  1
  Na  Na1  1  0.12837421  0.87162579  0.25000000  1
  Na  Na2  1  0.87162579  0.12837421  0.75000000  1
  Na  Na3  1  0.37837421  0.62162579  0.75000000  1
  Nd  Nd4  1  0.37500000  0.62500000  0.25000000  1
  Nd  Nd5  1  0.62500000  0.37500000  0.75000000  1
  Nd  Nd6  1  0.12500000  0.87500000  0.75000000  1
  Nd  Nd7  1  0.87500000  0.12500000  0.25000000  1
  Ga  Ga8  1  0.13691171  0.13167327  0.52066461  1
  Ga  Ga9  1  0.64029810  0.63851268  0.60985392  1
  Ga  Ga10  1  0.61100866  0.11624709  0.97933539  1
  Ga  Ga11  1  0.53044418  0.02865876  0.39014608  1
  Ga  Ga12  1  0.86308829  0.86832673  0.47933539  1
  Ga  Ga13  1  0.63851268  0.64029810  0.10985392  1
  Ga  Ga14  1  0.88375291  0.38899134  0.52066461  1
  Ga  Ga15  1  0.46955582  0.97134124  0.60985392  1
  Ga  Ga16  1  0.35970190  0.36148732  0.39014608  1
  Ga  Ga17  1  0.36148732  0.35970190  0.89014608  1
  Ga  Ga18  1  0.11624709  0.61100866  0.47933539  1
  Ga  Ga19  1  0.02865876  0.53044418  0.89014608  1
  Ga  Ga20  1  0.13167327  0.13691171  0.02066461  1
  Ga  Ga21  1  0.86832673  0.86308829  0.97933539  1
  Ga  Ga22  1  0.38899134  0.88375291  0.02066461  1
  Ga  Ga23  1  0.97134124  0.46955582  0.10985392  1
  Se  Se24  1  0.09010357  0.91668521  0.99486397  1
  Se  Se25  1  0.90654169  0.58064785  0.99546091  1
  Se  Se26  1  0.14885062  0.14978111  0.83167257  1
  Se  Se27  1  0.58891922  0.41481306  0.99546091  1
  Se  Se28  1  0.07817876  0.40476040  0.49486397  1
  Se  Se29  1  0.68189147  0.18282196  0.33167257  1
  Se  Se30  1  0.41108078  0.58518694  0.00453909  1
  Se  Se31  1  0.65666671  0.16322791  0.81449914  1
  Se  Se32  1  0.41935215  0.09345831  0.50453909  1
  Se  Se33  1  0.31810853  0.81717804  0.66832743  1
  Se  Se34  1  0.90989643  0.08331479  0.00513603  1
  Se  Se35  1  0.34333329  0.83677209  0.18550086  1
  Se  Se36  1  0.92182124  0.59523960  0.50513603  1
  Se  Se37  1  0.83677209  0.34333329  0.68550086  1
  Se  Se38  1  0.16322791  0.65666671  0.31449914  1
  Se  Se39  1  0.58518694  0.41108078  0.50453909  1
  Se  Se40  1  0.85114938  0.85021889  0.16832743  1
  Se  Se41  1  0.34872877  0.34216757  0.68550086  1
  Se  Se42  1  0.18282196  0.68189147  0.83167257  1
  Se  Se43  1  0.14978111  0.14885062  0.33167257  1
  Se  Se44  1  0.81717804  0.31810853  0.16832743  1
  Se  Se45  1  0.40476040  0.07817876  0.99486397  1
  Se  Se46  1  0.65783243  0.65127123  0.81449914  1
  Se  Se47  1  0.09345831  0.41935215  0.00453909  1
  Se  Se48  1  0.59523960  0.92182124  0.00513603  1
  Se  Se49  1  0.08331479  0.90989643  0.50513603  1
  Se  Se50  1  0.34216757  0.34872877  0.18550086  1
  Se  Se51  1  0.85021889  0.85114938  0.66832743  1
  Se  Se52  1  0.41481306  0.58891922  0.49546091  1
  Se  Se53  1  0.65127123  0.65783243  0.31449914  1
  Se  Se54  1  0.91668521  0.09010357  0.49486397  1
  Se  Se55  1  0.58064785  0.90654169  0.49546091  1
