# generated using pymatgen
data_LiCa2InGe2
_symmetry_space_group_name_H-M   'P 1'
_cell_length_a   4.45844902
_cell_length_b   7.27825692
_cell_length_c   16.96051207
_cell_angle_alpha   90.00000000
_cell_angle_beta   90.00000000
_cell_angle_gamma   90.00000000
_symmetry_Int_Tables_number   1
_chemical_formula_structural   LiCa2InGe2
_chemical_formula_sum   'Li4 Ca8 In4 Ge8'
_cell_volume   550.36416339
_cell_formula_units_Z   4
loop_
 _symmetry_equiv_pos_site_id
 _symmetry_equiv_pos_as_xyz
  1  'x, y, z'
loop_
 _atom_site_type_symbol
 _atom_site_label
 _atom_site_symmetry_multiplicity
 _atom_site_fract_x
 _atom_site_fract_y
 _atom_site_fract_z
 _atom_site_occupancy
  Li  Li0  1  0.25000000  0.48691896  0.56761341  1
  Li  Li1  1  0.75000000  0.01308104  0.06761341  1
  Li  Li2  1  0.25000000  0.98691896  0.93238659  1
  Li  Li3  1  0.75000000  0.51308104  0.43238659  1
  Ca  Ca4  1  0.75000000  0.65740885  0.93767232  1
  Ca  Ca5  1  0.25000000  0.49101339  0.27920956  1
  Ca  Ca6  1  0.25000000  0.84259115  0.43767232  1
  Ca  Ca7  1  0.75000000  0.15740885  0.56232768  1
  Ca  Ca8  1  0.25000000  0.34259115  0.06232768  1
  Ca  Ca9  1  0.75000000  0.50898661  0.72079044  1
  Ca  Ca10  1  0.75000000  0.00898661  0.77920956  1
  Ca  Ca11  1  0.25000000  0.99101339  0.22079044  1
  In  In12  1  0.25000000  0.84057359  0.65308813  1
  In  In13  1  0.75000000  0.65942641  0.15308813  1
  In  In14  1  0.25000000  0.34057359  0.84691187  1
  In  In15  1  0.75000000  0.15942641  0.34691187  1
  Ge  Ge16  1  0.25000000  0.72463280  0.81460083  1
  Ge  Ge17  1  0.25000000  0.77355774  0.06284637  1
  Ge  Ge18  1  0.75000000  0.22644226  0.93715363  1
  Ge  Ge19  1  0.75000000  0.77536720  0.31460083  1
  Ge  Ge20  1  0.75000000  0.27536720  0.18539917  1
  Ge  Ge21  1  0.75000000  0.72644226  0.56284637  1
  Ge  Ge22  1  0.25000000  0.27355774  0.43715363  1
  Ge  Ge23  1  0.25000000  0.22463280  0.68539917  1
