# generated using pymatgen
data_Al2ZnS4
_symmetry_space_group_name_H-M   'P 1'
_cell_length_a   5.91054392
_cell_length_b   7.22180980
_cell_length_c   12.47498557
_cell_angle_alpha   90.00000000
_cell_angle_beta   90.00000000
_cell_angle_gamma   90.00000000
_symmetry_Int_Tables_number   1
_chemical_formula_structural   Al2ZnS4
_chemical_formula_sum   'Al8 Zn4 S16'
_cell_volume   532.49256352
_cell_formula_units_Z   4
loop_
 _symmetry_equiv_pos_site_id
 _symmetry_equiv_pos_as_xyz
  1  'x, y, z'
loop_
 _atom_site_type_symbol
 _atom_site_label
 _atom_site_symmetry_multiplicity
 _atom_site_fract_x
 _atom_site_fract_y
 _atom_site_fract_z
 _atom_site_occupancy
  Al  Al0  1  0.91051127  0.75000000  0.41466887  1
  Al  Al1  1  0.58948873  0.75000000  0.91466887  1
  Al  Al2  1  0.08948873  0.25000000  0.58533113  1
  Al  Al3  1  0.41051127  0.25000000  0.08533113  1
  Al  Al4  1  0.50000000  -0.00000000  0.50000000  1
  Al  Al5  1  0.00000000  0.50000000  -0.00000000  1
  Al  Al6  1  0.50000000  0.50000000  0.50000000  1
  Al  Al7  1  0.00000000  0.00000000  -0.00000000  1
  Zn  Zn8  1  0.49628263  0.75000000  0.23385066  1
  Zn  Zn9  1  0.00371737  0.75000000  0.73385066  1
  Zn  Zn10  1  0.50371737  0.25000000  0.76614934  1
  Zn  Zn11  1  0.99628263  0.25000000  0.26614934  1
  S  S12  1  0.29113151  0.75000000  0.41394079  1
  S  S13  1  0.20886849  0.75000000  0.91394079  1
  S  S14  1  0.70886849  0.25000000  0.58605921  1
  S  S15  1  0.79113151  0.25000000  0.08605921  1
  S  S16  1  0.76812608  0.75000000  0.07585179  1
  S  S17  1  0.73187392  0.75000000  0.57585179  1
  S  S18  1  0.23187392  0.25000000  0.92414821  1
  S  S19  1  0.26812608  0.25000000  0.42414821  1
  S  S20  1  0.74009594  0.99679748  0.34001909  1
  S  S21  1  0.75990406  0.50320252  0.84001909  1
  S  S22  1  0.25990406  0.49679748  0.65998091  1
  S  S23  1  0.24009594  0.00320252  0.15998091  1
  S  S24  1  0.25990406  0.00320252  0.65998091  1
  S  S25  1  0.24009594  0.49679748  0.15998091  1
  S  S26  1  0.74009594  0.50320252  0.34001909  1
  S  S27  1  0.75990406  0.99679748  0.84001909  1
