# generated using pymatgen
data_K2Ag2SnSe4
_symmetry_space_group_name_H-M   'P 1'
_cell_length_a   6.01734900
_cell_length_b   7.69126712
_cell_length_c   11.71738359
_cell_angle_alpha   103.06797721
_cell_angle_beta   90.00000000
_cell_angle_gamma   90.00000000
_symmetry_Int_Tables_number   1
_chemical_formula_structural   K2Ag2SnSe4
_chemical_formula_sum   'K4 Ag4 Sn2 Se8'
_cell_volume   528.24865185
_cell_formula_units_Z   2
loop_
 _symmetry_equiv_pos_site_id
 _symmetry_equiv_pos_as_xyz
  1  'x, y, z'
loop_
 _atom_site_type_symbol
 _atom_site_label
 _atom_site_symmetry_multiplicity
 _atom_site_fract_x
 _atom_site_fract_y
 _atom_site_fract_z
 _atom_site_occupancy
  K  K0  1  0.47842261  0.75000000  0.75000000  1
  K  K1  1  0.00000000  0.00000000  0.00000000  1
  K  K2  1  0.52157739  0.25000000  0.25000000  1
  K  K3  1  0.00000000  0.50000000  0.50000000  1
  Ag  Ag4  1  0.24997312  0.46718914  0.96813788  1
  Ag  Ag5  1  0.75002688  0.96718914  0.46813788  1
  Ag  Ag6  1  0.75002688  0.53281086  0.03186212  1
  Ag  Ag7  1  0.24997312  0.03281086  0.53186212  1
  Sn  Sn8  1  0.75079707  0.25000000  0.75000000  1
  Sn  Sn9  1  0.24920293  0.75000000  0.25000000  1
  Se  Se10  1  0.96912542  0.95540212  0.68860606  1
  Se  Se11  1  0.47018662  0.80691130  0.07358081  1
  Se  Se12  1  0.52981338  0.19308870  0.92641919  1
  Se  Se13  1  0.47018662  0.69308870  0.42641919  1
  Se  Se14  1  0.96912542  0.54459788  0.81139394  1
  Se  Se15  1  0.52981338  0.30691130  0.57358081  1
  Se  Se16  1  0.03087458  0.45540212  0.18860606  1
  Se  Se17  1  0.03087458  0.04459788  0.31139394  1
