# generated using pymatgen
data_SrLi3MnN3
_symmetry_space_group_name_H-M   'P 1'
_cell_length_a   7.22823683
_cell_length_b   7.22823686
_cell_length_c   7.22823708
_cell_angle_alpha   47.90653114
_cell_angle_beta   47.90653083
_cell_angle_gamma   47.90652763
_symmetry_Int_Tables_number   1
_chemical_formula_structural   SrLi3MnN3
_chemical_formula_sum   'Sr2 Li6 Mn2 N6'
_cell_volume   190.47241593
_cell_formula_units_Z   2
loop_
 _symmetry_equiv_pos_site_id
 _symmetry_equiv_pos_as_xyz
  1  'x, y, z'
loop_
 _atom_site_type_symbol
 _atom_site_label
 _atom_site_symmetry_multiplicity
 _atom_site_fract_x
 _atom_site_fract_y
 _atom_site_fract_z
 _atom_site_occupancy
  Sr  Sr0  1  0.66243620  0.66243620  0.66243620  1
  Sr  Sr1  1  0.33756380  0.33756380  0.33756380  1
  Li  Li2  1  0.10466161  0.52333065  0.76396346  1
  Li  Li3  1  0.76396346  0.10466161  0.52333065  1
  Li  Li4  1  0.47666935  0.23603654  0.89533839  1
  Li  Li5  1  0.52333065  0.76396346  0.10466161  1
  Li  Li6  1  0.23603654  0.89533839  0.47666935  1
  Li  Li7  1  0.89533839  0.47666935  0.23603654  1
  Mn  Mn8  1  0.93301726  0.93301726  0.93301726  1
  Mn  Mn9  1  0.06698274  0.06698274  0.06698274  1
  N  N10  1  0.79461430  0.37990364  0.09491443  1
  N  N11  1  0.90508557  0.20538570  0.62009636  1
  N  N12  1  0.20538570  0.62009636  0.90508557  1
  N  N13  1  0.62009636  0.90508557  0.20538570  1
  N  N14  1  0.09491443  0.79461430  0.37990364  1
  N  N15  1  0.37990364  0.09491443  0.79461430  1
