# generated using pymatgen
data_Tm(GeRu)2
_symmetry_space_group_name_H-M   'P 1'
_cell_length_a   4.26400952
_cell_length_b   4.26400889
_cell_length_c   5.74829938
_cell_angle_alpha   111.77070963
_cell_angle_beta   111.77070634
_cell_angle_gamma   90.00000417
_symmetry_Int_Tables_number   1
_chemical_formula_structural   Tm(GeRu)2
_chemical_formula_sum   'Tm1 Ge2 Ru2'
_cell_volume   88.98313090
_cell_formula_units_Z   1
loop_
 _symmetry_equiv_pos_site_id
 _symmetry_equiv_pos_as_xyz
  1  'x, y, z'
loop_
 _atom_site_type_symbol
 _atom_site_label
 _atom_site_symmetry_multiplicity
 _atom_site_fract_x
 _atom_site_fract_y
 _atom_site_fract_z
 _atom_site_occupancy
  Tm  Tm0  1  0.00000000  0.00000000  0.00000000  1
  Ge  Ge1  1  0.37044232  0.37044232  0.74088465  1
  Ge  Ge2  1  0.62955768  0.62955768  0.25911535  1
  Ru  Ru3  1  0.75000000  0.25000000  0.50000000  1
  Ru  Ru4  1  0.25000000  0.75000000  0.50000000  1
