# generated using pymatgen
data_Pr6RuBr10
_symmetry_space_group_name_H-M   'P 1'
_cell_length_a   7.74402837
_cell_length_b   9.45893826
_cell_length_c   9.79878712
_cell_angle_alpha   109.09700610
_cell_angle_beta   96.97012100
_cell_angle_gamma   106.74776819
_symmetry_Int_Tables_number   1
_chemical_formula_structural   Pr6RuBr10
_chemical_formula_sum   'Pr6 Ru1 Br10'
_cell_volume   630.78250240
_cell_formula_units_Z   1
loop_
 _symmetry_equiv_pos_site_id
 _symmetry_equiv_pos_as_xyz
  1  'x, y, z'
loop_
 _atom_site_type_symbol
 _atom_site_label
 _atom_site_symmetry_multiplicity
 _atom_site_fract_x
 _atom_site_fract_y
 _atom_site_fract_z
 _atom_site_occupancy
  Pr  Pr0  1  0.13280753  0.05125867  0.74969718  1
  Pr  Pr1  1  0.62409496  0.84909627  0.80861858  1
  Pr  Pr2  1  0.86719247  0.94874133  0.25030282  1
  Pr  Pr3  1  0.02628649  0.71250946  0.91120387  1
  Pr  Pr4  1  0.37590504  0.15090373  0.19138142  1
  Pr  Pr5  1  0.97371351  0.28749054  0.08879613  1
  Ru  Ru6  1  0.00000000  0.00000000  0.00000000  1
  Br  Br7  1  0.19419107  0.73890244  0.65002445  1
  Br  Br8  1  0.63994384  0.53240359  0.72467432  1
  Br  Br9  1  0.25262501  0.08254152  0.45121963  1
  Br  Br10  1  0.80580893  0.26109756  0.34997555  1
  Br  Br11  1  0.55378283  0.17365122  0.92133191  1
  Br  Br12  1  0.74737499  0.91745848  0.54878037  1
  Br  Br13  1  0.90960220  0.63074830  0.16847195  1
  Br  Br14  1  0.36005616  0.46759641  0.27532568  1
  Br  Br15  1  0.09039780  0.36925170  0.83152805  1
  Br  Br16  1  0.44621717  0.82634878  0.07866809  1
