# generated using pymatgen
data_K(SnAu)3
_symmetry_space_group_name_H-M   'P 1'
_cell_length_a   4.78822689
_cell_length_b   7.81844700
_cell_length_c   9.49225517
_cell_angle_alpha   90.00000000
_cell_angle_beta   90.00000000
_cell_angle_gamma   90.00000000
_symmetry_Int_Tables_number   1
_chemical_formula_structural   K(SnAu)3
_chemical_formula_sum   'K2 Sn6 Au6'
_cell_volume   355.35679324
_cell_formula_units_Z   2
loop_
 _symmetry_equiv_pos_site_id
 _symmetry_equiv_pos_as_xyz
  1  'x, y, z'
loop_
 _atom_site_type_symbol
 _atom_site_label
 _atom_site_symmetry_multiplicity
 _atom_site_fract_x
 _atom_site_fract_y
 _atom_site_fract_z
 _atom_site_occupancy
  K  K0  1  0.25000000  0.75000000  0.26057347  1
  K  K1  1  0.75000000  0.25000000  0.73942653  1
  Sn  Sn2  1  0.75000000  0.45271745  0.12191791  1
  Sn  Sn3  1  0.75000000  0.04728255  0.12191791  1
  Sn  Sn4  1  0.25000000  0.95271745  0.87808209  1
  Sn  Sn5  1  0.25000000  0.54728255  0.87808209  1
  Sn  Sn6  1  0.25000000  0.25000000  0.38521242  1
  Sn  Sn7  1  0.75000000  0.75000000  0.61478758  1
  Au  Au8  1  0.75000000  0.03888849  0.41837269  1
  Au  Au9  1  0.25000000  0.25000000  0.07076561  1
  Au  Au10  1  0.75000000  0.75000000  0.92923439  1
  Au  Au11  1  0.25000000  0.96111151  0.58162731  1
  Au  Au12  1  0.25000000  0.53888849  0.58162731  1
  Au  Au13  1  0.75000000  0.46111151  0.41837269  1
