# generated using pymatgen
data_CsLu(NbCl3)6
_symmetry_space_group_name_H-M   'P 1'
_cell_length_a   9.40630855
_cell_length_b   9.40630890
_cell_length_c   17.50666368
_cell_angle_alpha   90.00000000
_cell_angle_beta   90.00000000
_cell_angle_gamma   119.99999873
_symmetry_Int_Tables_number   1
_chemical_formula_structural   CsLu(NbCl3)6
_chemical_formula_sum   'Cs2 Lu2 Nb12 Cl36'
_cell_volume   1341.44380228
_cell_formula_units_Z   2
loop_
 _symmetry_equiv_pos_site_id
 _symmetry_equiv_pos_as_xyz
  1  'x, y, z'
loop_
 _atom_site_type_symbol
 _atom_site_label
 _atom_site_symmetry_multiplicity
 _atom_site_fract_x
 _atom_site_fract_y
 _atom_site_fract_z
 _atom_site_occupancy
  Cs  Cs0  1  0.66666700  0.33333300  0.75000000  1
  Cs  Cs1  1  0.33333300  0.66666700  0.25000000  1
  Lu  Lu2  1  0.33333300  0.66666700  0.75000000  1
  Lu  Lu3  1  0.66666700  0.33333300  0.25000000  1
  Nb  Nb4  1  0.15523909  0.19724418  0.93177379  1
  Nb  Nb5  1  0.84476091  0.80275582  0.06822621  1
  Nb  Nb6  1  0.04200509  0.19724418  0.56822621  1
  Nb  Nb7  1  0.19724418  0.04200509  0.06822621  1
  Nb  Nb8  1  0.80275582  0.95799491  0.93177379  1
  Nb  Nb9  1  0.80275582  0.84476091  0.56822621  1
  Nb  Nb10  1  0.95799491  0.80275582  0.43177379  1
  Nb  Nb11  1  0.04200509  0.84476091  0.93177379  1
  Nb  Nb12  1  0.84476091  0.04200509  0.43177379  1
  Nb  Nb13  1  0.15523909  0.95799491  0.56822621  1
  Nb  Nb14  1  0.19724418  0.15523909  0.43177379  1
  Nb  Nb15  1  0.95799491  0.15523909  0.06822621  1
  Cl  Cl16  1  0.45172739  0.09388944  0.16327398  1
  Cl  Cl17  1  0.13826243  0.41626606  0.00152705  1
  Cl  Cl18  1  0.45172739  0.35783795  0.33672602  1
  Cl  Cl19  1  0.58373394  0.86173757  0.49847295  1
  Cl  Cl20  1  0.81487980  0.76592730  0.83997504  1
  Cl  Cl21  1  0.41626606  0.13826243  0.50152705  1
  Cl  Cl22  1  0.23407270  0.04895250  0.83997504  1
  Cl  Cl23  1  0.86173757  0.27800363  0.50152705  1
  Cl  Cl24  1  0.35783795  0.90611056  0.66327398  1
  Cl  Cl25  1  0.41626606  0.27800363  0.99847295  1
  Cl  Cl26  1  0.23407270  0.18512020  0.66002496  1
  Cl  Cl27  1  0.09388944  0.64216205  0.83672602  1
  Cl  Cl28  1  0.90611056  0.35783795  0.16327398  1
  Cl  Cl29  1  0.64216205  0.54827261  0.16327398  1
  Cl  Cl30  1  0.86173757  0.58373394  0.99847295  1
  Cl  Cl31  1  0.54827261  0.90611056  0.83672602  1
  Cl  Cl32  1  0.72199637  0.58373394  0.50152705  1
  Cl  Cl33  1  0.81487980  0.04895250  0.66002496  1
  Cl  Cl34  1  0.90611056  0.54827261  0.33672602  1
  Cl  Cl35  1  0.95104750  0.76592730  0.66002496  1
  Cl  Cl36  1  0.18512020  0.23407270  0.16002496  1
  Cl  Cl37  1  0.95104750  0.18512020  0.83997504  1
  Cl  Cl38  1  0.04895250  0.81487980  0.16002496  1
  Cl  Cl39  1  0.09388944  0.45172739  0.66327398  1
  Cl  Cl40  1  0.54827261  0.64216205  0.66327398  1
  Cl  Cl41  1  0.27800363  0.41626606  0.49847295  1
  Cl  Cl42  1  0.76592730  0.95104750  0.16002496  1
  Cl  Cl43  1  0.76592730  0.81487980  0.33997504  1
  Cl  Cl44  1  0.58373394  0.72199637  0.00152705  1
  Cl  Cl45  1  0.13826243  0.72199637  0.49847295  1
  Cl  Cl46  1  0.72199637  0.13826243  0.99847295  1
  Cl  Cl47  1  0.35783795  0.45172739  0.83672602  1
  Cl  Cl48  1  0.04895250  0.23407270  0.33997504  1
  Cl  Cl49  1  0.27800363  0.86173757  0.00152705  1
  Cl  Cl50  1  0.64216205  0.09388944  0.33672602  1
  Cl  Cl51  1  0.18512020  0.95104750  0.33997504  1
