# generated using pymatgen
data_Na2UCl6
_symmetry_space_group_name_H-M   'P 1'
_cell_length_a   12.11616588
_cell_length_b   12.11616577
_cell_length_c   6.26608835
_cell_angle_alpha   90.00000000
_cell_angle_beta   90.00000000
_cell_angle_gamma   120.00000030
_symmetry_Int_Tables_number   1
_chemical_formula_structural   Na2UCl6
_chemical_formula_sum   'Na6 U3 Cl18'
_cell_volume   796.63165849
_cell_formula_units_Z   3
loop_
 _symmetry_equiv_pos_site_id
 _symmetry_equiv_pos_as_xyz
  1  'x, y, z'
loop_
 _atom_site_type_symbol
 _atom_site_label
 _atom_site_symmetry_multiplicity
 _atom_site_fract_x
 _atom_site_fract_y
 _atom_site_fract_z
 _atom_site_occupancy
  Na  Na0  1  0.66044186  0.00000000  0.00000000  1
  Na  Na1  1  0.33955814  0.00000000  0.00000000  1
  Na  Na2  1  0.00000000  0.66044186  0.00000000  1
  Na  Na3  1  0.66044186  0.66044186  0.00000000  1
  Na  Na4  1  0.33955814  0.33955814  0.00000000  1
  Na  Na5  1  1.00000000  0.33955814  0.00000000  1
  U  U6  1  0.66666700  0.33333300  0.50516239  1
  U  U7  1  0.33333300  0.66666700  0.49483761  1
  U  U8  1  0.00000000  0.00000000  0.00000000  1
  Cl  Cl9  1  0.56367780  0.12735559  0.75028234  1
  Cl  Cl10  1  0.77020984  0.22979016  0.26724187  1
  Cl  Cl11  1  0.78917125  0.89458563  0.22744215  1
  Cl  Cl12  1  0.43632220  0.56367780  0.24971766  1
  Cl  Cl13  1  0.77020984  0.54041968  0.26724187  1
  Cl  Cl14  1  0.10541437  0.21082875  0.22744215  1
  Cl  Cl15  1  0.22979016  0.77020984  0.73275813  1
  Cl  Cl16  1  0.56367780  0.43632220  0.75028234  1
  Cl  Cl17  1  0.22979016  0.45958032  0.73275813  1
  Cl  Cl18  1  0.12735559  0.56367780  0.24971766  1
  Cl  Cl19  1  0.21082875  0.10541437  0.77255785  1
  Cl  Cl20  1  0.10541437  0.89458563  0.22744215  1
  Cl  Cl21  1  0.54041968  0.77020984  0.73275813  1
  Cl  Cl22  1  0.43632220  0.87264441  0.24971766  1
  Cl  Cl23  1  0.89458563  0.10541437  0.77255785  1
  Cl  Cl24  1  0.87264441  0.43632220  0.75028234  1
  Cl  Cl25  1  0.45958032  0.22979016  0.26724187  1
  Cl  Cl26  1  0.89458563  0.78917125  0.77255785  1
