# generated using pymatgen
data_YbSnAu
_symmetry_space_group_name_H-M   'P 1'
_cell_length_a   4.76325484
_cell_length_b   8.23122047
_cell_length_c   11.98311875
_cell_angle_alpha   110.08766302
_cell_angle_beta   101.45467422
_cell_angle_gamma   90.00254584
_symmetry_Int_Tables_number   1
_chemical_formula_structural   YbSnAu
_chemical_formula_sum   'Yb6 Sn6 Au6'
_cell_volume   431.26731145
_cell_formula_units_Z   6
loop_
 _symmetry_equiv_pos_site_id
 _symmetry_equiv_pos_as_xyz
  1  'x, y, z'
loop_
 _atom_site_type_symbol
 _atom_site_label
 _atom_site_symmetry_multiplicity
 _atom_site_fract_x
 _atom_site_fract_y
 _atom_site_fract_z
 _atom_site_occupancy
  Yb  Yb0  1  0.33456107  0.86613461  0.66912001  1
  Yb  Yb1  1  0.49999027  0.96543915  -0.00000168  1
  Yb  Yb2  1  0.16791397  0.63431881  0.33581815  1
  Yb  Yb3  1  0.66545752  0.19704046  0.33090788  1
  Yb  Yb4  1  0.83209904  0.29851926  0.66418474  1
  Yb  Yb5  1  0.00000786  0.53247041  0.00000679  1
  Sn  Sn6  1  0.06791465  0.23044425  0.13583333  1
  Sn  Sn7  1  0.76490816  0.60018515  0.52991802  1
  Sn  Sn8  1  0.23506714  0.07016645  0.47012412  1
  Sn  Sn9  1  0.40592120  0.56993926  0.81189458  1
  Sn  Sn10  1  0.59408455  0.75812497  0.18810174  1
  Sn  Sn11  1  0.93198502  0.09457155  0.86409900  1
  Au  Au12  1  0.42349669  0.25655715  0.84696538  1
  Au  Au13  1  0.26230625  0.42656345  0.52460492  1
  Au  Au14  1  0.73769683  0.90199695  0.47539252  1
  Au  Au15  1  0.10043256  0.93452912  0.20075416  1
  Au  Au16  1  0.57654920  0.40954157  0.15303316  1
  Au  Au17  1  0.89960802  0.73375743  0.79924317  1
