# generated using pymatgen
data_Pr6CoBr10
_symmetry_space_group_name_H-M   'P 1'
_cell_length_a   7.68927374
_cell_length_b   9.43335526
_cell_length_c   9.60831178
_cell_angle_alpha   109.78090291
_cell_angle_beta   107.04386749
_cell_angle_gamma   97.02998288
_symmetry_Int_Tables_number   1
_chemical_formula_structural   Pr6CoBr10
_chemical_formula_sum   'Pr6 Co1 Br10'
_cell_volume   607.70253551
_cell_formula_units_Z   1
loop_
 _symmetry_equiv_pos_site_id
 _symmetry_equiv_pos_as_xyz
  1  'x, y, z'
loop_
 _atom_site_type_symbol
 _atom_site_label
 _atom_site_symmetry_multiplicity
 _atom_site_fract_x
 _atom_site_fract_y
 _atom_site_fract_z
 _atom_site_occupancy
  Pr  Pr0  1  0.37011701  0.19105707  0.14494551  1
  Pr  Pr1  1  0.02061977  0.89670292  0.69355119  1
  Pr  Pr2  1  0.12119376  0.76210882  0.04285606  1
  Pr  Pr3  1  0.62988299  0.80894293  0.85505449  1
  Pr  Pr4  1  0.87880624  0.23789118  0.95714394  1
  Pr  Pr5  1  0.97938023  0.10329708  0.30644881  1
  Co  Co6  1  0.00000000  0.00000000  0.00000000  1
  Br  Br7  1  0.44945888  0.08020015  0.82573706  1
  Br  Br8  1  0.74221195  0.53919554  0.91730772  1
  Br  Br9  1  0.25778805  0.46080446  0.08269228  1
  Br  Br10  1  0.91158422  0.17120297  0.63454851  1
  Br  Br11  1  0.62700699  0.72113236  0.53147564  1
  Br  Br12  1  0.55054112  0.91979985  0.17426294  1
  Br  Br13  1  0.08841578  0.82879703  0.36545149  1
  Br  Br14  1  0.80682441  0.36166268  0.26620649  1
  Br  Br15  1  0.19317559  0.63833732  0.73379351  1
  Br  Br16  1  0.37299301  0.27886764  0.46852436  1
