# generated using pymatgen
data_Ce2Al16Pt9
_symmetry_space_group_name_H-M   'P 1'
_cell_length_a   4.19157251
_cell_length_b   11.13364957
_cell_length_c   11.13364964
_cell_angle_alpha   64.96656947
_cell_angle_beta   79.14996881
_cell_angle_gamma   79.14997123
_symmetry_Int_Tables_number   1
_chemical_formula_structural   Ce2Al16Pt9
_chemical_formula_sum   'Ce2 Al16 Pt9'
_cell_volume   458.89977216
_cell_formula_units_Z   1
loop_
 _symmetry_equiv_pos_site_id
 _symmetry_equiv_pos_as_xyz
  1  'x, y, z'
loop_
 _atom_site_type_symbol
 _atom_site_label
 _atom_site_symmetry_multiplicity
 _atom_site_fract_x
 _atom_site_fract_y
 _atom_site_fract_z
 _atom_site_occupancy
  Ce  Ce0  1  0.77205512  0.22794488  0.22794488  1
  Ce  Ce1  1  0.22794488  0.77205512  0.77205512  1
  Al  Al2  1  0.60758612  0.27449383  0.51033392  1
  Al  Al3  1  0.07986531  0.09147274  0.74879664  1
  Al  Al4  1  0.79661046  0.51155029  0.89522878  1
  Al  Al5  1  0.92013469  0.25120336  0.90852726  1
  Al  Al6  1  0.58666526  0.91333474  0.91333474  1
  Al  Al7  1  0.39241388  0.72550617  0.48966608  1
  Al  Al8  1  0.79661046  0.89522878  0.51155029  1
  Al  Al9  1  0.20338954  0.48844971  0.10477122  1
  Al  Al10  1  1.00000000  0.38554841  0.61445159  1
  Al  Al11  1  0.00000000  0.61445159  0.38554841  1
  Al  Al12  1  0.39241388  0.48966608  0.72550617  1
  Al  Al13  1  0.20338954  0.10477122  0.48844971  1
  Al  Al14  1  0.92013469  0.90852726  0.25120336  1
  Al  Al15  1  0.07986531  0.74879664  0.09147274  1
  Al  Al16  1  0.60758612  0.51033392  0.27449383  1
  Al  Al17  1  0.41333474  0.08666526  0.08666526  1
  Pt  Pt18  1  0.50000000  0.75057108  0.24942892  1
  Pt  Pt19  1  0.66056294  0.02427630  0.65459782  1
  Pt  Pt20  1  0.87479188  0.62520812  0.62520812  1
  Pt  Pt21  1  0.50000000  0.24942892  0.75057108  1
  Pt  Pt22  1  0.12520812  0.37479188  0.37479188  1
  Pt  Pt23  1  0.00000000  0.00000000  0.00000000  1
  Pt  Pt24  1  0.66056294  0.65459782  0.02427630  1
  Pt  Pt25  1  0.33943706  0.34540218  0.97572370  1
  Pt  Pt26  1  0.33943706  0.97572370  0.34540218  1
