# generated using pymatgen
data_Dy2CdSe4
_symmetry_space_group_name_H-M   'P 1'
_cell_length_a   8.35611442
_cell_length_b   8.35611423
_cell_length_c   8.35611507
_cell_angle_alpha   60.00000082
_cell_angle_beta   60.00000156
_cell_angle_gamma   59.99999791
_symmetry_Int_Tables_number   1
_chemical_formula_structural   Dy2CdSe4
_chemical_formula_sum   'Dy4 Cd2 Se8'
_cell_volume   412.57049012
_cell_formula_units_Z   2
loop_
 _symmetry_equiv_pos_site_id
 _symmetry_equiv_pos_as_xyz
  1  'x, y, z'
loop_
 _atom_site_type_symbol
 _atom_site_label
 _atom_site_symmetry_multiplicity
 _atom_site_fract_x
 _atom_site_fract_y
 _atom_site_fract_z
 _atom_site_occupancy
  Dy  Dy0  1  0.50000000  0.50000000  0.00000000  1
  Dy  Dy1  1  0.00000000  0.50000000  0.50000000  1
  Dy  Dy2  1  0.50000000  0.00000000  0.50000000  1
  Dy  Dy3  1  0.50000000  0.50000000  0.50000000  1
  Cd  Cd4  1  0.12500000  0.12500000  0.12500000  1
  Cd  Cd5  1  0.87500000  0.87500000  0.87500000  1
  Se  Se6  1  0.27105832  0.74298056  0.74298056  1
  Se  Se7  1  0.25701944  0.25701944  0.72894168  1
  Se  Se8  1  0.25701944  0.72894168  0.25701944  1
  Se  Se9  1  0.74298056  0.74298056  0.74298056  1
  Se  Se10  1  0.25701944  0.25701944  0.25701944  1
  Se  Se11  1  0.74298056  0.74298056  0.27105832  1
  Se  Se12  1  0.72894168  0.25701944  0.25701944  1
  Se  Se13  1  0.74298056  0.27105832  0.74298056  1
