# generated using pymatgen
data_LiCaGaN2
_symmetry_space_group_name_H-M   'P 1'
_cell_length_a   5.82076593
_cell_length_b   5.93660751
_cell_length_c   6.97422657
_cell_angle_alpha   90.00000000
_cell_angle_beta   90.00000000
_cell_angle_gamma   90.07208651
_symmetry_Int_Tables_number   1
_chemical_formula_structural   LiCaGaN2
_chemical_formula_sum   'Li4 Ca4 Ga4 N8'
_cell_volume   240.99841234
_cell_formula_units_Z   4
loop_
 _symmetry_equiv_pos_site_id
 _symmetry_equiv_pos_as_xyz
  1  'x, y, z'
loop_
 _atom_site_type_symbol
 _atom_site_label
 _atom_site_symmetry_multiplicity
 _atom_site_fract_x
 _atom_site_fract_y
 _atom_site_fract_z
 _atom_site_occupancy
  Li  Li0  1  0.36754951  0.40945789  0.10567005  1
  Li  Li1  1  0.63245049  0.59054211  0.89432995  1
  Li  Li2  1  0.36754951  0.90945789  0.39432995  1
  Li  Li3  1  0.63245049  0.09054211  0.60567005  1
  Ca  Ca4  1  0.97753050  0.75746742  0.62674774  1
  Ca  Ca5  1  0.02246950  0.24253258  0.37325226  1
  Ca  Ca6  1  0.97753050  0.25746742  0.87325226  1
  Ca  Ca7  1  0.02246950  0.74253258  0.12674774  1
  Ga  Ga8  1  0.62414266  0.57828908  0.35958386  1
  Ga  Ga9  1  0.62414266  0.07828908  0.14041614  1
  Ga  Ga10  1  0.37585734  0.42171092  0.64041614  1
  Ga  Ga11  1  0.37585734  0.92171092  0.85958386  1
  N  N12  1  0.74053422  0.40223843  0.13768076  1
  N  N13  1  0.25946578  0.09776157  0.63768076  1
  N  N14  1  0.27817555  0.06930638  0.11148399  1
  N  N15  1  0.25946578  0.59776157  0.86231924  1
  N  N16  1  0.27817555  0.56930638  0.38851601  1
  N  N17  1  0.72182445  0.93069362  0.88851601  1
  N  N18  1  0.72182445  0.43069362  0.61148399  1
  N  N19  1  0.74053422  0.90223843  0.36231924  1
