# generated using pymatgen
data_Ho7In(CoGe3)4
_symmetry_space_group_name_H-M   'P 1'
_cell_length_a   4.17662010
_cell_length_b   10.38062959
_cell_length_c   10.38062959
_cell_angle_alpha   90.00000000
_cell_angle_beta   90.00000000
_cell_angle_gamma   90.00000000
_symmetry_Int_Tables_number   1
_chemical_formula_structural   Ho7In(CoGe3)4
_chemical_formula_sum   'Ho7 In1 Co4 Ge12'
_cell_volume   450.06201799
_cell_formula_units_Z   1
loop_
 _symmetry_equiv_pos_site_id
 _symmetry_equiv_pos_as_xyz
  1  'x, y, z'
loop_
 _atom_site_type_symbol
 _atom_site_label
 _atom_site_symmetry_multiplicity
 _atom_site_fract_x
 _atom_site_fract_y
 _atom_site_fract_z
 _atom_site_occupancy
  Ho  Ho0  1  0.50000000  0.67765136  0.67480257  1
  Ho  Ho1  1  0.50000000  0.67480257  0.32234864  1
  Ho  Ho2  1  0.00000000  0.00000000  0.00000000  1
  Ho  Ho3  1  0.50000000  0.32234864  0.32519743  1
  Ho  Ho4  1  0.50000000  0.50000000  0.00000000  1
  Ho  Ho5  1  0.50000000  0.32519743  0.67765136  1
  Ho  Ho6  1  0.50000000  0.00000000  0.50000000  1
  In  In7  1  0.00000000  0.50000000  0.50000000  1
  Co  Co8  1  0.00000000  0.27853602  0.11769647  1
  Co  Co9  1  0.00000000  0.11769647  0.72146398  1
  Co  Co10  1  0.00000000  0.72146398  0.88230353  1
  Co  Co11  1  0.00000000  0.88230353  0.27853602  1
  Ge  Ge12  1  0.00000000  0.78777395  0.48643173  1
  Ge  Ge13  1  0.00000000  0.51356827  0.78777395  1
  Ge  Ge14  1  0.00000000  0.21222605  0.51356827  1
  Ge  Ge15  1  0.50000000  0.19439262  0.06536634  1
  Ge  Ge16  1  0.00000000  0.28507593  0.88723188  1
  Ge  Ge17  1  0.00000000  0.88723188  0.71492407  1
  Ge  Ge18  1  0.50000000  0.80560738  0.93463366  1
  Ge  Ge19  1  0.50000000  0.06536634  0.80560738  1
  Ge  Ge20  1  0.00000000  0.71492407  0.11276812  1
  Ge  Ge21  1  0.50000000  0.93463366  0.19439262  1
  Ge  Ge22  1  0.00000000  0.11276812  0.28507593  1
  Ge  Ge23  1  0.00000000  0.48643173  0.21222605  1
