# generated using pymatgen
data_ZrP2NCl11
_symmetry_space_group_name_H-M   'P 1'
_cell_length_a   11.09999146
_cell_length_b   11.09999236
_cell_length_c   16.27777922
_cell_angle_alpha   90.00000000
_cell_angle_beta   90.00000000
_cell_angle_gamma   114.23704757
_symmetry_Int_Tables_number   1
_chemical_formula_structural   ZrP2NCl11
_chemical_formula_sum   'Zr4 P8 N4 Cl44'
_cell_volume   1828.79994277
_cell_formula_units_Z   4
loop_
 _symmetry_equiv_pos_site_id
 _symmetry_equiv_pos_as_xyz
  1  'x, y, z'
loop_
 _atom_site_type_symbol
 _atom_site_label
 _atom_site_symmetry_multiplicity
 _atom_site_fract_x
 _atom_site_fract_y
 _atom_site_fract_z
 _atom_site_occupancy
  Zr  Zr0  1  0.35204445  0.35204445  0.06638502  1
  Zr  Zr1  1  0.14795555  0.14795555  0.56638502  1
  Zr  Zr2  1  0.64795555  0.64795555  0.93361498  1
  Zr  Zr3  1  0.85204445  0.85204445  0.43361498  1
  P  P4  1  0.19565119  0.80156891  0.18325494  1
  P  P5  1  0.69843109  0.30434881  0.68325494  1
  P  P6  1  0.80434881  0.19843109  0.81674506  1
  P  P7  1  0.30156891  0.69565119  0.31674506  1
  P  P8  1  0.80156891  0.19565119  0.18325494  1
  P  P9  1  0.30434881  0.69843109  0.68325494  1
  P  P10  1  0.19843109  0.80434881  0.81674506  1
  P  P11  1  0.69565119  0.30156891  0.31674506  1
  N  N12  1  0.79765911  0.29765911  0.75000000  1
  N  N13  1  0.70234089  0.20234089  0.25000000  1
  N  N14  1  0.29765911  0.79765911  0.75000000  1
  N  N15  1  0.20234089  0.70234089  0.25000000  1
  Cl  Cl16  1  0.52887228  0.29263722  0.72904441  1
  Cl  Cl17  1  0.92682122  0.92682122  0.58616476  1
  Cl  Cl18  1  0.27886236  0.97432047  0.87554767  1
  Cl  Cl19  1  0.77886236  0.47432047  0.62445233  1
  Cl  Cl20  1  0.97112772  0.20736278  0.22904441  1
  Cl  Cl21  1  0.33614484  0.84653514  0.09882907  1
  Cl  Cl22  1  0.02887228  0.79263722  0.77095559  1
  Cl  Cl23  1  0.29263722  0.52887228  0.72904441  1
  Cl  Cl24  1  0.72113764  0.02567953  0.12445233  1
  Cl  Cl25  1  0.47432047  0.77886236  0.62445233  1
  Cl  Cl26  1  0.16385516  0.65346486  0.59882907  1
  Cl  Cl27  1  0.83184418  0.83184418  0.28548560  1
  Cl  Cl28  1  0.52567953  0.22113764  0.37554767  1
  Cl  Cl29  1  0.57317878  0.57317878  0.08616476  1
  Cl  Cl30  1  0.47112772  0.70736278  0.27095559  1
  Cl  Cl31  1  0.51137295  0.77512940  0.93883274  1
  Cl  Cl32  1  0.77512940  0.51137295  0.93883274  1
  Cl  Cl33  1  0.65346486  0.16385516  0.59882907  1
  Cl  Cl34  1  0.34653514  0.83614484  0.40117093  1
  Cl  Cl35  1  0.27512940  0.01137295  0.56116726  1
  Cl  Cl36  1  0.72487060  0.98862705  0.43883274  1
  Cl  Cl37  1  0.98862705  0.72487060  0.43883274  1
  Cl  Cl38  1  0.42682122  0.42682122  0.91383524  1
  Cl  Cl39  1  0.33184418  0.33184418  0.21451440  1
  Cl  Cl40  1  0.22113764  0.52567953  0.37554767  1
  Cl  Cl41  1  0.79263722  0.02887228  0.77095559  1
  Cl  Cl42  1  0.66815582  0.66815582  0.78548560  1
  Cl  Cl43  1  0.15346486  0.66385516  0.90117093  1
  Cl  Cl44  1  0.02567953  0.72113764  0.12445233  1
  Cl  Cl45  1  0.16815582  0.16815582  0.71451440  1
  Cl  Cl46  1  0.48862705  0.22487060  0.06116726  1
  Cl  Cl47  1  0.84653514  0.33614484  0.09882907  1
  Cl  Cl48  1  0.01137295  0.27512940  0.56116726  1
  Cl  Cl49  1  0.07317878  0.07317878  0.41383524  1
  Cl  Cl50  1  0.66016703  0.66016703  0.47468315  1
  Cl  Cl51  1  0.22487060  0.48862705  0.06116726  1
  Cl  Cl52  1  0.16016703  0.16016703  0.02531685  1
  Cl  Cl53  1  0.33983297  0.33983297  0.52531685  1
  Cl  Cl54  1  0.97432047  0.27886236  0.87554767  1
  Cl  Cl55  1  0.20736278  0.97112772  0.22904441  1
  Cl  Cl56  1  0.83614484  0.34653514  0.40117093  1
  Cl  Cl57  1  0.70736278  0.47112772  0.27095559  1
  Cl  Cl58  1  0.83983297  0.83983297  0.97468315  1
  Cl  Cl59  1  0.66385516  0.15346486  0.90117093  1
