# generated using pymatgen
data_Hf4NbGe4
_symmetry_space_group_name_H-M   'P 1'
_cell_length_a   6.95491952
_cell_length_b   7.06401995
_cell_length_c   13.50009060
_cell_angle_alpha   90.00000000
_cell_angle_beta   90.00000000
_cell_angle_gamma   90.00000000
_symmetry_Int_Tables_number   1
_chemical_formula_structural   Hf4NbGe4
_chemical_formula_sum   'Hf16 Nb4 Ge16'
_cell_volume   663.25526939
_cell_formula_units_Z   4
loop_
 _symmetry_equiv_pos_site_id
 _symmetry_equiv_pos_as_xyz
  1  'x, y, z'
loop_
 _atom_site_type_symbol
 _atom_site_label
 _atom_site_symmetry_multiplicity
 _atom_site_fract_x
 _atom_site_fract_y
 _atom_site_fract_z
 _atom_site_occupancy
  Hf  Hf0  1  0.34893665  0.66939401  0.12473623  1
  Hf  Hf1  1  0.84893665  0.83060599  0.12473623  1
  Hf  Hf2  1  0.65106335  0.33060599  0.62473623  1
  Hf  Hf3  1  0.98468361  0.67692005  0.90458292  1
  Hf  Hf4  1  0.48468361  0.82307995  0.59541708  1
  Hf  Hf5  1  0.51531639  0.17692005  0.09541708  1
  Hf  Hf6  1  0.51531639  0.17692005  0.40458292  1
  Hf  Hf7  1  0.01531639  0.32307995  0.09541708  1
  Hf  Hf8  1  0.15106335  0.16939401  0.87526377  1
  Hf  Hf9  1  0.15106335  0.16939401  0.62473623  1
  Hf  Hf10  1  0.98468361  0.67692005  0.59541708  1
  Hf  Hf11  1  0.65106335  0.33060599  0.87526377  1
  Hf  Hf12  1  0.48468361  0.82307995  0.90458292  1
  Hf  Hf13  1  0.01531639  0.32307995  0.40458292  1
  Hf  Hf14  1  0.34893665  0.66939401  0.37526377  1
  Hf  Hf15  1  0.84893665  0.83060599  0.37526377  1
  Nb  Nb16  1  0.67615494  0.50322049  0.25000000  1
  Nb  Nb17  1  0.17615494  0.99677951  0.25000000  1
  Nb  Nb18  1  0.32384506  0.49677951  0.75000000  1
  Nb  Nb19  1  0.82384506  0.00322049  0.75000000  1
  Ge  Ge20  1  0.69185708  0.53154146  0.45965837  1
  Ge  Ge21  1  0.19185708  0.96845854  0.04034163  1
  Ge  Ge22  1  0.31691049  0.35083588  0.25000000  1
  Ge  Ge23  1  0.80814292  0.03154146  0.95965837  1
  Ge  Ge24  1  0.30814292  0.46845854  0.95965837  1
  Ge  Ge25  1  0.45247497  0.10878320  0.75000000  1
  Ge  Ge26  1  0.68308951  0.64916412  0.75000000  1
  Ge  Ge27  1  0.95247497  0.39121680  0.75000000  1
  Ge  Ge28  1  0.81691049  0.14916412  0.25000000  1
  Ge  Ge29  1  0.69185708  0.53154146  0.04034163  1
  Ge  Ge30  1  0.19185708  0.96845854  0.45965837  1
  Ge  Ge31  1  0.04752503  0.60878320  0.25000000  1
  Ge  Ge32  1  0.30814292  0.46845854  0.54034163  1
  Ge  Ge33  1  0.54752503  0.89121680  0.25000000  1
  Ge  Ge34  1  0.80814292  0.03154146  0.54034163  1
  Ge  Ge35  1  0.18308951  0.85083588  0.75000000  1
