# generated using pymatgen
data_RbMg30TiO32
_symmetry_space_group_name_H-M   'P 1'
_cell_length_a   8.63835786
_cell_length_b   8.62398562
_cell_length_c   8.62398562
_cell_angle_alpha   90.00000000
_cell_angle_beta   90.00000000
_cell_angle_gamma   90.00000000
_symmetry_Int_Tables_number   1
_chemical_formula_structural   RbMg30TiO32
_chemical_formula_sum   'Rb1 Mg30 Ti1 O32'
_cell_volume   642.46169461
_cell_formula_units_Z   1
loop_
 _symmetry_equiv_pos_site_id
 _symmetry_equiv_pos_as_xyz
  1  'x, y, z'
loop_
 _atom_site_type_symbol
 _atom_site_label
 _atom_site_symmetry_multiplicity
 _atom_site_fract_x
 _atom_site_fract_y
 _atom_site_fract_z
 _atom_site_occupancy
  Rb  Rb0  1  0.00000000  0.50000000  0.50000000  1
  Mg  Mg1  1  0.00000000  -0.00000000  0.50000000  1
  Mg  Mg2  1  0.00000000  0.50000000  -0.00000000  1
  Mg  Mg3  1  0.50000000  0.00000000  -0.00000000  1
  Mg  Mg4  1  0.50000000  0.00000000  0.50000000  1
  Mg  Mg5  1  0.50000000  0.50000000  -0.00000000  1
  Mg  Mg6  1  0.50000000  0.50000000  0.50000000  1
  Mg  Mg7  1  0.00000000  0.25095242  0.25095242  1
  Mg  Mg8  1  0.00000000  0.25095242  0.74904758  1
  Mg  Mg9  1  0.00000000  0.74904758  0.25095242  1
  Mg  Mg10  1  0.00000000  0.74904758  0.74904758  1
  Mg  Mg11  1  0.50000000  0.25116485  0.25116485  1
  Mg  Mg12  1  0.50000000  0.25116485  0.74883515  1
  Mg  Mg13  1  0.50000000  0.74883515  0.25116485  1
  Mg  Mg14  1  0.50000000  0.74883515  0.74883515  1
  Mg  Mg15  1  0.25238280  -0.00000000  0.25266233  1
  Mg  Mg16  1  0.25238280  0.00000000  0.74733767  1
  Mg  Mg17  1  0.25311993  0.50000000  0.24833411  1
  Mg  Mg18  1  0.25311993  0.50000000  0.75166589  1
  Mg  Mg19  1  0.74761720  0.00000000  0.25266233  1
  Mg  Mg20  1  0.74761720  0.00000000  0.74733767  1
  Mg  Mg21  1  0.74688007  0.50000000  0.24833411  1
  Mg  Mg22  1  0.74688007  0.50000000  0.75166589  1
  Mg  Mg23  1  0.25238280  0.25266233  -0.00000000  1
  Mg  Mg24  1  0.25311993  0.24833411  0.50000000  1
  Mg  Mg25  1  0.25238280  0.74733767  -0.00000000  1
  Mg  Mg26  1  0.25311993  0.75166589  0.50000000  1
  Mg  Mg27  1  0.74761720  0.25266233  -0.00000000  1
  Mg  Mg28  1  0.74688007  0.24833411  0.50000000  1
  Mg  Mg29  1  0.74761720  0.74733767  -0.00000000  1
  Mg  Mg30  1  0.74688007  0.75166589  0.50000000  1
  Ti  Ti31  1  0.00000000  0.00000000  -0.00000000  1
  O  O32  1  0.24838736  -0.00000000  -0.00000000  1
  O  O33  1  0.25416612  0.00000000  0.50000000  1
  O  O34  1  0.25416612  0.50000000  -0.00000000  1
  O  O35  1  0.27840694  0.50000000  0.50000000  1
  O  O36  1  0.75161264  0.00000000  -0.00000000  1
  O  O37  1  0.74583388  0.00000000  0.50000000  1
  O  O38  1  0.74583388  0.50000000  -0.00000000  1
  O  O39  1  0.72159306  0.50000000  0.50000000  1
  O  O40  1  0.24868208  0.24968015  0.24968015  1
  O  O41  1  0.24868208  0.24968015  0.75031985  1
  O  O42  1  0.24868208  0.75031985  0.24968015  1
  O  O43  1  0.24868208  0.75031985  0.75031985  1
  O  O44  1  0.75131792  0.24968015  0.24968015  1
  O  O45  1  0.75131792  0.24968015  0.75031985  1
  O  O46  1  0.75131792  0.75031985  0.24968015  1
  O  O47  1  0.75131792  0.75031985  0.75031985  1
  O  O48  1  0.00000000  0.00000000  0.23953747  1
  O  O49  1  0.00000000  0.00000000  0.76046253  1
  O  O50  1  0.00000000  0.50000000  0.22094876  1
  O  O51  1  0.00000000  0.50000000  0.77905124  1
  O  O52  1  0.50000000  -0.00000000  0.24781723  1
  O  O53  1  0.50000000  0.00000000  0.75218277  1
  O  O54  1  0.50000000  0.50000000  0.24415320  1
  O  O55  1  0.50000000  0.50000000  0.75584680  1
  O  O56  1  0.00000000  0.23953747  -0.00000000  1
  O  O57  1  0.00000000  0.22094876  0.50000000  1
  O  O58  1  0.00000000  0.76046253  -0.00000000  1
  O  O59  1  0.00000000  0.77905124  0.50000000  1
  O  O60  1  0.50000000  0.24781723  -0.00000000  1
  O  O61  1  0.50000000  0.24415320  0.50000000  1
  O  O62  1  0.50000000  0.75218277  -0.00000000  1
  O  O63  1  0.50000000  0.75584680  0.50000000  1
