# generated using pymatgen
data_CsMgH3
_symmetry_space_group_name_H-M   'P 1'
_cell_length_a   6.15760683
_cell_length_b   8.61119640
_cell_length_c   10.01945414
_cell_angle_alpha   90.00000000
_cell_angle_beta   90.00000000
_cell_angle_gamma   90.00000000
_symmetry_Int_Tables_number   1
_chemical_formula_structural   CsMgH3
_chemical_formula_sum   'Cs6 Mg6 H18'
_cell_volume   531.27516103
_cell_formula_units_Z   6
loop_
 _symmetry_equiv_pos_site_id
 _symmetry_equiv_pos_as_xyz
  1  'x, y, z'
loop_
 _atom_site_type_symbol
 _atom_site_label
 _atom_site_symmetry_multiplicity
 _atom_site_fract_x
 _atom_site_fract_y
 _atom_site_fract_z
 _atom_site_occupancy
  Cs  Cs0  1  0.75000000  0.33394076  0.52915115  1
  Cs  Cs1  1  0.75000000  0.81818971  0.75000000  1
  Cs  Cs2  1  0.25000000  0.66605924  0.02915115  1
  Cs  Cs3  1  0.25000000  0.18181029  0.25000000  1
  Cs  Cs4  1  0.25000000  0.66605924  0.47084885  1
  Cs  Cs5  1  0.75000000  0.33394076  0.97084885  1
  Mg  Mg6  1  0.75000000  0.92661238  0.38948199  1
  Mg  Mg7  1  0.75000000  0.63522216  0.25000000  1
  Mg  Mg8  1  0.25000000  0.07338762  0.88948199  1
  Mg  Mg9  1  0.75000000  0.92661238  0.11051801  1
  Mg  Mg10  1  0.25000000  0.36477784  0.75000000  1
  Mg  Mg11  1  0.25000000  0.07338762  0.61051801  1
  H  H12  1  0.04928907  0.16679466  0.75000000  1
  H  H13  1  0.95071093  0.83320534  0.25000000  1
  H  H14  1  0.98545860  0.49795186  0.25000000  1
  H  H15  1  0.48545860  0.50204814  0.75000000  1
  H  H16  1  0.01454140  0.50204814  0.75000000  1
  H  H17  1  0.51454140  0.49795186  0.25000000  1
  H  H18  1  0.75000000  0.09354413  0.25000000  1
  H  H19  1  0.25000000  0.29157591  0.94853240  1
  H  H20  1  0.25000000  0.90645587  0.75000000  1
  H  H21  1  0.75000000  0.70842409  0.44853240  1
  H  H22  1  0.25000000  0.29157591  0.55146760  1
  H  H23  1  0.54928907  0.83320534  0.25000000  1
  H  H24  1  0.00000000  0.00000000  0.50000000  1
  H  H25  1  0.75000000  0.70842409  0.05146760  1
  H  H26  1  0.45071093  0.16679466  0.75000000  1
  H  H27  1  0.50000000  0.00000000  0.50000000  1
  H  H28  1  0.00000000  0.00000000  0.00000000  1
  H  H29  1  0.50000000  0.00000000  0.00000000  1
