# generated using pymatgen
data_CuP4Se4I
_symmetry_space_group_name_H-M   'P 1'
_cell_length_a   9.83523968
_cell_length_b   9.83523981
_cell_length_c   12.60900495
_cell_angle_alpha   90.00000000
_cell_angle_beta   90.00000000
_cell_angle_gamma   98.75043860
_symmetry_Int_Tables_number   1
_chemical_formula_structural   CuP4Se4I
_chemical_formula_sum   'Cu4 P16 Se16 I4'
_cell_volume   1205.49670983
_cell_formula_units_Z   4
loop_
 _symmetry_equiv_pos_site_id
 _symmetry_equiv_pos_as_xyz
  1  'x, y, z'
loop_
 _atom_site_type_symbol
 _atom_site_label
 _atom_site_symmetry_multiplicity
 _atom_site_fract_x
 _atom_site_fract_y
 _atom_site_fract_z
 _atom_site_occupancy
  Cu  Cu0  1  0.90085284  0.09914716  0.50000000  1
  Cu  Cu1  1  0.59914716  0.40085284  0.00000000  1
  Cu  Cu2  1  0.40085284  0.59914716  0.00000000  1
  Cu  Cu3  1  0.09914716  0.90085284  0.50000000  1
  P  P4  1  0.35604927  0.72148932  0.14537271  1
  P  P5  1  0.85604927  0.22148932  0.35462729  1
  P  P6  1  0.22148932  0.85604927  0.35462729  1
  P  P7  1  0.03590250  0.25397060  0.24505840  1
  P  P8  1  0.77851068  0.14395073  0.64537271  1
  P  P9  1  0.74602940  0.96409750  0.75494160  1
  P  P10  1  0.64395073  0.27851068  0.85462729  1
  P  P11  1  0.27851068  0.64395073  0.85462729  1
  P  P12  1  0.96409750  0.74602940  0.75494160  1
  P  P13  1  0.46409750  0.24602940  0.74505840  1
  P  P14  1  0.72148932  0.35604927  0.14537271  1
  P  P15  1  0.24602940  0.46409750  0.74505840  1
  P  P16  1  0.53590250  0.75397060  0.25494160  1
  P  P17  1  0.25397060  0.03590250  0.24505840  1
  P  P18  1  0.75397060  0.53590250  0.25494160  1
  P  P19  1  0.14395073  0.77851068  0.64537271  1
  Se  Se20  1  0.83339158  0.33339158  0.75000000  1
  Se  Se21  1  0.66660842  0.16660842  0.25000000  1
  Se  Se22  1  0.47028795  0.47028795  0.69113135  1
  Se  Se23  1  0.64801561  0.05381426  0.90008182  1
  Se  Se24  1  0.05381426  0.64801561  0.90008182  1
  Se  Se25  1  0.52971205  0.52971205  0.30886865  1
  Se  Se26  1  0.33339158  0.83339158  0.75000000  1
  Se  Se27  1  0.16660842  0.66660842  0.25000000  1
  Se  Se28  1  0.97028795  0.97028795  0.80886865  1
  Se  Se29  1  0.44618574  0.85198439  0.40008182  1
  Se  Se30  1  0.94618574  0.35198439  0.09991818  1
  Se  Se31  1  0.14801561  0.55381426  0.59991818  1
  Se  Se32  1  0.02971205  0.02971205  0.19113135  1
  Se  Se33  1  0.35198439  0.94618574  0.09991818  1
  Se  Se34  1  0.55381426  0.14801561  0.59991818  1
  Se  Se35  1  0.85198439  0.44618574  0.40008182  1
  I  I36  1  0.82984385  0.82984385  0.47590851  1
  I  I37  1  0.17015615  0.17015615  0.52409149  1
  I  I38  1  0.32984385  0.32984385  0.02409149  1
  I  I39  1  0.67015615  0.67015615  0.97590851  1
