# generated using pymatgen
data_YbP5
_symmetry_space_group_name_H-M   'P 1'
_cell_length_a   5.60711384
_cell_length_b   5.52402429
_cell_length_c   16.65265410
_cell_angle_alpha   90.00000000
_cell_angle_beta   90.00000000
_cell_angle_gamma   103.54071762
_symmetry_Int_Tables_number   1
_chemical_formula_structural   YbP5
_chemical_formula_sum   'Yb4 P20'
_cell_volume   501.45933152
_cell_formula_units_Z   4
loop_
 _symmetry_equiv_pos_site_id
 _symmetry_equiv_pos_as_xyz
  1  'x, y, z'
loop_
 _atom_site_type_symbol
 _atom_site_label
 _atom_site_symmetry_multiplicity
 _atom_site_fract_x
 _atom_site_fract_y
 _atom_site_fract_z
 _atom_site_occupancy
  Yb  Yb0  1  0.02647775  0.11964406  0.50909766  1
  Yb  Yb1  1  0.98142771  0.42199248  0.73745525  1
  Yb  Yb2  1  0.97352225  0.88035594  0.00909766  1
  Yb  Yb3  1  0.01857229  0.57800752  0.23745525  1
  P  P4  1  0.70868658  0.83377224  0.32884811  1
  P  P5  1  0.26196849  0.78750886  0.86460532  1
  P  P6  1  0.42770781  0.79086821  0.67939816  1
  P  P7  1  0.78292398  0.87027331  0.74154832  1
  P  P8  1  0.65405153  0.77334490  0.86480952  1
  P  P9  1  0.29131342  0.16622776  0.82884811  1
  P  P10  1  0.41485419  0.28480858  0.06280139  1
  P  P11  1  0.65617702  0.37310537  0.87210623  1
  P  P12  1  0.23866079  0.67174908  0.49626394  1
  P  P13  1  0.73803151  0.21249114  0.36460532  1
  P  P14  1  0.65876981  0.34848948  0.59405656  1
  P  P15  1  0.34123019  0.65151052  0.09405656  1
  P  P16  1  0.58514581  0.71519142  0.56280139  1
  P  P17  1  0.34594847  0.22665510  0.36480952  1
  P  P18  1  0.34382298  0.62689463  0.37210623  1
  P  P19  1  0.57229219  0.20913179  0.17939816  1
  P  P20  1  0.34168189  0.16302343  0.66310954  1
  P  P21  1  0.21707602  0.12972669  0.24154832  1
  P  P22  1  0.65831811  0.83697657  0.16310954  1
  P  P23  1  0.76133921  0.32825092  0.99626394  1
