# generated using pymatgen
data_CsSn
_symmetry_space_group_name_H-M   'P 1'
_cell_length_a   14.79198601
_cell_length_b   14.79198601
_cell_length_c   14.79198601
_cell_angle_alpha   90.00000000
_cell_angle_beta   90.00000000
_cell_angle_gamma   90.00000000
_symmetry_Int_Tables_number   1
_chemical_formula_structural   CsSn
_chemical_formula_sum   'Cs32 Sn32'
_cell_volume   3236.52869792
_cell_formula_units_Z   32
loop_
 _symmetry_equiv_pos_site_id
 _symmetry_equiv_pos_as_xyz
  1  'x, y, z'
loop_
 _atom_site_type_symbol
 _atom_site_label
 _atom_site_symmetry_multiplicity
 _atom_site_fract_x
 _atom_site_fract_y
 _atom_site_fract_z
 _atom_site_occupancy
  Cs  Cs0  1  0.66342166  0.93385706  0.14113971  1
  Cs  Cs1  1  0.33333912  0.33333912  0.33333912  1
  Cs  Cs2  1  0.33657834  0.93385706  0.85886029  1
  Cs  Cs3  1  0.66666088  0.33333912  0.66666088  1
  Cs  Cs4  1  0.64113971  0.56614294  0.83657834  1
  Cs  Cs5  1  0.83333912  0.83333912  0.83333912  1
  Cs  Cs6  1  0.83333912  0.16666088  0.16666088  1
  Cs  Cs7  1  0.56614294  0.83657834  0.64113971  1
  Cs  Cs8  1  0.16666088  0.83333912  0.16666088  1
  Cs  Cs9  1  0.66342166  0.06614294  0.85886029  1
  Cs  Cs10  1  0.33657834  0.06614294  0.14113971  1
  Cs  Cs11  1  0.16342166  0.64113971  0.43385706  1
  Cs  Cs12  1  0.16666088  0.16666088  0.83333912  1
  Cs  Cs13  1  0.35886029  0.43385706  0.83657834  1
  Cs  Cs14  1  0.33333912  0.66666088  0.66666088  1
  Cs  Cs15  1  0.64113971  0.43385706  0.16342166  1
  Cs  Cs16  1  0.66666088  0.66666088  0.33333912  1
  Cs  Cs17  1  0.14113971  0.33657834  0.06614294  1
  Cs  Cs18  1  0.06614294  0.85886029  0.66342166  1
  Cs  Cs19  1  0.43385706  0.16342166  0.64113971  1
  Cs  Cs20  1  0.43385706  0.83657834  0.35886029  1
  Cs  Cs21  1  0.85886029  0.66342166  0.06614294  1
  Cs  Cs22  1  0.93385706  0.14113971  0.66342166  1
  Cs  Cs23  1  0.56614294  0.16342166  0.35886029  1
  Cs  Cs24  1  0.93385706  0.85886029  0.33657834  1
  Cs  Cs25  1  0.35886029  0.56614294  0.16342166  1
  Cs  Cs26  1  0.83657834  0.64113971  0.56614294  1
  Cs  Cs27  1  0.06614294  0.14113971  0.33657834  1
  Cs  Cs28  1  0.83657834  0.35886029  0.43385706  1
  Cs  Cs29  1  0.14113971  0.66342166  0.93385706  1
  Cs  Cs30  1  0.16342166  0.35886029  0.56614294  1
  Cs  Cs31  1  0.85886029  0.33657834  0.93385706  1
  Sn  Sn32  1  0.42293901  0.67977547  0.93336761  1
  Sn  Sn33  1  0.07139263  0.92860737  0.92860737  1
  Sn  Sn34  1  0.92293901  0.56663239  0.82022453  1
  Sn  Sn35  1  0.57139263  0.42860737  0.42860737  1
  Sn  Sn36  1  0.07706099  0.56663239  0.17977547  1
  Sn  Sn37  1  0.42860737  0.57139263  0.42860737  1
  Sn  Sn38  1  0.32022453  0.06663239  0.42293901  1
  Sn  Sn39  1  0.17977547  0.92293901  0.43336761  1
  Sn  Sn40  1  0.07139263  0.07139263  0.07139263  1
  Sn  Sn41  1  0.17977547  0.07706099  0.56663239  1
  Sn  Sn42  1  0.92293901  0.43336761  0.17977547  1
  Sn  Sn43  1  0.93336761  0.42293901  0.67977547  1
  Sn  Sn44  1  0.07706099  0.43336761  0.82022453  1
  Sn  Sn45  1  0.56663239  0.17977547  0.07706099  1
  Sn  Sn46  1  0.57139263  0.57139263  0.57139263  1
  Sn  Sn47  1  0.82022453  0.07706099  0.43336761  1
  Sn  Sn48  1  0.57706099  0.67977547  0.06663239  1
  Sn  Sn49  1  0.67977547  0.93336761  0.42293901  1
  Sn  Sn50  1  0.67977547  0.06663239  0.57706099  1
  Sn  Sn51  1  0.42293901  0.32022453  0.06663239  1
  Sn  Sn52  1  0.82022453  0.92293901  0.56663239  1
  Sn  Sn53  1  0.92860737  0.07139263  0.92860737  1
  Sn  Sn54  1  0.56663239  0.82022453  0.92293901  1
  Sn  Sn55  1  0.42860737  0.42860737  0.57139263  1
  Sn  Sn56  1  0.57706099  0.32022453  0.93336761  1
  Sn  Sn57  1  0.43336761  0.17977547  0.92293901  1
  Sn  Sn58  1  0.93336761  0.57706099  0.32022453  1
  Sn  Sn59  1  0.06663239  0.42293901  0.32022453  1
  Sn  Sn60  1  0.32022453  0.93336761  0.57706099  1
  Sn  Sn61  1  0.92860737  0.92860737  0.07139263  1
  Sn  Sn62  1  0.06663239  0.57706099  0.67977547  1
  Sn  Sn63  1  0.43336761  0.82022453  0.07706099  1
