# generated using pymatgen
data_KY(PSe3)2
_symmetry_space_group_name_H-M   'P 1'
_cell_length_a   6.84903469
_cell_length_b   7.55025373
_cell_length_c   21.87113846
_cell_angle_alpha   90.00000000
_cell_angle_beta   90.00000000
_cell_angle_gamma   90.00000000
_symmetry_Int_Tables_number   1
_chemical_formula_structural   KY(PSe3)2
_chemical_formula_sum   'K4 Y4 P8 Se24'
_cell_volume   1130.99921225
_cell_formula_units_Z   4
loop_
 _symmetry_equiv_pos_site_id
 _symmetry_equiv_pos_as_xyz
  1  'x, y, z'
loop_
 _atom_site_type_symbol
 _atom_site_label
 _atom_site_symmetry_multiplicity
 _atom_site_fract_x
 _atom_site_fract_y
 _atom_site_fract_z
 _atom_site_occupancy
  K  K0  1  0.12367918  0.51948045  0.49595818  1
  K  K1  1  0.37632082  0.48051955  0.99595818  1
  K  K2  1  0.62367918  0.98051955  0.50404182  1
  K  K3  1  0.87632082  0.01948045  0.00404182  1
  Y  Y4  1  0.71735284  0.81947040  0.74873828  1
  Y  Y5  1  0.21735284  0.68052960  0.25126172  1
  Y  Y6  1  0.78264716  0.18052960  0.24873828  1
  Y  Y7  1  0.28264716  0.31947040  0.75126172  1
  P  P8  1  0.82368459  0.44810248  0.11024297  1
  P  P9  1  0.30783922  0.17144251  0.33447566  1
  P  P10  1  0.80783922  0.32855749  0.66552434  1
  P  P11  1  0.17631541  0.94810248  0.38975703  1
  P  P12  1  0.19216078  0.82855749  0.83447566  1
  P  P13  1  0.69216078  0.67144251  0.16552434  1
  P  P14  1  0.67631541  0.55189752  0.61024297  1
  P  P15  1  0.32368459  0.05189752  0.88975703  1
  Se  Se16  1  0.62959732  0.54862044  0.25713348  1
  Se  Se17  1  0.88064671  0.53960956  0.01798329  1
  Se  Se18  1  0.91186113  0.73662138  0.87119468  1
  Se  Se19  1  0.12959732  0.95137956  0.74286652  1
  Se  Se20  1  0.11935329  0.03960956  0.48201671  1
  Se  Se21  1  0.08813887  0.23662138  0.62880532  1
  Se  Se22  1  0.56745594  0.12763299  0.66876067  1
  Se  Se23  1  0.88851680  0.76585522  0.61983896  1
  Se  Se24  1  0.07464885  0.36756754  0.17041041  1
  Se  Se25  1  0.57464885  0.13243246  0.82958959  1
  Se  Se26  1  0.61935329  0.46039044  0.51798329  1
  Se  Se27  1  0.38851680  0.73414478  0.38016104  1
  Se  Se28  1  0.42535115  0.63243246  0.67041041  1
  Se  Se29  1  0.43254406  0.62763299  0.83123933  1
  Se  Se30  1  0.37040268  0.04862044  0.24286652  1
  Se  Se31  1  0.87040268  0.45137956  0.75713348  1
  Se  Se32  1  0.11148320  0.26585522  0.88016104  1
  Se  Se33  1  0.92535115  0.86756754  0.32958959  1
  Se  Se34  1  0.93254406  0.87236701  0.16876067  1
  Se  Se35  1  0.61148320  0.23414478  0.11983896  1
  Se  Se36  1  0.58813887  0.26337862  0.37119468  1
  Se  Se37  1  0.41186113  0.76337862  0.12880532  1
  Se  Se38  1  0.38064671  0.96039044  0.98201671  1
  Se  Se39  1  0.06745594  0.37236701  0.33123933  1
