# generated using pymatgen
data_Er4InRh
_symmetry_space_group_name_H-M   'P 1'
_cell_length_a   9.57467423
_cell_length_b   9.57467399
_cell_length_c   9.57467480
_cell_angle_alpha   60.00000072
_cell_angle_beta   60.00000157
_cell_angle_gamma   59.99999820
_symmetry_Int_Tables_number   1
_chemical_formula_structural   Er4InRh
_chemical_formula_sum   'Er16 In4 Rh4'
_cell_volume   620.66468884
_cell_formula_units_Z   4
loop_
 _symmetry_equiv_pos_site_id
 _symmetry_equiv_pos_as_xyz
  1  'x, y, z'
loop_
 _atom_site_type_symbol
 _atom_site_label
 _atom_site_symmetry_multiplicity
 _atom_site_fract_x
 _atom_site_fract_y
 _atom_site_fract_z
 _atom_site_occupancy
  Er  Er0  1  0.18917109  0.81082891  0.18917109  1
  Er  Er1  1  0.06197688  0.06197688  0.43802312  1
  Er  Er2  1  0.06197688  0.43802312  0.43802312  1
  Er  Er3  1  0.43802312  0.06197688  0.06197688  1
  Er  Er4  1  0.04967865  0.65010712  0.65010712  1
  Er  Er5  1  0.81082891  0.81082891  0.18917109  1
  Er  Er6  1  0.06197688  0.43802312  0.06197688  1
  Er  Er7  1  0.18917109  0.18917109  0.81082891  1
  Er  Er8  1  0.81082891  0.18917109  0.81082891  1
  Er  Er9  1  0.65010712  0.04967865  0.65010712  1
  Er  Er10  1  0.65010712  0.65010712  0.65010712  1
  Er  Er11  1  0.43802312  0.43802312  0.06197688  1
  Er  Er12  1  0.65010712  0.65010712  0.04967865  1
  Er  Er13  1  0.18917109  0.81082891  0.81082891  1
  Er  Er14  1  0.43802312  0.06197688  0.43802312  1
  Er  Er15  1  0.81082891  0.18917109  0.18917109  1
  In  In16  1  0.74864014  0.41711995  0.41711995  1
  In  In17  1  0.41711995  0.74864014  0.41711995  1
  In  In18  1  0.41711995  0.41711995  0.74864014  1
  In  In19  1  0.41711995  0.41711995  0.41711995  1
  Rh  Rh20  1  0.42815145  0.85728285  0.85728285  1
  Rh  Rh21  1  0.85728285  0.42815145  0.85728285  1
  Rh  Rh22  1  0.85728285  0.85728285  0.42815145  1
  Rh  Rh23  1  0.85728285  0.85728285  0.85728285  1
