# generated using pymatgen
data_Mg14CoSn
_symmetry_space_group_name_H-M   'P 1'
_cell_length_a   6.20582184
_cell_length_b   6.20582204
_cell_length_c   10.24417608
_cell_angle_alpha   90.00000000
_cell_angle_beta   90.00000000
_cell_angle_gamma   119.99999891
_symmetry_Int_Tables_number   1
_chemical_formula_structural   Mg14CoSn
_chemical_formula_sum   'Mg14 Co1 Sn1'
_cell_volume   341.66956307
_cell_formula_units_Z   1
loop_
 _symmetry_equiv_pos_site_id
 _symmetry_equiv_pos_as_xyz
  1  'x, y, z'
loop_
 _atom_site_type_symbol
 _atom_site_label
 _atom_site_symmetry_multiplicity
 _atom_site_fract_x
 _atom_site_fract_y
 _atom_site_fract_z
 _atom_site_occupancy
  Mg  Mg0  1  0.16312348  0.83156124  0.12500000  1
  Mg  Mg1  1  0.16692737  0.83346318  0.62500000  1
  Mg  Mg2  1  0.66843876  0.33687652  0.12500000  1
  Mg  Mg3  1  0.66653682  0.33307263  0.62500000  1
  Mg  Mg4  1  0.66843876  0.83156124  0.12500000  1
  Mg  Mg5  1  0.66653682  0.83346318  0.62500000  1
  Mg  Mg6  1  0.32829306  0.17170694  0.36266965  1
  Mg  Mg7  1  0.32829306  0.17170694  0.88733035  1
  Mg  Mg8  1  0.32829306  0.65658713  0.36266965  1
  Mg  Mg9  1  0.32829306  0.65658713  0.88733035  1
  Mg  Mg10  1  0.84341287  0.17170694  0.36266965  1
  Mg  Mg11  1  0.84341287  0.17170694  0.88733035  1
  Mg  Mg12  1  0.83333300  0.66666700  0.37478657  1
  Mg  Mg13  1  0.83333300  0.66666700  0.87521343  1
  Co  Co14  1  0.16666700  0.33333300  0.12500000  1
  Sn  Sn15  1  0.16666700  0.33333300  0.62500000  1
