# generated using pymatgen
data_Ba3(CdSb2)2
_symmetry_space_group_name_H-M   'P 1'
_cell_length_a   4.93841118
_cell_length_b   7.82919627
_cell_length_c   9.40831882
_cell_angle_alpha   111.25259507
_cell_angle_beta   105.21233467
_cell_angle_gamma   90.00116204
_symmetry_Int_Tables_number   1
_chemical_formula_structural   Ba3(CdSb2)2
_chemical_formula_sum   'Ba3 Cd2 Sb4'
_cell_volume   325.30754675
_cell_formula_units_Z   1
loop_
 _symmetry_equiv_pos_site_id
 _symmetry_equiv_pos_as_xyz
  1  'x, y, z'
loop_
 _atom_site_type_symbol
 _atom_site_label
 _atom_site_symmetry_multiplicity
 _atom_site_fract_x
 _atom_site_fract_y
 _atom_site_fract_z
 _atom_site_occupancy
  Ba  Ba0  1  0.85790080  0.40935075  0.71581422  1
  Ba  Ba1  1  0.14209920  0.59064925  0.28418578  1
  Ba  Ba2  1  0.00000000  0.00000000  0.00000000  1
  Cd  Cd3  1  0.33186931  0.02834068  0.66373500  1
  Cd  Cd4  1  0.66813069  0.97165932  0.33626500  1
  Sb  Sb5  1  0.49786151  0.31450134  0.99575024  1
  Sb  Sb6  1  0.79238929  0.80263933  0.58489269  1
  Sb  Sb7  1  0.50213849  0.68549866  0.00424976  1
  Sb  Sb8  1  0.20761071  0.19736067  0.41510731  1
