# generated using pymatgen
data_Nb3Se10Cl3
_symmetry_space_group_name_H-M   'P 1'
_cell_length_a   7.81168148
_cell_length_b   12.51835118
_cell_length_c   19.29286525
_cell_angle_alpha   90.00000000
_cell_angle_beta   90.00000000
_cell_angle_gamma   97.68812809
_symmetry_Int_Tables_number   1
_chemical_formula_structural   Nb3Se10Cl3
_chemical_formula_sum   'Nb12 Se40 Cl12'
_cell_volume   1869.67808634
_cell_formula_units_Z   4
loop_
 _symmetry_equiv_pos_site_id
 _symmetry_equiv_pos_as_xyz
  1  'x, y, z'
loop_
 _atom_site_type_symbol
 _atom_site_label
 _atom_site_symmetry_multiplicity
 _atom_site_fract_x
 _atom_site_fract_y
 _atom_site_fract_z
 _atom_site_occupancy
  Nb  Nb0  1  0.15324111  0.15789955  0.14879880  1
  Nb  Nb1  1  0.75443254  0.74931897  0.50025822  1
  Nb  Nb2  1  0.24556746  0.25068103  0.49974178  1
  Nb  Nb3  1  0.84675889  0.84210045  0.85120120  1
  Nb  Nb4  1  0.15324111  0.15789955  0.35120120  1
  Nb  Nb5  1  0.66813992  0.65519791  0.35155821  1
  Nb  Nb6  1  0.24556746  0.25068103  0.00025822  1
  Nb  Nb7  1  0.84675889  0.84210045  0.64879880  1
  Nb  Nb8  1  0.75443254  0.74931897  0.99974178  1
  Nb  Nb9  1  0.66813992  0.65519791  0.14844179  1
  Nb  Nb10  1  0.33186008  0.34480209  0.64844179  1
  Nb  Nb11  1  0.33186008  0.34480209  0.85155821  1
  Se  Se12  1  0.04860095  0.73964186  0.92597338  1
  Se  Se13  1  0.46001232  0.62956084  0.46298507  1
  Se  Se14  1  0.50706830  0.80052598  0.08751768  1
  Se  Se15  1  0.91784505  0.60451693  0.42874143  1
  Se  Se16  1  0.08215495  0.39548307  0.57125857  1
  Se  Se17  1  0.62988940  0.80220358  0.25000000  1
  Se  Se18  1  0.55096511  0.85074160  0.91419122  1
  Se  Se19  1  0.73329280  0.97024282  0.75000000  1
  Se  Se20  1  0.44903489  0.14925840  0.08580878  1
  Se  Se21  1  0.60476773  0.79077944  0.75000000  1
  Se  Se22  1  0.39523227  0.20922056  0.25000000  1
  Se  Se23  1  0.78720484  0.95722761  0.53568885  1
  Se  Se24  1  0.42103817  0.64993189  0.25000000  1
  Se  Se25  1  0.95337751  0.78562709  0.11124665  1
  Se  Se26  1  0.46001232  0.62956084  0.03701493  1
  Se  Se27  1  0.49293170  0.19947402  0.91248232  1
  Se  Se28  1  0.79209378  0.63350636  0.88668432  1
  Se  Se29  1  0.20790622  0.36649364  0.38668432  1
  Se  Se30  1  0.53998768  0.37043916  0.96298507  1
  Se  Se31  1  0.53998768  0.37043916  0.53701493  1
  Se  Se32  1  0.95139905  0.26035814  0.42597338  1
  Se  Se33  1  0.79209378  0.63350636  0.61331568  1
  Se  Se34  1  0.37011060  0.19779642  0.75000000  1
  Se  Se35  1  0.49293170  0.19947402  0.58751768  1
  Se  Se36  1  0.78720484  0.95722761  0.96431115  1
  Se  Se37  1  0.91784505  0.60451693  0.07125857  1
  Se  Se38  1  0.44903489  0.14925840  0.41419122  1
  Se  Se39  1  0.26670720  0.02975718  0.25000000  1
  Se  Se40  1  0.57896183  0.35006811  0.75000000  1
  Se  Se41  1  0.20790622  0.36649364  0.11331568  1
  Se  Se42  1  0.55096511  0.85074160  0.58580878  1
  Se  Se43  1  0.50706830  0.80052598  0.41248232  1
  Se  Se44  1  0.04662249  0.21437291  0.61124665  1
  Se  Se45  1  0.08215495  0.39548307  0.92874143  1
  Se  Se46  1  0.21279516  0.04277239  0.46431115  1
  Se  Se47  1  0.21279516  0.04277239  0.03568885  1
  Se  Se48  1  0.04662249  0.21437291  0.88875335  1
  Se  Se49  1  0.95139905  0.26035814  0.07402662  1
  Se  Se50  1  0.04860095  0.73964186  0.57402662  1
  Se  Se51  1  0.95337751  0.78562709  0.38875335  1
  Cl  Cl52  1  0.89152136  0.01519735  0.14956778  1
  Cl  Cl53  1  0.58343484  0.45343873  0.14903947  1
  Cl  Cl54  1  0.41656516  0.54656127  0.64903947  1
  Cl  Cl55  1  0.14196584  0.39701879  0.75000000  1
  Cl  Cl56  1  0.89152136  0.01519735  0.35043222  1
  Cl  Cl57  1  0.10847864  0.98480265  0.64956778  1
  Cl  Cl58  1  0.58343484  0.45343873  0.35096053  1
  Cl  Cl59  1  0.10847864  0.98480265  0.85043222  1
  Cl  Cl60  1  0.01794261  0.77310853  0.75000000  1
  Cl  Cl61  1  0.41656516  0.54656127  0.85096053  1
  Cl  Cl62  1  0.98205739  0.22689147  0.25000000  1
  Cl  Cl63  1  0.85803416  0.60298121  0.25000000  1
