# generated using pymatgen
data_Na7Ga13
_symmetry_space_group_name_H-M   'P 1'
_cell_length_a   15.70880986
_cell_length_b   15.70880981
_cell_length_c   15.70881010
_cell_angle_alpha   57.43030521
_cell_angle_beta   57.43030532
_cell_angle_gamma   57.43030401
_symmetry_Int_Tables_number   1
_chemical_formula_structural   Na7Ga13
_chemical_formula_sum   'Na42 Ga78'
_cell_volume   2578.97883221
_cell_formula_units_Z   6
loop_
 _symmetry_equiv_pos_site_id
 _symmetry_equiv_pos_as_xyz
  1  'x, y, z'
loop_
 _atom_site_type_symbol
 _atom_site_label
 _atom_site_symmetry_multiplicity
 _atom_site_fract_x
 _atom_site_fract_y
 _atom_site_fract_z
 _atom_site_occupancy
  Na  Na0  1  0.25135072  0.50080085  0.87857793  1
  Na  Na1  1  0.87279976  0.25298141  0.87279976  1
  Na  Na2  1  0.49919915  0.12142207  0.74864928  1
  Na  Na3  1  0.87857793  0.50080085  0.25135072  1
  Na  Na4  1  0.50994908  0.13968507  0.13968507  1
  Na  Na5  1  0.74864928  0.12142207  0.49919915  1
  Na  Na6  1  0.86031493  0.49005092  0.86031493  1
  Na  Na7  1  0.61998283  0.61998283  0.61998283  1
  Na  Na8  1  0.06003166  0.75541297  0.75541297  1
  Na  Na9  1  0.12720024  0.12720024  0.74701859  1
  Na  Na10  1  0.12720024  0.74701859  0.12720024  1
  Na  Na11  1  0.75541297  0.75541297  0.06003166  1
  Na  Na12  1  0.25135072  0.87857793  0.50080085  1
  Na  Na13  1  0.24458703  0.93996834  0.24458703  1
  Na  Na14  1  0.04408918  0.04408918  0.04408918  1
  Na  Na15  1  0.93996834  0.24458703  0.24458703  1
  Na  Na16  1  0.13968507  0.13968507  0.50994908  1
  Na  Na17  1  0.28073621  0.28073621  0.66650628  1
  Na  Na18  1  0.25298141  0.87279976  0.87279976  1
  Na  Na19  1  0.71926379  0.71926379  0.33349372  1
  Na  Na20  1  0.86031493  0.86031493  0.49005092  1
  Na  Na21  1  0.87279976  0.87279976  0.25298141  1
  Na  Na22  1  0.12142207  0.74864928  0.49919915  1
  Na  Na23  1  0.74701859  0.12720024  0.12720024  1
  Na  Na24  1  0.33349372  0.71926379  0.71926379  1
  Na  Na25  1  0.49919915  0.74864928  0.12142207  1
  Na  Na26  1  0.66650628  0.28073621  0.28073621  1
  Na  Na27  1  0.28073621  0.66650628  0.28073621  1
  Na  Na28  1  0.24458703  0.24458703  0.93996834  1
  Na  Na29  1  0.75541297  0.06003166  0.75541297  1
  Na  Na30  1  0.95591082  0.95591082  0.95591082  1
  Na  Na31  1  0.50080085  0.25135072  0.87857793  1
  Na  Na32  1  0.50080085  0.87857793  0.25135072  1
  Na  Na33  1  0.71127674  0.71127674  0.71127674  1
  Na  Na34  1  0.28872326  0.28872326  0.28872326  1
  Na  Na35  1  0.49005092  0.86031493  0.86031493  1
  Na  Na36  1  0.74864928  0.49919915  0.12142207  1
  Na  Na37  1  0.71926379  0.33349372  0.71926379  1
  Na  Na38  1  0.38001717  0.38001717  0.38001717  1
  Na  Na39  1  0.87857793  0.25135072  0.50080085  1
  Na  Na40  1  0.13968507  0.50994908  0.13968507  1
  Na  Na41  1  0.12142207  0.49919915  0.74864928  1
  Ga  Ga42  1  0.15936437  0.50942088  0.50942088  1
  Ga  Ga43  1  0.39601503  0.08363799  0.08363799  1
  Ga  Ga44  1  0.91636201  0.60398497  0.91636201  1
  Ga  Ga45  1  0.08363799  0.08363799  0.39601503  1
  Ga  Ga46  1  0.38672069  0.99447909  0.99447909  1
  Ga  Ga47  1  0.30010406  0.61876983  0.61876983  1
  Ga  Ga48  1  0.48856813  0.67066080  0.48856813  1
  Ga  Ga49  1  0.11963803  0.92793529  0.73696597  1
  Ga  Ga50  1  0.07206471  0.26303403  0.88036197  1
  Ga  Ga51  1  0.96289504  0.61702729  0.31032983  1
  Ga  Ga52  1  0.61702729  0.96289504  0.31032983  1
  Ga  Ga53  1  0.50942088  0.50942088  0.15936437  1
  Ga  Ga54  1  0.73696597  0.11963803  0.92793529  1
  Ga  Ga55  1  0.71857725  0.71857725  0.90811237  1
  Ga  Ga56  1  0.61876983  0.30010406  0.61876983  1
  Ga  Ga57  1  0.91636201  0.91636201  0.60398497  1
  Ga  Ga58  1  0.60862978  0.60862978  0.95671081  1
  Ga  Ga59  1  0.39137022  0.04328919  0.39137022  1
  Ga  Ga60  1  0.38297271  0.03710496  0.68967017  1
  Ga  Ga61  1  0.08363799  0.39601503  0.08363799  1
  Ga  Ga62  1  0.26303403  0.88036197  0.07206471  1
  Ga  Ga63  1  0.03710496  0.68967017  0.38297271  1
  Ga  Ga64  1  0.31032983  0.96289504  0.61702729  1
  Ga  Ga65  1  0.31032983  0.61702729  0.96289504  1
  Ga  Ga66  1  0.00552091  0.00552091  0.61327931  1
  Ga  Ga67  1  0.33247230  0.15915815  0.51124727  1
  Ga  Ga68  1  0.28142275  0.09188763  0.28142275  1
  Ga  Ga69  1  0.60862978  0.95671081  0.60862978  1
  Ga  Ga70  1  0.88036197  0.07206471  0.26303403  1
  Ga  Ga71  1  0.49057912  0.49057912  0.84063563  1
  Ga  Ga72  1  0.28142275  0.28142275  0.09188763  1
  Ga  Ga73  1  0.00552091  0.61327931  0.00552091  1
  Ga  Ga74  1  0.69989594  0.38123017  0.38123017  1
  Ga  Ga75  1  0.84084185  0.48875273  0.66752770  1
  Ga  Ga76  1  0.96289504  0.31032983  0.61702729  1
  Ga  Ga77  1  0.60398497  0.91636201  0.91636201  1
  Ga  Ga78  1  0.92793529  0.11963803  0.73696597  1
  Ga  Ga79  1  0.68967017  0.03710496  0.38297271  1
  Ga  Ga80  1  0.48856813  0.48856813  0.67066080  1
  Ga  Ga81  1  0.51143187  0.32933920  0.51143187  1
  Ga  Ga82  1  0.71857725  0.90811237  0.71857725  1
  Ga  Ga83  1  0.51143187  0.51143187  0.32933920  1
  Ga  Ga84  1  0.38123017  0.38123017  0.69989594  1
  Ga  Ga85  1  0.38123017  0.69989594  0.38123017  1
  Ga  Ga86  1  0.67066080  0.48856813  0.48856813  1
  Ga  Ga87  1  0.03710496  0.38297271  0.68967017  1
  Ga  Ga88  1  0.15915815  0.51124727  0.33247230  1
  Ga  Ga89  1  0.51124727  0.33247230  0.15915815  1
  Ga  Ga90  1  0.49057912  0.84063563  0.49057912  1
  Ga  Ga91  1  0.32933920  0.51143187  0.51143187  1
  Ga  Ga92  1  0.99447909  0.99447909  0.38672069  1
  Ga  Ga93  1  0.84084185  0.66752770  0.48875273  1
  Ga  Ga94  1  0.66752770  0.84084185  0.48875273  1
  Ga  Ga95  1  0.04328919  0.39137022  0.39137022  1
  Ga  Ga96  1  0.11963803  0.73696597  0.92793529  1
  Ga  Ga97  1  0.84063563  0.49057912  0.49057912  1
  Ga  Ga98  1  0.15915815  0.33247230  0.51124727  1
  Ga  Ga99  1  0.68967017  0.38297271  0.03710496  1
  Ga  Ga100  1  0.61702729  0.31032983  0.96289504  1
  Ga  Ga101  1  0.09188763  0.28142275  0.28142275  1
  Ga  Ga102  1  0.66752770  0.48875273  0.84084185  1
  Ga  Ga103  1  0.99447909  0.38672069  0.99447909  1
  Ga  Ga104  1  0.61876983  0.61876983  0.30010406  1
  Ga  Ga105  1  0.38297271  0.68967017  0.03710496  1
  Ga  Ga106  1  0.88036197  0.26303403  0.07206471  1
  Ga  Ga107  1  0.26303403  0.07206471  0.88036197  1
  Ga  Ga108  1  0.48875273  0.66752770  0.84084185  1
  Ga  Ga109  1  0.50942088  0.15936437  0.50942088  1
  Ga  Ga110  1  0.39137022  0.39137022  0.04328919  1
  Ga  Ga111  1  0.07206471  0.88036197  0.26303403  1
  Ga  Ga112  1  0.90811237  0.71857725  0.71857725  1
  Ga  Ga113  1  0.95671081  0.60862978  0.60862978  1
  Ga  Ga114  1  0.48875273  0.84084185  0.66752770  1
  Ga  Ga115  1  0.51124727  0.15915815  0.33247230  1
  Ga  Ga116  1  0.33247230  0.51124727  0.15915815  1
  Ga  Ga117  1  0.92793529  0.73696597  0.11963803  1
  Ga  Ga118  1  0.73696597  0.92793529  0.11963803  1
  Ga  Ga119  1  0.61327931  0.00552091  0.00552091  1
