# generated using pymatgen
data_Ga2PbSe4
_symmetry_space_group_name_H-M   'P 1'
_cell_length_a   12.74360209
_cell_length_b   12.74360289
_cell_length_c   12.58330192
_cell_angle_alpha   105.03877515
_cell_angle_beta   105.03877604
_cell_angle_gamma   119.18180030
_symmetry_Int_Tables_number   1
_chemical_formula_structural   Ga2PbSe4
_chemical_formula_sum   'Ga16 Pb8 Se32'
_cell_volume   1531.90100426
_cell_formula_units_Z   8
loop_
 _symmetry_equiv_pos_site_id
 _symmetry_equiv_pos_as_xyz
  1  'x, y, z'
loop_
 _atom_site_type_symbol
 _atom_site_label
 _atom_site_symmetry_multiplicity
 _atom_site_fract_x
 _atom_site_fract_y
 _atom_site_fract_z
 _atom_site_occupancy
  Ga  Ga0  1  0.88771378  0.38873673  0.52246739  1
  Ga  Ga1  1  0.03003448  0.52886590  0.89142399  1
  Ga  Ga2  1  0.13373067  0.13475362  0.02246739  1
  Ga  Ga3  1  0.52886590  0.03003448  0.39142399  1
  Ga  Ga4  1  0.38873673  0.88771378  0.02246739  1
  Ga  Ga5  1  0.63744192  0.63861050  0.60857601  1
  Ga  Ga6  1  0.63861050  0.63744192  0.10857601  1
  Ga  Ga7  1  0.11228622  0.61126327  0.47753261  1
  Ga  Ga8  1  0.36255808  0.36138950  0.39142399  1
  Ga  Ga9  1  0.36138950  0.36255808  0.89142399  1
  Ga  Ga10  1  0.96996552  0.47113410  0.10857601  1
  Ga  Ga11  1  0.13475362  0.13373067  0.52246739  1
  Ga  Ga12  1  0.86524638  0.86626933  0.47753261  1
  Ga  Ga13  1  0.61126327  0.11228622  0.97753261  1
  Ga  Ga14  1  0.47113410  0.96996552  0.60857601  1
  Ga  Ga15  1  0.86626933  0.86524638  0.97753261  1
  Pb  Pb16  1  0.87237699  0.12762301  0.75000000  1
  Pb  Pb17  1  0.37500000  0.62500000  0.25000000  1
  Pb  Pb18  1  0.62500000  0.37500000  0.75000000  1
  Pb  Pb19  1  0.37762301  0.62237699  0.75000000  1
  Pb  Pb20  1  0.12762301  0.87237699  0.25000000  1
  Pb  Pb21  1  0.62237699  0.37762301  0.25000000  1
  Pb  Pb22  1  0.12500000  0.87500000  0.75000000  1
  Pb  Pb23  1  0.87500000  0.12500000  0.25000000  1
  Se  Se24  1  0.34266246  0.34429559  0.68723973  1
  Se  Se25  1  0.08425820  0.91520330  0.99802062  1
  Se  Se26  1  0.84451913  0.84952980  0.66239499  1
  Se  Se27  1  0.08562409  0.41616618  0.00307490  1
  Se  Se28  1  0.41309128  0.58254919  0.49692510  1
  Se  Se29  1  0.91718268  0.58623758  0.50197938  1
  Se  Se30  1  0.91520330  0.08425820  0.49802062  1
  Se  Se31  1  0.91437591  0.58383382  0.99692510  1
  Se  Se32  1  0.15047020  0.15548087  0.83760501  1
  Se  Se33  1  0.08281732  0.41376242  0.49802062  1
  Se  Se34  1  0.58623758  0.91718268  0.00197938  1
  Se  Se35  1  0.31787586  0.81286520  0.66239499  1
  Se  Se36  1  0.41376242  0.08281732  0.99802062  1
  Se  Se37  1  0.84952980  0.84451913  0.16239499  1
  Se  Se38  1  0.65570441  0.65733754  0.81276027  1
  Se  Se39  1  0.65733754  0.65570441  0.31276027  1
  Se  Se40  1  0.68212414  0.18713480  0.33760501  1
  Se  Se41  1  0.34429559  0.34266246  0.18723973  1
  Se  Se42  1  0.58254919  0.41309128  0.99692510  1
  Se  Se43  1  0.15542274  0.65705586  0.31276027  1
  Se  Se44  1  0.91574180  0.08479670  0.00197938  1
  Se  Se45  1  0.58383382  0.91437591  0.49692510  1
  Se  Se46  1  0.18713480  0.68212414  0.83760501  1
  Se  Se47  1  0.81286520  0.31787586  0.16239499  1
  Se  Se48  1  0.08479670  0.91574180  0.50197938  1
  Se  Se49  1  0.58690872  0.41745081  0.50307490  1
  Se  Se50  1  0.15548087  0.15047020  0.33760501  1
  Se  Se51  1  0.41745081  0.58690872  0.00307490  1
  Se  Se52  1  0.84457726  0.34294414  0.68723973  1
  Se  Se53  1  0.41616618  0.08562409  0.50307490  1
  Se  Se54  1  0.34294414  0.84457726  0.18723973  1
  Se  Se55  1  0.65705586  0.15542274  0.81276027  1
