# generated using pymatgen
data_Dy2Fe14C
_symmetry_space_group_name_H-M   'P 1'
_cell_length_a   8.72492313
_cell_length_b   8.72492313
_cell_length_c   11.71535477
_cell_angle_alpha   90.00000000
_cell_angle_beta   90.00000000
_cell_angle_gamma   90.00000000
_symmetry_Int_Tables_number   1
_chemical_formula_structural   Dy2Fe14C
_chemical_formula_sum   'Dy8 Fe56 C4'
_cell_volume   891.82298927
_cell_formula_units_Z   4
loop_
 _symmetry_equiv_pos_site_id
 _symmetry_equiv_pos_as_xyz
  1  'x, y, z'
loop_
 _atom_site_type_symbol
 _atom_site_label
 _atom_site_symmetry_multiplicity
 _atom_site_fract_x
 _atom_site_fract_y
 _atom_site_fract_z
 _atom_site_occupancy
  Dy  Dy0  1  0.35571265  0.35571265  0.50000000  1
  Dy  Dy1  1  0.64428735  0.64428735  0.50000000  1
  Dy  Dy2  1  0.24107482  0.75892518  0.50000000  1
  Dy  Dy3  1  0.75892518  0.24107482  0.50000000  1
  Dy  Dy4  1  0.25892518  0.25892518  0.00000000  1
  Dy  Dy5  1  0.85571265  0.14428735  0.00000000  1
  Dy  Dy6  1  0.74107482  0.74107482  0.00000000  1
  Dy  Dy7  1  0.14428735  0.85571265  0.00000000  1
  Fe  Fe8  1  0.22553809  0.56398044  0.87975239  1
  Fe  Fe9  1  0.46465721  0.85792213  0.67538231  1
  Fe  Fe10  1  0.93601956  0.72553809  0.37975239  1
  Fe  Fe11  1  0.59698949  0.40301051  0.29614502  1
  Fe  Fe12  1  0.68459206  0.68459206  0.75460880  1
  Fe  Fe13  1  0.43601956  0.77446191  0.87975239  1
  Fe  Fe14  1  0.68459206  0.68459206  0.24539120  1
  Fe  Fe15  1  0.96465721  0.64207787  0.17538231  1
  Fe  Fe16  1  0.14207787  0.53534279  0.67538231  1
  Fe  Fe17  1  0.06398044  0.27446191  0.62024761  1
  Fe  Fe18  1  0.50000000  0.50000000  0.10806475  1
  Fe  Fe19  1  0.64207787  0.96465721  0.82461769  1
  Fe  Fe20  1  0.72553809  0.93601956  0.62024761  1
  Fe  Fe21  1  0.03534279  0.35792213  0.82461769  1
  Fe  Fe22  1  0.14207787  0.53534279  0.32461769  1
  Fe  Fe23  1  0.31540794  0.31540794  0.75460880  1
  Fe  Fe24  1  0.85792213  0.46465721  0.32461769  1
  Fe  Fe25  1  0.90301051  0.90301051  0.79614502  1
  Fe  Fe26  1  0.81540794  0.18459206  0.25460880  1
  Fe  Fe27  1  0.77446191  0.43601956  0.12024761  1
  Fe  Fe28  1  0.59698949  0.40301051  0.70385498  1
  Fe  Fe29  1  0.27446191  0.06398044  0.37975239  1
  Fe  Fe30  1  0.50000000  0.50000000  0.89193525  1
  Fe  Fe31  1  0.35792213  0.03534279  0.82461769  1
  Fe  Fe32  1  0.40301051  0.59698949  0.29614502  1
  Fe  Fe33  1  0.96465721  0.64207787  0.82461769  1
  Fe  Fe34  1  0.22553809  0.56398044  0.12024761  1
  Fe  Fe35  1  0.00000000  0.00000000  0.60806475  1
  Fe  Fe36  1  0.35792213  0.03534279  0.17538231  1
  Fe  Fe37  1  0.27446191  0.06398044  0.62024761  1
  Fe  Fe38  1  0.85792213  0.46465721  0.67538231  1
  Fe  Fe39  1  0.56398044  0.22553809  0.12024761  1
  Fe  Fe40  1  0.56398044  0.22553809  0.87975239  1
  Fe  Fe41  1  0.90301051  0.90301051  0.20385498  1
  Fe  Fe42  1  0.09698949  0.09698949  0.79614502  1
  Fe  Fe43  1  0.18459206  0.81540794  0.25460880  1
  Fe  Fe44  1  0.46465721  0.85792213  0.32461769  1
  Fe  Fe45  1  0.00000000  0.50000000  0.50000000  1
  Fe  Fe46  1  0.72553809  0.93601956  0.37975239  1
  Fe  Fe47  1  0.77446191  0.43601956  0.87975239  1
  Fe  Fe48  1  0.00000000  0.00000000  0.39193525  1
  Fe  Fe49  1  0.50000000  0.00000000  0.50000000  1
  Fe  Fe50  1  0.31540794  0.31540794  0.24539120  1
  Fe  Fe51  1  0.06398044  0.27446191  0.37975239  1
  Fe  Fe52  1  0.43601956  0.77446191  0.12024761  1
  Fe  Fe53  1  0.64207787  0.96465721  0.17538231  1
  Fe  Fe54  1  0.53534279  0.14207787  0.67538231  1
  Fe  Fe55  1  0.09698949  0.09698949  0.20385498  1
  Fe  Fe56  1  0.03534279  0.35792213  0.17538231  1
  Fe  Fe57  1  0.00000000  0.50000000  0.00000000  1
  Fe  Fe58  1  0.53534279  0.14207787  0.32461769  1
  Fe  Fe59  1  0.18459206  0.81540794  0.74539120  1
  Fe  Fe60  1  0.93601956  0.72553809  0.62024761  1
  Fe  Fe61  1  0.40301051  0.59698949  0.70385498  1
  Fe  Fe62  1  0.81540794  0.18459206  0.74539120  1
  Fe  Fe63  1  0.50000000  0.00000000  0.00000000  1
  C  C64  1  0.62707589  0.37292411  0.00000000  1
  C  C65  1  0.12707589  0.12707589  0.50000000  1
  C  C66  1  0.37292411  0.62707589  0.00000000  1
  C  C67  1  0.87292411  0.87292411  0.50000000  1
