# generated using pymatgen
data_NdNiSb3
_symmetry_space_group_name_H-M   'P 1'
_cell_length_a   6.26861538
_cell_length_b   12.60610574
_cell_length_c   18.53485476
_cell_angle_alpha   90.00000000
_cell_angle_beta   90.00000000
_cell_angle_gamma   90.00000000
_symmetry_Int_Tables_number   1
_chemical_formula_structural   NdNiSb3
_chemical_formula_sum   'Nd12 Ni12 Sb36'
_cell_volume   1464.67664570
_cell_formula_units_Z   12
loop_
 _symmetry_equiv_pos_site_id
 _symmetry_equiv_pos_as_xyz
  1  'x, y, z'
loop_
 _atom_site_type_symbol
 _atom_site_label
 _atom_site_symmetry_multiplicity
 _atom_site_fract_x
 _atom_site_fract_y
 _atom_site_fract_z
 _atom_site_occupancy
  Nd  Nd0  1  0.05965398  0.69432302  0.75000000  1
  Nd  Nd1  1  0.52756897  0.70049647  0.91639265  1
  Nd  Nd2  1  0.97243103  0.70049647  0.08360735  1
  Nd  Nd3  1  0.97243103  0.70049647  0.41639265  1
  Nd  Nd4  1  0.02756897  0.29950353  0.58360735  1
  Nd  Nd5  1  0.02756897  0.29950353  0.91639265  1
  Nd  Nd6  1  0.94034602  0.30567698  0.25000000  1
  Nd  Nd7  1  0.44034602  0.69432302  0.25000000  1
  Nd  Nd8  1  0.55965398  0.30567698  0.75000000  1
  Nd  Nd9  1  0.47243103  0.29950353  0.41639265  1
  Nd  Nd10  1  0.52756897  0.70049647  0.58360735  1
  Nd  Nd11  1  0.47243103  0.29950353  0.08360735  1
  Ni  Ni12  1  0.75000000  0.10346962  0.00000000  1
  Ni  Ni13  1  0.25000000  0.89653038  0.50000000  1
  Ni  Ni14  1  0.75000000  0.10346962  0.50000000  1
  Ni  Ni15  1  0.25000000  0.89653038  0.00000000  1
  Ni  Ni16  1  0.17334717  0.10019207  0.17593749  1
  Ni  Ni17  1  0.82665283  0.89980793  0.82406251  1
  Ni  Ni18  1  0.32665283  0.10019207  0.67593749  1
  Ni  Ni19  1  0.17334717  0.10019207  0.32406251  1
  Ni  Ni20  1  0.67334717  0.89980793  0.32406251  1
  Ni  Ni21  1  0.32665283  0.10019207  0.82406251  1
  Ni  Ni22  1  0.82665283  0.89980793  0.67593749  1
  Ni  Ni23  1  0.67334717  0.89980793  0.17593749  1
  Sb  Sb24  1  0.45902841  0.02586290  0.08673196  1
  Sb  Sb25  1  0.70438327  0.50369378  0.16600815  1
  Sb  Sb26  1  0.81569320  0.05731422  0.25000000  1
  Sb  Sb27  1  0.75000000  0.49634281  0.00000000  1
  Sb  Sb28  1  0.55513097  0.77729906  0.75000000  1
  Sb  Sb29  1  0.20438327  0.49630622  0.16600815  1
  Sb  Sb30  1  0.25000000  0.50365719  0.00000000  1
  Sb  Sb31  1  0.29561673  0.49630622  0.83399185  1
  Sb  Sb32  1  0.79561673  0.50369378  0.66600815  1
  Sb  Sb33  1  0.70438327  0.50369378  0.33399185  1
  Sb  Sb34  1  0.44486903  0.22270094  0.25000000  1
  Sb  Sb35  1  0.95902841  0.97413710  0.08673196  1
  Sb  Sb36  1  0.52635025  0.22648547  0.58414112  1
  Sb  Sb37  1  0.54097159  0.97413710  0.58673196  1
  Sb  Sb38  1  0.02635025  0.77351453  0.91585888  1
  Sb  Sb39  1  0.97364975  0.22648547  0.08414112  1
  Sb  Sb40  1  0.52635025  0.22648547  0.91585888  1
  Sb  Sb41  1  0.04097159  0.02586290  0.58673196  1
  Sb  Sb42  1  0.95902841  0.97413710  0.41326804  1
  Sb  Sb43  1  0.05513097  0.22270094  0.75000000  1
  Sb  Sb44  1  0.47364975  0.77351453  0.41585888  1
  Sb  Sb45  1  0.94486903  0.77729906  0.25000000  1
  Sb  Sb46  1  0.68430680  0.05731422  0.75000000  1
  Sb  Sb47  1  0.45902841  0.02586290  0.41326804  1
  Sb  Sb48  1  0.97364975  0.22648547  0.41585888  1
  Sb  Sb49  1  0.25000000  0.50365719  0.50000000  1
  Sb  Sb50  1  0.75000000  0.49634281  0.50000000  1
  Sb  Sb51  1  0.04097159  0.02586290  0.91326804  1
  Sb  Sb52  1  0.02635025  0.77351453  0.58414112  1
  Sb  Sb53  1  0.29561673  0.49630622  0.66600815  1
  Sb  Sb54  1  0.18430680  0.94268578  0.75000000  1
  Sb  Sb55  1  0.79561673  0.50369378  0.83399185  1
  Sb  Sb56  1  0.20438327  0.49630622  0.33399185  1
  Sb  Sb57  1  0.47364975  0.77351453  0.08414112  1
  Sb  Sb58  1  0.54097159  0.97413710  0.91326804  1
  Sb  Sb59  1  0.31569320  0.94268578  0.25000000  1
