# generated using pymatgen
data_Sr11Al4Sn3
_symmetry_space_group_name_H-M   'P 1'
_cell_length_a   12.32671791
_cell_length_b   12.32671781
_cell_length_c   12.32671819
_cell_angle_alpha   60.00000168
_cell_angle_beta   60.00000197
_cell_angle_gamma   59.99999946
_symmetry_Int_Tables_number   1
_chemical_formula_structural   Sr11Al4Sn3
_chemical_formula_sum   'Sr22 Al8 Sn6'
_cell_volume   1324.42506494
_cell_formula_units_Z   2
loop_
 _symmetry_equiv_pos_site_id
 _symmetry_equiv_pos_as_xyz
  1  'x, y, z'
loop_
 _atom_site_type_symbol
 _atom_site_label
 _atom_site_symmetry_multiplicity
 _atom_site_fract_x
 _atom_site_fract_y
 _atom_site_fract_z
 _atom_site_occupancy
  Sr  Sr0  1  0.12910707  0.12910707  0.12910707  1
  Sr  Sr1  1  0.50000000  0.83464944  0.50000000  1
  Sr  Sr2  1  0.16535056  0.83464944  0.50000000  1
  Sr  Sr3  1  0.38732120  0.87089293  0.87089293  1
  Sr  Sr4  1  0.61267880  0.12910707  0.12910707  1
  Sr  Sr5  1  0.83464944  0.50000000  0.50000000  1
  Sr  Sr6  1  0.50000000  0.50000000  0.16535056  1
  Sr  Sr7  1  0.87089293  0.38732120  0.87089293  1
  Sr  Sr8  1  0.83464944  0.16535056  0.50000000  1
  Sr  Sr9  1  0.12910707  0.12910707  0.61267880  1
  Sr  Sr10  1  0.16535056  0.50000000  0.83464944  1
  Sr  Sr11  1  0.87089293  0.87089293  0.87089293  1
  Sr  Sr12  1  0.87089293  0.87089293  0.38732120  1
  Sr  Sr13  1  0.50000000  0.16535056  0.83464944  1
  Sr  Sr14  1  0.50000000  0.50000000  0.50000000  1
  Sr  Sr15  1  0.50000000  0.50000000  0.83464944  1
  Sr  Sr16  1  0.50000000  0.83464944  0.16535056  1
  Sr  Sr17  1  0.50000000  0.16535056  0.50000000  1
  Sr  Sr18  1  0.83464944  0.50000000  0.16535056  1
  Sr  Sr19  1  0.00000000  0.00000000  0.00000000  1
  Sr  Sr20  1  0.12910707  0.61267880  0.12910707  1
  Sr  Sr21  1  0.16535056  0.50000000  0.50000000  1
  Al  Al22  1  0.30539932  0.30539932  0.08380204  1
  Al  Al23  1  0.69460068  0.91619796  0.69460068  1
  Al  Al24  1  0.30539932  0.08380204  0.30539932  1
  Al  Al25  1  0.91619796  0.69460068  0.69460068  1
  Al  Al26  1  0.08380204  0.30539932  0.30539932  1
  Al  Al27  1  0.69460068  0.69460068  0.91619796  1
  Al  Al28  1  0.30539932  0.30539932  0.30539932  1
  Al  Al29  1  0.69460068  0.69460068  0.69460068  1
  Sn  Sn30  1  0.78257977  0.78257977  0.21742023  1
  Sn  Sn31  1  0.21742023  0.78257977  0.21742023  1
  Sn  Sn32  1  0.78257977  0.21742023  0.21742023  1
  Sn  Sn33  1  0.78257977  0.21742023  0.78257977  1
  Sn  Sn34  1  0.21742023  0.78257977  0.78257977  1
  Sn  Sn35  1  0.21742023  0.21742023  0.78257977  1
