# generated using pymatgen
data_Ce8Ni18P11
_symmetry_space_group_name_H-M   'P 1'
_cell_length_a   18.15954348
_cell_length_b   18.15954387
_cell_length_c   3.87529923
_cell_angle_alpha   90.00000000
_cell_angle_beta   90.00000000
_cell_angle_gamma   119.99999930
_symmetry_Int_Tables_number   1
_chemical_formula_structural   Ce8Ni18P11
_chemical_formula_sum   'Ce16 Ni36 P22'
_cell_volume   1106.74033714
_cell_formula_units_Z   2
loop_
 _symmetry_equiv_pos_site_id
 _symmetry_equiv_pos_as_xyz
  1  'x, y, z'
loop_
 _atom_site_type_symbol
 _atom_site_label
 _atom_site_symmetry_multiplicity
 _atom_site_fract_x
 _atom_site_fract_y
 _atom_site_fract_z
 _atom_site_occupancy
  Ce  Ce0  1  0.38071766  0.19035883  0.00000000  1
  Ce  Ce1  1  0.11090447  0.22180894  0.50000000  1
  Ce  Ce2  1  0.55084190  0.66569759  0.50000000  1
  Ce  Ce3  1  0.33430241  0.44915810  0.50000000  1
  Ce  Ce4  1  0.77819106  0.88909553  0.50000000  1
  Ce  Ce5  1  0.33430241  0.88514431  0.50000000  1
  Ce  Ce6  1  0.11485569  0.66569759  0.50000000  1
  Ce  Ce7  1  0.80964117  0.61928234  0.00000000  1
  Ce  Ce8  1  0.59344311  0.18688622  0.00000000  1
  Ce  Ce9  1  0.11090447  0.88909553  0.50000000  1
  Ce  Ce10  1  0.80964117  0.19035883  0.00000000  1
  Ce  Ce11  1  0.81311378  0.40655689  0.00000000  1
  Ce  Ce12  1  0.11485569  0.44915810  0.50000000  1
  Ce  Ce13  1  0.59344311  0.40655689  0.00000000  1
  Ce  Ce14  1  0.33333300  0.66666700  0.50000000  1
  Ce  Ce15  1  0.55084190  0.88514431  0.50000000  1
  Ni  Ni16  1  0.62357813  0.81178906  0.00000000  1
  Ni  Ni17  1  0.73421829  0.69748353  0.50000000  1
  Ni  Ni18  1  0.41028507  0.37401425  0.00000000  1
  Ni  Ni19  1  0.96326525  0.26578171  0.50000000  1
  Ni  Ni20  1  0.04455199  0.95544801  0.00000000  1
  Ni  Ni21  1  0.73928557  0.26071443  0.50000000  1
  Ni  Ni22  1  0.73928557  0.47857114  0.50000000  1
  Ni  Ni23  1  0.96372918  0.37401425  0.00000000  1
  Ni  Ni24  1  0.51791471  0.48208529  0.50000000  1
  Ni  Ni25  1  0.96497950  0.79764519  0.00000000  1
  Ni  Ni26  1  0.51791471  0.03582941  0.50000000  1
  Ni  Ni27  1  0.94908624  0.05091376  0.50000000  1
  Ni  Ni28  1  0.30251647  0.26578171  0.50000000  1
  Ni  Ni29  1  0.18821094  0.37642187  0.00000000  1
  Ni  Ni30  1  0.18752406  0.59376203  0.00000000  1
  Ni  Ni31  1  0.83266569  0.03502050  0.00000000  1
  Ni  Ni32  1  0.94908624  0.89817247  0.50000000  1
  Ni  Ni33  1  0.73421829  0.03673475  0.50000000  1
  Ni  Ni34  1  0.10182753  0.05091376  0.50000000  1
  Ni  Ni35  1  0.20235481  0.03502050  0.00000000  1
  Ni  Ni36  1  0.62598575  0.03627082  0.00000000  1
  Ni  Ni37  1  0.96326525  0.69748353  0.50000000  1
  Ni  Ni38  1  0.18821094  0.81178906  0.00000000  1
  Ni  Ni39  1  0.52142886  0.26071443  0.50000000  1
  Ni  Ni40  1  0.91089602  0.95544801  0.00000000  1
  Ni  Ni41  1  0.40623797  0.59376203  0.00000000  1
  Ni  Ni42  1  0.20235481  0.16733431  0.00000000  1
  Ni  Ni43  1  0.04455199  0.08910398  0.00000000  1
  Ni  Ni44  1  0.96417059  0.48208529  0.50000000  1
  Ni  Ni45  1  0.96497950  0.16733431  0.00000000  1
  Ni  Ni46  1  0.40623797  0.81247594  0.00000000  1
  Ni  Ni47  1  0.83266569  0.79764519  0.00000000  1
  Ni  Ni48  1  0.96372918  0.58971493  0.00000000  1
  Ni  Ni49  1  0.30251647  0.03673475  0.50000000  1
  Ni  Ni50  1  0.41028507  0.03627082  0.00000000  1
  Ni  Ni51  1  0.62598575  0.58971493  0.00000000  1
  P  P52  1  0.26263947  0.30769851  0.00000000  1
  P  P53  1  0.45029515  0.33475638  0.50000000  1
  P  P54  1  0.88010478  0.11989522  0.50000000  1
  P  P55  1  0.23979045  0.11989522  0.50000000  1
  P  P56  1  0.47851968  0.95703936  0.00000000  1
  P  P57  1  0.69230149  0.73736053  0.00000000  1
  P  P58  1  0.47813674  0.73906837  0.00000000  1
  P  P59  1  0.04505904  0.30769851  0.00000000  1
  P  P60  1  0.04296064  0.52148032  0.00000000  1
  P  P61  1  0.26093163  0.52186326  0.00000000  1
  P  P62  1  0.66666700  0.33333300  0.50000000  1
  P  P63  1  0.26093163  0.73906837  0.00000000  1
  P  P64  1  0.26263947  0.95494096  0.00000000  1
  P  P65  1  0.45029515  0.11553876  0.50000000  1
  P  P66  1  0.88446124  0.54970485  0.50000000  1
  P  P67  1  0.66524362  0.11553876  0.50000000  1
  P  P68  1  0.04505904  0.73736053  0.00000000  1
  P  P69  1  0.66524362  0.54970485  0.50000000  1
  P  P70  1  0.88446124  0.33475638  0.50000000  1
  P  P71  1  0.47851968  0.52148032  0.00000000  1
  P  P72  1  0.88010478  0.76020955  0.50000000  1
  P  P73  1  0.69230149  0.95494096  0.00000000  1
