# generated using pymatgen
data_CuMo3Br7
_symmetry_space_group_name_H-M   'P 1'
_cell_length_a   13.73653890
_cell_length_b   13.73653890
_cell_length_c   13.73653890
_cell_angle_alpha   90.00000000
_cell_angle_beta   90.00000000
_cell_angle_gamma   90.00000000
_symmetry_Int_Tables_number   1
_chemical_formula_structural   CuMo3Br7
_chemical_formula_sum   'Cu8 Mo24 Br56'
_cell_volume   2591.98187945
_cell_formula_units_Z   8
loop_
 _symmetry_equiv_pos_site_id
 _symmetry_equiv_pos_as_xyz
  1  'x, y, z'
loop_
 _atom_site_type_symbol
 _atom_site_label
 _atom_site_symmetry_multiplicity
 _atom_site_fract_x
 _atom_site_fract_y
 _atom_site_fract_z
 _atom_site_occupancy
  Cu  Cu0  1  0.43828281  0.43828281  0.43828281  1
  Cu  Cu1  1  0.06171719  0.06171719  0.43828281  1
  Cu  Cu2  1  0.43828281  0.06171719  0.06171719  1
  Cu  Cu3  1  0.93828281  0.93828281  0.56171719  1
  Cu  Cu4  1  0.93828281  0.56171719  0.93828281  1
  Cu  Cu5  1  0.56171719  0.56171719  0.56171719  1
  Cu  Cu6  1  0.06171719  0.43828281  0.06171719  1
  Cu  Cu7  1  0.56171719  0.93828281  0.93828281  1
  Mo  Mo8  1  0.02441734  0.53053787  0.63090947  1
  Mo  Mo9  1  0.63090947  0.02441734  0.53053787  1
  Mo  Mo10  1  0.96946213  0.86909053  0.02441734  1
  Mo  Mo11  1  0.13090947  0.97558266  0.03053787  1
  Mo  Mo12  1  0.46946213  0.13090947  0.52441734  1
  Mo  Mo13  1  0.03053787  0.13090947  0.97558266  1
  Mo  Mo14  1  0.53053787  0.63090947  0.02441734  1
  Mo  Mo15  1  0.86909053  0.02441734  0.96946213  1
  Mo  Mo16  1  0.96946213  0.63090947  0.47558266  1
  Mo  Mo17  1  0.97558266  0.46946213  0.36909053  1
  Mo  Mo18  1  0.13090947  0.52441734  0.46946213  1
  Mo  Mo19  1  0.46946213  0.36909053  0.97558266  1
  Mo  Mo20  1  0.47558266  0.96946213  0.63090947  1
  Mo  Mo21  1  0.02441734  0.96946213  0.86909053  1
  Mo  Mo22  1  0.03053787  0.36909053  0.52441734  1
  Mo  Mo23  1  0.53053787  0.86909053  0.47558266  1
  Mo  Mo24  1  0.97558266  0.03053787  0.13090947  1
  Mo  Mo25  1  0.47558266  0.53053787  0.86909053  1
  Mo  Mo26  1  0.36909053  0.97558266  0.46946213  1
  Mo  Mo27  1  0.86909053  0.47558266  0.53053787  1
  Mo  Mo28  1  0.52441734  0.46946213  0.13090947  1
  Mo  Mo29  1  0.36909053  0.52441734  0.03053787  1
  Mo  Mo30  1  0.63090947  0.47558266  0.96946213  1
  Mo  Mo31  1  0.52441734  0.03053787  0.36909053  1
  Br  Br32  1  0.36435561  0.36435561  0.13564439  1
  Br  Br33  1  0.81650332  0.92591454  0.12400540  1
  Br  Br34  1  0.68465437  0.43881921  0.57778122  1
  Br  Br35  1  0.81534563  0.43881921  0.92221878  1
  Br  Br36  1  0.07778122  0.18465437  0.56118079  1
  Br  Br37  1  0.37599460  0.81650332  0.57408546  1
  Br  Br38  1  0.86435561  0.63564439  0.63564439  1
  Br  Br39  1  0.42221878  0.31534563  0.56118079  1
  Br  Br40  1  0.13564439  0.13564439  0.13564439  1
  Br  Br41  1  0.63564439  0.86435561  0.63564439  1
  Br  Br42  1  0.87599460  0.18349668  0.07408546  1
  Br  Br43  1  0.37599460  0.68349668  0.92591454  1
  Br  Br44  1  0.31650332  0.07408546  0.62400540  1
  Br  Br45  1  0.31534563  0.93881921  0.07778122  1
  Br  Br46  1  0.92221878  0.68465437  0.06118079  1
  Br  Br47  1  0.57778122  0.68465437  0.43881921  1
  Br  Br48  1  0.81650332  0.57408546  0.37599460  1
  Br  Br49  1  0.12400540  0.68349668  0.57408546  1
  Br  Br50  1  0.43881921  0.57778122  0.68465437  1
  Br  Br51  1  0.86435561  0.86435561  0.86435561  1
  Br  Br52  1  0.07778122  0.31534563  0.93881921  1
  Br  Br53  1  0.42221878  0.18465437  0.93881921  1
  Br  Br54  1  0.87599460  0.31650332  0.42591454  1
  Br  Br55  1  0.56118079  0.07778122  0.18465437  1
  Br  Br56  1  0.36435561  0.13564439  0.36435561  1
  Br  Br57  1  0.18349668  0.42591454  0.62400540  1
  Br  Br58  1  0.63564439  0.63564439  0.86435561  1
  Br  Br59  1  0.07408546  0.87599460  0.18349668  1
  Br  Br60  1  0.93881921  0.07778122  0.31534563  1
  Br  Br61  1  0.43881921  0.92221878  0.81534563  1
  Br  Br62  1  0.42591454  0.87599460  0.31650332  1
  Br  Br63  1  0.93881921  0.42221878  0.18465437  1
  Br  Br64  1  0.13564439  0.36435561  0.36435561  1
  Br  Br65  1  0.07408546  0.62400540  0.31650332  1
  Br  Br66  1  0.92591454  0.12400540  0.81650332  1
  Br  Br67  1  0.42591454  0.62400540  0.18349668  1
  Br  Br68  1  0.57408546  0.12400540  0.68349668  1
  Br  Br69  1  0.31650332  0.42591454  0.87599460  1
  Br  Br70  1  0.62400540  0.18349668  0.42591454  1
  Br  Br71  1  0.18465437  0.93881921  0.42221878  1
  Br  Br72  1  0.31534563  0.56118079  0.42221878  1
  Br  Br73  1  0.06118079  0.92221878  0.68465437  1
  Br  Br74  1  0.62400540  0.31650332  0.07408546  1
  Br  Br75  1  0.68349668  0.92591454  0.37599460  1
  Br  Br76  1  0.57408546  0.37599460  0.81650332  1
  Br  Br77  1  0.92221878  0.81534563  0.43881921  1
  Br  Br78  1  0.56118079  0.42221878  0.31534563  1
  Br  Br79  1  0.18465437  0.56118079  0.07778122  1
  Br  Br80  1  0.81534563  0.06118079  0.57778122  1
  Br  Br81  1  0.68349668  0.57408546  0.12400540  1
  Br  Br82  1  0.12400540  0.81650332  0.92591454  1
  Br  Br83  1  0.18349668  0.07408546  0.87599460  1
  Br  Br84  1  0.92591454  0.37599460  0.68349668  1
  Br  Br85  1  0.57778122  0.81534563  0.06118079  1
  Br  Br86  1  0.06118079  0.57778122  0.81534563  1
  Br  Br87  1  0.68465437  0.06118079  0.92221878  1
