# generated using pymatgen
data_Yb5Ag3
_symmetry_space_group_name_H-M   'P 1'
_cell_length_a   7.89701907
_cell_length_b   7.89701868
_cell_length_c   9.24356875
_cell_angle_alpha   115.28764070
_cell_angle_beta   115.28763933
_cell_angle_gamma   90.00000280
_symmetry_Int_Tables_number   1
_chemical_formula_structural   Yb5Ag3
_chemical_formula_sum   'Yb10 Ag6'
_cell_volume   459.38278476
_cell_formula_units_Z   2
loop_
 _symmetry_equiv_pos_site_id
 _symmetry_equiv_pos_as_xyz
  1  'x, y, z'
loop_
 _atom_site_type_symbol
 _atom_site_label
 _atom_site_symmetry_multiplicity
 _atom_site_fract_x
 _atom_site_fract_y
 _atom_site_fract_z
 _atom_site_occupancy
  Yb  Yb0  1  0.47748764  0.31216246  0.28965010  1
  Yb  Yb1  1  0.68783754  0.18783754  0.71034990  1
  Yb  Yb2  1  0.18783754  0.02251236  0.71034990  1
  Yb  Yb3  1  0.02251236  0.52251236  0.71034990  1
  Yb  Yb4  1  0.50000000  0.50000000  0.00000000  1
  Yb  Yb5  1  0.81216246  0.97748764  0.28965010  1
  Yb  Yb6  1  0.31216246  0.81216246  0.28965010  1
  Yb  Yb7  1  0.52251236  0.68783754  0.71034990  1
  Yb  Yb8  1  0.97748764  0.47748764  0.28965010  1
  Yb  Yb9  1  0.00000000  0.00000000  0.00000000  1
  Ag  Ag10  1  0.87053712  0.62946288  1.00000000  1
  Ag  Ag11  1  0.75000000  0.75000000  0.50000000  1
  Ag  Ag12  1  0.12946288  0.37053712  0.00000000  1
  Ag  Ag13  1  0.25000000  0.25000000  0.50000000  1
  Ag  Ag14  1  0.62946288  0.12946288  0.00000000  1
  Ag  Ag15  1  0.37053712  0.87053712  1.00000000  1
