# generated using pymatgen
data_Sr3(AlGe2)2
_symmetry_space_group_name_H-M   'P 1'
_cell_length_a   4.21660255
_cell_length_b   6.71034782
_cell_length_c   8.95514882
_cell_angle_alpha   109.11551116
_cell_angle_beta   90.00000000
_cell_angle_gamma   108.31171579
_symmetry_Int_Tables_number   1
_chemical_formula_structural   Sr3(AlGe2)2
_chemical_formula_sum   'Sr3 Al2 Ge4'
_cell_volume   225.78954016
_cell_formula_units_Z   1
loop_
 _symmetry_equiv_pos_site_id
 _symmetry_equiv_pos_as_xyz
  1  'x, y, z'
loop_
 _atom_site_type_symbol
 _atom_site_label
 _atom_site_symmetry_multiplicity
 _atom_site_fract_x
 _atom_site_fract_y
 _atom_site_fract_z
 _atom_site_occupancy
  Sr  Sr0  1  0.39398406  0.78796813  0.31297784  1
  Sr  Sr1  1  0.00000000  0.00000000  0.00000000  1
  Sr  Sr2  1  0.60601594  0.21203187  0.68702216  1
  Al  Al3  1  0.29493752  0.58987504  0.65006313  1
  Al  Al4  1  0.70506248  0.41012496  0.34993687  1
  Ge  Ge5  1  0.28839426  0.57678853  0.94432224  1
  Ge  Ge6  1  0.71160574  0.42321147  0.05567776  1
  Ge  Ge7  1  0.10631573  0.21263145  0.39146805  1
  Ge  Ge8  1  0.89368427  0.78736855  0.60853195  1
