# generated using pymatgen
data_NaHf2CuSe5
_symmetry_space_group_name_H-M   'P 1'
_cell_length_a   3.79377776
_cell_length_b   7.22723245
_cell_length_c   16.29188957
_cell_angle_alpha   90.00000000
_cell_angle_beta   90.00000000
_cell_angle_gamma   105.21632202
_symmetry_Int_Tables_number   1
_chemical_formula_structural   NaHf2CuSe5
_chemical_formula_sum   'Na2 Hf4 Cu2 Se10'
_cell_volume   431.03890509
_cell_formula_units_Z   2
loop_
 _symmetry_equiv_pos_site_id
 _symmetry_equiv_pos_as_xyz
  1  'x, y, z'
loop_
 _atom_site_type_symbol
 _atom_site_label
 _atom_site_symmetry_multiplicity
 _atom_site_fract_x
 _atom_site_fract_y
 _atom_site_fract_z
 _atom_site_occupancy
  Na  Na0  1  0.96615008  0.93230017  0.25000000  1
  Na  Na1  1  0.03384992  0.06769983  0.75000000  1
  Hf  Hf2  1  0.79062278  0.58124556  0.90156142  1
  Hf  Hf3  1  0.20937722  0.41875444  0.40156142  1
  Hf  Hf4  1  0.79062278  0.58124556  0.59843858  1
  Hf  Hf5  1  0.20937722  0.41875444  0.09843858  1
  Cu  Cu6  1  0.67745431  0.35490862  0.25000000  1
  Cu  Cu7  1  0.32254569  0.64509138  0.75000000  1
  Se  Se8  1  0.84018260  0.68036520  0.43930424  1
  Se  Se9  1  0.15981740  0.31963480  0.93930424  1
  Se  Se10  1  0.70896383  0.41792767  0.75000000  1
  Se  Se11  1  0.57763777  0.15527554  0.37184792  1
  Se  Se12  1  0.84018260  0.68036520  0.06069576  1
  Se  Se13  1  0.42236223  0.84472446  0.87184792  1
  Se  Se14  1  0.42236223  0.84472446  0.62815208  1
  Se  Se15  1  0.57763777  0.15527554  0.12815208  1
  Se  Se16  1  0.15981740  0.31963480  0.56069576  1
  Se  Se17  1  0.29103617  0.58207233  0.25000000  1
