# generated using pymatgen
data_Rb5Sn(PSe5)3
_symmetry_space_group_name_H-M   'P 1'
_cell_length_a   7.49330374
_cell_length_b   12.02221541
_cell_length_c   19.68520093
_cell_angle_alpha   87.09724593
_cell_angle_beta   79.98117612
_cell_angle_gamma   72.53815381
_symmetry_Int_Tables_number   1
_chemical_formula_structural   Rb5Sn(PSe5)3
_chemical_formula_sum   'Rb10 Sn2 P6 Se30'
_cell_volume   1665.84254481
_cell_formula_units_Z   2
loop_
 _symmetry_equiv_pos_site_id
 _symmetry_equiv_pos_as_xyz
  1  'x, y, z'
loop_
 _atom_site_type_symbol
 _atom_site_label
 _atom_site_symmetry_multiplicity
 _atom_site_fract_x
 _atom_site_fract_y
 _atom_site_fract_z
 _atom_site_occupancy
  Rb  Rb0  1  0.58597132  0.35153583  0.24629200  1
  Rb  Rb1  1  0.29951572  0.86491286  0.03862623  1
  Rb  Rb2  1  0.70048428  0.13508714  0.96137377  1
  Rb  Rb3  1  0.32883135  0.85639558  0.45502278  1
  Rb  Rb4  1  0.67116865  0.14360442  0.54497722  1
  Rb  Rb5  1  0.05653902  0.40348850  0.88285548  1
  Rb  Rb6  1  0.41402868  0.64846417  0.75370800  1
  Rb  Rb7  1  0.00021644  0.61414271  0.37238036  1
  Rb  Rb8  1  0.99978356  0.38585729  0.62761964  1
  Rb  Rb9  1  0.94346098  0.59651150  0.11714452  1
  Sn  Sn10  1  0.83005932  0.90112737  0.74207839  1
  Sn  Sn11  1  0.16994068  0.09887263  0.25792161  1
  P  P12  1  0.41283420  0.73987488  0.25110672  1
  P  P13  1  0.23168107  0.22446876  0.43679903  1
  P  P14  1  0.76831893  0.77553124  0.56320097  1
  P  P15  1  0.97388733  0.77020991  0.92723250  1
  P  P16  1  0.02611267  0.22979009  0.07276750  1
  P  P17  1  0.58716580  0.26012512  0.74889328  1
  Se  Se18  1  0.95136105  0.31723777  0.39545688  1
  Se  Se19  1  0.14207136  0.83668981  0.64020563  1
  Se  Se20  1  0.04863895  0.68276223  0.60454312  1
  Se  Se21  1  0.58880131  0.90025603  0.64730458  1
  Se  Se22  1  0.82121038  0.86819876  0.46766810  1
  Se  Se23  1  0.12520010  0.33465906  0.22941784  1
  Se  Se24  1  0.59042965  0.35668354  0.83912551  1
  Se  Se25  1  0.41119869  0.09974397  0.35269542  1
  Se  Se26  1  0.13234229  0.87278712  0.28861451  1
  Se  Se27  1  0.86765771  0.12721288  0.71138549  1
  Se  Se28  1  0.95125809  0.10409018  0.15320021  1
  Se  Se29  1  0.04874191  0.89590982  0.84679979  1
  Se  Se30  1  0.87479990  0.66534094  0.77058216  1
  Se  Se31  1  0.80975288  0.85304744  0.02456070  1
  Se  Se32  1  0.47955413  0.37526294  0.66541048  1
  Se  Se33  1  0.67356205  0.62349468  0.55293018  1
  Se  Se34  1  0.77413445  0.37263712  0.05971134  1
  Se  Se35  1  0.62435092  0.84884143  0.23602362  1
  Se  Se36  1  0.50832008  0.99457819  0.83451965  1
  Se  Se37  1  0.19024712  0.14695256  0.97543930  1
  Se  Se38  1  0.74381649  0.70889172  0.88881095  1
  Se  Se39  1  0.17878962  0.13180124  0.53233190  1
  Se  Se40  1  0.22586555  0.62736288  0.94028866  1
  Se  Se41  1  0.32643795  0.37650532  0.44706982  1
  Se  Se42  1  0.25618351  0.29110828  0.11118905  1
  Se  Se43  1  0.40957035  0.64331646  0.16087449  1
  Se  Se44  1  0.52044587  0.62473706  0.33458952  1
  Se  Se45  1  0.49167992  0.00542181  0.16548035  1
  Se  Se46  1  0.85792864  0.16331019  0.35979437  1
  Se  Se47  1  0.37564908  0.15115857  0.76397638  1
