# generated using pymatgen
data_La3SiPd5
_symmetry_space_group_name_H-M   'P 1'
_cell_length_a   7.56618816
_cell_length_b   7.70423755
_cell_length_c   8.53270817
_cell_angle_alpha   116.83696233
_cell_angle_beta   116.31870172
_cell_angle_gamma   89.99999737
_symmetry_Int_Tables_number   1
_chemical_formula_structural   La3SiPd5
_chemical_formula_sum   'La6 Si2 Pd10'
_cell_volume   385.15116327
_cell_formula_units_Z   2
loop_
 _symmetry_equiv_pos_site_id
 _symmetry_equiv_pos_as_xyz
  1  'x, y, z'
loop_
 _atom_site_type_symbol
 _atom_site_label
 _atom_site_symmetry_multiplicity
 _atom_site_fract_x
 _atom_site_fract_y
 _atom_site_fract_z
 _atom_site_occupancy
  La  La0  1  0.54875696  0.77859194  0.59751392  1
  La  La1  1  0.95124304  0.18107802  0.40248608  1
  La  La2  1  0.45124304  0.22140806  0.40248608  1
  La  La3  1  0.75000000  0.61474083  1.00000000  1
  La  La4  1  0.04875696  0.81892198  0.59751392  1
  La  La5  1  0.25000000  0.38525917  0.00000000  1
  Si  Si6  1  0.25000000  0.79032528  0.00000000  1
  Si  Si7  1  0.75000000  0.20967472  1.00000000  1
  Pd  Pd8  1  0.08896059  0.45399911  0.28201010  1
  Pd  Pd9  1  0.80695050  0.17198901  0.71798990  1
  Pd  Pd10  1  0.58896059  0.82801099  0.28201010  1
  Pd  Pd11  1  0.69304950  0.45399911  0.28201010  1
  Pd  Pd12  1  0.91103941  0.54600089  0.71798990  1
  Pd  Pd13  1  0.19304950  0.82801099  0.28201010  1
  Pd  Pd14  1  0.41103941  0.17198901  0.71798990  1
  Pd  Pd15  1  0.30695050  0.54600089  0.71798990  1
  Pd  Pd16  1  0.50000000  0.00000000  0.00000000  1
  Pd  Pd17  1  0.00000000  0.00000000  0.00000000  1
