# generated using pymatgen
data_Tb3(CuSn)4
_symmetry_space_group_name_H-M   'P 1'
_cell_length_a   4.47875771
_cell_length_b   6.96369035
_cell_length_c   8.45938442
_cell_angle_alpha   114.29728150
_cell_angle_beta   105.34798579
_cell_angle_gamma   90.00419748
_symmetry_Int_Tables_number   1
_chemical_formula_structural   Tb3(CuSn)4
_chemical_formula_sum   'Tb3 Cu4 Sn4'
_cell_volume   230.10155247
_cell_formula_units_Z   1
loop_
 _symmetry_equiv_pos_site_id
 _symmetry_equiv_pos_as_xyz
  1  'x, y, z'
loop_
 _atom_site_type_symbol
 _atom_site_label
 _atom_site_symmetry_multiplicity
 _atom_site_fract_x
 _atom_site_fract_y
 _atom_site_fract_z
 _atom_site_occupancy
  Tb  Tb0  1  0.86855653  0.36850019  0.73712434  1
  Tb  Tb1  1  0.00000000  0.00000000  0.00000000  1
  Tb  Tb2  1  0.13144347  0.63149981  0.26287566  1
  Cu  Cu3  1  0.67045883  0.98227033  0.34081576  1
  Cu  Cu4  1  0.32978759  0.64140505  0.65892225  1
  Cu  Cu5  1  0.67021241  0.35859495  0.34107775  1
  Cu  Cu6  1  0.32954117  0.01772967  0.65918424  1
  Sn  Sn7  1  0.50024041  0.70276555  0.99980887  1
  Sn  Sn8  1  0.49975959  0.29723445  0.00019113  1
  Sn  Sn9  1  0.78399627  0.78405811  0.56781029  1
  Sn  Sn10  1  0.21600373  0.21594189  0.43218971  1
