# generated using pymatgen
data_Dy4MgRh
_symmetry_space_group_name_H-M   'P 1'
_cell_length_a   9.69620788
_cell_length_b   9.69620788
_cell_length_c   9.69620829
_cell_angle_alpha   60.00000206
_cell_angle_beta   60.00000205
_cell_angle_gamma   60.00000139
_symmetry_Int_Tables_number   1
_chemical_formula_structural   Dy4MgRh
_chemical_formula_sum   'Dy16 Mg4 Rh4'
_cell_volume   644.60072927
_cell_formula_units_Z   4
loop_
 _symmetry_equiv_pos_site_id
 _symmetry_equiv_pos_as_xyz
  1  'x, y, z'
loop_
 _atom_site_type_symbol
 _atom_site_label
 _atom_site_symmetry_multiplicity
 _atom_site_fract_x
 _atom_site_fract_y
 _atom_site_fract_z
 _atom_site_occupancy
  Dy  Dy0  1  0.93537175  0.93537175  0.56462825  1
  Dy  Dy1  1  0.34679547  0.34679547  0.34679547  1
  Dy  Dy2  1  0.18771579  0.81228421  0.81228421  1
  Dy  Dy3  1  0.56462825  0.56462825  0.93537175  1
  Dy  Dy4  1  0.56462825  0.93537175  0.93537175  1
  Dy  Dy5  1  0.81228421  0.18771579  0.18771579  1
  Dy  Dy6  1  0.18771579  0.18771579  0.81228421  1
  Dy  Dy7  1  0.93537175  0.56462825  0.93537175  1
  Dy  Dy8  1  0.56462825  0.93537175  0.56462825  1
  Dy  Dy9  1  0.95961358  0.34679547  0.34679547  1
  Dy  Dy10  1  0.81228421  0.81228421  0.18771579  1
  Dy  Dy11  1  0.34679547  0.34679547  0.95961358  1
  Dy  Dy12  1  0.81228421  0.18771579  0.81228421  1
  Dy  Dy13  1  0.93537175  0.56462825  0.56462825  1
  Dy  Dy14  1  0.18771579  0.81228421  0.18771579  1
  Dy  Dy15  1  0.34679547  0.95961358  0.34679547  1
  Mg  Mg16  1  0.57966813  0.57966813  0.26099561  1
  Mg  Mg17  1  0.57966813  0.26099561  0.57966813  1
  Mg  Mg18  1  0.57966813  0.57966813  0.57966813  1
  Mg  Mg19  1  0.26099561  0.57966813  0.57966813  1
  Rh  Rh20  1  0.14182501  0.14182501  0.14182501  1
  Rh  Rh21  1  0.57452496  0.14182501  0.14182501  1
  Rh  Rh22  1  0.14182501  0.14182501  0.57452496  1
  Rh  Rh23  1  0.14182501  0.57452496  0.14182501  1
