# generated using pymatgen
data_GaHg2SbCl4
_symmetry_space_group_name_H-M   'P 1'
_cell_length_a   8.98561744
_cell_length_b   12.50337960
_cell_length_c   18.22280174
_cell_angle_alpha   90.00000000
_cell_angle_beta   90.00000000
_cell_angle_gamma   90.00000000
_symmetry_Int_Tables_number   1
_chemical_formula_structural   GaHg2SbCl4
_chemical_formula_sum   'Ga8 Hg16 Sb8 Cl32'
_cell_volume   2047.34245027
_cell_formula_units_Z   8
loop_
 _symmetry_equiv_pos_site_id
 _symmetry_equiv_pos_as_xyz
  1  'x, y, z'
loop_
 _atom_site_type_symbol
 _atom_site_label
 _atom_site_symmetry_multiplicity
 _atom_site_fract_x
 _atom_site_fract_y
 _atom_site_fract_z
 _atom_site_occupancy
  Ga  Ga0  1  0.58450902  0.89153400  0.62595154  1
  Ga  Ga1  1  0.41549098  0.89153400  0.12595154  1
  Ga  Ga2  1  0.08450902  0.60846600  0.62595154  1
  Ga  Ga3  1  0.91549098  0.60846600  0.12595154  1
  Ga  Ga4  1  0.41549098  0.10846600  0.37404846  1
  Ga  Ga5  1  0.91549098  0.39153400  0.37404846  1
  Ga  Ga6  1  0.08450902  0.39153400  0.87404846  1
  Ga  Ga7  1  0.58450902  0.10846600  0.87404846  1
  Hg  Hg8  1  0.82339550  0.26239749  0.62242903  1
  Hg  Hg9  1  0.03649613  0.00000000  0.75000000  1
  Hg  Hg10  1  0.17660450  0.73760251  0.37757097  1
  Hg  Hg11  1  0.67660450  0.76239749  0.37757097  1
  Hg  Hg12  1  0.67660450  0.23760251  0.12242903  1
  Hg  Hg13  1  0.17660450  0.26239749  0.12242903  1
  Hg  Hg14  1  0.32339550  0.76239749  0.87757097  1
  Hg  Hg15  1  0.46350387  0.50000000  0.25000000  1
  Hg  Hg16  1  0.50000000  0.50000000  0.50000000  1
  Hg  Hg17  1  0.53649613  0.50000000  0.75000000  1
  Hg  Hg18  1  0.96350387  0.00000000  0.25000000  1
  Hg  Hg19  1  0.32339550  0.23760251  0.62242903  1
  Hg  Hg20  1  0.00000000  0.00000000  0.00000000  1
  Hg  Hg21  1  0.82339550  0.73760251  0.87757097  1
  Hg  Hg22  1  0.00000000  0.00000000  0.50000000  1
  Hg  Hg23  1  0.50000000  0.50000000  0.00000000  1
  Sb  Sb24  1  0.43940028  0.37811770  0.12384943  1
  Sb  Sb25  1  0.93940028  0.87811770  0.37615057  1
  Sb  Sb26  1  0.06059972  0.87811770  0.87615057  1
  Sb  Sb27  1  0.56059972  0.37811770  0.62384943  1
  Sb  Sb28  1  0.06059972  0.12188230  0.62384943  1
  Sb  Sb29  1  0.93940028  0.12188230  0.12384943  1
  Sb  Sb30  1  0.43940028  0.62188230  0.37615057  1
  Sb  Sb31  1  0.56059972  0.62188230  0.87615057  1
  Cl  Cl32  1  0.35955373  0.91901667  0.66667365  1
  Cl  Cl33  1  0.08995487  0.25273671  0.94919755  1
  Cl  Cl34  1  0.74048313  0.14141283  0.78293886  1
  Cl  Cl35  1  0.25951687  0.14141283  0.28293886  1
  Cl  Cl36  1  0.35955373  0.08098333  0.83332635  1
  Cl  Cl37  1  0.91004513  0.74726329  0.05080245  1
  Cl  Cl38  1  0.64044627  0.91901667  0.16667365  1
  Cl  Cl39  1  0.24048313  0.64141283  0.71706114  1
  Cl  Cl40  1  0.14044627  0.58098333  0.16667365  1
  Cl  Cl41  1  0.85955373  0.58098333  0.66667365  1
  Cl  Cl42  1  0.41004513  0.75273671  0.05080245  1
  Cl  Cl43  1  0.74048313  0.85858717  0.71706114  1
  Cl  Cl44  1  0.58995487  0.75273671  0.55080245  1
  Cl  Cl45  1  0.85955373  0.41901667  0.83332635  1
  Cl  Cl46  1  0.58995487  0.24726329  0.94919755  1
  Cl  Cl47  1  0.08995487  0.74726329  0.55080245  1
  Cl  Cl48  1  0.33995631  0.03524222  0.06515491  1
  Cl  Cl49  1  0.66004369  0.96475778  0.93484509  1
  Cl  Cl50  1  0.83995631  0.46475778  0.06515491  1
  Cl  Cl51  1  0.16004369  0.53524222  0.93484509  1
  Cl  Cl52  1  0.33995631  0.96475778  0.43484509  1
  Cl  Cl53  1  0.14044627  0.41901667  0.33332635  1
  Cl  Cl54  1  0.41004513  0.24726329  0.44919755  1
  Cl  Cl55  1  0.64044627  0.08098333  0.33332635  1
  Cl  Cl56  1  0.83995631  0.53524222  0.43484509  1
  Cl  Cl57  1  0.75951687  0.35858717  0.28293886  1
  Cl  Cl58  1  0.66004369  0.03524222  0.56515491  1
  Cl  Cl59  1  0.91004513  0.25273671  0.44919755  1
  Cl  Cl60  1  0.16004369  0.46475778  0.56515491  1
  Cl  Cl61  1  0.75951687  0.64141283  0.21706114  1
  Cl  Cl62  1  0.25951687  0.85858717  0.21706114  1
  Cl  Cl63  1  0.24048313  0.35858717  0.78293886  1
