# generated using pymatgen
data_Al3Mo
_symmetry_space_group_name_H-M   'P 1'
_cell_length_a   3.60496792
_cell_length_b   8.39725239
_cell_length_c   8.41941590
_cell_angle_alpha   101.59419576
_cell_angle_beta   102.36194096
_cell_angle_gamma   90.00000000
_symmetry_Int_Tables_number   1
_chemical_formula_structural   Al3Mo
_chemical_formula_sum   'Al12 Mo4'
_cell_volume   243.63523600
_cell_formula_units_Z   4
loop_
 _symmetry_equiv_pos_site_id
 _symmetry_equiv_pos_as_xyz
  1  'x, y, z'
loop_
 _atom_site_type_symbol
 _atom_site_label
 _atom_site_symmetry_multiplicity
 _atom_site_fract_x
 _atom_site_fract_y
 _atom_site_fract_z
 _atom_site_occupancy
  Al  Al0  1  0.62802737  0.24439348  0.25605473  1
  Al  Al1  1  0.12802384  0.50218810  0.25604767  1
  Al  Al2  1  0.62299490  0.73925329  0.24598979  1
  Al  Al3  1  0.75009267  0.04684756  0.50018533  1
  Al  Al4  1  0.25138504  0.30486894  0.50277008  1
  Al  Al5  1  0.25027606  0.79506428  0.50055212  1
  Al  Al6  1  0.87358670  0.34414136  0.74717341  1
  Al  Al7  1  0.37488029  0.60304156  0.74976057  1
  Al  Al8  1  0.87479876  0.85405741  0.74959752  1
  Al  Al9  1  0.99675757  0.14370188  0.99351514  1
  Al  Al10  1  0.49653574  0.40211529  0.99307148  1
  Al  Al11  1  0.50263888  0.90650773  0.00527776  1
  Mo  Mo12  1  0.13577389  0.00313046  0.27154778  1
  Mo  Mo13  1  0.75766828  0.55270133  0.51533656  1
  Mo  Mo14  1  0.36727369  0.09601480  0.73454737  1
  Mo  Mo15  1  0.98928634  0.64417252  0.97857267  1
