# generated using pymatgen
data_Er(Al3Ni)3
_symmetry_space_group_name_H-M   'P 1'
_cell_length_a   10.04334205
_cell_length_b   10.04334261
_cell_length_c   10.04334264
_cell_angle_alpha   42.46378510
_cell_angle_beta   42.46378161
_cell_angle_gamma   42.46378317
_symmetry_Int_Tables_number   1
_chemical_formula_structural   Er(Al3Ni)3
_chemical_formula_sum   'Er2 Al18 Ni6'
_cell_volume   418.07050906
_cell_formula_units_Z   2
loop_
 _symmetry_equiv_pos_site_id
 _symmetry_equiv_pos_as_xyz
  1  'x, y, z'
loop_
 _atom_site_type_symbol
 _atom_site_label
 _atom_site_symmetry_multiplicity
 _atom_site_fract_x
 _atom_site_fract_y
 _atom_site_fract_z
 _atom_site_occupancy
  Er  Er0  1  0.16691632  0.16691632  0.16691632  1
  Er  Er1  1  0.83308368  0.83308368  0.83308368  1
  Al  Al2  1  0.43292921  0.10266581  0.76311934  1
  Al  Al3  1  0.76311934  0.43292921  0.10266581  1
  Al  Al4  1  0.89733419  0.56707079  0.23688066  1
  Al  Al5  1  0.94810038  0.94810038  0.94810038  1
  Al  Al6  1  0.05189962  0.05189962  0.05189962  1
  Al  Al7  1  0.70919459  0.29080541  0.50000000  1
  Al  Al8  1  0.23688066  0.89733419  0.56707079  1
  Al  Al9  1  0.38694571  0.38694571  0.38694571  1
  Al  Al10  1  0.29080541  0.50000000  0.70919459  1
  Al  Al11  1  0.56707079  0.23688066  0.89733419  1
  Al  Al12  1  0.71803299  0.71803299  0.71803299  1
  Al  Al13  1  0.61305429  0.61305429  0.61305429  1
  Al  Al14  1  1.00000000  0.33388431  0.66611569  1
  Al  Al15  1  0.50000000  0.70919459  0.29080541  1
  Al  Al16  1  0.33388431  0.66611569  0.00000000  1
  Al  Al17  1  0.28196701  0.28196701  0.28196701  1
  Al  Al18  1  0.66611569  1.00000000  0.33388431  1
  Al  Al19  1  0.10266581  0.76311934  0.43292921  1
  Ni  Ni20  1  0.07847654  0.41840460  0.75845801  1
  Ni  Ni21  1  0.24154199  0.58159540  0.92152346  1
  Ni  Ni22  1  0.75845801  0.07847654  0.41840460  1
  Ni  Ni23  1  0.41840460  0.75845801  0.07847654  1
  Ni  Ni24  1  0.58159540  0.92152346  0.24154199  1
  Ni  Ni25  1  0.92152346  0.24154199  0.58159540  1
