# generated using pymatgen
data_GeBr4
_symmetry_space_group_name_H-M   'P 1'
_cell_length_a   12.07375677
_cell_length_b   12.07375677
_cell_length_c   12.07375677
_cell_angle_alpha   90.00000000
_cell_angle_beta   90.00000000
_cell_angle_gamma   90.00000000
_symmetry_Int_Tables_number   1
_chemical_formula_structural   GeBr4
_chemical_formula_sum   'Ge8 Br32'
_cell_volume   1760.05916808
_cell_formula_units_Z   8
loop_
 _symmetry_equiv_pos_site_id
 _symmetry_equiv_pos_as_xyz
  1  'x, y, z'
loop_
 _atom_site_type_symbol
 _atom_site_label
 _atom_site_symmetry_multiplicity
 _atom_site_fract_x
 _atom_site_fract_y
 _atom_site_fract_z
 _atom_site_occupancy
  Ge  Ge0  1  0.86847244  0.63152756  0.36847244  1
  Ge  Ge1  1  0.13152756  0.36847244  0.63152756  1
  Ge  Ge2  1  0.36847244  0.86847244  0.63152756  1
  Ge  Ge3  1  0.63152756  0.36847244  0.86847244  1
  Ge  Ge4  1  0.63152756  0.13152756  0.36847244  1
  Ge  Ge5  1  0.36847244  0.63152756  0.13152756  1
  Ge  Ge6  1  0.13152756  0.13152756  0.13152756  1
  Ge  Ge7  1  0.86847244  0.86847244  0.86847244  1
  Br  Br8  1  0.48576126  0.75799841  0.52850209  1
  Br  Br9  1  0.24200159  0.02850209  0.01423874  1
  Br  Br10  1  0.75799841  0.52850209  0.48576126  1
  Br  Br11  1  0.24200159  0.47149791  0.51423874  1
  Br  Br12  1  0.47149791  0.98576126  0.74200159  1
  Br  Br13  1  0.01423874  0.24200159  0.02850209  1
  Br  Br14  1  0.51423874  0.24200159  0.47149791  1
  Br  Br15  1  0.74200159  0.47149791  0.98576126  1
  Br  Br16  1  0.25833227  0.75833227  0.74166773  1
  Br  Br17  1  0.02850209  0.48576126  0.74200159  1
  Br  Br18  1  0.52850209  0.48576126  0.75799841  1
  Br  Br19  1  0.97149791  0.98576126  0.75799841  1
  Br  Br20  1  0.75833227  0.75833227  0.75833227  1
  Br  Br21  1  0.97149791  0.51423874  0.25799841  1
  Br  Br22  1  0.24166773  0.24166773  0.24166773  1
  Br  Br23  1  0.52850209  0.01423874  0.25799841  1
  Br  Br24  1  0.98576126  0.74200159  0.47149791  1
  Br  Br25  1  0.02850209  0.01423874  0.24200159  1
  Br  Br26  1  0.74166773  0.25833227  0.75833227  1
  Br  Br27  1  0.51423874  0.25799841  0.97149791  1
  Br  Br28  1  0.75833227  0.74166773  0.25833227  1
  Br  Br29  1  0.25799841  0.97149791  0.51423874  1
  Br  Br30  1  0.74200159  0.02850209  0.48576126  1
  Br  Br31  1  0.74166773  0.24166773  0.25833227  1
  Br  Br32  1  0.98576126  0.75799841  0.97149791  1
  Br  Br33  1  0.25799841  0.52850209  0.01423874  1
  Br  Br34  1  0.75799841  0.97149791  0.98576126  1
  Br  Br35  1  0.47149791  0.51423874  0.24200159  1
  Br  Br36  1  0.24166773  0.25833227  0.74166773  1
  Br  Br37  1  0.25833227  0.74166773  0.24166773  1
  Br  Br38  1  0.48576126  0.74200159  0.02850209  1
  Br  Br39  1  0.01423874  0.25799841  0.52850209  1
