# generated using pymatgen
data_ZrI4
_symmetry_space_group_name_H-M   'P 1'
_cell_length_a   8.85204710
_cell_length_b   8.94014619
_cell_length_c   18.54825429
_cell_angle_alpha   102.69804522
_cell_angle_beta   90.00000000
_cell_angle_gamma   90.00000000
_symmetry_Int_Tables_number   1
_chemical_formula_structural   ZrI4
_chemical_formula_sum   'Zr6 I24'
_cell_volume   1431.98137493
_cell_formula_units_Z   6
loop_
 _symmetry_equiv_pos_site_id
 _symmetry_equiv_pos_as_xyz
  1  'x, y, z'
loop_
 _atom_site_type_symbol
 _atom_site_label
 _atom_site_symmetry_multiplicity
 _atom_site_fract_x
 _atom_site_fract_y
 _atom_site_fract_z
 _atom_site_occupancy
  Zr  Zr0  1  0.87880541  0.18973724  0.58248669  1
  Zr  Zr1  1  0.12119459  0.81026276  0.41751331  1
  Zr  Zr2  1  0.61030402  0.00000000  0.75000000  1
  Zr  Zr3  1  0.87880541  0.81026276  0.91751331  1
  Zr  Zr4  1  0.12119459  0.18973724  0.08248669  1
  Zr  Zr5  1  0.38969598  0.00000000  0.25000000  1
  I  I6  1  0.10859832  0.60318022  0.90763533  1
  I  I7  1  0.58912625  0.23596875  0.25854197  1
  I  I8  1  0.11684803  0.93445427  0.57579764  1
  I  I9  1  0.35775525  0.62054039  0.42780289  1
  I  I10  1  0.12614277  0.21993567  0.24145172  1
  I  I11  1  0.12614277  0.78006433  0.25854828  1
  I  I12  1  0.11684803  0.06554573  0.92420236  1
  I  I13  1  0.41087375  0.76403125  0.74145803  1
  I  I14  1  0.89140168  0.39681978  0.09236467  1
  I  I15  1  0.87385723  0.78006433  0.75854828  1
  I  I16  1  0.41087375  0.23596875  0.75854197  1
  I  I17  1  0.89140168  0.60318022  0.40763533  1
  I  I18  1  0.58912625  0.76403125  0.24145803  1
  I  I19  1  0.65916373  0.92798994  0.59139578  1
  I  I20  1  0.34083627  0.07201006  0.40860422  1
  I  I21  1  0.87385723  0.21993567  0.74145172  1
  I  I22  1  0.10859832  0.39681978  0.59236467  1
  I  I23  1  0.64224475  0.62054039  0.92780289  1
  I  I24  1  0.34083627  0.92798994  0.09139578  1
  I  I25  1  0.88315197  0.93445427  0.07579764  1
  I  I26  1  0.64224475  0.37945961  0.57219711  1
  I  I27  1  0.65916373  0.07201006  0.90860422  1
  I  I28  1  0.35775525  0.37945961  0.07219711  1
  I  I29  1  0.88315197  0.06554573  0.42420236  1
