# generated using pymatgen
data_La7SmMn7FeO20
_symmetry_space_group_name_H-M   'P 1'
_cell_length_a   11.40789092
_cell_length_b   11.85432542
_cell_length_c   17.77493756
_cell_angle_alpha   109.45527226
_cell_angle_beta   108.69202082
_cell_angle_gamma   90.00695810
_symmetry_Int_Tables_number   1
_chemical_formula_structural   La7SmMn7FeO20
_chemical_formula_sum   'La28 Sm4 Mn28 Fe4 O80'
_cell_volume   2131.53581773
_cell_formula_units_Z   4
loop_
 _symmetry_equiv_pos_site_id
 _symmetry_equiv_pos_as_xyz
  1  'x, y, z'
loop_
 _atom_site_type_symbol
 _atom_site_label
 _atom_site_symmetry_multiplicity
 _atom_site_fract_x
 _atom_site_fract_y
 _atom_site_fract_z
 _atom_site_occupancy
  La  La0  1  0.29601001  0.06246810  0.11016154  1
  La  La1  1  0.29877276  0.06452569  0.61113270  1
  La  La2  1  0.29875044  0.56497563  0.61187650  1
  La  La3  1  0.79865931  0.06494021  0.61170945  1
  La  La4  1  0.80260799  0.56547726  0.10952960  1
  La  La5  1  0.79894942  0.56504695  0.61211811  1
  La  La6  1  0.18704167  0.43372627  0.38778797  1
  La  La7  1  0.18387157  0.43657167  0.89114453  1
  La  La8  1  0.18612749  0.93449472  0.38653004  1
  La  La9  1  0.18809379  0.93459956  0.88886355  1
  La  La10  1  0.68679120  0.43525625  0.38773415  1
  La  La11  1  0.68624437  0.93468453  0.38758549  1
  La  La12  1  0.68670389  0.93689530  0.89100491  1
  La  La13  1  0.04715078  0.29424842  0.11123203  1
  La  La14  1  0.04885873  0.29764649  0.61221943  1
  La  La15  1  0.04842403  0.79661335  0.61140730  1
  La  La16  1  0.54886661  0.29467022  0.11054904  1
  La  La17  1  0.54880247  0.29853741  0.61360219  1
  La  La18  1  0.55005685  0.79684857  0.11106661  1
  La  La19  1  0.54889552  0.79631987  0.61168229  1
  La  La20  1  0.43699618  0.20275444  0.38766722  1
  La  La21  1  0.44033381  0.20574806  0.88889593  1
  La  La22  1  0.43583163  0.70204664  0.38614183  1
  La  La23  1  0.43854406  0.70410812  0.88954632  1
  La  La24  1  0.93525006  0.20212867  0.38654198  1
  La  La25  1  0.93484454  0.20506702  0.88977700  1
  La  La26  1  0.93593298  0.70289510  0.38711704  1
  La  La27  1  0.93405366  0.70406188  0.89025884  1
  Sm  Sm28  1  0.29233572  0.56632030  0.10998521  1
  Sm  Sm29  1  0.79733987  0.06626195  0.10984966  1
  Sm  Sm30  1  0.68988434  0.43446876  0.89139805  1
  Sm  Sm31  1  0.04670848  0.79410393  0.11038558  1
  Mn  Mn32  1  0.00128219  0.00004350  0.49949663  1
  Mn  Mn33  1  0.00140542  0.49986010  0.49966317  1
  Mn  Mn34  1  0.50112002  0.99974700  0.49950363  1
  Mn  Mn35  1  0.50311176  0.50208387  0.00159537  1
  Mn  Mn36  1  0.50138923  0.49990570  0.49981199  1
  Mn  Mn37  1  0.25260282  0.25085108  0.00129173  1
  Mn  Mn38  1  0.25094494  0.24947523  0.49936154  1
  Mn  Mn39  1  0.25152055  0.75005195  0.00114901  1
  Mn  Mn40  1  0.25145165  0.74964287  0.49951692  1
  Mn  Mn41  1  0.75239025  0.25013366  0.00095170  1
  Mn  Mn42  1  0.75123647  0.25020117  0.50012411  1
  Mn  Mn43  1  0.75085176  0.74970912  0.49940212  1
  Mn  Mn44  1  0.10382902  0.09615521  0.24727121  1
  Mn  Mn45  1  0.10872553  0.10058940  0.75116061  1
  Mn  Mn46  1  0.10909625  0.59876382  0.24896383  1
  Mn  Mn47  1  0.10794807  0.59896407  0.75109542  1
  Mn  Mn48  1  0.60821386  0.09827405  0.24851407  1
  Mn  Mn49  1  0.60841679  0.10055142  0.75060992  1
  Mn  Mn50  1  0.60408486  0.59859334  0.24644149  1
  Mn  Mn51  1  0.60848705  0.59886596  0.75242522  1
  Mn  Mn52  1  0.35721793  0.40099828  0.24770540  1
  Mn  Mn53  1  0.35991868  0.40132584  0.75197218  1
  Mn  Mn54  1  0.35474007  0.89746738  0.24717874  1
  Mn  Mn55  1  0.35835729  0.90169718  0.75068767  1
  Mn  Mn56  1  0.85693093  0.40016227  0.24884054  1
  Mn  Mn57  1  0.85614101  0.40125296  0.75151407  1
  Mn  Mn58  1  0.85825939  0.90106727  0.24730880  1
  Mn  Mn59  1  0.85797660  0.90146786  0.75137913  1
  Fe  Fe60  1  0.00300973  0.99859390  0.00166594  1
  Fe  Fe61  1  0.00296881  0.50140820  0.00165194  1
  Fe  Fe62  1  0.50401124  0.99993635  0.00029946  1
  Fe  Fe63  1  0.75449478  0.75179310  0.00084594  1
  O  O64  1  0.10953113  0.11630414  0.47293281  1
  O  O65  1  0.11021067  0.11527226  0.97666777  1
  O  O66  1  0.10949531  0.61711193  0.47363262  1
  O  O67  1  0.11020212  0.61892106  0.97994724  1
  O  O68  1  0.60966004  0.11619453  0.47292024  1
  O  O69  1  0.60959257  0.11889908  0.97567063  1
  O  O70  1  0.60987697  0.61749025  0.47468241  1
  O  O71  1  0.61559536  0.61949422  0.97418892  1
  O  O72  1  0.13544848  0.38607510  0.02630109  1
  O  O73  1  0.13613955  0.38321316  0.52590607  1
  O  O74  1  0.13205578  0.88011367  0.02844158  1
  O  O75  1  0.13569021  0.88274972  0.52459446  1
  O  O76  1  0.63602934  0.38342313  0.02389759  1
  O  O77  1  0.63549809  0.38292264  0.52591975  1
  O  O78  1  0.63970960  0.88924918  0.02582297  1
  O  O79  1  0.63632096  0.88349188  0.52566890  1
  O  O80  1  0.35960449  0.10664968  0.47369374  1
  O  O81  1  0.36390625  0.10650405  0.97573351  1
  O  O82  1  0.36006674  0.60698631  0.47406651  1
  O  O83  1  0.35916491  0.60547662  0.97317184  1
  O  O84  1  0.86013505  0.10759747  0.47433849  1
  O  O85  1  0.86151688  0.10596376  0.97762755  1
  O  O86  1  0.86006971  0.60737140  0.47403601  1
  O  O87  1  0.85960164  0.60459004  0.97409565  1
  O  O88  1  0.38497867  0.39948752  0.03059558  1
  O  O89  1  0.38542447  0.39158523  0.52438728  1
  O  O90  1  0.38771895  0.89154140  0.02550438  1
  O  O91  1  0.38652946  0.89245567  0.52615689  1
  O  O92  1  0.88583262  0.39101290  0.02176151  1
  O  O93  1  0.88596742  0.39281718  0.52570362  1
  O  O94  1  0.88826589  0.89297909  0.02965596  1
  O  O95  1  0.88526406  0.89163228  0.52420310  1
  O  O96  1  0.10448917  0.12185908  0.14069376  1
  O  O97  1  0.10431976  0.12141078  0.64112141  1
  O  O98  1  0.10693689  0.62308727  0.14076573  1
  O  O99  1  0.10416065  0.62131144  0.64148356  1
  O  O100  1  0.61286596  0.12116636  0.14134217  1
  O  O101  1  0.60411757  0.12238894  0.64091522  1
  O  O102  1  0.61279502  0.62357013  0.14077821  1
  O  O103  1  0.60483497  0.62012745  0.64247136  1
  O  O104  1  0.46277435  0.37941073  0.35775973  1
  O  O105  1  0.47430570  0.37989902  0.85921924  1
  O  O106  1  0.46047313  0.87814115  0.35798104  1
  O  O107  1  0.46105798  0.87939974  0.85999509  1
  O  O108  1  0.96265943  0.37830763  0.35853245  1
  O  O109  1  0.96233557  0.37953318  0.86025318  1
  O  O110  1  0.96290387  0.87849021  0.35703946  1
  O  O111  1  0.96212856  0.87923846  0.86084968  1
  O  O112  1  0.35615496  0.26656780  0.14094366  1
  O  O113  1  0.35501178  0.27028812  0.64155115  1
  O  O114  1  0.35817588  0.76492857  0.14043460  1
  O  O115  1  0.35432228  0.77006447  0.64129587  1
  O  O116  1  0.85391308  0.26801402  0.14023445  1
  O  O117  1  0.85318001  0.27062766  0.64180448  1
  O  O118  1  0.86191290  0.76976115  0.14032354  1
  O  O119  1  0.85471307  0.77036692  0.64159041  1
  O  O120  1  0.21111010  0.22734282  0.35699418  1
  O  O121  1  0.21647076  0.23157739  0.86054587  1
  O  O122  1  0.21433603  0.73031466  0.35849194  1
  O  O123  1  0.21248080  0.73059739  0.86014346  1
  O  O124  1  0.71277845  0.23026646  0.35834878  1
  O  O125  1  0.71395623  0.23196365  0.85986193  1
  O  O126  1  0.70982858  0.72862402  0.35742303  1
  O  O127  1  0.71191665  0.73237322  0.86086804  1
  O  O128  1  0.42273823  0.06642680  0.24911008  1
  O  O129  1  0.42299627  0.07005596  0.75056167  1
  O  O130  1  0.41552112  0.56920420  0.24372417  1
  O  O131  1  0.42194847  0.56935092  0.75008190  1
  O  O132  1  0.91586953  0.06985200  0.24443296  1
  O  O133  1  0.92306888  0.06981888  0.75084789  1
  O  O134  1  0.92438378  0.56789215  0.24937585  1
  O  O135  1  0.92198240  0.56880243  0.75097314  1
  O  O136  1  0.17283683  0.43045704  0.24972876  1
  O  O137  1  0.17367305  0.43095424  0.75143003  1
  O  O138  1  0.16605147  0.92517121  0.24403106  1
  O  O139  1  0.17247867  0.93163933  0.75036755  1
  O  O140  1  0.67149795  0.43173400  0.24925134  1
  O  O141  1  0.67250530  0.43139235  0.75637653  1
  O  O142  1  0.67379739  0.93051355  0.24955951  1
  O  O143  1  0.67225795  0.93199404  0.75026262  1
