# generated using pymatgen
data_KLa5(CCl5)2
_symmetry_space_group_name_H-M   'P 1'
_cell_length_a   8.61971137
_cell_length_b   14.99181686
_cell_length_c   15.27557989
_cell_angle_alpha   90.00000000
_cell_angle_beta   90.00000000
_cell_angle_gamma   90.36525627
_symmetry_Int_Tables_number   1
_chemical_formula_structural   KLa5(CCl5)2
_chemical_formula_sum   'K4 La20 C8 Cl40'
_cell_volume   1973.94875102
_cell_formula_units_Z   4
loop_
 _symmetry_equiv_pos_site_id
 _symmetry_equiv_pos_as_xyz
  1  'x, y, z'
loop_
 _atom_site_type_symbol
 _atom_site_label
 _atom_site_symmetry_multiplicity
 _atom_site_fract_x
 _atom_site_fract_y
 _atom_site_fract_z
 _atom_site_occupancy
  K  K0  1  0.75235201  0.23736912  0.54751797  1
  K  K1  1  0.25235201  0.73736912  0.95248203  1
  K  K2  1  0.24764799  0.76263088  0.45248203  1
  K  K3  1  0.74764799  0.26263088  0.04751797  1
  La  La4  1  0.64932504  0.76931229  0.75532339  1
  La  La5  1  0.24925672  0.41525138  0.53634963  1
  La  La6  1  0.25074328  0.08474862  0.03634963  1
  La  La7  1  0.07746123  0.54099680  0.73534207  1
  La  La8  1  0.75074328  0.58474862  0.46365037  1
  La  La9  1  0.85067496  0.73068771  0.25532339  1
  La  La10  1  0.25118780  0.07826667  0.44037917  1
  La  La11  1  0.75118780  0.57826667  0.05962083  1
  La  La12  1  0.52404447  0.44023825  0.74034646  1
  La  La13  1  0.92253877  0.45900320  0.26465793  1
  La  La14  1  0.47595553  0.55976175  0.25965354  1
  La  La15  1  0.42253877  0.95900320  0.23534207  1
  La  La16  1  0.02404447  0.94023825  0.75965354  1
  La  La17  1  0.57746123  0.04099680  0.76465793  1
  La  La18  1  0.74881220  0.92173333  0.55962083  1
  La  La19  1  0.97595553  0.05976175  0.24034646  1
  La  La20  1  0.14932504  0.26931229  0.74467661  1
  La  La21  1  0.74925672  0.91525138  0.96365037  1
  La  La22  1  0.24881220  0.42173333  0.94037917  1
  La  La23  1  0.35067496  0.23068771  0.24467661  1
  C  C24  1  0.74923932  0.91764283  0.71257104  1
  C  C25  1  0.75076068  0.58235717  0.21257104  1
  C  C26  1  0.75194332  0.91770475  0.80931568  1
  C  C27  1  0.24805668  0.08229525  0.19068432  1
  C  C28  1  0.74805668  0.58229525  0.30931568  1
  C  C29  1  0.25194332  0.41770475  0.69068432  1
  C  C30  1  0.24923932  0.41764283  0.78742896  1
  C  C31  1  0.25076068  0.08235717  0.28742896  1
  Cl  Cl32  1  0.12141293  0.23413371  0.55739266  1
  Cl  Cl33  1  0.03453256  0.56796673  0.91952214  1
  Cl  Cl34  1  0.11539931  0.87291444  0.27323680  1
  Cl  Cl35  1  0.49880008  0.75585144  0.26132266  1
  Cl  Cl36  1  0.58120840  0.08646338  0.94904412  1
  Cl  Cl37  1  0.00119992  0.74414856  0.76132266  1
  Cl  Cl38  1  0.87858707  0.76586629  0.44260734  1
  Cl  Cl39  1  0.09420653  0.93385383  0.57170970  1
  Cl  Cl40  1  0.57802301  0.41868556  0.55482809  1
  Cl  Cl41  1  0.56678646  0.76208344  0.57212409  1
  Cl  Cl42  1  0.06678646  0.26208344  0.92787591  1
  Cl  Cl43  1  0.75459386  0.91234416  0.18640428  1
  Cl  Cl44  1  0.50119992  0.24414856  0.73867734  1
  Cl  Cl45  1  0.88460069  0.12708556  0.72676320  1
  Cl  Cl46  1  0.36593118  0.87721299  0.76965443  1
  Cl  Cl47  1  0.42197699  0.58131444  0.44517191  1
  Cl  Cl48  1  0.61539931  0.37291444  0.22676320  1
  Cl  Cl49  1  0.40579347  0.56614617  0.07170970  1
  Cl  Cl50  1  0.74540614  0.58765584  0.68640428  1
  Cl  Cl51  1  0.46546744  0.93203327  0.41952214  1
  Cl  Cl52  1  0.91879160  0.41353662  0.44904412  1
  Cl  Cl53  1  0.90579347  0.06614617  0.42829030  1
  Cl  Cl54  1  0.93321354  0.73791656  0.07212409  1
  Cl  Cl55  1  0.86593118  0.37721299  0.73034557  1
  Cl  Cl56  1  0.24540614  0.08765584  0.81359572  1
  Cl  Cl57  1  0.08120840  0.58646338  0.55095588  1
  Cl  Cl58  1  0.96546744  0.43203327  0.08047786  1
  Cl  Cl59  1  0.92197699  0.08131444  0.05482809  1
  Cl  Cl60  1  0.62141293  0.73413371  0.94260734  1
  Cl  Cl61  1  0.41879160  0.91353662  0.05095588  1
  Cl  Cl62  1  0.43321354  0.23791656  0.42787591  1
  Cl  Cl63  1  0.99880008  0.25585144  0.23867734  1
  Cl  Cl64  1  0.37858707  0.26586629  0.05739266  1
  Cl  Cl65  1  0.38460069  0.62708556  0.77323680  1
  Cl  Cl66  1  0.53453256  0.06796673  0.58047786  1
  Cl  Cl67  1  0.63406882  0.12278701  0.23034557  1
  Cl  Cl68  1  0.25459386  0.41234416  0.31359572  1
  Cl  Cl69  1  0.07802301  0.91868556  0.94517191  1
  Cl  Cl70  1  0.13406882  0.62278701  0.26965443  1
  Cl  Cl71  1  0.59420653  0.43385383  0.92829030  1
