# generated using pymatgen
data_TaP2Se2Cl5
_symmetry_space_group_name_H-M   'P 1'
_cell_length_a   6.91207616
_cell_length_b   14.05919758
_cell_length_c   27.59213944
_cell_angle_alpha   90.00000000
_cell_angle_beta   93.94525144
_cell_angle_gamma   90.00000000
_symmetry_Int_Tables_number   1
_chemical_formula_structural   TaP2Se2Cl5
_chemical_formula_sum   'Ta8 P16 Se16 Cl40'
_cell_volume   2675.00152870
_cell_formula_units_Z   8
loop_
 _symmetry_equiv_pos_site_id
 _symmetry_equiv_pos_as_xyz
  1  'x, y, z'
loop_
 _atom_site_type_symbol
 _atom_site_label
 _atom_site_symmetry_multiplicity
 _atom_site_fract_x
 _atom_site_fract_y
 _atom_site_fract_z
 _atom_site_occupancy
  Ta  Ta0  1  0.28512459  0.20980751  0.02843525  1
  Ta  Ta1  1  0.78512459  0.29019249  0.52843525  1
  Ta  Ta2  1  0.66823691  0.61047561  0.70088276  1
  Ta  Ta3  1  0.33176309  0.38952439  0.29911724  1
  Ta  Ta4  1  0.83176309  0.11047561  0.79911724  1
  Ta  Ta5  1  0.21487541  0.70980751  0.47156475  1
  Ta  Ta6  1  0.16823691  0.88952439  0.20088276  1
  Ta  Ta7  1  0.71487541  0.79019249  0.97156475  1
  P  P8  1  0.43299645  0.33873785  0.09922348  1
  P  P9  1  0.58945496  0.57607294  0.11806637  1
  P  P10  1  0.56700355  0.66126215  0.90077652  1
  P  P11  1  0.45286193  0.40931032  0.20520643  1
  P  P12  1  0.27492117  0.92176293  0.35726087  1
  P  P13  1  0.95286193  0.09068968  0.70520643  1
  P  P14  1  0.06700355  0.83873785  0.40077652  1
  P  P15  1  0.77492117  0.57823707  0.85726087  1
  P  P16  1  0.72507883  0.07823707  0.64273913  1
  P  P17  1  0.41054504  0.42392706  0.88193363  1
  P  P18  1  0.93299645  0.16126215  0.59922348  1
  P  P19  1  0.22507883  0.42176293  0.14273913  1
  P  P20  1  0.08945496  0.92392706  0.61806637  1
  P  P21  1  0.54713807  0.59068968  0.79479357  1
  P  P22  1  0.91054504  0.07607294  0.38193363  1
  P  P23  1  0.04713807  0.90931032  0.29479357  1
  Se  Se24  1  0.64069278  0.44681147  0.07018363  1
  Se  Se25  1  0.24476231  0.07063527  0.38292343  1
  Se  Se26  1  0.25523769  0.57063527  0.11707657  1
  Se  Se27  1  0.05617351  0.22816229  0.67054415  1
  Se  Se28  1  0.33573677  0.46935077  0.80316376  1
  Se  Se29  1  0.85930722  0.94681147  0.42981637  1
  Se  Se30  1  0.16426323  0.96935077  0.69683624  1
  Se  Se31  1  0.14069278  0.05318853  0.57018363  1
  Se  Se32  1  0.66426323  0.53064923  0.19683624  1
  Se  Se33  1  0.83573677  0.03064923  0.30316376  1
  Se  Se34  1  0.44382649  0.72816229  0.82945585  1
  Se  Se35  1  0.35930722  0.55318853  0.92981637  1
  Se  Se36  1  0.55617351  0.27183771  0.17054415  1
  Se  Se37  1  0.74476231  0.42936473  0.88292343  1
  Se  Se38  1  0.75523769  0.92936473  0.61707657  1
  Se  Se39  1  0.94382649  0.77183771  0.32945585  1
  Cl  Cl40  1  0.60358054  0.48227550  0.32186464  1
  Cl  Cl41  1  0.28441605  0.86910598  0.12614422  1
  Cl  Cl42  1  0.55313218  0.30973661  0.58518734  1
  Cl  Cl43  1  0.05313218  0.19026339  0.08518734  1
  Cl  Cl44  1  0.94451851  0.75978336  0.51203946  1
  Cl  Cl45  1  0.37272170  0.85136315  0.49734868  1
  Cl  Cl46  1  0.48855355  0.10501849  0.07341885  1
  Cl  Cl47  1  0.96023222  0.75708809  0.20183245  1
  Cl  Cl48  1  0.44451851  0.74021664  0.01203946  1
  Cl  Cl49  1  0.51144645  0.89498151  0.92658115  1
  Cl  Cl50  1  0.71558395  0.13089402  0.87385578  1
  Cl  Cl51  1  0.21558395  0.36910598  0.37385578  1
  Cl  Cl52  1  0.90570233  0.70061639  0.74470178  1
  Cl  Cl53  1  0.39641946  0.51772450  0.67813536  1
  Cl  Cl54  1  0.46023222  0.74291191  0.70183245  1
  Cl  Cl55  1  0.78441605  0.63089402  0.62614422  1
  Cl  Cl56  1  0.55548149  0.25978336  0.98796054  1
  Cl  Cl57  1  0.16747942  0.52812036  0.27413683  1
  Cl  Cl58  1  0.83252058  0.47187964  0.72586317  1
  Cl  Cl59  1  0.89641946  0.98227550  0.17813536  1
  Cl  Cl60  1  0.84347161  0.89131022  0.02968971  1
  Cl  Cl61  1  0.94686782  0.80973661  0.91481266  1
  Cl  Cl62  1  0.44686782  0.69026339  0.41481266  1
  Cl  Cl63  1  0.10358054  0.01772450  0.82186464  1
  Cl  Cl64  1  0.40570233  0.79938361  0.24470178  1
  Cl  Cl65  1  0.66747942  0.97187964  0.77413683  1
  Cl  Cl66  1  0.65652839  0.39131022  0.47031029  1
  Cl  Cl67  1  0.59429767  0.20061639  0.75529822  1
  Cl  Cl68  1  0.01144645  0.60501849  0.42658115  1
  Cl  Cl69  1  0.09429767  0.29938361  0.25529822  1
  Cl  Cl70  1  0.87272170  0.64863685  0.99734868  1
  Cl  Cl71  1  0.98855355  0.39498151  0.57341885  1
  Cl  Cl72  1  0.62727830  0.14863685  0.50265132  1
  Cl  Cl73  1  0.03976778  0.24291191  0.79816755  1
  Cl  Cl74  1  0.05548149  0.24021664  0.48796054  1
  Cl  Cl75  1  0.33252058  0.02812036  0.22586317  1
  Cl  Cl76  1  0.53976778  0.25708809  0.29816755  1
  Cl  Cl77  1  0.34347161  0.60868978  0.52968971  1
  Cl  Cl78  1  0.12727830  0.35136315  0.00265132  1
  Cl  Cl79  1  0.15652839  0.10868978  0.97031029  1
