# generated using pymatgen
data_Dy4InRh
_symmetry_space_group_name_H-M   'P 1'
_cell_length_a   9.65731059
_cell_length_b   9.65731007
_cell_length_c   9.65730974
_cell_angle_alpha   59.99999763
_cell_angle_beta   59.99999941
_cell_angle_gamma   59.99999579
_symmetry_Int_Tables_number   1
_chemical_formula_structural   Dy4InRh
_chemical_formula_sum   'Dy16 In4 Rh4'
_cell_volume   636.87399172
_cell_formula_units_Z   4
loop_
 _symmetry_equiv_pos_site_id
 _symmetry_equiv_pos_as_xyz
  1  'x, y, z'
loop_
 _atom_site_type_symbol
 _atom_site_label
 _atom_site_symmetry_multiplicity
 _atom_site_fract_x
 _atom_site_fract_y
 _atom_site_fract_z
 _atom_site_occupancy
  Dy  Dy0  1  0.81090899  0.81090899  0.18909101  1
  Dy  Dy1  1  0.81090899  0.18909101  0.18909101  1
  Dy  Dy2  1  0.18909101  0.81090899  0.18909101  1
  Dy  Dy3  1  0.56206657  0.93793343  0.93793343  1
  Dy  Dy4  1  0.34981074  0.34981074  0.95056777  1
  Dy  Dy5  1  0.93793343  0.56206657  0.93793343  1
  Dy  Dy6  1  0.34981074  0.95056777  0.34981074  1
  Dy  Dy7  1  0.18909101  0.81090899  0.81090899  1
  Dy  Dy8  1  0.56206657  0.56206657  0.93793343  1
  Dy  Dy9  1  0.93793343  0.56206657  0.56206657  1
  Dy  Dy10  1  0.93793343  0.93793343  0.56206657  1
  Dy  Dy11  1  0.56206657  0.93793343  0.56206657  1
  Dy  Dy12  1  0.34981074  0.34981074  0.34981074  1
  Dy  Dy13  1  0.18909101  0.18909101  0.81090899  1
  Dy  Dy14  1  0.81090899  0.18909101  0.81090899  1
  Dy  Dy15  1  0.95056777  0.34981074  0.34981074  1
  In  In16  1  0.58273289  0.58273289  0.25180132  1
  In  In17  1  0.25180132  0.58273289  0.58273289  1
  In  In18  1  0.58273289  0.58273289  0.58273289  1
  In  In19  1  0.58273289  0.25180132  0.58273289  1
  Rh  Rh20  1  0.14250332  0.57249005  0.14250332  1
  Rh  Rh21  1  0.57249005  0.14250332  0.14250332  1
  Rh  Rh22  1  0.14250332  0.14250332  0.57249005  1
  Rh  Rh23  1  0.14250332  0.14250332  0.14250332  1
