# generated using pymatgen
data_Sr2Ca6Mn7FeO24
_symmetry_space_group_name_H-M   'P 1'
_cell_length_a   7.67309364
_cell_length_b   7.67431576
_cell_length_c   7.67431576
_cell_angle_alpha   89.98334698
_cell_angle_beta   90.00000000
_cell_angle_gamma   90.00000000
_symmetry_Int_Tables_number   1
_chemical_formula_structural   Sr2Ca6Mn7FeO24
_chemical_formula_sum   'Sr2 Ca6 Mn7 Fe1 O24'
_cell_volume   451.90777003
_cell_formula_units_Z   1
loop_
 _symmetry_equiv_pos_site_id
 _symmetry_equiv_pos_as_xyz
  1  'x, y, z'
loop_
 _atom_site_type_symbol
 _atom_site_label
 _atom_site_symmetry_multiplicity
 _atom_site_fract_x
 _atom_site_fract_y
 _atom_site_fract_z
 _atom_site_occupancy
  Sr  Sr0  1  0.24986349  0.24983651  0.75016349  1
  Sr  Sr1  1  0.75013651  0.24983651  0.75016349  1
  Ca  Ca2  1  0.24999743  0.24993939  0.24990784  1
  Ca  Ca3  1  0.24992939  0.75009846  0.24990154  1
  Ca  Ca4  1  0.24999743  0.75009216  0.75006061  1
  Ca  Ca5  1  0.75000257  0.24993939  0.24990784  1
  Ca  Ca6  1  0.75007061  0.75009846  0.24990154  1
  Ca  Ca7  1  0.75000257  0.75009216  0.75006061  1
  Mn  Mn8  1  0.00000000  0.99861231  0.49879294  1
  Mn  Mn9  1  0.00000000  0.50120706  0.00138769  1
  Mn  Mn10  1  0.00000000  0.50112695  0.49887305  1
  Mn  Mn11  1  0.50000000  0.99855848  0.00144152  1
  Mn  Mn12  1  0.50000000  0.99878180  0.49891515  1
  Mn  Mn13  1  0.50000000  0.50108485  0.00121820  1
  Mn  Mn14  1  0.50000000  0.50122502  0.49877498  1
  Fe  Fe15  1  0.00000000  0.99865533  0.00134467  1
  O  O16  1  0.25458816  0.99667788  0.00332212  1
  O  O17  1  0.25082217  0.99652944  0.49644873  1
  O  O18  1  0.25082217  0.50355127  0.00347056  1
  O  O19  1  0.25027584  0.50348897  0.49651103  1
  O  O20  1  0.74541184  0.99667788  0.00332212  1
  O  O21  1  0.74917783  0.99652944  0.49644873  1
  O  O22  1  0.74917783  0.50355127  0.00347056  1
  O  O23  1  0.74972416  0.50348897  0.49651103  1
  O  O24  1  0.00000000  0.25450255  0.00558571  1
  O  O25  1  0.00000000  0.25086629  0.49371615  1
  O  O26  1  0.00000000  0.74529044  0.00122957  1
  O  O27  1  0.00000000  0.74917996  0.49904181  1
  O  O28  1  0.50000000  0.25082744  0.00632769  1
  O  O29  1  0.50000000  0.25030785  0.49365121  1
  O  O30  1  0.50000000  0.74918700  0.00072976  1
  O  O31  1  0.50000000  0.74973350  0.49929310  1
  O  O32  1  0.00000000  0.99877043  0.25470956  1
  O  O33  1  0.00000000  0.99441429  0.74549745  1
  O  O34  1  0.00000000  0.50095819  0.25082004  1
  O  O35  1  0.00000000  0.50628385  0.74913371  1
  O  O36  1  0.50000000  0.99927024  0.25081300  1
  O  O37  1  0.50000000  0.99367231  0.74917256  1
  O  O38  1  0.50000000  0.50070690  0.25026650  1
  O  O39  1  0.50000000  0.50634879  0.74969215  1
