# generated using pymatgen
data_Sr3(SnP2)2
_symmetry_space_group_name_H-M   'P 1'
_cell_length_a   12.72159016
_cell_length_b   14.19851497
_cell_length_c   18.90317884
_cell_angle_alpha   90.00000000
_cell_angle_beta   90.00000000
_cell_angle_gamma   116.61480804
_symmetry_Int_Tables_number   1
_chemical_formula_structural   Sr3(SnP2)2
_chemical_formula_sum   'Sr36 Sn24 P48'
_cell_volume   3052.63852286
_cell_formula_units_Z   12
loop_
 _symmetry_equiv_pos_site_id
 _symmetry_equiv_pos_as_xyz
  1  'x, y, z'
loop_
 _atom_site_type_symbol
 _atom_site_label
 _atom_site_symmetry_multiplicity
 _atom_site_fract_x
 _atom_site_fract_y
 _atom_site_fract_z
 _atom_site_occupancy
  Sr  Sr0  1  0.12664109  0.83367354  0.36808634  1
  Sr  Sr1  1  0.93556538  0.00000000  0.27132670  1
  Sr  Sr2  1  0.61919462  0.33741387  0.24060971  1
  Sr  Sr3  1  0.11919462  0.33741387  0.25939029  1
  Sr  Sr4  1  0.96597097  0.51169027  0.12735851  1
  Sr  Sr5  1  0.38080538  0.66258613  0.75939029  1
  Sr  Sr6  1  0.79296755  0.16632646  0.13191366  1
  Sr  Sr7  1  0.87335891  0.16632646  0.63191366  1
  Sr  Sr8  1  0.71821925  0.33741387  0.75939029  1
  Sr  Sr9  1  0.06443462  0.00000000  0.72867330  1
  Sr  Sr10  1  0.43556538  0.00000000  0.22867330  1
  Sr  Sr11  1  0.21821925  0.33741387  0.74060971  1
  Sr  Sr12  1  0.03402903  0.48830973  0.87264149  1
  Sr  Sr13  1  0.29296755  0.16632646  0.36808634  1
  Sr  Sr14  1  0.37335891  0.16632646  0.86808634  1
  Sr  Sr15  1  0.00000000  0.00000000  0.00000000  1
  Sr  Sr16  1  0.46597097  0.51169027  0.37264149  1
  Sr  Sr17  1  0.82467523  0.64935045  0.50000000  1
  Sr  Sr18  1  0.54571930  0.51169027  0.87264149  1
  Sr  Sr19  1  0.78178075  0.66258613  0.25939029  1
  Sr  Sr20  1  0.28178075  0.66258613  0.24060971  1
  Sr  Sr21  1  0.62664109  0.83367354  0.13191366  1
  Sr  Sr22  1  0.04571930  0.51169027  0.62735851  1
  Sr  Sr23  1  0.17532477  0.35064955  0.50000000  1
  Sr  Sr24  1  0.53402903  0.48830973  0.62735851  1
  Sr  Sr25  1  0.20703245  0.83367354  0.86808634  1
  Sr  Sr26  1  0.45428070  0.48830973  0.12735851  1
  Sr  Sr27  1  0.56443462  0.00000000  0.77132670  1
  Sr  Sr28  1  0.50000000  0.00000000  0.00000000  1
  Sr  Sr29  1  0.50000000  0.00000000  0.50000000  1
  Sr  Sr30  1  0.70703245  0.83367354  0.63191366  1
  Sr  Sr31  1  0.32467523  0.64935045  0.00000000  1
  Sr  Sr32  1  0.95428070  0.48830973  0.37264149  1
  Sr  Sr33  1  0.67532477  0.35064955  0.00000000  1
  Sr  Sr34  1  0.88080538  0.66258613  0.74060971  1
  Sr  Sr35  1  0.00000000  0.00000000  0.50000000  1
  Sn  Sn36  1  0.76564418  0.82937451  0.82166753  1
  Sn  Sn37  1  0.06373033  0.82937451  0.17833247  1
  Sn  Sn38  1  0.62750299  0.83582725  0.93540977  1
  Sn  Sn39  1  0.90370194  0.67613433  0.93901084  1
  Sn  Sn40  1  0.37249701  0.16417275  0.06459023  1
  Sn  Sn41  1  0.29167574  0.16417275  0.56459023  1
  Sn  Sn42  1  0.27243240  0.67613433  0.43901084  1
  Sn  Sn43  1  0.26564418  0.82937451  0.67833247  1
  Sn  Sn44  1  0.43626967  0.17062549  0.67833247  1
  Sn  Sn45  1  0.73435582  0.17062549  0.32166753  1
  Sn  Sn46  1  0.23435582  0.17062549  0.17833247  1
  Sn  Sn47  1  0.87249701  0.16417275  0.43540977  1
  Sn  Sn48  1  0.20832426  0.83582725  0.06459023  1
  Sn  Sn49  1  0.79167574  0.16417275  0.93540977  1
  Sn  Sn50  1  0.77243240  0.67613433  0.06098916  1
  Sn  Sn51  1  0.12750299  0.83582725  0.56459023  1
  Sn  Sn52  1  0.22756760  0.32386567  0.93901084  1
  Sn  Sn53  1  0.56373033  0.82937451  0.32166753  1
  Sn  Sn54  1  0.70832426  0.83582725  0.43540977  1
  Sn  Sn55  1  0.09629806  0.32386567  0.06098916  1
  Sn  Sn56  1  0.72756760  0.32386567  0.56098916  1
  Sn  Sn57  1  0.93626967  0.17062549  0.82166753  1
  Sn  Sn58  1  0.59629806  0.32386567  0.43901084  1
  Sn  Sn59  1  0.40370194  0.67613433  0.56098916  1
  P  P60  1  0.21381045  0.50831984  0.37323762  1
  P  P61  1  0.61932417  0.15403679  0.63546001  1
  P  P62  1  0.20549062  0.49168016  0.12676238  1
  P  P63  1  0.28618955  0.49168016  0.87323762  1
  P  P64  1  0.38067583  0.84596321  0.36453999  1
  P  P65  1  0.88432259  0.82619241  0.38437334  1
  P  P66  1  0.29450938  0.50831984  0.62676238  1
  P  P67  1  0.94186983  0.82619241  0.61562666  1
  P  P68  1  0.44186983  0.82619241  0.88437334  1
  P  P69  1  0.58885011  0.66933783  0.51032054  1
  P  P70  1  0.74990548  0.00000000  0.01285228  1
  P  P71  1  0.71381045  0.50831984  0.12676238  1
  P  P72  1  0.81592529  0.00000000  0.74944961  1
  P  P73  1  0.41114989  0.33066217  0.48967946  1
  P  P74  1  0.46495973  0.32866995  0.75152370  1
  P  P75  1  0.58048771  0.66933783  0.01032054  1
  P  P76  1  0.36371022  0.32866995  0.25152370  1
  P  P77  1  0.11567741  0.17380759  0.61562666  1
  P  P78  1  0.03504027  0.67133005  0.25152370  1
  P  P79  1  0.70549062  0.49168016  0.37323762  1
  P  P80  1  0.88067583  0.84596321  0.13546001  1
  P  P81  1  0.18407471  0.00000000  0.25055039  1
  P  P82  1  0.24990548  0.00000000  0.48714772  1
  P  P83  1  0.96495973  0.32866995  0.74847630  1
  P  P84  1  0.91114989  0.33066217  0.01032054  1
  P  P85  1  0.53471263  0.15403679  0.36453999  1
  P  P86  1  0.79450938  0.50831984  0.87323762  1
  P  P87  1  0.68407471  0.00000000  0.24944961  1
  P  P88  1  0.31592529  0.00000000  0.75055039  1
  P  P89  1  0.63628978  0.67133005  0.74847630  1
  P  P90  1  0.25009452  0.00000000  0.98714772  1
  P  P91  1  0.53504027  0.67133005  0.24847630  1
  P  P92  1  0.86371022  0.32866995  0.24847630  1
  P  P93  1  0.75009452  0.00000000  0.51285228  1
  P  P94  1  0.61567741  0.17380759  0.88437334  1
  P  P95  1  0.05813017  0.17380759  0.38437334  1
  P  P96  1  0.13628978  0.67133005  0.75152370  1
  P  P97  1  0.96528737  0.84596321  0.86453999  1
  P  P98  1  0.91951229  0.33066217  0.51032054  1
  P  P99  1  0.46528737  0.84596321  0.63546001  1
  P  P100  1  0.11932417  0.15403679  0.86453999  1
  P  P101  1  0.55813017  0.17380759  0.11562666  1
  P  P102  1  0.78618955  0.49168016  0.62676238  1
  P  P103  1  0.03471263  0.15403679  0.13546001  1
  P  P104  1  0.08885011  0.66933783  0.98967946  1
  P  P105  1  0.38432259  0.82619241  0.11562666  1
  P  P106  1  0.08048771  0.66933783  0.48967946  1
  P  P107  1  0.41951229  0.33066217  0.98967946  1
