# generated using pymatgen
data_CsK2Ho(PO4)2
_symmetry_space_group_name_H-M   'P 1'
_cell_length_a   5.69448167
_cell_length_b   5.69448119
_cell_length_c   8.16320532
_cell_angle_alpha   89.99732787
_cell_angle_beta   90.00267213
_cell_angle_gamma   120.01446398
_symmetry_Int_Tables_number   1
_chemical_formula_structural   CsK2Ho(PO4)2
_chemical_formula_sum   'Cs1 K2 Ho1 P2 O8'
_cell_volume   229.21149654
_cell_formula_units_Z   1
loop_
 _symmetry_equiv_pos_site_id
 _symmetry_equiv_pos_as_xyz
  1  'x, y, z'
loop_
 _atom_site_type_symbol
 _atom_site_label
 _atom_site_symmetry_multiplicity
 _atom_site_fract_x
 _atom_site_fract_y
 _atom_site_fract_z
 _atom_site_occupancy
  Cs  Cs0  1  0.00000000  0.00000000  0.50000000  1
  K  K1  1  0.33337263  0.66662737  0.25709424  1
  K  K2  1  0.66662737  0.33337263  0.74290576  1
  Ho  Ho3  1  0.00000000  0.00000000  0.00000000  1
  P  P4  1  0.66680783  0.33319217  0.22757000  1
  P  P5  1  0.33319217  0.66680783  0.77243000  1
  O  O6  1  0.81600431  0.18399569  0.16172653  1
  O  O7  1  0.33381277  0.66618723  0.58518173  1
  O  O8  1  0.66618723  0.33381277  0.41481827  1
  O  O9  1  0.36927258  0.18395059  0.16057422  1
  O  O10  1  0.18395059  0.36927258  0.83942578  1
  O  O11  1  0.18399569  0.81600431  0.83827347  1
  O  O12  1  0.63072742  0.81604941  0.83942578  1
  O  O13  1  0.81604941  0.63072742  0.16057422  1
