# generated using pymatgen
data_Cs2UHg2Se5
_symmetry_space_group_name_H-M   'P 1'
_cell_length_a   4.37681405
_cell_length_b   10.45064726
_cell_length_c   15.76345971
_cell_angle_alpha   102.51560470
_cell_angle_beta   90.00000000
_cell_angle_gamma   90.00000000
_symmetry_Int_Tables_number   1
_chemical_formula_structural   Cs2UHg2Se5
_chemical_formula_sum   'Cs4 U2 Hg4 Se10'
_cell_volume   703.89535603
_cell_formula_units_Z   2
loop_
 _symmetry_equiv_pos_site_id
 _symmetry_equiv_pos_as_xyz
  1  'x, y, z'
loop_
 _atom_site_type_symbol
 _atom_site_label
 _atom_site_symmetry_multiplicity
 _atom_site_fract_x
 _atom_site_fract_y
 _atom_site_fract_z
 _atom_site_occupancy
  Cs  Cs0  1  0.31352707  0.28479574  0.05417356  1
  Cs  Cs1  1  0.31352707  0.21520426  0.44582644  1
  Cs  Cs2  1  0.68647293  0.78479574  0.55417356  1
  Cs  Cs3  1  0.68647293  0.71520426  0.94582644  1
  U  U4  1  0.20544375  0.75000000  0.25000000  1
  U  U5  1  0.79455625  0.25000000  0.75000000  1
  Hg  Hg6  1  0.62739909  0.46734925  0.29720714  1
  Hg  Hg7  1  0.62739909  0.03265075  0.20279286  1
  Hg  Hg8  1  0.37260091  0.96734925  0.79720714  1
  Hg  Hg9  1  0.37260091  0.53265075  0.70279286  1
  Se  Se10  1  0.18080265  0.89984134  0.11769692  1
  Se  Se11  1  0.29561743  0.10281012  0.65657958  1
  Se  Se12  1  0.70438257  0.89718988  0.34342042  1
  Se  Se13  1  0.81919735  0.10015866  0.88230308  1
  Se  Se14  1  0.81919735  0.39984134  0.61769692  1
  Se  Se15  1  0.29561743  0.39718988  0.84342042  1
  Se  Se16  1  0.91996769  0.25000000  0.25000000  1
  Se  Se17  1  0.70438257  0.60281012  0.15657958  1
  Se  Se18  1  0.18080265  0.60015866  0.38230308  1
  Se  Se19  1  0.08003231  0.75000000  0.75000000  1
