# generated using pymatgen
data_Eu(InAs)2
_symmetry_space_group_name_H-M   'P 1'
_cell_length_a   4.32183774
_cell_length_b   4.31719042
_cell_length_c   17.75253973
_cell_angle_alpha   89.88800055
_cell_angle_beta   90.02145230
_cell_angle_gamma   119.92951590
_symmetry_Int_Tables_number   1
_chemical_formula_structural   Eu(InAs)2
_chemical_formula_sum   'Eu2 In4 As4'
_cell_volume   287.05682114
_cell_formula_units_Z   2
loop_
 _symmetry_equiv_pos_site_id
 _symmetry_equiv_pos_as_xyz
  1  'x, y, z'
loop_
 _atom_site_type_symbol
 _atom_site_label
 _atom_site_symmetry_multiplicity
 _atom_site_fract_x
 _atom_site_fract_y
 _atom_site_fract_z
 _atom_site_occupancy
  Eu  Eu0  1  0.99989529  0.00000071  0.50001997  1
  Eu  Eu1  1  0.00006861  0.99987906  0.00002752  1
  In  In2  1  0.33320354  0.66968443  0.82958146  1
  In  In3  1  0.66895468  0.33637190  0.32994570  1
  In  In4  1  0.66685838  0.33034036  0.17041001  1
  In  In5  1  0.33114257  0.66369866  0.67002749  1
  As  As6  1  0.66686652  0.33292510  0.60399741  1
  As  As7  1  0.66730829  0.33456619  0.89560659  1
  As  As8  1  0.33261687  0.66543856  0.10441183  1
  As  As9  1  0.33308523  0.66709503  0.39597202  1
