# generated using pymatgen
data_CsTiMnOF5
_symmetry_space_group_name_H-M   'P 1'
_cell_length_a   7.55180403
_cell_length_b   7.40526985
_cell_length_c   7.55180322
_cell_angle_alpha   60.63982361
_cell_angle_beta   60.60255411
_cell_angle_gamma   60.63982131
_symmetry_Int_Tables_number   1
_chemical_formula_structural   CsTiMnOF5
_chemical_formula_sum   'Cs2 Ti2 Mn2 O2 F10'
_cell_volume   302.85640145
_cell_formula_units_Z   2
loop_
 _symmetry_equiv_pos_site_id
 _symmetry_equiv_pos_as_xyz
  1  'x, y, z'
loop_
 _atom_site_type_symbol
 _atom_site_label
 _atom_site_symmetry_multiplicity
 _atom_site_fract_x
 _atom_site_fract_y
 _atom_site_fract_z
 _atom_site_occupancy
  Cs  Cs0  1  0.37107036  0.37892964  0.37107036  1
  Cs  Cs1  1  0.62892964  0.62107036  0.62892964  1
  Ti  Ti2  1  0.00000000  0.00000000  0.00000000  1
  Ti  Ti3  1  0.00000000  0.50000000  0.00000000  1
  Mn  Mn4  1  0.50000000  0.00000000  0.00000000  1
  Mn  Mn5  1  0.00000000  0.00000000  0.50000000  1
  O  O6  1  0.02416615  0.72583385  0.02416615  1
  O  O7  1  0.97583385  0.27416615  0.97583385  1
  F  F8  1  0.05458166  0.10205480  0.68939689  1
  F  F9  1  0.05458166  0.65396665  0.68939689  1
  F  F10  1  0.68939689  0.10205480  0.05458166  1
  F  F11  1  0.33210234  0.91789766  0.33210234  1
  F  F12  1  0.31060311  0.34603335  0.94541834  1
  F  F13  1  0.68939689  0.65396665  0.05458166  1
  F  F14  1  0.66789766  0.08210234  0.66789766  1
  F  F15  1  0.94541834  0.34603335  0.31060311  1
  F  F16  1  0.31060311  0.89794520  0.94541834  1
  F  F17  1  0.94541834  0.89794520  0.31060311  1
