# generated using pymatgen
data_Ba7Sr(Cu2O5)4
_symmetry_space_group_name_H-M   'P 1'
_cell_length_a   11.35643317
_cell_length_b   11.34413702
_cell_length_c   18.78132881
_cell_angle_alpha   107.58613922
_cell_angle_beta   107.61117821
_cell_angle_gamma   90.02231035
_symmetry_Int_Tables_number   1
_chemical_formula_structural   Ba7Sr(Cu2O5)4
_chemical_formula_sum   'Ba28 Sr4 Cu32 O80'
_cell_volume   2187.14440506
_cell_formula_units_Z   4
loop_
 _symmetry_equiv_pos_site_id
 _symmetry_equiv_pos_as_xyz
  1  'x, y, z'
loop_
 _atom_site_type_symbol
 _atom_site_label
 _atom_site_symmetry_multiplicity
 _atom_site_fract_x
 _atom_site_fract_y
 _atom_site_fract_z
 _atom_site_occupancy
  Ba  Ba0  1  0.30696832  0.05588907  0.11258280  1
  Ba  Ba1  1  0.30779598  0.05789594  0.61609010  1
  Ba  Ba2  1  0.30663117  0.55411128  0.11211970  1
  Ba  Ba3  1  0.80536413  0.05615596  0.11281016  1
  Ba  Ba4  1  0.80710442  0.05800315  0.61485152  1
  Ba  Ba5  1  0.80545949  0.55414611  0.11239488  1
  Ba  Ba6  1  0.80666877  0.55543392  0.61360001  1
  Ba  Ba7  1  0.19423996  0.44389843  0.38860317  1
  Ba  Ba8  1  0.19273100  0.44200663  0.88447592  1
  Ba  Ba9  1  0.19467579  0.94736849  0.38934751  1
  Ba  Ba10  1  0.19271570  0.94379520  0.88527390  1
  Ba  Ba11  1  0.69433001  0.44385899  0.38845347  1
  Ba  Ba12  1  0.69195798  0.44277597  0.88452388  1
  Ba  Ba13  1  0.69409648  0.94699671  0.38862683  1
  Ba  Ba14  1  0.69205134  0.94309416  0.88572009  1
  Ba  Ba15  1  0.05636680  0.30784666  0.11300665  1
  Ba  Ba16  1  0.05651238  0.80735760  0.11346894  1
  Ba  Ba17  1  0.05709355  0.80620511  0.61357610  1
  Ba  Ba18  1  0.55611980  0.30737692  0.11273985  1
  Ba  Ba19  1  0.55600171  0.80731912  0.11275152  1
  Ba  Ba20  1  0.55627291  0.80728939  0.61362746  1
  Ba  Ba21  1  0.44346338  0.19362758  0.38816376  1
  Ba  Ba22  1  0.44298816  0.69237631  0.38783932  1
  Ba  Ba23  1  0.44345065  0.69220799  0.88575988  1
  Ba  Ba24  1  0.94501157  0.19392091  0.38847982  1
  Ba  Ba25  1  0.94293529  0.19278361  0.88645918  1
  Ba  Ba26  1  0.94459312  0.69247200  0.38811336  1
  Ba  Ba27  1  0.94388698  0.69308949  0.88693716  1
  Sr  Sr28  1  0.30628468  0.55478334  0.60746265  1
  Sr  Sr29  1  0.05579876  0.30248346  0.60668865  1
  Sr  Sr30  1  0.55402807  0.30137746  0.60628587  1
  Sr  Sr31  1  0.44876317  0.19844316  0.89267402  1
  Cu  Cu32  1  0.00038709  0.99949987  0.99906365  1
  Cu  Cu33  1  0.00299706  0.00260263  0.50416297  1
  Cu  Cu34  1  0.00044764  0.49951049  0.99913551  1
  Cu  Cu35  1  0.00590074  0.50314113  0.50772191  1
  Cu  Cu36  1  0.49842086  0.99817420  0.99559267  1
  Cu  Cu37  1  0.50227767  0.00217797  0.50347671  1
  Cu  Cu38  1  0.49991409  0.49897419  0.99809753  1
  Cu  Cu39  1  0.50432142  0.50332561  0.50801829  1
  Cu  Cu40  1  0.24988884  0.24790205  0.99606706  1
  Cu  Cu41  1  0.25684023  0.25563772  0.51064962  1
  Cu  Cu42  1  0.25091264  0.74913362  0.99938838  1
  Cu  Cu43  1  0.25221606  0.75116309  0.50281032  1
  Cu  Cu44  1  0.74826684  0.24777663  0.99553213  1
  Cu  Cu45  1  0.75542141  0.25375275  0.50767608  1
  Cu  Cu46  1  0.75080597  0.74942206  0.00005184  1
  Cu  Cu47  1  0.75175589  0.75100600  0.50202944  1
  Cu  Cu48  1  0.11572692  0.09816035  0.25015302  1
  Cu  Cu49  1  0.11866046  0.10110347  0.75000132  1
  Cu  Cu50  1  0.11589022  0.59793049  0.25048840  1
  Cu  Cu51  1  0.11555359  0.58929548  0.74648114  1
  Cu  Cu52  1  0.61579851  0.09846923  0.25021779  1
  Cu  Cu53  1  0.61277710  0.10177349  0.75203592  1
  Cu  Cu54  1  0.61583870  0.59774142  0.25059127  1
  Cu  Cu55  1  0.60724458  0.58776428  0.74446146  1
  Cu  Cu56  1  0.36567975  0.40166712  0.25036825  1
  Cu  Cu57  1  0.36004864  0.40228734  0.74461413  1
  Cu  Cu58  1  0.36564112  0.90238405  0.25033414  1
  Cu  Cu59  1  0.36600789  0.90498307  0.75184918  1
  Cu  Cu60  1  0.86578780  0.40172470  0.25033928  1
  Cu  Cu61  1  0.86102418  0.40318851  0.74658897  1
  Cu  Cu62  1  0.86542104  0.90246691  0.25025202  1
  Cu  Cu63  1  0.86472559  0.90458426  0.74979260  1
  O  O64  1  0.12391162  0.12950856  0.50289036  1
  O  O65  1  0.12361178  0.12471028  0.99752895  1
  O  O66  1  0.12839027  0.62456782  0.50207842  1
  O  O67  1  0.12302179  0.62460234  0.99781985  1
  O  O68  1  0.62325981  0.12885957  0.50245929  1
  O  O69  1  0.61940408  0.12555501  0.99485658  1
  O  O70  1  0.62377232  0.62544786  0.49953129  1
  O  O71  1  0.62236311  0.62355765  0.99705366  1
  O  O72  1  0.12437045  0.37424229  0.99975239  1
  O  O73  1  0.13064187  0.37885863  0.50891561  1
  O  O74  1  0.12506445  0.87428105  0.00093971  1
  O  O75  1  0.12605625  0.87581345  0.50346090  1
  O  O76  1  0.62030166  0.37222083  0.99789363  1
  O  O77  1  0.62527624  0.37464729  0.50587959  1
  O  O78  1  0.62488080  0.87434096  0.00042218  1
  O  O79  1  0.62502952  0.87647066  0.50259065  1
  O  O80  1  0.37795225  0.12770277  0.50235286  1
  O  O81  1  0.37459842  0.12405104  0.99443590  1
  O  O82  1  0.37226490  0.62322469  0.50153371  1
  O  O83  1  0.37302178  0.62172565  0.99686658  1
  O  O84  1  0.87753835  0.12705190  0.50177007  1
  O  O85  1  0.87272831  0.12280940  0.99763216  1
  O  O86  1  0.87420659  0.62342910  0.49968790  1
  O  O87  1  0.87275580  0.62325836  0.99778692  1
  O  O88  1  0.37631604  0.37337941  0.99787241  1
  O  O89  1  0.37872229  0.38009271  0.50862421  1
  O  O90  1  0.37376982  0.87652495  0.00053842  1
  O  O91  1  0.37569424  0.87822245  0.50379148  1
  O  O92  1  0.87434003  0.37685319  0.00055470  1
  O  O93  1  0.88087553  0.37665862  0.50618075  1
  O  O94  1  0.87370078  0.87629184  0.00099646  1
  O  O95  1  0.87558541  0.87830406  0.50294415  1
  O  O96  1  0.07420087  0.08548556  0.14524911  1
  O  O97  1  0.07461865  0.09637126  0.64614823  1
  O  O98  1  0.07451092  0.58491758  0.14548524  1
  O  O99  1  0.07999968  0.58002289  0.64192586  1
  O  O100  1  0.57389396  0.08602902  0.14548919  1
  O  O101  1  0.57267074  0.09641267  0.64821450  1
  O  O102  1  0.57421247  0.58473082  0.14568314  1
  O  O103  1  0.56625055  0.57969837  0.63920942  1
  O  O104  1  0.42880456  0.41360973  0.35496052  1
  O  O105  1  0.42567243  0.40617409  0.84807164  1
  O  O106  1  0.42923930  0.91508251  0.35515918  1
  O  O107  1  0.42931661  0.91696123  0.85699127  1
  O  O108  1  0.92993686  0.41369253  0.35490070  1
  O  O109  1  0.92358725  0.41400660  0.85125677  1
  O  O110  1  0.92954548  0.91502049  0.35497281  1
  O  O111  1  0.92782258  0.91512204  0.85417523  1
  O  O112  1  0.32440312  0.30981676  0.14543916  1
  O  O113  1  0.32651798  0.30966621  0.63894094  1
  O  O114  1  0.32428735  0.80914642  0.14554150  1
  O  O115  1  0.32845337  0.80427648  0.64885684  1
  O  O116  1  0.82326278  0.30991938  0.14538993  1
  O  O117  1  0.82760194  0.31028471  0.64127890  1
  O  O118  1  0.82372178  0.80905554  0.14551555  1
  O  O119  1  0.82345491  0.80977150  0.64543751  1
  O  O120  1  0.17883971  0.19081641  0.35468257  1
  O  O121  1  0.18808888  0.18876907  0.85569468  1
  O  O122  1  0.17909326  0.69116275  0.35532456  1
  O  O123  1  0.17955037  0.68479010  0.85072856  1
  O  O124  1  0.67951568  0.19075250  0.35506045  1
  O  O125  1  0.67716670  0.19113462  0.85852333  1
  O  O126  1  0.67954506  0.69142404  0.35532380  1
  O  O127  1  0.67500246  0.68233717  0.84856434  1
  O  O128  1  0.46564408  0.03698906  0.25046307  1
  O  O129  1  0.46269070  0.04789993  0.75747647  1
  O  O130  1  0.46557770  0.53646418  0.25035443  1
  O  O131  1  0.44964256  0.54376457  0.74298339  1
  O  O132  1  0.96547012  0.03676764  0.25015776  1
  O  O133  1  0.96901600  0.03638527  0.75036962  1
  O  O134  1  0.96550274  0.53630661  0.25010634  1
  O  O135  1  0.96317912  0.53902774  0.75015618  1
  O  O136  1  0.21556795  0.46362085  0.25094001  1
  O  O137  1  0.20211556  0.44338516  0.74155997  1
  O  O138  1  0.21557291  0.96418346  0.25079566  1
  O  O139  1  0.21390975  0.96300121  0.74720757  1
  O  O140  1  0.71563600  0.46369651  0.25085248  1
  O  O141  1  0.70171516  0.44761019  0.73972268  1
  O  O142  1  0.71497131  0.96371140  0.25014248  1
  O  O143  1  0.71461143  0.96834647  0.74932359  1
