# generated using pymatgen
data_TlV3(SeO6)2
_symmetry_space_group_name_H-M   'P 1'
_cell_length_a   7.16142981
_cell_length_b   7.16143000
_cell_length_c   11.82018168
_cell_angle_alpha   90.00000000
_cell_angle_beta   90.00000000
_cell_angle_gamma   119.99999918
_symmetry_Int_Tables_number   1
_chemical_formula_structural   TlV3(SeO6)2
_chemical_formula_sum   'Tl2 V6 Se4 O24'
_cell_volume   524.99392481
_cell_formula_units_Z   2
loop_
 _symmetry_equiv_pos_site_id
 _symmetry_equiv_pos_as_xyz
  1  'x, y, z'
loop_
 _atom_site_type_symbol
 _atom_site_label
 _atom_site_symmetry_multiplicity
 _atom_site_fract_x
 _atom_site_fract_y
 _atom_site_fract_z
 _atom_site_occupancy
  Tl  Tl0  1  0.66666700  0.33333300  0.43441915  1
  Tl  Tl1  1  0.33333300  0.66666700  0.93441915  1
  V  V2  1  0.79452008  0.66668858  0.10718577  1
  V  V3  1  0.66668858  0.87216851  0.60718577  1
  V  V4  1  0.33331142  0.12783149  0.10718577  1
  V  V5  1  0.87216851  0.20547992  0.10718577  1
  V  V6  1  0.12783149  0.79452008  0.60718577  1
  V  V7  1  0.20547992  0.33331142  0.60718577  1
  Se  Se8  1  0.00000000  0.00000000  0.32747303  1
  Se  Se9  1  0.33333300  0.66666700  0.38345813  1
  Se  Se10  1  0.00000000  0.00000000  0.82747303  1
  Se  Se11  1  0.66666700  0.33333300  0.88345813  1
  O  O12  1  0.41364770  0.21482421  0.94526717  1
  O  O13  1  0.08353848  0.54197558  0.63331066  1
  O  O14  1  0.12424926  0.25159841  0.07492209  1
  O  O15  1  0.87265085  0.12424926  0.57492209  1
  O  O16  1  0.87575074  0.74840159  0.57492209  1
  O  O17  1  0.74636354  0.86677931  0.76400087  1
  O  O18  1  0.78517579  0.19882349  0.94526717  1
  O  O19  1  0.25363646  0.13322069  0.26400087  1
  O  O20  1  0.58635230  0.78517579  0.44526717  1
  O  O21  1  0.12041576  0.25363646  0.76400087  1
  O  O22  1  0.54156290  0.08353848  0.13331066  1
  O  O23  1  0.25159841  0.12734915  0.57492209  1
  O  O24  1  0.80117651  0.58635230  0.94526717  1
  O  O25  1  0.45802442  0.54156290  0.63331066  1
  O  O26  1  0.21482421  0.80117651  0.44526717  1
  O  O27  1  0.86677931  0.12041576  0.26400087  1
  O  O28  1  0.87958424  0.74636354  0.26400087  1
  O  O29  1  0.91646152  0.45802442  0.13331066  1
  O  O30  1  0.19882349  0.41364770  0.44526717  1
  O  O31  1  0.74840159  0.87265085  0.07492209  1
  O  O32  1  0.12734915  0.87575074  0.07492209  1
  O  O33  1  0.13322069  0.87958424  0.76400087  1
  O  O34  1  0.45843710  0.91646152  0.63331066  1
  O  O35  1  0.54197558  0.45843710  0.13331066  1
