# generated using pymatgen
data_DyMoO4F
_symmetry_space_group_name_H-M   'P 1'
_cell_length_a   5.27003054
_cell_length_b   6.73406174
_cell_length_c   12.44382928
_cell_angle_alpha   90.00000000
_cell_angle_beta   90.00000000
_cell_angle_gamma   113.15477356
_symmetry_Int_Tables_number   1
_chemical_formula_structural   DyMoO4F
_chemical_formula_sum   'Dy4 Mo4 O16 F4'
_cell_volume   406.04157424
_cell_formula_units_Z   4
loop_
 _symmetry_equiv_pos_site_id
 _symmetry_equiv_pos_as_xyz
  1  'x, y, z'
loop_
 _atom_site_type_symbol
 _atom_site_label
 _atom_site_symmetry_multiplicity
 _atom_site_fract_x
 _atom_site_fract_y
 _atom_site_fract_z
 _atom_site_occupancy
  Dy  Dy0  1  0.36109120  0.69988071  0.55129801  1
  Dy  Dy1  1  0.36109120  0.19988071  0.94870199  1
  Dy  Dy2  1  0.63890880  0.80011929  0.05129801  1
  Dy  Dy3  1  0.63890880  0.30011929  0.44870199  1
  Mo  Mo4  1  0.92110964  0.86963617  0.35667285  1
  Mo  Mo5  1  0.07889036  0.63036383  0.85667285  1
  Mo  Mo6  1  0.07889036  0.13036383  0.64332715  1
  Mo  Mo7  1  0.92110964  0.36963617  0.14332715  1
  O  O8  1  0.00366732  0.83761052  0.93113156  1
  O  O9  1  0.80691867  0.29474819  0.27738400  1
  O  O10  1  0.30891902  0.53827340  0.93479442  1
  O  O11  1  0.23825914  0.09285244  0.34708632  1
  O  O12  1  0.00366732  0.33761052  0.56886844  1
  O  O13  1  0.76174086  0.40714756  0.84708632  1
  O  O14  1  0.19308133  0.20525181  0.77738400  1
  O  O15  1  0.23825914  0.59285244  0.15291368  1
  O  O16  1  0.99633268  0.16238948  0.06886844  1
  O  O17  1  0.99633268  0.66238948  0.43113156  1
  O  O18  1  0.80691867  0.79474819  0.22261600  1
  O  O19  1  0.69108098  0.96172660  0.43479442  1
  O  O20  1  0.69108098  0.46172660  0.06520558  1
  O  O21  1  0.30891902  0.03827340  0.56520558  1
  O  O22  1  0.19308133  0.70525181  0.72261600  1
  O  O23  1  0.76174086  0.90714756  0.65291368  1
  F  F24  1  0.45487362  0.03599510  0.09760757  1
  F  F25  1  0.54512638  0.46400490  0.59760757  1
  F  F26  1  0.45487362  0.53599510  0.40239243  1
  F  F27  1  0.54512638  0.96400490  0.90239243  1
