# generated using pymatgen
data_RbFeH4Cl3O2
_symmetry_space_group_name_H-M   'P 1'
_cell_length_a   8.98861353
_cell_length_b   7.04036322
_cell_length_c   11.43691480
_cell_angle_alpha   90.00000000
_cell_angle_beta   90.00000000
_cell_angle_gamma   90.00000000
_symmetry_Int_Tables_number   1
_chemical_formula_structural   RbFeH4Cl3O2
_chemical_formula_sum   'Rb4 Fe4 H16 Cl12 O8'
_cell_volume   723.76346982
_cell_formula_units_Z   4
loop_
 _symmetry_equiv_pos_site_id
 _symmetry_equiv_pos_as_xyz
  1  'x, y, z'
loop_
 _atom_site_type_symbol
 _atom_site_label
 _atom_site_symmetry_multiplicity
 _atom_site_fract_x
 _atom_site_fract_y
 _atom_site_fract_z
 _atom_site_occupancy
  Rb  Rb0  1  0.25000000  0.00000000  0.65031213  1
  Rb  Rb1  1  0.75000000  0.00000000  0.84968787  1
  Rb  Rb2  1  0.75000000  0.00000000  0.34968787  1
  Rb  Rb3  1  0.25000000  0.00000000  0.15031213  1
  Fe  Fe4  1  0.00000000  0.53126678  0.75000000  1
  Fe  Fe5  1  0.50000000  0.46873322  0.75000000  1
  Fe  Fe6  1  0.00000000  0.46873322  0.25000000  1
  Fe  Fe7  1  0.50000000  0.53126678  0.25000000  1
  H  H8  1  0.02466577  0.30418480  0.94814822  1
  H  H9  1  0.47533423  0.69581520  0.94814822  1
  H  H10  1  0.52466577  0.69581520  0.55185178  1
  H  H11  1  0.97533423  0.30418480  0.55185178  1
  H  H12  1  0.97533423  0.69581520  0.05185178  1
  H  H13  1  0.52466577  0.30418480  0.05185178  1
  H  H14  1  0.47533423  0.30418480  0.44814822  1
  H  H15  1  0.02466577  0.69581520  0.44814822  1
  H  H16  1  0.18240766  0.29841528  0.88475761  1
  H  H17  1  0.31759234  0.70158472  0.88475761  1
  H  H18  1  0.68240766  0.70158472  0.61524239  1
  H  H19  1  0.81759234  0.29841528  0.61524239  1
  H  H20  1  0.81759234  0.70158472  0.11524239  1
  H  H21  1  0.68240766  0.29841528  0.11524239  1
  H  H22  1  0.31759234  0.29841528  0.38475761  1
  H  H23  1  0.18240766  0.70158472  0.38475761  1
  Cl  Cl24  1  0.25000000  0.50000000  0.64978503  1
  Cl  Cl25  1  0.75000000  0.50000000  0.85021497  1
  Cl  Cl26  1  0.75000000  0.50000000  0.35021497  1
  Cl  Cl27  1  0.25000000  0.50000000  0.14978503  1
  Cl  Cl28  1  0.08680741  0.79182334  0.88865486  1
  Cl  Cl29  1  0.41319259  0.20817666  0.88865486  1
  Cl  Cl30  1  0.58680741  0.20817666  0.61134514  1
  Cl  Cl31  1  0.91319259  0.79182334  0.61134514  1
  Cl  Cl32  1  0.91319259  0.20817666  0.11134514  1
  Cl  Cl33  1  0.58680741  0.79182334  0.11134514  1
  Cl  Cl34  1  0.41319259  0.79182334  0.38865486  1
  Cl  Cl35  1  0.08680741  0.20817666  0.38865486  1
  O  O36  1  0.07426275  0.31830411  0.87140979  1
  O  O37  1  0.42573725  0.68169589  0.87140979  1
  O  O38  1  0.57426275  0.68169589  0.62859021  1
  O  O39  1  0.92573725  0.31830411  0.62859021  1
  O  O40  1  0.92573725  0.68169589  0.12859021  1
  O  O41  1  0.57426275  0.31830411  0.12859021  1
  O  O42  1  0.42573725  0.31830411  0.37140979  1
  O  O43  1  0.07426275  0.68169589  0.37140979  1
