# generated using pymatgen
data_Yb19(Mg4H27)2
_symmetry_space_group_name_H-M   'P 1'
_cell_length_a   10.43857184
_cell_length_b   10.43857184
_cell_length_c   10.43857184
_cell_angle_alpha   109.47122063
_cell_angle_beta   109.47122063
_cell_angle_gamma   109.47122063
_symmetry_Int_Tables_number   1
_chemical_formula_structural   Yb19(Mg4H27)2
_chemical_formula_sum   'Yb19 Mg8 H54'
_cell_volume   875.59114779
_cell_formula_units_Z   1
loop_
 _symmetry_equiv_pos_site_id
 _symmetry_equiv_pos_as_xyz
  1  'x, y, z'
loop_
 _atom_site_type_symbol
 _atom_site_label
 _atom_site_symmetry_multiplicity
 _atom_site_fract_x
 _atom_site_fract_y
 _atom_site_fract_z
 _atom_site_occupancy
  Yb  Yb0  1  0.31154554  0.96594925  0.65440371  1
  Yb  Yb1  1  0.68845446  0.03405075  0.34559629  1
  Yb  Yb2  1  0.31154554  0.65714184  0.34559629  1
  Yb  Yb3  1  0.68845446  0.34285816  0.65440371  1
  Yb  Yb4  1  0.65440371  0.31154554  0.96594925  1
  Yb  Yb5  1  0.34559629  0.68845446  0.03405075  1
  Yb  Yb6  1  0.34559629  0.31154554  0.65714184  1
  Yb  Yb7  1  0.65440371  0.68845446  0.34285816  1
  Yb  Yb8  1  0.96594925  0.65440371  0.31154554  1
  Yb  Yb9  1  0.03405075  0.34559629  0.68845446  1
  Yb  Yb10  1  0.65714184  0.34559629  0.31154554  1
  Yb  Yb11  1  0.34285816  0.65440371  0.68845446  1
  Yb  Yb12  1  0.33287002  0.00000000  0.33287002  1
  Yb  Yb13  1  0.66712998  0.00000000  0.66712998  1
  Yb  Yb14  1  0.33287002  0.33287002  0.00000000  1
  Yb  Yb15  1  0.66712998  0.66712998  0.00000000  1
  Yb  Yb16  1  0.00000000  0.33287002  0.33287002  1
  Yb  Yb17  1  0.00000000  0.66712998  0.66712998  1
  Yb  Yb18  1  0.00000000  0.00000000  0.00000000  1
  Mg  Mg19  1  0.31465906  0.00000000  0.00000000  1
  Mg  Mg20  1  0.00000000  0.00000000  0.31465906  1
  Mg  Mg21  1  0.00000000  0.31465906  0.00000000  1
  Mg  Mg22  1  0.68534094  0.68534094  0.68534094  1
  Mg  Mg23  1  0.68534094  0.00000000  0.00000000  1
  Mg  Mg24  1  0.00000000  0.00000000  0.68534094  1
  Mg  Mg25  1  0.00000000  0.68534094  0.00000000  1
  Mg  Mg26  1  0.31465906  0.31465906  0.31465906  1
  H  H27  1  0.42539042  0.94629361  0.14449175  1
  H  H28  1  0.19819814  0.05370639  0.47909681  1
  H  H29  1  0.80180186  0.28089868  0.85550825  1
  H  H30  1  0.57460958  0.71910132  0.52090319  1
  H  H31  1  0.14449175  0.42539042  0.94629361  1
  H  H32  1  0.47909681  0.19819814  0.05370639  1
  H  H33  1  0.85550825  0.80180186  0.28089868  1
  H  H34  1  0.52090319  0.57460958  0.71910132  1
  H  H35  1  0.94629361  0.14449175  0.42539042  1
  H  H36  1  0.05370639  0.47909681  0.19819814  1
  H  H37  1  0.28089868  0.85550825  0.80180186  1
  H  H38  1  0.71910132  0.52090319  0.57460958  1
  H  H39  1  0.57460958  0.05370639  0.85550825  1
  H  H40  1  0.80180186  0.94629361  0.52090319  1
  H  H41  1  0.19819814  0.71910132  0.14449175  1
  H  H42  1  0.42539042  0.28089868  0.47909681  1
  H  H43  1  0.85550825  0.57460958  0.05370639  1
  H  H44  1  0.52090319  0.80180186  0.94629361  1
  H  H45  1  0.14449175  0.19819814  0.71910132  1
  H  H46  1  0.47909681  0.42539042  0.28089868  1
  H  H47  1  0.05370639  0.85550825  0.57460958  1
  H  H48  1  0.94629361  0.52090319  0.80180186  1
  H  H49  1  0.71910132  0.14449175  0.19819814  1
  H  H50  1  0.28089868  0.47909681  0.42539042  1
  H  H51  1  0.39846999  0.21753143  0.81906144  1
  H  H52  1  0.60153001  0.78246857  0.18093856  1
  H  H53  1  0.39846999  0.57940855  0.18093856  1
  H  H54  1  0.60153001  0.42059145  0.81906144  1
  H  H55  1  0.81906144  0.39846999  0.21753143  1
  H  H56  1  0.18093856  0.60153001  0.78246857  1
  H  H57  1  0.18093856  0.39846999  0.57940855  1
  H  H58  1  0.81906144  0.60153001  0.42059145  1
  H  H59  1  0.21753143  0.81906144  0.39846999  1
  H  H60  1  0.78246857  0.18093856  0.60153001  1
  H  H61  1  0.57940855  0.18093856  0.39846999  1
  H  H62  1  0.42059145  0.81906144  0.60153001  1
  H  H63  1  0.17082768  0.06235646  0.89152878  1
  H  H64  1  0.82917232  0.93764354  0.10847122  1
  H  H65  1  0.17082768  0.27929890  0.10847122  1
  H  H66  1  0.82917232  0.72070110  0.89152878  1
  H  H67  1  0.89152878  0.17082768  0.06235646  1
  H  H68  1  0.10847122  0.82917232  0.93764354  1
  H  H69  1  0.10847122  0.17082768  0.27929890  1
  H  H70  1  0.89152878  0.82917232  0.72070110  1
  H  H71  1  0.06235646  0.89152878  0.17082768  1
  H  H72  1  0.93764354  0.10847122  0.82917232  1
  H  H73  1  0.27929890  0.10847122  0.17082768  1
  H  H74  1  0.72070110  0.89152878  0.82917232  1
  H  H75  1  0.61720724  0.50000000  0.11720724  1
  H  H76  1  0.38279276  0.50000000  0.88279276  1
  H  H77  1  0.11720724  0.61720724  0.50000000  1
  H  H78  1  0.88279276  0.38279276  0.50000000  1
  H  H79  1  0.50000000  0.11720724  0.61720724  1
  H  H80  1  0.50000000  0.88279276  0.38279276  1
