# generated using pymatgen
data_Ba(PdO2)2
_symmetry_space_group_name_H-M   'P 1'
_cell_length_a   6.90436605
_cell_length_b   6.90436605
_cell_length_c   6.90436605
_cell_angle_alpha   124.99144999
_cell_angle_beta   124.99144999
_cell_angle_gamma   81.55219494
_symmetry_Int_Tables_number   1
_chemical_formula_structural   Ba(PdO2)2
_chemical_formula_sum   'Ba2 Pd4 O8'
_cell_volume   212.62604750
_cell_formula_units_Z   2
loop_
 _symmetry_equiv_pos_site_id
 _symmetry_equiv_pos_as_xyz
  1  'x, y, z'
loop_
 _atom_site_type_symbol
 _atom_site_label
 _atom_site_symmetry_multiplicity
 _atom_site_fract_x
 _atom_site_fract_y
 _atom_site_fract_z
 _atom_site_occupancy
  Ba  Ba0  1  0.37500000  0.12500000  0.25000000  1
  Ba  Ba1  1  0.62500000  0.87500000  0.75000000  1
  Pd  Pd2  1  0.50000000  0.50000000  0.00000000  1
  Pd  Pd3  1  0.00000000  0.00000000  0.50000000  1
  Pd  Pd4  1  0.00000000  0.50000000  0.00000000  1
  Pd  Pd5  1  0.00000000  0.50000000  0.50000000  1
  O  O6  1  0.98054159  0.31852724  0.13518521  1
  O  O7  1  0.81852724  0.18334203  0.33798565  1
  O  O8  1  0.34535639  0.48054159  0.16201435  1
  O  O9  1  0.31665797  0.15464361  0.63518521  1
  O  O10  1  0.68334203  0.84535639  0.36481479  1
  O  O11  1  0.65464361  0.51945841  0.83798565  1
  O  O12  1  0.18147276  0.81665797  0.66201435  1
  O  O13  1  0.01945841  0.68147276  0.86481479  1
