# generated using pymatgen
data_Sr2Ca2Co3CuO12
_symmetry_space_group_name_H-M   'P 1'
_cell_length_a   7.68443596
_cell_length_b   7.67687146
_cell_length_c   7.71952948
_cell_angle_alpha   90.00000000
_cell_angle_beta   90.00000000
_cell_angle_gamma   90.24415722
_symmetry_Int_Tables_number   1
_chemical_formula_structural   Sr2Ca2Co3CuO12
_chemical_formula_sum   'Sr4 Ca4 Co6 Cu2 O24'
_cell_volume   455.38964530
_cell_formula_units_Z   2
loop_
 _symmetry_equiv_pos_site_id
 _symmetry_equiv_pos_as_xyz
  1  'x, y, z'
loop_
 _atom_site_type_symbol
 _atom_site_label
 _atom_site_symmetry_multiplicity
 _atom_site_fract_x
 _atom_site_fract_y
 _atom_site_fract_z
 _atom_site_occupancy
  Sr  Sr0  1  0.24919948  0.24953936  0.25000000  1
  Sr  Sr1  1  0.24947803  0.24946287  0.75000000  1
  Sr  Sr2  1  0.75037859  0.24962509  0.75000000  1
  Sr  Sr3  1  0.75100064  0.75079685  0.25000000  1
  Ca  Ca4  1  0.24853104  0.75145609  0.25000000  1
  Ca  Ca5  1  0.24781576  0.75128283  0.75000000  1
  Ca  Ca6  1  0.75149335  0.24894653  0.25000000  1
  Ca  Ca7  1  0.75233164  0.75142783  0.75000000  1
  Co  Co8  1  0.99994455  0.50228564  0.00006017  1
  Co  Co9  1  0.99994455  0.50228564  0.49993983  1
  Co  Co10  1  0.50012539  0.99844290  0.99999902  1
  Co  Co11  1  0.50012539  0.99844290  0.50000098  1
  Co  Co12  1  0.50007993  0.50150844  0.00013320  1
  Co  Co13  1  0.50007993  0.50150844  0.49986680  1
  Cu  Cu14  1  0.99995195  0.00009905  -0.00000073  1
  Cu  Cu15  1  0.99995195  0.00009905  0.50000073  1
  O  O16  1  0.25585382  0.99219499  0.00010760  1
  O  O17  1  0.25585382  0.99219499  0.49989240  1
  O  O18  1  0.25269181  0.50695788  0.99982791  1
  O  O19  1  0.25269181  0.50695788  0.50017209  1
  O  O20  1  0.74411330  0.99847618  0.99975484  1
  O  O21  1  0.74411330  0.99847618  0.50024516  1
  O  O22  1  0.74716981  0.50260084  0.99971687  1
  O  O23  1  0.74716981  0.50260084  0.50028313  1
  O  O24  1  0.99657736  0.25677876  0.00313514  1
  O  O25  1  0.99657736  0.25677876  0.49686486  1
  O  O26  1  0.00294581  0.74489849  0.99742380  1
  O  O27  1  0.00294581  0.74489849  0.50257620  1
  O  O28  1  0.50250337  0.25274001  0.00244612  1
  O  O29  1  0.50250337  0.25274001  0.49755388  1
  O  O30  1  0.49792950  0.74713342  0.99796594  1
  O  O31  1  0.49792950  0.74713342  0.50203406  1
  O  O32  1  0.00037038  0.99731330  0.25000000  1
  O  O33  1  0.99967044  0.98685977  0.75000000  1
  O  O34  1  0.00042753  0.50298711  0.25000000  1
  O  O35  1  0.00000537  0.50634058  0.75000000  1
  O  O36  1  0.49975516  0.99777080  0.25000000  1
  O  O37  1  0.49998541  0.99045844  0.75000000  1
  O  O38  1  0.49957560  0.50293152  0.25000000  1
  O  O39  1  0.50020838  0.50456785  0.75000000  1
