# generated using pymatgen
data_YbN2
_symmetry_space_group_name_H-M   'P 1'
_cell_length_a   4.11262070
_cell_length_b   4.11261955
_cell_length_c   4.74192461
_cell_angle_alpha   90.00001385
_cell_angle_beta   89.99999662
_cell_angle_gamma   90.02571819
_symmetry_Int_Tables_number   1
_chemical_formula_structural   YbN2
_chemical_formula_sum   'Yb2 N4'
_cell_volume   80.20321818
_cell_formula_units_Z   2
loop_
 _symmetry_equiv_pos_site_id
 _symmetry_equiv_pos_as_xyz
  1  'x, y, z'
loop_
 _atom_site_type_symbol
 _atom_site_label
 _atom_site_symmetry_multiplicity
 _atom_site_fract_x
 _atom_site_fract_y
 _atom_site_fract_z
 _atom_site_occupancy
  Yb  Yb0  1  0.99999929  0.99999918  0.99999949  1
  Yb  Yb1  1  0.49999968  0.49999994  0.49999952  1
  N  N2  1  0.39318516  0.39318564  0.99999965  1
  N  N3  1  0.60681283  0.60681260  0.99999978  1
  N  N4  1  0.89329661  0.10670501  0.49999927  1
  N  N5  1  0.10670544  0.89329664  0.49999928  1
