# generated using pymatgen
data_Li2BeSiO4
_symmetry_space_group_name_H-M   'P 1'
_cell_length_a   4.75607457
_cell_length_b   4.99055984
_cell_length_c   6.15980267
_cell_angle_alpha   90.00000000
_cell_angle_beta   90.00277671
_cell_angle_gamma   90.00000000
_symmetry_Int_Tables_number   1
_chemical_formula_structural   Li2BeSiO4
_chemical_formula_sum   'Li4 Be2 Si2 O8'
_cell_volume   146.20584056
_cell_formula_units_Z   2
loop_
 _symmetry_equiv_pos_site_id
 _symmetry_equiv_pos_as_xyz
  1  'x, y, z'
loop_
 _atom_site_type_symbol
 _atom_site_label
 _atom_site_symmetry_multiplicity
 _atom_site_fract_x
 _atom_site_fract_y
 _atom_site_fract_z
 _atom_site_occupancy
  Li  Li0  1  0.99850436  0.17482790  0.49972193  1
  Li  Li1  1  0.49850436  0.82517210  0.99972193  1
  Li  Li2  1  0.49849694  0.33491683  0.74701476  1
  Li  Li3  1  0.99849694  0.66508317  0.24701476  1
  Be  Be4  1  0.50872862  0.31956341  0.24830861  1
  Be  Be5  1  0.00872862  0.68043659  0.74830861  1
  O  O6  1  0.35294939  0.20143051  0.02942523  1
  O  O7  1  0.35329789  0.70109104  0.71564808  1
  O  O8  1  0.91984906  0.86255343  0.96532353  1
  O  O9  1  0.85294939  0.79856949  0.52942523  1
  O  O10  1  0.41984906  0.13744657  0.46532353  1
  O  O11  1  0.91936792  0.35980750  0.78229308  1
  O  O12  1  0.41936792  0.64019250  0.28229308  1
  O  O13  1  0.85329789  0.29890896  0.21564808  1
  Si  Si14  1  0.00880583  0.18031419  0.99726478  1
  Si  Si15  1  0.50880583  0.81968581  0.49726478  1
