# generated using pymatgen
data_PmInPt2
_symmetry_space_group_name_H-M   'P 1'
_cell_length_a   4.89477976
_cell_length_b   4.89487590
_cell_length_c   4.89476207
_cell_angle_alpha   59.99993156
_cell_angle_beta   59.99998218
_cell_angle_gamma   60.00060330
_symmetry_Int_Tables_number   1
_chemical_formula_structural   PmInPt2
_chemical_formula_sum   'Pm1 In1 Pt2'
_cell_volume   82.92646011
_cell_formula_units_Z   1
loop_
 _symmetry_equiv_pos_site_id
 _symmetry_equiv_pos_as_xyz
  1  'x, y, z'
loop_
 _atom_site_type_symbol
 _atom_site_label
 _atom_site_symmetry_multiplicity
 _atom_site_fract_x
 _atom_site_fract_y
 _atom_site_fract_z
 _atom_site_occupancy
  Pm  Pm0  1  0.75000279  0.74999785  0.75000218  1
  In  In1  1  0.24999941  0.25000447  0.24999950  1
  Pt  Pt2  1  -0.00000043  0.00000042  0.99999850  1
  Pt  Pt3  1  0.50000023  0.49999926  0.50000182  1
