# generated using pymatgen
data_Sm2Au5F21
_symmetry_space_group_name_H-M   'P 1'
_cell_length_a   8.38386879
_cell_length_b   8.38386879
_cell_length_c   26.22385085
_cell_angle_alpha   90.00000000
_cell_angle_beta   90.00000000
_cell_angle_gamma   90.00000000
_symmetry_Int_Tables_number   1
_chemical_formula_structural   Sm2Au5F21
_chemical_formula_sum   'Sm8 Au20 F84'
_cell_volume   1843.25496276
_cell_formula_units_Z   4
loop_
 _symmetry_equiv_pos_site_id
 _symmetry_equiv_pos_as_xyz
  1  'x, y, z'
loop_
 _atom_site_type_symbol
 _atom_site_label
 _atom_site_symmetry_multiplicity
 _atom_site_fract_x
 _atom_site_fract_y
 _atom_site_fract_z
 _atom_site_occupancy
  F  F0  1  0.59702733  0.30663471  0.88017605  1
  F  F1  1  0.40297267  0.69336529  0.38017605  1
  F  F2  1  0.30663471  0.59702733  0.11982395  1
  F  F3  1  0.80663471  0.90297267  0.63017605  1
  F  F4  1  0.19336529  0.09702733  0.13017605  1
  F  F5  1  0.90297267  0.80663471  0.36982395  1
  F  F6  1  0.09702733  0.19336529  0.86982395  1
  F  F7  1  0.69336529  0.40297267  0.61982395  1
  F  F8  1  0.72090376  0.09375534  0.05383350  1
  F  F9  1  0.27909624  0.90624466  0.55383350  1
  F  F10  1  0.09375534  0.72090376  0.94616650  1
  F  F11  1  0.59375534  0.77909624  0.80383350  1
  F  F12  1  0.40624466  0.22090376  0.30383350  1
  F  F13  1  0.77909624  0.59375534  0.19616650  1
  F  F14  1  0.22090376  0.40624466  0.69616650  1
  F  F15  1  0.90624466  0.27909624  0.44616650  1
  F  F16  1  0.97536469  0.86295886  0.14094706  1
  F  F17  1  0.02463531  0.13704114  0.64094706  1
  F  F18  1  0.86295886  0.97536469  0.85905294  1
  F  F19  1  0.36295886  0.52463531  0.89094706  1
  F  F20  1  0.63704114  0.47536469  0.39094706  1
  F  F21  1  0.52463531  0.36295886  0.10905294  1
  F  F22  1  0.47536469  0.63704114  0.60905294  1
  F  F23  1  0.13704114  0.02463531  0.35905294  1
  F  F24  1  0.31385690  0.95940634  0.04261207  1
  F  F25  1  0.68614310  0.04059366  0.54261207  1
  F  F26  1  0.95940634  0.31385690  0.95738793  1
  F  F27  1  0.54059366  0.81385690  0.29261207  1
  F  F28  1  0.45940634  0.18614310  0.79261207  1
  F  F29  1  0.29485302  0.93918575  0.24841318  1
  F  F30  1  0.70514698  0.06081425  0.74841318  1
  F  F31  1  0.93918575  0.29485302  0.75158682  1
  F  F32  1  0.06081425  0.70514698  0.25158682  1
  F  F33  1  0.56081425  0.79485302  0.49841318  1
  F  F34  1  0.20514698  0.43918575  0.00158682  1
  F  F35  1  0.79485302  0.56081425  0.50158682  1
  F  F36  1  0.20030279  0.41291910  0.58924269  1
  F  F37  1  0.08708090  0.70030279  0.83924269  1
  F  F38  1  0.91291910  0.29969721  0.33924269  1
  F  F39  1  0.70030279  0.08708090  0.16075731  1
  F  F40  1  0.29969721  0.91291910  0.66075731  1
  F  F41  1  0.79969721  0.58708090  0.08924269  1
  F  F42  1  0.41291910  0.20030279  0.41075731  1
  F  F43  1  0.58708090  0.79969721  0.91075731  1
  F  F44  1  0.45161645  0.16973631  0.68978538  1
  F  F45  1  0.33026369  0.95161645  0.93978538  1
  F  F46  1  0.66973631  0.04838355  0.43978538  1
  F  F47  1  0.95161645  0.33026369  0.06021462  1
  F  F48  1  0.04838355  0.66973631  0.56021462  1
  F  F49  1  0.54838355  0.83026369  0.18978538  1
  F  F50  1  0.16973631  0.45161645  0.31021462  1
  F  F51  1  0.83026369  0.54838355  0.81021462  1
  F  F52  1  0.32584230  0.56440013  0.50056750  1
  F  F53  1  0.93559987  0.82584230  0.75056750  1
  F  F54  1  0.06440013  0.17415770  0.25056750  1
  F  F55  1  0.82584230  0.93559987  0.24943250  1
  F  F56  1  0.17415770  0.06440013  0.74943250  1
  F  F57  1  0.67415770  0.43559987  0.00056750  1
  F  F58  1  0.56440013  0.32584230  0.49943250  1
  F  F59  1  0.43559987  0.67415770  0.99943250  1
  F  F60  1  0.17374314  0.43324255  0.41520414  1
  F  F61  1  0.06675745  0.67374314  0.66520414  1
  F  F62  1  0.93324255  0.32625686  0.16520414  1
  F  F63  1  0.67374314  0.06675745  0.33479586  1
  F  F64  1  0.32625686  0.93324255  0.83479586  1
  F  F65  1  0.82625686  0.56675745  0.91520414  1
  F  F66  1  0.43324255  0.17374314  0.58479586  1
  F  F67  1  0.56675745  0.82625686  0.08479586  1
  F  F68  1  0.22160380  0.22160380  0.50000000  1
  F  F69  1  0.27839620  0.72160380  0.75000000  1
  F  F70  1  0.72160380  0.27839620  0.25000000  1
  F  F71  1  0.77839620  0.77839620  0.00000000  1
  F  F72  1  0.91209754  0.28694481  0.55183498  1
  F  F73  1  0.21305519  0.41209754  0.80183498  1
  F  F74  1  0.78694481  0.58790246  0.30183498  1
  F  F75  1  0.41209754  0.21305519  0.19816502  1
  F  F76  1  0.58790246  0.78694481  0.69816502  1
  F  F77  1  0.08790246  0.71305519  0.05183498  1
  F  F78  1  0.28694481  0.91209754  0.44816502  1
  F  F79  1  0.71305519  0.08790246  0.94816502  1
  F  F80  1  0.04059366  0.68614310  0.45738793  1
  F  F81  1  0.81385690  0.54059366  0.70738793  1
  F  F82  1  0.18614310  0.45940634  0.20738793  1
  F  F83  1  0.43918575  0.20514698  0.99841318  1
  Sm  Sm84  1  0.55580478  0.92951087  0.99839613  1
  Sm  Sm85  1  0.44419522  0.07048913  0.49839613  1
  Sm  Sm86  1  0.92951087  0.55580478  0.00160387  1
  Sm  Sm87  1  0.42951087  0.94419522  0.74839613  1
  Sm  Sm88  1  0.57048913  0.05580478  0.24839613  1
  Sm  Sm89  1  0.94419522  0.42951087  0.25160387  1
  Sm  Sm90  1  0.05580478  0.57048913  0.75160387  1
  Sm  Sm91  1  0.07048913  0.44419522  0.50160387  1
  Au  Au92  1  0.40626726  0.35574838  0.84201252  1
  Au  Au93  1  0.59373274  0.64425162  0.34201252  1
  Au  Au94  1  0.35574838  0.40626726  0.15798748  1
  Au  Au95  1  0.85574838  0.09373274  0.59201252  1
  Au  Au96  1  0.14425162  0.90626726  0.09201252  1
  Au  Au97  1  0.09373274  0.85574838  0.40798748  1
  Au  Au98  1  0.90626726  0.14425162  0.90798748  1
  Au  Au99  1  0.64425162  0.59373274  0.65798748  1
  Au  Au100  1  0.21140928  0.82235166  0.88948802  1
  Au  Au101  1  0.78859072  0.17764834  0.38948802  1
  Au  Au102  1  0.82235166  0.21140928  0.11051198  1
  Au  Au103  1  0.32235166  0.28859072  0.63948802  1
  Au  Au104  1  0.67764834  0.71140928  0.13948802  1
  Au  Au105  1  0.28859072  0.32235166  0.36051198  1
  Au  Au106  1  0.71140928  0.67764834  0.86051198  1
  Au  Au107  1  0.17764834  0.78859072  0.61051198  1
  Au  Au108  1  0.56099480  0.56099480  0.50000000  1
  Au  Au109  1  0.93900520  0.06099480  0.75000000  1
  Au  Au110  1  0.06099480  0.93900520  0.25000000  1
  Au  Au111  1  0.43900520  0.43900520  0.00000000  1
