# generated using pymatgen
data_La7SmMn8O24
_symmetry_space_group_name_H-M   'P 1'
_cell_length_a   7.87441303
_cell_length_b   7.87441303
_cell_length_c   7.87441303
_cell_angle_alpha   90.00000000
_cell_angle_beta   90.00000000
_cell_angle_gamma   90.00000000
_symmetry_Int_Tables_number   1
_chemical_formula_structural   La7SmMn8O24
_chemical_formula_sum   'La7 Sm1 Mn8 O24'
_cell_volume   488.26385108
_cell_formula_units_Z   1
loop_
 _symmetry_equiv_pos_site_id
 _symmetry_equiv_pos_as_xyz
  1  'x, y, z'
loop_
 _atom_site_type_symbol
 _atom_site_label
 _atom_site_symmetry_multiplicity
 _atom_site_fract_x
 _atom_site_fract_y
 _atom_site_fract_z
 _atom_site_occupancy
  La  La0  1  0.25000000  0.25000000  0.25000000  1
  La  La1  1  0.25000000  0.25000000  0.75000000  1
  La  La2  1  0.25000000  0.75000000  0.25000000  1
  La  La3  1  0.25000000  0.75000000  0.75000000  1
  La  La4  1  0.75000000  0.25000000  0.75000000  1
  La  La5  1  0.75000000  0.75000000  0.25000000  1
  La  La6  1  0.75000000  0.75000000  0.75000000  1
  Sm  Sm7  1  0.75000000  0.25000000  0.25000000  1
  Mn  Mn8  1  0.99956352  0.00043648  0.00043648  1
  Mn  Mn9  1  0.99956352  0.00043648  0.49956352  1
  Mn  Mn10  1  0.99956352  0.49956352  0.00043648  1
  Mn  Mn11  1  0.99956352  0.49956352  0.49956352  1
  Mn  Mn12  1  0.50043648  0.00043648  0.00043648  1
  Mn  Mn13  1  0.50043648  0.00043648  0.49956352  1
  Mn  Mn14  1  0.50043648  0.49956352  0.00043648  1
  Mn  Mn15  1  0.50043648  0.49956352  0.49956352  1
  O  O16  1  0.25000000  0.00005312  0.00005312  1
  O  O17  1  0.25000000  0.00005312  0.49994688  1
  O  O18  1  0.25000000  0.49994688  0.00005312  1
  O  O19  1  0.25000000  0.49994688  0.49994688  1
  O  O20  1  0.75000000  0.00185635  0.00185635  1
  O  O21  1  0.75000000  0.00185635  0.49814365  1
  O  O22  1  0.75000000  0.49814365  0.00185635  1
  O  O23  1  0.75000000  0.49814365  0.49814365  1
  O  O24  1  0.99814365  0.25000000  0.00185635  1
  O  O25  1  0.99814365  0.25000000  0.49814365  1
  O  O26  1  -0.00005312  0.75000000  0.00005312  1
  O  O27  1  -0.00005312  0.75000000  0.49994688  1
  O  O28  1  0.50185635  0.25000000  0.00185635  1
  O  O29  1  0.50185635  0.25000000  0.49814365  1
  O  O30  1  0.50005312  0.75000000  0.00005312  1
  O  O31  1  0.50005312  0.75000000  0.49994688  1
  O  O32  1  0.99814365  0.00185635  0.25000000  1
  O  O33  1  -0.00005312  0.00005312  0.75000000  1
  O  O34  1  0.99814365  0.49814365  0.25000000  1
  O  O35  1  -0.00005312  0.49994688  0.75000000  1
  O  O36  1  0.50185635  0.00185635  0.25000000  1
  O  O37  1  0.50005312  0.00005312  0.75000000  1
  O  O38  1  0.50185635  0.49814365  0.25000000  1
  O  O39  1  0.50005312  0.49994688  0.75000000  1
