# generated using pymatgen
data_Mg(AuF4)2
_symmetry_space_group_name_H-M   'P 1'
_cell_length_a   5.60729590
_cell_length_b   5.82521923
_cell_length_c   10.57139345
_cell_angle_alpha   90.00000000
_cell_angle_beta   100.42683018
_cell_angle_gamma   90.00000000
_symmetry_Int_Tables_number   1
_chemical_formula_structural   Mg(AuF4)2
_chemical_formula_sum   'Mg2 Au4 F16'
_cell_volume   339.59910305
_cell_formula_units_Z   2
loop_
 _symmetry_equiv_pos_site_id
 _symmetry_equiv_pos_as_xyz
  1  'x, y, z'
loop_
 _atom_site_type_symbol
 _atom_site_label
 _atom_site_symmetry_multiplicity
 _atom_site_fract_x
 _atom_site_fract_y
 _atom_site_fract_z
 _atom_site_occupancy
  F  F0  1  0.60769115  0.62505843  0.18214836  1
  F  F1  1  0.89230885  0.12505843  0.31785164  1
  F  F2  1  0.39230885  0.37494157  0.81785164  1
  F  F3  1  0.10769115  0.87494157  0.68214836  1
  F  F4  1  0.79695529  0.68206695  0.97163158  1
  F  F5  1  0.70304471  0.18206695  0.52836842  1
  F  F6  1  0.28082907  0.76989878  0.94387536  1
  F  F7  1  0.21917093  0.26989878  0.55612464  1
  F  F8  1  0.71917093  0.23010122  0.05612464  1
  F  F9  1  0.78082907  0.73010122  0.44387536  1
  F  F10  1  0.64305699  0.78605319  0.71652984  1
  F  F11  1  0.85694301  0.28605319  0.78347016  1
  F  F12  1  0.35694301  0.21394681  0.28347016  1
  F  F13  1  0.14305699  0.71394681  0.21652984  1
  F  F14  1  0.29695529  0.81793305  0.47163158  1
  F  F15  1  0.20304471  0.31793305  0.02836842  1
  Mg  Mg16  1  0.50000000  0.50000000  0.00000000  1
  Mg  Mg17  1  0.00000000  0.00000000  0.50000000  1
  Au  Au18  1  0.45745881  0.72379182  0.32836129  1
  Au  Au19  1  0.04254119  0.22379182  0.17163871  1
  Au  Au20  1  0.54254119  0.27620818  0.67163871  1
  Au  Au21  1  0.95745881  0.77620818  0.82836129  1
