# generated using pymatgen
data_NaCa9Mg(PO4)7
_symmetry_space_group_name_H-M   'P 1'
_cell_length_a   13.85165453
_cell_length_b   13.85165452
_cell_length_c   13.85165452
_cell_angle_alpha   44.28118610
_cell_angle_beta   44.28118612
_cell_angle_gamma   44.28118610
_symmetry_Int_Tables_number   1
_chemical_formula_structural   NaCa9Mg(PO4)7
_chemical_formula_sum   'Na2 Ca18 Mg2 P14 O56'
_cell_volume   1177.36296644
_cell_formula_units_Z   2
loop_
 _symmetry_equiv_pos_site_id
 _symmetry_equiv_pos_as_xyz
  1  'x, y, z'
loop_
 _atom_site_type_symbol
 _atom_site_label
 _atom_site_symmetry_multiplicity
 _atom_site_fract_x
 _atom_site_fract_y
 _atom_site_fract_z
 _atom_site_occupancy
  O  O0  1  0.11051879  0.67134083  0.68870973  1
  O  O1  1  0.67134083  0.68870973  0.11051879  1
  O  O2  1  0.68870973  0.11051879  0.67134083  1
  O  O3  1  0.18870973  0.17134083  0.61051879  1
  O  O4  1  0.17134083  0.61051879  0.18870973  1
  O  O5  1  0.61051879  0.18870973  0.17134083  1
  O  O6  1  0.36298612  0.61377957  0.63517151  1
  O  O7  1  0.61377957  0.63517151  0.36298612  1
  O  O8  1  0.63517151  0.36298612  0.61377957  1
  O  O9  1  0.13517151  0.11377957  0.86298612  1
  O  O10  1  0.11377957  0.86298612  0.13517151  1
  O  O11  1  0.86298612  0.13517151  0.11377957  1
  O  O12  1  0.12875108  0.85130386  0.67070651  1
  O  O13  1  0.85130386  0.67070651  0.12875108  1
  O  O14  1  0.67070651  0.12875108  0.85130386  1
  O  O15  1  0.17070651  0.35130386  0.62875108  1
  O  O16  1  0.35130386  0.62875108  0.17070651  1
  O  O17  1  0.62875108  0.17070651  0.35130386  1
  O  O18  1  0.14549819  0.58591088  0.89714010  1
  O  O19  1  0.58591088  0.89714010  0.14549819  1
  O  O20  1  0.89714010  0.14549819  0.58591088  1
  O  O21  1  0.39714010  0.08591088  0.64549819  1
  O  O22  1  0.37734435  0.84734034  0.63488499  1
  O  O23  1  0.08591088  0.64549819  0.39714010  1
  O  O24  1  0.14681653  0.87092072  0.87851428  1
  O  O25  1  0.87092072  0.87851428  0.14681653  1
  O  O26  1  0.87851428  0.14681653  0.87092072  1
  O  O27  1  0.37851428  0.37092072  0.64681653  1
  O  O28  1  0.37092072  0.64681653  0.37851428  1
  O  O29  1  0.64681653  0.37851428  0.37092072  1
  O  O30  1  0.33486565  0.60936502  0.89016794  1
  O  O31  1  0.60936502  0.89016794  0.33486565  1
  O  O32  1  0.89016794  0.33486565  0.60936502  1
  O  O33  1  0.39016794  0.10936502  0.83486565  1
  O  O34  1  0.10936502  0.83486565  0.39016794  1
  O  O35  1  0.83486565  0.39016794  0.10936502  1
  O  O36  1  0.30650371  0.30650371  0.30650371  1
  O  O37  1  0.80650371  0.80650371  0.80650371  1
  O  O38  1  0.25344086  0.10946124  0.39095156  1
  O  O39  1  0.39095156  0.25344086  0.10946124  1
  O  O40  1  0.10946124  0.39095156  0.25344086  1
  O  O41  1  0.60946124  0.75344086  0.89095156  1
  O  O42  1  0.89095156  0.60946124  0.75344086  1
  O  O43  1  0.75344086  0.89095156  0.60946124  1
  O  O44  1  0.91604629  0.34953034  0.25272465  1
  O  O45  1  0.25272465  0.91604629  0.34953034  1
  O  O46  1  0.34953034  0.25272465  0.91604629  1
  O  O47  1  0.84953034  0.41604629  0.75272465  1
  O  O48  1  0.75272465  0.84953034  0.41604629  1
  O  O49  1  0.41604629  0.75272465  0.84953034  1
  O  O50  1  0.87734435  0.13488499  0.34734034  1
  O  O51  1  0.34734034  0.87734435  0.13488499  1
  O  O52  1  0.13488499  0.34734034  0.87734435  1
  O  O53  1  0.63488499  0.37734435  0.84734034  1
  O  O54  1  0.84734034  0.63488499  0.37734435  1
  O  O55  1  0.64549819  0.39714010  0.08591088  1
  Na  Na56  1  0.18625343  0.18625343  0.18625343  1
  Na  Na57  1  0.68625343  0.68625343  0.68625343  1
  Mg  Mg58  1  0.00009536  0.00009536  0.00009536  1
  Mg  Mg59  1  0.50009536  0.50009536  0.50009536  1
  P  P60  1  0.18137885  0.68619652  0.22394657  1
  P  P61  1  0.68619652  0.22394657  0.18137885  1
  P  P62  1  0.32238426  0.77152789  0.80902229  1
  P  P63  1  0.77152789  0.80902229  0.32238426  1
  P  P64  1  0.80902229  0.32238426  0.77152789  1
  P  P65  1  0.30902229  0.27152789  0.82238426  1
  P  P66  1  0.27152789  0.82238426  0.30902229  1
  P  P67  1  0.82238426  0.30902229  0.27152789  1
  P  P68  1  0.76516499  0.76516499  0.76516499  1
  P  P69  1  0.26516499  0.26516499  0.26516499  1
  P  P70  1  0.22394657  0.18137885  0.68619652  1
  P  P71  1  0.72394657  0.18619652  0.68137885  1
  P  P72  1  0.68137885  0.72394657  0.18619652  1
  P  P73  1  0.18619652  0.68137885  0.72394657  1
  Ca  Ca74  1  0.94669172  0.55694784  0.97020523  1
  Ca  Ca75  1  0.55694784  0.97020523  0.94669172  1
  Ca  Ca76  1  0.97020523  0.94669172  0.55694784  1
  Ca  Ca77  1  0.47020523  0.05694784  0.44669172  1
  Ca  Ca78  1  0.05694784  0.44669172  0.47020523  1
  Ca  Ca79  1  0.44669172  0.47020523  0.05694784  1
  Ca  Ca80  1  0.34700107  0.90615215  0.93828905  1
  Ca  Ca81  1  0.90615215  0.93828905  0.34700107  1
  Ca  Ca82  1  0.93828905  0.34700107  0.90615215  1
  Ca  Ca83  1  0.43828905  0.40615215  0.84700107  1
  Ca  Ca84  1  0.40615215  0.84700107  0.43828905  1
  Ca  Ca85  1  0.84700107  0.43828905  0.40615215  1
  Ca  Ca86  1  0.65954110  0.07462718  0.06217885  1
  Ca  Ca87  1  0.07462718  0.06217885  0.65954110  1
  Ca  Ca88  1  0.06217885  0.65954110  0.07462718  1
  Ca  Ca89  1  0.56217885  0.57462718  0.15954110  1
  Ca  Ca90  1  0.57462718  0.15954110  0.56217885  1
  Ca  Ca91  1  0.15954110  0.56217885  0.57462718  1
