# generated using pymatgen
data_Ca3Tl2O6
_symmetry_space_group_name_H-M   'P 1'
_cell_length_a   3.37542525
_cell_length_b   11.38833145
_cell_length_c   16.75111122
_cell_angle_alpha   90.00000000
_cell_angle_beta   90.00000000
_cell_angle_gamma   90.00000000
_symmetry_Int_Tables_number   1
_chemical_formula_structural   Ca3Tl2O6
_chemical_formula_sum   'Ca12 Tl8 O24'
_cell_volume   643.92044647
_cell_formula_units_Z   4
loop_
 _symmetry_equiv_pos_site_id
 _symmetry_equiv_pos_as_xyz
  1  'x, y, z'
loop_
 _atom_site_type_symbol
 _atom_site_label
 _atom_site_symmetry_multiplicity
 _atom_site_fract_x
 _atom_site_fract_y
 _atom_site_fract_z
 _atom_site_occupancy
  O  O0  1  0.00000000  0.19197601  0.76180875  1
  O  O1  1  0.00000000  0.80802399  0.23819125  1
  O  O2  1  0.00000000  0.69197601  0.73819125  1
  O  O3  1  0.00000000  0.30802399  0.26180875  1
  O  O4  1  0.50000000  0.45657546  0.83359645  1
  O  O5  1  0.50000000  0.54342454  0.16640355  1
  O  O6  1  0.50000000  0.95657546  0.66640355  1
  O  O7  1  0.50000000  0.04342454  0.33359645  1
  O  O8  1  0.50000000  0.21608342  0.59572593  1
  O  O9  1  0.50000000  0.78391658  0.40427407  1
  O  O10  1  0.50000000  0.71608342  0.90427407  1
  O  O11  1  0.50000000  0.28391658  0.09572593  1
  O  O12  1  0.50000000  0.50000000  0.50000000  1
  O  O13  1  0.50000000  0.00000000  0.00000000  1
  O  O14  1  0.00000000  0.21942104  0.93209357  1
  O  O15  1  0.00000000  0.78057896  0.06790643  1
  O  O16  1  0.00000000  0.71942104  0.56790643  1
  O  O17  1  0.00000000  0.28057896  0.43209357  1
  O  O18  1  0.00000000  0.00000000  0.50000000  1
  O  O19  1  0.00000000  0.50000000  0.00000000  1
  O  O20  1  0.00000000  0.05278558  0.16017145  1
  O  O21  1  0.00000000  0.94721442  0.83982855  1
  O  O22  1  0.00000000  0.55278558  0.33982855  1
  O  O23  1  0.00000000  0.44721442  0.66017145  1
  Ca  Ca24  1  0.50000000  0.10416951  0.85466070  1
  Ca  Ca25  1  0.50000000  0.89583049  0.14533930  1
  Ca  Ca26  1  0.50000000  0.60416951  0.64533930  1
  Ca  Ca27  1  0.50000000  0.39583049  0.35466070  1
  Ca  Ca28  1  0.50000000  0.36664499  0.96012402  1
  Ca  Ca29  1  0.50000000  0.63335501  0.03987598  1
  Ca  Ca30  1  0.50000000  0.86664499  0.53987598  1
  Ca  Ca31  1  0.50000000  0.13335501  0.46012402  1
  Ca  Ca32  1  0.50000000  0.32859573  0.72527092  1
  Ca  Ca33  1  0.50000000  0.67140427  0.27472908  1
  Ca  Ca34  1  0.50000000  0.82859573  0.77472908  1
  Ca  Ca35  1  0.50000000  0.17140427  0.22527092  1
  Tl  Tl36  1  0.00000000  0.41520715  0.14893494  1
  Tl  Tl37  1  0.00000000  0.58479285  0.85106506  1
  Tl  Tl38  1  0.00000000  0.91520715  0.35106506  1
  Tl  Tl39  1  0.00000000  0.08479285  0.64893494  1
  Tl  Tl40  1  0.00000000  0.36527341  0.54553051  1
  Tl  Tl41  1  0.00000000  0.63472659  0.45446949  1
  Tl  Tl42  1  0.00000000  0.86527341  0.95446949  1
  Tl  Tl43  1  0.00000000  0.13472659  0.04553051  1
