# generated using pymatgen
data_Ni5As2
_symmetry_space_group_name_H-M   'P 1'
_cell_length_a   6.81273422
_cell_length_b   6.81273423
_cell_length_c   12.51725545
_cell_angle_alpha   90.00000000
_cell_angle_beta   90.00000000
_cell_angle_gamma   119.99999997
_symmetry_Int_Tables_number   1
_chemical_formula_structural   Ni5As2
_chemical_formula_sum   'Ni30 As12'
_cell_volume   503.13281142
_cell_formula_units_Z   6
loop_
 _symmetry_equiv_pos_site_id
 _symmetry_equiv_pos_as_xyz
  1  'x, y, z'
loop_
 _atom_site_type_symbol
 _atom_site_label
 _atom_site_symmetry_multiplicity
 _atom_site_fract_x
 _atom_site_fract_y
 _atom_site_fract_z
 _atom_site_occupancy
  Ni  Ni0  1  0.00000000  0.00000000  0.95002620  1
  Ni  Ni1  1  0.00000000  0.00000000  0.45002620  1
  Ni  Ni2  1  0.33333333  0.66666667  0.09447379  1
  Ni  Ni3  1  0.66666667  0.33333333  0.59447379  1
  Ni  Ni4  1  0.33333333  0.66666667  0.59447379  1
  Ni  Ni5  1  0.66666667  0.33333333  0.09447379  1
  Ni  Ni6  1  0.25047973  0.00000000  0.12146651  1
  Ni  Ni7  1  0.25047973  0.25047973  0.62146651  1
  Ni  Ni8  1  0.00000000  0.74952027  0.62146651  1
  Ni  Ni9  1  0.00000000  0.25047973  0.12146651  1
  Ni  Ni10  1  0.74952027  0.74952027  0.12146651  1
  Ni  Ni11  1  0.74952027  0.00000000  0.62146651  1
  Ni  Ni12  1  0.62419646  0.00000000  0.21958492  1
  Ni  Ni13  1  0.62419646  0.62419646  0.71958492  1
  Ni  Ni14  1  0.00000000  0.37580354  0.71958492  1
  Ni  Ni15  1  0.00000000  0.62419646  0.21958492  1
  Ni  Ni16  1  0.37580354  0.37580354  0.21958492  1
  Ni  Ni17  1  0.37580354  0.00000000  0.71958492  1
  Ni  Ni18  1  0.31013871  0.00000000  0.32854002  1
  Ni  Ni19  1  0.31013871  0.31013871  0.82854002  1
  Ni  Ni20  1  0.00000000  0.68986129  0.82854002  1
  Ni  Ni21  1  0.00000000  0.31013871  0.32854002  1
  Ni  Ni22  1  0.68986129  0.68986129  0.32854002  1
  Ni  Ni23  1  0.68986129  0.00000000  0.82854002  1
  Ni  Ni24  1  0.62516094  0.00000000  0.43223368  1
  Ni  Ni25  1  0.62516094  0.62516094  0.93223368  1
  Ni  Ni26  1  0.00000000  0.37483906  0.93223368  1
  Ni  Ni27  1  0.00000000  0.62516094  0.43223368  1
  Ni  Ni28  1  0.37483906  0.37483906  0.43223368  1
  Ni  Ni29  1  0.37483906  0.00000000  0.93223368  1
  As  As30  1  0.00000000  0.00000000  0.25455759  1
  As  As31  1  0.00000000  0.00000000  0.75455759  1
  As  As32  1  0.33333333  0.66666667  0.29609575  1
  As  As33  1  0.66666667  0.33333333  0.79609575  1
  As  As34  1  0.33333333  0.66666667  0.79609575  1
  As  As35  1  0.66666667  0.33333333  0.29609575  1
  As  As36  1  0.66940360  0.00000000  0.02293392  1
  As  As37  1  0.66940360  0.66940360  0.52293392  1
  As  As38  1  0.00000000  0.33059640  0.52293392  1
  As  As39  1  0.00000000  0.66940360  0.02293392  1
  As  As40  1  0.33059640  0.33059640  0.02293392  1
  As  As41  1  0.33059640  0.00000000  0.52293392  1
