# generated using pymatgen
data_La3HfSb5
_symmetry_space_group_name_H-M   'P 1'
_cell_length_a   9.64774457
_cell_length_b   9.64774458
_cell_length_c   6.40083282
_cell_angle_alpha   90.00000000
_cell_angle_beta   90.00000000
_cell_angle_gamma   120.00000002
_symmetry_Int_Tables_number   1
_chemical_formula_structural   La3HfSb5
_chemical_formula_sum   'La6 Hf2 Sb10'
_cell_volume   515.96317859
_cell_formula_units_Z   2
loop_
 _symmetry_equiv_pos_site_id
 _symmetry_equiv_pos_as_xyz
  1  'x, y, z'
loop_
 _atom_site_type_symbol
 _atom_site_label
 _atom_site_symmetry_multiplicity
 _atom_site_fract_x
 _atom_site_fract_y
 _atom_site_fract_z
 _atom_site_occupancy
  Sb  Sb0  1  0.33333333  0.66666667  0.50000000  1
  Sb  Sb1  1  0.66666667  0.33333333  0.00000000  1
  Sb  Sb2  1  0.66666667  0.33333333  0.50000000  1
  Sb  Sb3  1  0.33333333  0.66666667  0.00000000  1
  Sb  Sb4  1  0.74228827  0.00000000  0.75000000  1
  Sb  Sb5  1  0.74228827  0.74228827  0.25000000  1
  Sb  Sb6  1  0.00000000  0.25771173  0.25000000  1
  Sb  Sb7  1  0.00000000  0.74228827  0.75000000  1
  Sb  Sb8  1  0.25771173  0.00000000  0.25000000  1
  Sb  Sb9  1  0.25771173  0.25771173  0.75000000  1
  La  La10  1  0.61797056  0.00000000  0.25000000  1
  La  La11  1  0.61797056  0.61797056  0.75000000  1
  La  La12  1  0.38202944  0.00000000  0.75000000  1
  La  La13  1  0.38202944  0.38202944  0.25000000  1
  La  La14  1  0.00000000  0.61797056  0.25000000  1
  La  La15  1  0.00000000  0.38202944  0.75000000  1
  Hf  Hf16  1  0.00000000  0.00000000  0.00000000  1
  Hf  Hf17  1  0.00000000  0.00000000  0.50000000  1
