# generated using pymatgen
data_CaSnS3
_symmetry_space_group_name_H-M   'P 1'
_cell_length_a   10.62817673
_cell_length_b   12.10556002
_cell_length_c   13.47293366
_cell_angle_alpha   74.00798672
_cell_angle_beta   89.14924989
_cell_angle_gamma   77.42127630
_symmetry_Int_Tables_number   1
_chemical_formula_structural   CaSnS3
_chemical_formula_sum   'Ca12 Sn12 S36'
_cell_volume   1624.46412571
_cell_formula_units_Z   12
loop_
 _symmetry_equiv_pos_site_id
 _symmetry_equiv_pos_as_xyz
  1  'x, y, z'
loop_
 _atom_site_type_symbol
 _atom_site_label
 _atom_site_symmetry_multiplicity
 _atom_site_fract_x
 _atom_site_fract_y
 _atom_site_fract_z
 _atom_site_occupancy
  Ca  Ca0  1  0.57170550  0.64595729  0.16679751  1
  Ca  Ca1  1  0.42829450  0.35404271  0.83320249  1
  Ca  Ca2  1  0.93125049  0.34582154  0.99491424  1
  Ca  Ca3  1  0.06874951  0.65417846  0.00508576  1
  Ca  Ca4  1  0.90428587  0.35412063  0.32841807  1
  Ca  Ca5  1  0.09571413  0.64587937  0.67158193  1
  Ca  Ca6  1  0.74282098  0.00336439  0.49800112  1
  Ca  Ca7  1  0.25717902  0.99663561  0.50199888  1
  Ca  Ca8  1  0.40097627  0.35521053  0.49304103  1
  Ca  Ca9  1  0.59902373  0.64478947  0.50695897  1
  Ca  Ca10  1  0.25558405  0.99940515  0.00110959  1
  Ca  Ca11  1  0.74441595  0.00059485  0.99889041  1
  Sn  Sn12  1  0.99884599  0.00000326  0.74937216  1
  Sn  Sn13  1  0.00115401  -0.00000326  0.25062784  1
  Sn  Sn14  1  0.49748777  0.99942946  0.25061983  1
  Sn  Sn15  1  0.50251223  0.00057054  0.74938017  1
  Sn  Sn16  1  0.10019655  0.30576892  0.62852662  1
  Sn  Sn17  1  0.89980345  0.69423108  0.37147338  1
  Sn  Sn18  1  0.74477476  0.69298981  0.87028598  1
  Sn  Sn19  1  0.25522524  0.30701019  0.12971402  1
  Sn  Sn20  1  0.60456016  0.29974928  0.22184961  1
  Sn  Sn21  1  0.39543984  0.70025072  0.77815039  1
  Sn  Sn22  1  0.75301738  0.30462745  0.71760915  1
  Sn  Sn23  1  0.24698262  0.69537255  0.28239085  1
  S  S24  1  0.10845921  0.56471605  0.36530412  1
  S  S25  1  0.89154079  0.43528395  0.63469588  1
  S  S26  1  0.25635943  0.57436134  0.85959950  1
  S  S27  1  0.74364057  0.42563866  0.14040050  1
  S  S28  1  0.75350880  0.57784578  0.34631530  1
  S  S29  1  0.24649120  0.42215422  0.65368470  1
  S  S30  1  0.63616808  0.26011801  0.40427433  1
  S  S31  1  0.36383192  0.73988199  0.59572567  1
  S  S32  1  0.64007318  0.12630929  0.15861420  1
  S  S33  1  0.35992682  0.87369071  0.84138580  1
  S  S34  1  0.54960654  0.42343193  0.63892655  1
  S  S35  1  0.45039346  0.57656807  0.36107345  1
  S  S36  1  0.25953810  0.74119135  0.09887771  1
  S  S37  1  0.74046190  0.25880865  0.90112229  1
  S  S38  1  0.98691165  0.90149511  0.92546970  1
  S  S39  1  0.01308835  0.09850489  0.07453030  1
  S  S40  1  0.55340326  0.89920340  0.42610325  1
  S  S41  1  0.44659674  0.10079660  0.57389675  1
  S  S42  1  0.95110873  0.57226287  0.85538580  1
  S  S43  1  0.04889127  0.42773713  0.14461420  1
  S  S44  1  0.40036279  0.43064361  0.14791407  1
  S  S45  1  0.59963721  0.56935639  0.85208593  1
  S  S46  1  0.50544461  0.10032901  0.87674729  1
  S  S47  1  0.49455539  0.89967099  0.12325271  1
  S  S48  1  0.86049699  0.74028179  0.53183995  1
  S  S49  1  0.13950301  0.25971821  0.46816005  1
  S  S50  1  0.75513365  0.74127296  0.02958614  1
  S  S51  1  0.24486635  0.25872704  0.97041386  1
  S  S52  1  0.30015517  0.13455407  0.27997407  1
  S  S53  1  0.69984483  0.86544593  0.72002593  1
  S  S54  1  0.06051201  0.89770982  0.62443395  1
  S  S55  1  0.93948799  0.10229018  0.37556605  1
  S  S56  1  0.19984408  0.87042561  0.34442615  1
  S  S57  1  0.80015592  0.12957439  0.65557385  1
  S  S58  1  0.87375700  0.86367005  0.21938758  1
  S  S59  1  0.12624300  0.13632995  0.78061242  1
