# generated using pymatgen
data_La4Au2O9
_symmetry_space_group_name_H-M   'P 1'
_cell_length_a   6.37924880
_cell_length_b   12.19703117
_cell_length_c   12.20597331
_cell_angle_alpha   90.00000000
_cell_angle_beta   90.00000000
_cell_angle_gamma   90.00000000
_symmetry_Int_Tables_number   1
_chemical_formula_structural   La4Au2O9
_chemical_formula_sum   'La16 Au8 O36'
_cell_volume   949.72110743
_cell_formula_units_Z   4
loop_
 _symmetry_equiv_pos_site_id
 _symmetry_equiv_pos_as_xyz
  1  'x, y, z'
loop_
 _atom_site_type_symbol
 _atom_site_label
 _atom_site_symmetry_multiplicity
 _atom_site_fract_x
 _atom_site_fract_y
 _atom_site_fract_z
 _atom_site_occupancy
  O  O0  1  0.94159793  0.44655931  0.38432569  1
  O  O1  1  0.94159793  0.05344069  0.61567431  1
  O  O2  1  0.55840207  0.94655931  0.11567431  1
  O  O3  1  0.55840207  0.55344069  0.88432569  1
  O  O4  1  0.05840207  0.55344069  0.61567431  1
  O  O5  1  0.05840207  0.94655931  0.38432569  1
  O  O6  1  0.44159793  0.05344069  0.88432569  1
  O  O7  1  0.44159793  0.44655931  0.11567431  1
  O  O8  1  0.94415153  0.35428866  0.16457060  1
  O  O9  1  0.94415153  0.14571134  0.83542940  1
  O  O10  1  0.55584847  0.85428866  0.33542940  1
  O  O11  1  0.55584847  0.64571134  0.66457060  1
  O  O12  1  0.05584847  0.64571134  0.83542940  1
  O  O13  1  0.05584847  0.85428866  0.16457060  1
  O  O14  1  0.62077836  0.15770694  0.19785393  1
  O  O15  1  0.44415153  0.14571134  0.66457060  1
  O  O16  1  0.60671554  0.08590816  0.42050018  1
  O  O17  1  0.60671554  0.41409184  0.57949982  1
  O  O18  1  0.89328446  0.58590816  0.07949982  1
  O  O19  1  0.89328446  0.91409184  0.92050018  1
  O  O20  1  0.39328446  0.91409184  0.57949982  1
  O  O21  1  0.39328446  0.58590816  0.42050018  1
  O  O22  1  0.10671554  0.41409184  0.92050018  1
  O  O23  1  0.10671554  0.08590816  0.07949982  1
  O  O24  1  0.02307182  0.25000000  0.50000000  1
  O  O25  1  0.47692818  0.75000000  0.00000000  1
  O  O26  1  0.97692818  0.75000000  0.50000000  1
  O  O27  1  0.52307182  0.25000000  0.00000000  1
  O  O28  1  0.12077836  0.15770694  0.30214607  1
  O  O29  1  0.12077836  0.34229306  0.69785393  1
  O  O30  1  0.37922164  0.65770694  0.19785393  1
  O  O31  1  0.37922164  0.84229306  0.80214607  1
  O  O32  1  0.87922164  0.84229306  0.69785393  1
  O  O33  1  0.87922164  0.65770694  0.30214607  1
  O  O34  1  0.62077836  0.34229306  0.80214607  1
  O  O35  1  0.44415153  0.35428866  0.33542940  1
  La  La36  1  0.74293541  0.08901888  0.01029932  1
  La  La37  1  0.74293541  0.41098112  0.98970068  1
  La  La38  1  0.75706459  0.58901888  0.48970068  1
  La  La39  1  0.75706459  0.91098112  0.51029932  1
  La  La40  1  0.25706459  0.91098112  0.98970068  1
  La  La41  1  0.25706459  0.58901888  0.01029932  1
  La  La42  1  0.24293541  0.41098112  0.51029932  1
  La  La43  1  0.24293541  0.08901888  0.48970068  1
  La  La44  1  0.80297937  0.26341433  0.33993210  1
  La  La45  1  0.80297937  0.23658567  0.66006790  1
  La  La46  1  0.69702063  0.76341433  0.16006790  1
  La  La47  1  0.69702063  0.73658567  0.83993210  1
  La  La48  1  0.19702063  0.73658567  0.66006790  1
  La  La49  1  0.19702063  0.76341433  0.33993210  1
  La  La50  1  0.30297937  0.23658567  0.83993210  1
  La  La51  1  0.30297937  0.26341433  0.16006790  1
  Au  Au52  1  0.57775044  0.01066162  0.27021183  1
  Au  Au53  1  0.57775044  0.48933838  0.72978817  1
  Au  Au54  1  0.92224956  0.51066162  0.22978817  1
  Au  Au55  1  0.92224956  0.98933838  0.77021183  1
  Au  Au56  1  0.42224956  0.98933838  0.72978817  1
  Au  Au57  1  0.42224956  0.51066162  0.27021183  1
  Au  Au58  1  0.07775044  0.48933838  0.77021183  1
  Au  Au59  1  0.07775044  0.01066162  0.22978817  1
