# generated using pymatgen
data_RbTcO4
_symmetry_space_group_name_H-M   'P 1'
_cell_length_a   8.00912481
_cell_length_b   5.90682756
_cell_length_c   5.90682756
_cell_angle_alpha   90.00000000
_cell_angle_beta   111.63892432
_cell_angle_gamma   111.63892432
_symmetry_Int_Tables_number   1
_chemical_formula_structural   RbTcO4
_chemical_formula_sum   'Rb2 Tc2 O8'
_cell_volume   238.43534026
_cell_formula_units_Z   2
loop_
 _symmetry_equiv_pos_site_id
 _symmetry_equiv_pos_as_xyz
  1  'x, y, z'
loop_
 _atom_site_type_symbol
 _atom_site_label
 _atom_site_symmetry_multiplicity
 _atom_site_fract_x
 _atom_site_fract_y
 _atom_site_fract_z
 _atom_site_occupancy
  Rb  Rb0  1  0.25000100  0.62500000  0.37500000  1
  Rb  Rb1  1  0.75000000  0.37500000  0.62500000  1
  Tc  Tc2  1  0.75000000  0.87500000  0.12500000  1
  Tc  Tc3  1  0.25000100  0.12500000  0.87500100  1
  O  O4  1  0.89583681  0.73070121  0.08956947  1
  O  O5  1  0.39583581  0.08956847  0.16513460  1
  O  O6  1  0.60416419  0.69373266  0.26929879  1
  O  O7  1  0.89583681  0.16513560  0.30626734  1
  O  O8  1  0.10416419  0.83486540  0.69373266  1
  O  O9  1  0.39583581  0.30626734  0.73070121  1
  O  O10  1  0.60416419  0.91043153  0.83486540  1
  O  O11  1  0.10416419  0.26929879  0.91043153  1
