# generated using pymatgen
data_La3Ir3O11
_symmetry_space_group_name_H-M   'P 1'
_cell_length_a   9.57647876
_cell_length_b   9.57647876
_cell_length_c   9.57647876
_cell_angle_alpha   90.00000000
_cell_angle_beta   90.00000000
_cell_angle_gamma   90.00000000
_symmetry_Int_Tables_number   1
_chemical_formula_structural   La3Ir3O11
_chemical_formula_sum   'La12 Ir12 O44'
_cell_volume   878.24876812
_cell_formula_units_Z   4
loop_
 _symmetry_equiv_pos_site_id
 _symmetry_equiv_pos_as_xyz
  1  'x, y, z'
loop_
 _atom_site_type_symbol
 _atom_site_label
 _atom_site_symmetry_multiplicity
 _atom_site_fract_x
 _atom_site_fract_y
 _atom_site_fract_z
 _atom_site_occupancy
  O  O0  1  0.08434736  0.75245387  0.45866794  1
  O  O1  1  0.08434736  0.74754613  0.04133206  1
  O  O2  1  0.41565264  0.75245387  0.04133206  1
  O  O3  1  0.74754613  0.04133206  0.08434736  1
  O  O4  1  0.04133206  0.41565264  0.75245387  1
  O  O5  1  0.04133206  0.08434736  0.74754613  1
  O  O6  1  0.75245387  0.45866794  0.08434736  1
  O  O7  1  0.45866794  0.08434736  0.75245387  1
  O  O8  1  0.75245387  0.04133206  0.41565264  1
  O  O9  1  0.74754613  0.45866794  0.41565264  1
  O  O10  1  0.45866794  0.41565264  0.74754613  1
  O  O11  1  0.41565264  0.74754613  0.45866794  1
  O  O12  1  0.91565264  0.24754613  0.54133206  1
  O  O13  1  0.91565264  0.25245387  0.95866794  1
  O  O14  1  0.58434736  0.24754613  0.95866794  1
  O  O15  1  0.25245387  0.95866794  0.91565264  1
  O  O16  1  0.64456706  0.85543294  0.64456706  1
  O  O17  1  0.95866794  0.58434736  0.24754613  1
  O  O18  1  0.24754613  0.54133206  0.91565264  1
  O  O19  1  0.54133206  0.91565264  0.24754613  1
  O  O20  1  0.24754613  0.95866794  0.58434736  1
  O  O21  1  0.25245387  0.54133206  0.58434736  1
  O  O22  1  0.54133206  0.58434736  0.25245387  1
  O  O23  1  0.58434736  0.25245387  0.54133206  1
  O  O24  1  0.61331704  0.25000000  0.25000000  1
  O  O25  1  0.25000000  0.61331704  0.25000000  1
  O  O26  1  0.25000000  0.25000000  0.61331704  1
  O  O27  1  0.25000000  0.88668296  0.25000000  1
  O  O28  1  0.25000000  0.25000000  0.88668296  1
  O  O29  1  0.88668296  0.25000000  0.25000000  1
  O  O30  1  0.38668296  0.75000000  0.75000000  1
  O  O31  1  0.75000000  0.38668296  0.75000000  1
  O  O32  1  0.75000000  0.75000000  0.38668296  1
  O  O33  1  0.75000000  0.11331704  0.75000000  1
  O  O34  1  0.75000000  0.75000000  0.11331704  1
  O  O35  1  0.11331704  0.75000000  0.75000000  1
  O  O36  1  0.14456706  0.14456706  0.14456706  1
  O  O37  1  0.35543294  0.35543294  0.14456706  1
  O  O38  1  0.14456706  0.35543294  0.35543294  1
  O  O39  1  0.35543294  0.14456706  0.35543294  1
  O  O40  1  0.85543294  0.85543294  0.85543294  1
  O  O41  1  0.64456706  0.64456706  0.85543294  1
  O  O42  1  0.85543294  0.64456706  0.64456706  1
  O  O43  1  0.95866794  0.91565264  0.25245387  1
  La  La44  1  0.00000000  0.00000000  0.00000000  1
  La  La45  1  0.50000000  0.50000000  0.00000000  1
  La  La46  1  0.00000000  0.50000000  0.50000000  1
  La  La47  1  0.50000000  0.00000000  0.50000000  1
  La  La48  1  0.38525747  0.38525747  0.38525747  1
  La  La49  1  0.11474253  0.11474253  0.38525747  1
  La  La50  1  0.38525747  0.11474253  0.11474253  1
  La  La51  1  0.11474253  0.38525747  0.11474253  1
  La  La52  1  0.61474253  0.61474253  0.61474253  1
  La  La53  1  0.88525747  0.88525747  0.61474253  1
  La  La54  1  0.61474253  0.88525747  0.88525747  1
  La  La55  1  0.88525747  0.61474253  0.88525747  1
  Ir  Ir56  1  0.40779291  0.75000000  0.25000000  1
  Ir  Ir57  1  0.25000000  0.40779291  0.75000000  1
  Ir  Ir58  1  0.75000000  0.25000000  0.40779291  1
  Ir  Ir59  1  0.25000000  0.09220709  0.75000000  1
  Ir  Ir60  1  0.75000000  0.25000000  0.09220709  1
  Ir  Ir61  1  0.09220709  0.75000000  0.25000000  1
  Ir  Ir62  1  0.59220709  0.25000000  0.75000000  1
  Ir  Ir63  1  0.75000000  0.59220709  0.25000000  1
  Ir  Ir64  1  0.25000000  0.75000000  0.59220709  1
  Ir  Ir65  1  0.75000000  0.90779291  0.25000000  1
  Ir  Ir66  1  0.25000000  0.75000000  0.90779291  1
  Ir  Ir67  1  0.90779291  0.25000000  0.75000000  1
