# generated using pymatgen
data_Ag8GeS6
_symmetry_space_group_name_H-M   'P 1'
_cell_length_a   7.62616066
_cell_length_b   10.74315461
_cell_length_c   15.31324474
_cell_angle_alpha   90.00000000
_cell_angle_beta   90.00000000
_cell_angle_gamma   90.00000000
_symmetry_Int_Tables_number   1
_chemical_formula_structural   Ag8GeS6
_chemical_formula_sum   'Ag32 Ge4 S24'
_cell_volume   1254.59918129
_cell_formula_units_Z   4
loop_
 _symmetry_equiv_pos_site_id
 _symmetry_equiv_pos_as_xyz
  1  'x, y, z'
loop_
 _atom_site_type_symbol
 _atom_site_label
 _atom_site_symmetry_multiplicity
 _atom_site_fract_x
 _atom_site_fract_y
 _atom_site_fract_z
 _atom_site_occupancy
  S  S0  1  0.76544918  0.10563325  0.37625216  1
  S  S1  1  0.23455082  0.60563325  0.62374784  1
  S  S2  1  0.73455082  0.10563325  0.87625216  1
  S  S3  1  0.26544918  0.60563325  0.12374784  1
  S  S4  1  0.81268684  0.36785668  0.11223601  1
  S  S5  1  0.18731316  0.86785668  0.88776399  1
  S  S6  1  0.68731316  0.36785668  0.61223601  1
  S  S7  1  0.31268684  0.86785668  0.38776399  1
  S  S8  1  0.72562216  0.72776166  0.24188828  1
  S  S9  1  0.27437784  0.22776166  0.75811172  1
  S  S10  1  0.77437784  0.72776166  0.74188828  1
  S  S11  1  0.22562216  0.22776166  0.25811172  1
  S  S12  1  0.97362095  0.97377981  0.12684927  1
  S  S13  1  0.02637905  0.47377981  0.87315073  1
  S  S14  1  0.52637905  0.97377981  0.62684927  1
  S  S15  1  0.47362095  0.47377981  0.37315073  1
  S  S16  1  0.76925180  0.72780035  0.50520341  1
  S  S17  1  0.23074820  0.22780035  0.49479659  1
  S  S18  1  0.73074820  0.72780035  0.00520341  1
  S  S19  1  0.26925180  0.22780035  0.99479659  1
  S  S20  1  0.99689329  0.47509361  0.37923354  1
  S  S21  1  0.00310671  0.97509361  0.62076646  1
  S  S22  1  0.50310671  0.47509361  0.87923354  1
  S  S23  1  0.49689329  0.97509361  0.12076646  1
  Ge  Ge24  1  0.73380244  0.85039353  0.12383012  1
  Ge  Ge25  1  0.26619756  0.35039353  0.87616988  1
  Ge  Ge26  1  0.76619756  0.85039353  0.62383012  1
  Ge  Ge27  1  0.23380244  0.35039353  0.37616988  1
  Ag  Ag28  1  0.99494455  0.09501705  0.77159250  1
  Ag  Ag29  1  0.87365415  0.40563815  0.73936779  1
  Ag  Ag30  1  0.12634585  0.90563815  0.26063221  1
  Ag  Ag31  1  0.62634585  0.40563815  0.23936779  1
  Ag  Ag32  1  0.51653956  0.11181887  0.48351006  1
  Ag  Ag33  1  0.48346044  0.61181887  0.51648994  1
  Ag  Ag34  1  0.98346044  0.11181887  0.98351006  1
  Ag  Ag35  1  0.01653956  0.61181887  0.01648994  1
  Ag  Ag36  1  0.87913018  0.19116926  0.22896722  1
  Ag  Ag37  1  0.12086982  0.69116926  0.77103278  1
  Ag  Ag38  1  0.62086982  0.19116926  0.72896722  1
  Ag  Ag39  1  0.37913018  0.69116926  0.27103278  1
  Ag  Ag40  1  0.61087016  0.19042896  0.08763722  1
  Ag  Ag41  1  0.38912984  0.69042896  0.91236278  1
  Ag  Ag42  1  0.88912984  0.19042896  0.58763722  1
  Ag  Ag43  1  0.11087016  0.69042896  0.41236278  1
  Ag  Ag44  1  0.00505545  0.59501705  0.22840750  1
  Ag  Ag45  1  0.37365415  0.90563815  0.76063221  1
  Ag  Ag46  1  0.49494455  0.59501705  0.72840750  1
  Ag  Ag47  1  0.50505545  0.09501705  0.27159250  1
  Ag  Ag48  1  0.56653855  0.52205161  0.06641105  1
  Ag  Ag49  1  0.43346145  0.02205161  0.93358895  1
  Ag  Ag50  1  0.93346145  0.52205161  0.56641105  1
  Ag  Ag51  1  0.06653855  0.02205161  0.43358895  1
  Ag  Ag52  1  0.73383909  0.33558085  0.43688111  1
  Ag  Ag53  1  0.26616091  0.83558085  0.56311889  1
  Ag  Ag54  1  0.76616091  0.33558085  0.93688111  1
  Ag  Ag55  1  0.23383909  0.83558085  0.06311889  1
  Ag  Ag56  1  0.77054813  0.86987636  0.37050690  1
  Ag  Ag57  1  0.22945187  0.36987636  0.62949310  1
  Ag  Ag58  1  0.72945187  0.86987636  0.87050690  1
  Ag  Ag59  1  0.27054813  0.36987636  0.12949310  1
