# generated using pymatgen
data_KCa9Mg(PO4)7
_symmetry_space_group_name_H-M   'P 1'
_cell_length_a   13.83472137
_cell_length_b   13.83472137
_cell_length_c   13.83472137
_cell_angle_alpha   44.64804279
_cell_angle_beta   44.64804277
_cell_angle_gamma   44.64804279
_symmetry_Int_Tables_number   1
_chemical_formula_structural   KCa9Mg(PO4)7
_chemical_formula_sum   'K2 Ca18 Mg2 P14 O56'
_cell_volume   1189.37076996
_cell_formula_units_Z   2
loop_
 _symmetry_equiv_pos_site_id
 _symmetry_equiv_pos_as_xyz
  1  'x, y, z'
loop_
 _atom_site_type_symbol
 _atom_site_label
 _atom_site_symmetry_multiplicity
 _atom_site_fract_x
 _atom_site_fract_y
 _atom_site_fract_z
 _atom_site_occupancy
  O  O0  1  0.11217185  0.66976170  0.68962020  1
  O  O1  1  0.66976170  0.68962020  0.11217185  1
  O  O2  1  0.68962020  0.11217185  0.66976170  1
  O  O3  1  0.18962020  0.16976170  0.61217185  1
  O  O4  1  0.16976170  0.61217185  0.18962020  1
  O  O5  1  0.61217185  0.18962020  0.16976170  1
  O  O6  1  0.36376450  0.60993068  0.63938002  1
  O  O7  1  0.60993068  0.63938002  0.36376450  1
  O  O8  1  0.63938002  0.36376450  0.60993068  1
  O  O9  1  0.13938002  0.10993068  0.86376450  1
  O  O10  1  0.10993068  0.86376450  0.13938002  1
  O  O11  1  0.86376450  0.13938002  0.10993068  1
  O  O12  1  0.13278060  0.84800738  0.67270864  1
  O  O13  1  0.84800738  0.67270864  0.13278060  1
  O  O14  1  0.67270864  0.13278060  0.84800738  1
  O  O15  1  0.17270864  0.34800738  0.63278060  1
  O  O16  1  0.34800738  0.63278060  0.17270864  1
  O  O17  1  0.63278060  0.17270864  0.34800738  1
  O  O18  1  0.14416392  0.58626921  0.89898867  1
  O  O19  1  0.58626921  0.89898867  0.14416392  1
  O  O20  1  0.89898867  0.14416392  0.58626921  1
  O  O21  1  0.39898867  0.08626921  0.64416392  1
  O  O22  1  0.38290344  0.84399382  0.64019517  1
  O  O23  1  0.08626921  0.64416392  0.39898867  1
  O  O24  1  0.14192827  0.87197964  0.87763109  1
  O  O25  1  0.87197964  0.87763109  0.14192827  1
  O  O26  1  0.87763109  0.14192827  0.87197964  1
  O  O27  1  0.37763109  0.37197964  0.64192827  1
  O  O28  1  0.37197964  0.64192827  0.37763109  1
  O  O29  1  0.64192827  0.37763109  0.37197964  1
  O  O30  1  0.33465358  0.61033351  0.89173029  1
  O  O31  1  0.61033351  0.89173029  0.33465358  1
  O  O32  1  0.89173029  0.33465358  0.61033351  1
  O  O33  1  0.39173029  0.11033351  0.83465358  1
  O  O34  1  0.11033351  0.83465358  0.39173029  1
  O  O35  1  0.83465358  0.39173029  0.11033351  1
  O  O36  1  0.30876788  0.30876788  0.30876788  1
  O  O37  1  0.80876788  0.80876788  0.80876788  1
  O  O38  1  0.26161041  0.10934660  0.39008943  1
  O  O39  1  0.39008943  0.26161041  0.10934660  1
  O  O40  1  0.10934660  0.39008943  0.26161041  1
  O  O41  1  0.60934660  0.76161041  0.89008943  1
  O  O42  1  0.89008943  0.60934660  0.76161041  1
  O  O43  1  0.76161041  0.89008943  0.60934660  1
  O  O44  1  0.89673583  0.36737759  0.25876848  1
  O  O45  1  0.25876848  0.89673583  0.36737759  1
  O  O46  1  0.36737759  0.25876848  0.89673583  1
  O  O47  1  0.86737759  0.39673583  0.75876848  1
  O  O48  1  0.75876848  0.86737759  0.39673583  1
  O  O49  1  0.39673583  0.75876848  0.86737759  1
  O  O50  1  0.88290344  0.14019517  0.34399382  1
  O  O51  1  0.34399382  0.88290344  0.14019517  1
  O  O52  1  0.14019517  0.34399382  0.88290344  1
  O  O53  1  0.64019517  0.38290344  0.84399382  1
  O  O54  1  0.84399382  0.64019517  0.38290344  1
  O  O55  1  0.64416392  0.39898867  0.08626921  1
  Mg  Mg56  1  0.49990627  0.49990627  0.49990627  1
  Mg  Mg57  1  0.99990627  0.99990627  0.99990627  1
  P  P58  1  0.77330495  0.81481294  0.31730241  1
  P  P59  1  0.22595305  0.17923330  0.68764725  1
  P  P60  1  0.17923330  0.68764725  0.22595305  1
  P  P61  1  0.68764725  0.22595305  0.17923330  1
  P  P62  1  0.31730241  0.77330495  0.81481294  1
  P  P63  1  0.72595305  0.18764725  0.67923330  1
  P  P64  1  0.81481294  0.31730241  0.77330495  1
  P  P65  1  0.67923330  0.72595305  0.18764725  1
  P  P66  1  0.27330495  0.81730241  0.31481294  1
  P  P67  1  0.81730241  0.31481294  0.27330495  1
  P  P68  1  0.76717307  0.76717307  0.76717307  1
  P  P69  1  0.26717307  0.26717307  0.26717307  1
  P  P70  1  0.18764725  0.67923330  0.72595305  1
  P  P71  1  0.31481294  0.27330495  0.81730241  1
  K  K72  1  0.68330999  0.68330999  0.68330999  1
  K  K73  1  0.18330999  0.18330999  0.18330999  1
  Ca  Ca74  1  0.94331474  0.56115201  0.97086847  1
  Ca  Ca75  1  0.56115201  0.97086847  0.94331474  1
  Ca  Ca76  1  0.97086847  0.94331474  0.56115201  1
  Ca  Ca77  1  0.47086847  0.06115201  0.44331474  1
  Ca  Ca78  1  0.06115201  0.44331474  0.47086847  1
  Ca  Ca79  1  0.44331474  0.47086847  0.06115201  1
  Ca  Ca80  1  0.34386092  0.90738473  0.94483050  1
  Ca  Ca81  1  0.90738473  0.94483050  0.34386092  1
  Ca  Ca82  1  0.94483050  0.34386092  0.90738473  1
  Ca  Ca83  1  0.44483050  0.40738473  0.84386092  1
  Ca  Ca84  1  0.40738473  0.84386092  0.44483050  1
  Ca  Ca85  1  0.84386092  0.44483050  0.40738473  1
  Ca  Ca86  1  0.65955870  0.07383124  0.06266306  1
  Ca  Ca87  1  0.07383124  0.06266306  0.65955870  1
  Ca  Ca88  1  0.06266306  0.65955870  0.07383124  1
  Ca  Ca89  1  0.56266306  0.57383124  0.15955870  1
  Ca  Ca90  1  0.57383124  0.15955870  0.56266306  1
  Ca  Ca91  1  0.15955870  0.56266306  0.57383124  1
