# generated using pymatgen
data_Pr(CoB)4
_symmetry_space_group_name_H-M   'P 1'
_cell_length_a   7.08399448
_cell_length_b   7.08067521
_cell_length_c   3.78792091
_cell_angle_alpha   89.99617789
_cell_angle_beta   90.00155397
_cell_angle_gamma   89.97078444
_symmetry_Int_Tables_number   1
_chemical_formula_structural   Pr(CoB)4
_chemical_formula_sum   'Pr2 Co8 B8'
_cell_volume   190.00005797
_cell_formula_units_Z   2
loop_
 _symmetry_equiv_pos_site_id
 _symmetry_equiv_pos_as_xyz
  1  'x, y, z'
loop_
 _atom_site_type_symbol
 _atom_site_label
 _atom_site_symmetry_multiplicity
 _atom_site_fract_x
 _atom_site_fract_y
 _atom_site_fract_z
 _atom_site_occupancy
  Pr  Pr0  1  0.25002633  0.25000182  0.24991584  1
  Pr  Pr1  1  0.74994946  0.74998223  0.75009014  1
  Co  Co2  1  0.63520504  0.10752502  0.35558926  1
  Co  Co3  1  0.86476646  0.39247978  0.35559530  1
  Co  Co4  1  0.89251218  0.13517310  0.85558751  1
  Co  Co5  1  0.60747898  0.36483872  0.85559668  1
  Co  Co6  1  0.36479186  0.89246518  0.64439129  1
  Co  Co7  1  0.13523922  0.60754352  0.64438482  1
  Co  Co8  1  0.10749250  0.86483115  0.14442447  1
  Co  Co9  1  0.39252654  0.63518166  0.14441459  1
  B  B10  1  0.04620953  0.58801647  0.14669512  1
  B  B11  1  0.45376719  0.91196275  0.14671606  1
  B  B12  1  0.41198539  0.54622020  0.64677697  1
  B  B13  1  0.08801974  0.95377428  0.64675976  1
  B  B14  1  0.95379588  0.41198271  0.85332087  1
  B  B15  1  0.54621714  0.08802299  0.85329497  1
  B  B16  1  0.58799960  0.45378724  0.35321359  1
  B  B17  1  0.91201596  0.04621018  0.35323376  1
