# generated using pymatgen
data_CaSn2S5
_symmetry_space_group_name_H-M   'P 1'
_cell_length_a   7.09382086
_cell_length_b   7.15553912
_cell_length_c   9.08081551
_cell_angle_alpha   104.83346744
_cell_angle_beta   103.88123022
_cell_angle_gamma   105.77824721
_symmetry_Int_Tables_number   1
_chemical_formula_structural   CaSn2S5
_chemical_formula_sum   'Ca2 Sn4 S10'
_cell_volume   404.36107259
_cell_formula_units_Z   2
loop_
 _symmetry_equiv_pos_site_id
 _symmetry_equiv_pos_as_xyz
  1  'x, y, z'
loop_
 _atom_site_type_symbol
 _atom_site_label
 _atom_site_symmetry_multiplicity
 _atom_site_fract_x
 _atom_site_fract_y
 _atom_site_fract_z
 _atom_site_occupancy
  Ca  Ca0  1  0.65368735  0.33675424  0.25722735  1
  Ca  Ca1  1  0.34631265  0.66324576  0.74277265  1
  Sn  Sn2  1  0.32156080  0.67801571  0.24944061  1
  Sn  Sn3  1  0.67843920  0.32198429  0.75055939  1
  Sn  Sn4  1  -0.00000000  -0.00000000  -0.00000000  1
  Sn  Sn5  1  -0.00000000  -0.00000000  0.50000000  1
  S  S6  1  0.90549676  0.09430018  0.25141481  1
  S  S7  1  0.09450324  0.90569982  0.74858519  1
  S  S8  1  0.66526947  0.09080676  0.90431152  1
  S  S9  1  0.33473053  0.90919324  0.09568848  1
  S  S10  1  0.27779098  0.35751622  0.04756482  1
  S  S11  1  0.72220902  0.64248378  0.95243518  1
  S  S12  1  0.63653779  0.73374930  0.46165686  1
  S  S13  1  0.36346221  0.26625070  0.53834314  1
  S  S14  1  0.92180878  0.33945169  0.60364958  1
  S  S15  1  0.07819122  0.66054831  0.39635042  1
