# generated using pymatgen
data_Hf3Pb
_symmetry_space_group_name_H-M   'P 1'
_cell_length_a   6.33899961
_cell_length_b   6.33900001
_cell_length_c   5.16345634
_cell_angle_alpha   90.00000000
_cell_angle_beta   90.00000000
_cell_angle_gamma   119.99999264
_symmetry_Int_Tables_number   1
_chemical_formula_structural   Hf3Pb
_chemical_formula_sum   'Hf6 Pb2'
_cell_volume   179.68534199
_cell_formula_units_Z   2
loop_
 _symmetry_equiv_pos_site_id
 _symmetry_equiv_pos_as_xyz
  1  'x, y, z'
loop_
 _atom_site_type_symbol
 _atom_site_label
 _atom_site_symmetry_multiplicity
 _atom_site_fract_x
 _atom_site_fract_y
 _atom_site_fract_z
 _atom_site_occupancy
  Hf  Hf0  1  0.16398323  0.32796546  0.25000100  1
  Hf  Hf1  1  0.67203454  0.83601677  0.25000100  1
  Hf  Hf2  1  0.16398223  0.83601677  0.25000100  1
  Hf  Hf3  1  0.83601677  0.67203254  0.75000000  1
  Hf  Hf4  1  0.32796746  0.16398423  0.75000000  1
  Hf  Hf5  1  0.83601677  0.16398423  0.75000000  1
  Pb  Pb6  1  0.33333400  0.66666800  0.75000000  1
  Pb  Pb7  1  0.66666800  0.33333400  0.25000100  1
