# generated using pymatgen
data_MgSi
_symmetry_space_group_name_H-M   'P 1'
_cell_length_a   5.86933600
_cell_length_b   4.38801270
_cell_length_c   17.63825066
_cell_angle_alpha   94.39584281
_cell_angle_beta   89.98956397
_cell_angle_gamma   89.97235252
_symmetry_Int_Tables_number   1
_chemical_formula_structural   MgSi
_chemical_formula_sum   'Mg12 Si12'
_cell_volume   452.93184612
_cell_formula_units_Z   12
loop_
 _symmetry_equiv_pos_site_id
 _symmetry_equiv_pos_as_xyz
  1  'x, y, z'
loop_
 _atom_site_type_symbol
 _atom_site_label
 _atom_site_symmetry_multiplicity
 _atom_site_fract_x
 _atom_site_fract_y
 _atom_site_fract_z
 _atom_site_occupancy
  Mg  Mg0  1  0.58332921  0.37661854  0.96092294  1
  Mg  Mg1  1  0.08340043  0.08201732  0.39446081  1
  Mg  Mg2  1  0.08336634  0.74631931  0.72776281  1
  Mg  Mg3  1  0.08340582  0.41447494  0.06109535  1
  Mg  Mg4  1  0.58337892  0.04382081  0.29420808  1
  Mg  Mg5  1  0.58330736  0.70852035  0.62716772  1
  Mg  Mg6  1  0.08336266  0.95148533  0.20494141  1
  Mg  Mg7  1  0.08329970  0.61860120  0.53828753  1
  Mg  Mg8  1  0.08330070  0.28360395  0.87144797  1
  Mg  Mg9  1  0.58328148  0.91344603  0.10454279  1
  Mg  Mg10  1  0.58328665  0.58093481  0.43789625  1
  Mg  Mg11  1  0.58323621  0.24534454  0.77117964  1
  Si  Si12  1  0.87882768  0.88612355  0.98235581  1
  Si  Si13  1  0.28769090  0.55346621  0.31576912  1
  Si  Si14  1  0.28763034  0.21833050  0.64906146  1
  Si  Si15  1  0.28766028  0.88614669  0.98236005  1
  Si  Si16  1  0.87889864  0.55350291  0.31576414  1
  Si  Si17  1  0.87882228  0.21834429  0.64905878  1
  Si  Si18  1  0.37901852  0.44176308  0.18320060  1
  Si  Si19  1  0.37899671  0.10907210  0.51656637  1
  Si  Si20  1  0.78779196  0.77368959  0.84992095  1
  Si  Si21  1  0.78787026  0.44177362  0.18320876  1
  Si  Si22  1  0.78777431  0.10906729  0.51656541  1
  Si  Si23  1  0.37898365  0.77372305  0.84991425  1
