# generated using pymatgen
data_In2Au3
_symmetry_space_group_name_H-M   'P 1'
_cell_length_a   4.71629792
_cell_length_b   4.71560944
_cell_length_c   5.75942517
_cell_angle_alpha   89.99999999
_cell_angle_beta   89.99952469
_cell_angle_gamma   119.99517564
_symmetry_Int_Tables_number   1
_chemical_formula_structural   In2Au3
_chemical_formula_sum   'In2 Au3'
_cell_volume   110.93534580
_cell_formula_units_Z   1
loop_
 _symmetry_equiv_pos_site_id
 _symmetry_equiv_pos_as_xyz
  1  'x, y, z'
loop_
 _atom_site_type_symbol
 _atom_site_label
 _atom_site_symmetry_multiplicity
 _atom_site_fract_x
 _atom_site_fract_y
 _atom_site_fract_z
 _atom_site_occupancy
  In  In0  1  0.66662550  0.33331275  0.32607653  1
  In  In1  1  0.33337450  0.66668725  0.67392347  1
  Au  Au2  1  0.66667942  0.33333971  0.81533494  1
  Au  Au3  1  0.33332058  0.66666029  0.18466506  1
  Au  Au4  1  -0.00000000  0.00000000  -0.00000000  1
