# generated using pymatgen
data_HfCuSn
_symmetry_space_group_name_H-M   'P 1'
_cell_length_a   4.49168810
_cell_length_b   4.49253490
_cell_length_c   6.40090711
_cell_angle_alpha   90.00000000
_cell_angle_beta   90.00000000
_cell_angle_gamma   119.99376498
_symmetry_Int_Tables_number   1
_chemical_formula_structural   HfCuSn
_chemical_formula_sum   'Hf2 Cu2 Sn2'
_cell_volume   111.86661324
_cell_formula_units_Z   2
loop_
 _symmetry_equiv_pos_site_id
 _symmetry_equiv_pos_as_xyz
  1  'x, y, z'
loop_
 _atom_site_type_symbol
 _atom_site_label
 _atom_site_symmetry_multiplicity
 _atom_site_fract_x
 _atom_site_fract_y
 _atom_site_fract_z
 _atom_site_occupancy
  Hf  Hf0  1  0.99997237  0.99994475  0.49918857  1
  Hf  Hf1  1  0.00002763  0.00005525  0.99918857  1
  Cu  Cu2  1  0.66665017  0.33330035  0.19694778  1
  Cu  Cu3  1  0.33334983  0.66669965  0.69694778  1
  Sn  Sn4  1  0.66663832  0.33327663  0.75566365  1
  Sn  Sn5  1  0.33336168  0.66672337  0.25566365  1
