# generated using pymatgen
data_Ce(FeB)4
_symmetry_space_group_name_H-M   'P 1'
_cell_length_a   7.00782808
_cell_length_b   7.00782808
_cell_length_c   3.81675625
_cell_angle_alpha   90.00000000
_cell_angle_beta   90.00000000
_cell_angle_gamma   90.00000000
_symmetry_Int_Tables_number   1
_chemical_formula_structural   Ce(FeB)4
_chemical_formula_sum   'Ce2 Fe8 B8'
_cell_volume   187.43958036
_cell_formula_units_Z   2
loop_
 _symmetry_equiv_pos_site_id
 _symmetry_equiv_pos_as_xyz
  1  'x, y, z'
loop_
 _atom_site_type_symbol
 _atom_site_label
 _atom_site_symmetry_multiplicity
 _atom_site_fract_x
 _atom_site_fract_y
 _atom_site_fract_z
 _atom_site_occupancy
  Ce  Ce0  1  0.25000000  0.25000000  0.25000000  1
  Ce  Ce1  1  0.75000000  0.75000000  0.75000000  1
  Fe  Fe2  1  0.63523905  0.11869574  0.35442636  1
  Fe  Fe3  1  0.86476195  0.38130426  0.35442636  1
  Fe  Fe4  1  0.88130426  0.13523805  0.85442636  1
  Fe  Fe5  1  0.61869574  0.36476195  0.85442636  1
  Fe  Fe6  1  0.36476195  0.88130426  0.64557164  1
  Fe  Fe7  1  0.13523805  0.61869574  0.64557164  1
  Fe  Fe8  1  0.11869574  0.86476195  0.14557064  1
  Fe  Fe9  1  0.38130426  0.63523705  0.14557064  1
  B  B10  1  0.04684305  0.58522590  0.14555323  1
  B  B11  1  0.45315695  0.91477310  0.14555323  1
  B  B12  1  0.41477410  0.54684305  0.64555323  1
  B  B13  1  0.08522590  0.95315695  0.64555323  1
  B  B14  1  0.95315695  0.41477410  0.85444777  1
  B  B15  1  0.54684305  0.08522590  0.85444777  1
  B  B16  1  0.58522590  0.45315695  0.35444677  1
  B  B17  1  0.91477310  0.04684305  0.35444677  1
