# generated using pymatgen
data_Li9Mn2Co5O16
_symmetry_space_group_name_H-M   'P 1'
_cell_length_a   2.88452897
_cell_length_b   8.40660048
_cell_length_c   11.82026152
_cell_angle_alpha   89.68605719
_cell_angle_beta   90.00000000
_cell_angle_gamma   90.00000000
_symmetry_Int_Tables_number   1
_chemical_formula_structural   Li9Mn2Co5O16
_chemical_formula_sum   'Li9 Mn2 Co5 O16'
_cell_volume   286.62619566
_cell_formula_units_Z   1
loop_
 _symmetry_equiv_pos_site_id
 _symmetry_equiv_pos_as_xyz
  1  'x, y, z'
loop_
 _atom_site_type_symbol
 _atom_site_label
 _atom_site_symmetry_multiplicity
 _atom_site_fract_x
 _atom_site_fract_y
 _atom_site_fract_z
 _atom_site_occupancy
  Li  Li0  1  0.50000000  0.25058697  0.11928665  1
  Li  Li1  1  0.50000000  0.74772266  0.37176924  1
  Li  Li2  1  0.50000000  0.25151443  0.62637137  1
  Li  Li3  1  0.00000000  0.49071007  0.99590668  1
  Li  Li4  1  0.00000000  0.00289233  0.24830893  1
  Li  Li5  1  0.00000000  0.49532716  0.50029840  1
  Li  Li6  1  0.50000000  0.74609234  0.87791825  1
  Li  Li7  1  -0.00000000  0.01419514  0.75542099  1
  Li  Li8  1  0.50000000  0.25034089  0.87845752  1
  Mn  Mn9  1  -0.00000000  0.00969884  0.99791817  1
  Mn  Mn10  1  0.50000000  0.74630585  0.62573579  1
  Co  Co11  1  -0.00000000  0.49909528  0.24869721  1
  Co  Co12  1  0.00000000  0.00255194  0.49906801  1
  Co  Co13  1  0.00000000  0.47207232  0.75750187  1
  Co  Co14  1  0.50000000  0.74870684  0.12451437  1
  Co  Co15  1  0.50000000  0.25353723  0.37619956  1
  O  O16  1  0.50000000  -0.00424511  0.11275487  1
  O  O17  1  0.50000000  0.49642284  0.36625715  1
  O  O18  1  0.50000000  0.98378151  0.60977839  1
  O  O19  1  -0.00000000  0.22755411  0.00055518  1
  O  O20  1  -0.00000000  0.74740299  0.24549286  1
  O  O21  1  -0.00000000  0.24934539  0.49502235  1
  O  O22  1  0.50000000  0.50518738  0.86689534  1
  O  O23  1  0.00000000  0.75817847  0.73405870  1
  O  O24  1  0.50000000  0.50605901  0.13218353  1
  O  O25  1  0.50000000  0.00457922  0.38922922  1
  O  O26  1  0.50000000  0.52204436  0.63365067  1
  O  O27  1  0.00000000  0.76670253  0.00579348  1
  O  O28  1  -0.00000000  0.25331815  0.25801306  1
  O  O29  1  -0.00000000  0.74634640  0.51399212  1
  O  O30  1  0.50000000  0.99714015  0.88808911  1
  O  O31  1  0.00000000  0.25883229  0.74486099  1
