# generated using pymatgen
data_BaCrN2
_symmetry_space_group_name_H-M   'P 1'
_cell_length_a   6.46819917
_cell_length_b   11.52199055
_cell_length_c   7.82344302
_cell_angle_alpha   90.00000000
_cell_angle_beta   90.00000000
_cell_angle_gamma   27.04312887
_symmetry_Int_Tables_number   1
_chemical_formula_structural   BaCrN2
_chemical_formula_sum   'Ba4 Cr4 N8'
_cell_volume   265.09198081
_cell_formula_units_Z   4
loop_
 _symmetry_equiv_pos_site_id
 _symmetry_equiv_pos_as_xyz
  1  'x, y, z'
loop_
 _atom_site_type_symbol
 _atom_site_label
 _atom_site_symmetry_multiplicity
 _atom_site_fract_x
 _atom_site_fract_y
 _atom_site_fract_z
 _atom_site_occupancy
  Ba  Ba0  1  0.00000000  0.15883096  0.55974137  1
  Ba  Ba1  1  0.00000000  0.84116904  0.44025863  1
  Ba  Ba2  1  0.00000000  0.34116904  0.05974137  1
  Ba  Ba3  1  0.00000000  0.65883096  0.94025863  1
  Cr  Cr4  1  0.00000000  0.44905493  0.63550107  1
  Cr  Cr5  1  0.00000000  0.55094507  0.36449893  1
  Cr  Cr6  1  0.00000000  0.05094507  0.13550107  1
  Cr  Cr7  1  0.00000000  0.94905493  0.86449893  1
  N  N8  1  0.00000000  0.10648169  0.91078682  1
  N  N9  1  1.00000000  0.89351831  0.08921318  1
  N  N10  1  1.00000000  0.39351831  0.41078682  1
  N  N11  1  0.00000000  0.60648169  0.58921318  1
  N  N12  1  0.50000000  0.65734875  0.75000000  1
  N  N13  1  0.50000000  0.84265125  0.25000000  1
  N  N14  1  0.50000000  0.34265125  0.25000000  1
  N  N15  1  0.50000000  0.15734875  0.75000000  1
