# generated using pymatgen
data_Na2GeTeO6
_symmetry_space_group_name_H-M   'P 1'
_cell_length_a   5.18405356
_cell_length_b   5.18405356
_cell_length_c   10.82240993
_cell_angle_alpha   90.00000000
_cell_angle_beta   90.00000000
_cell_angle_gamma   119.99999999
_symmetry_Int_Tables_number   1
_chemical_formula_structural   Na2GeTeO6
_chemical_formula_sum   'Na4 Ge2 Te2 O12'
_cell_volume   251.87993454
_cell_formula_units_Z   2
loop_
 _symmetry_equiv_pos_site_id
 _symmetry_equiv_pos_as_xyz
  1  'x, y, z'
loop_
 _atom_site_type_symbol
 _atom_site_label
 _atom_site_symmetry_multiplicity
 _atom_site_fract_x
 _atom_site_fract_y
 _atom_site_fract_z
 _atom_site_occupancy
  O  O0  1  0.94473643  0.66122680  0.14797634  1
  O  O1  1  0.33877320  0.28350963  0.14797634  1
  O  O2  1  0.71649037  0.05526357  0.14797634  1
  O  O3  1  0.33877320  0.05526357  0.35202366  1
  O  O4  1  0.71649037  0.66122680  0.35202366  1
  O  O5  1  0.94473643  0.28350963  0.35202366  1
  O  O6  1  0.05526357  0.33877320  0.85202366  1
  O  O7  1  0.66122680  0.71649037  0.85202366  1
  O  O8  1  0.05526357  0.71649037  0.64797634  1
  O  O9  1  0.28350963  0.33877320  0.64797634  1
  O  O10  1  0.66122680  0.94473643  0.64797634  1
  O  O11  1  0.28350963  0.94473643  0.85202366  1
  Na  Na12  1  0.66666667  0.33333333  0.95959977  1
  Na  Na13  1  0.66666667  0.33333333  0.54040023  1
  Na  Na14  1  0.33333333  0.66666667  0.45959977  1
  Na  Na15  1  0.33333333  0.66666667  0.04040023  1
  Ge  Ge16  1  0.33333333  0.66666667  0.75000000  1
  Ge  Ge17  1  0.66666667  0.33333333  0.25000000  1
  Te  Te18  1  0.00000000  0.00000000  0.25000000  1
  Te  Te19  1  0.00000000  0.00000000  0.75000000  1
