# generated using pymatgen
data_BaMnN2
_symmetry_space_group_name_H-M   'P 1'
_cell_length_a   6.42796517
_cell_length_b   11.46648176
_cell_length_c   7.79473905
_cell_angle_alpha   90.00000000
_cell_angle_beta   90.00000000
_cell_angle_gamma   26.88427787
_symmetry_Int_Tables_number   1
_chemical_formula_structural   BaMnN2
_chemical_formula_sum   'Ba4 Mn4 N8'
_cell_volume   259.79226431
_cell_formula_units_Z   4
loop_
 _symmetry_equiv_pos_site_id
 _symmetry_equiv_pos_as_xyz
  1  'x, y, z'
loop_
 _atom_site_type_symbol
 _atom_site_label
 _atom_site_symmetry_multiplicity
 _atom_site_fract_x
 _atom_site_fract_y
 _atom_site_fract_z
 _atom_site_occupancy
  Ba  Ba0  1  1.00000000  0.15652353  0.55974586  1
  Ba  Ba1  1  0.00000000  0.84347647  0.44025414  1
  Ba  Ba2  1  0.00000000  0.34347647  0.05974586  1
  Ba  Ba3  1  1.00000000  0.65652353  0.94025414  1
  Mn  Mn4  1  0.00000000  0.45027135  0.63376421  1
  Mn  Mn5  1  -0.00000000  0.54972865  0.36623579  1
  Mn  Mn6  1  -0.00000000  0.04972865  0.13376421  1
  Mn  Mn7  1  0.00000000  0.95027135  0.86623579  1
  N  N8  1  0.00000000  0.11041849  0.91510892  1
  N  N9  1  1.00000000  0.88958151  0.08489108  1
  N  N10  1  1.00000000  0.38958151  0.41510892  1
  N  N11  1  0.00000000  0.61041849  0.58489108  1
  N  N12  1  0.50000000  0.66485048  0.75000000  1
  N  N13  1  0.50000000  0.83514952  0.25000000  1
  N  N14  1  0.50000000  0.33514952  0.25000000  1
  N  N15  1  0.50000000  0.16485048  0.75000000  1
