# generated using pymatgen
data_BaGe(PO4)2
_symmetry_space_group_name_H-M   'P 1'
_cell_length_a   4.80889694
_cell_length_b   4.80889694
_cell_length_c   7.88144209
_cell_angle_alpha   86.07746773
_cell_angle_beta   86.07746773
_cell_angle_gamma   64.62874648
_symmetry_Int_Tables_number   1
_chemical_formula_structural   BaGe(PO4)2
_chemical_formula_sum   'Ba1 Ge1 P2 O8'
_cell_volume   164.14271212
_cell_formula_units_Z   1
loop_
 _symmetry_equiv_pos_site_id
 _symmetry_equiv_pos_as_xyz
  1  'x, y, z'
loop_
 _atom_site_type_symbol
 _atom_site_label
 _atom_site_symmetry_multiplicity
 _atom_site_fract_x
 _atom_site_fract_y
 _atom_site_fract_z
 _atom_site_occupancy
  Ba  Ba0  1  0.00000000  0.00000000  0.50000000  1
  Ge  Ge1  1  0.00000000  0.00000000  -0.00000000  1
  P  P2  1  0.63298798  0.63298798  0.19430694  1
  P  P3  1  0.36701202  0.36701202  0.80569306  1
  O  O4  1  0.77216812  0.77216812  0.05135983  1
  O  O5  1  0.22783188  0.22783188  0.94864017  1
  O  O6  1  0.68168455  0.68168455  0.37736265  1
  O  O7  1  0.31831545  0.31831545  0.62263735  1
  O  O8  1  0.76965311  0.27521971  0.17408925  1
  O  O9  1  0.27521971  0.76965311  0.17408925  1
  O  O10  1  0.23034689  0.72478029  0.82591075  1
  O  O11  1  0.72478029  0.23034689  0.82591075  1
