# generated using pymatgen
data_YbAu4
_symmetry_space_group_name_H-M   'P 1'
_cell_length_a   4.33915542
_cell_length_b   5.20561680
_cell_length_c   5.20561679
_cell_angle_alpha   79.99684033
_cell_angle_beta   65.36877141
_cell_angle_gamma   65.36877147
_symmetry_Int_Tables_number   1
_chemical_formula_structural   YbAu4
_chemical_formula_sum   'Yb1 Au4'
_cell_volume   97.15967252
_cell_formula_units_Z   1
loop_
 _symmetry_equiv_pos_site_id
 _symmetry_equiv_pos_as_xyz
  1  'x, y, z'
loop_
 _atom_site_type_symbol
 _atom_site_label
 _atom_site_symmetry_multiplicity
 _atom_site_fract_x
 _atom_site_fract_y
 _atom_site_fract_z
 _atom_site_occupancy
  Yb  Yb0  1  0.00000000  0.00000000  0.00000000  1
  Au  Au1  1  0.59329654  0.60637592  0.20703100  1
  Au  Au2  1  0.40670346  0.39362408  0.79296900  1
  Au  Au3  1  0.80032754  0.79296900  0.60637592  1
  Au  Au4  1  0.19967246  0.20703100  0.39362408  1
