# generated using pymatgen
data_Li9Mn2Co5O16
_symmetry_space_group_name_H-M   'P 1'
_cell_length_a   2.87591020
_cell_length_b   9.90902741
_cell_length_c   10.32815298
_cell_angle_alpha   83.60037537
_cell_angle_beta   89.99999968
_cell_angle_gamma   81.65602624
_symmetry_Int_Tables_number   1
_chemical_formula_structural   Li9Mn2Co5O16
_chemical_formula_sum   'Li9 Mn2 Co5 O16'
_cell_volume   289.35693389
_cell_formula_units_Z   1
loop_
 _symmetry_equiv_pos_site_id
 _symmetry_equiv_pos_as_xyz
  1  'x, y, z'
loop_
 _atom_site_type_symbol
 _atom_site_label
 _atom_site_symmetry_multiplicity
 _atom_site_fract_x
 _atom_site_fract_y
 _atom_site_fract_z
 _atom_site_occupancy
  Li  Li0  1  0.38051689  0.23896622  0.06669971  1
  Li  Li1  1  0.11939712  0.76120575  0.19275297  1
  Li  Li2  1  0.87689165  0.24621669  0.31995884  1
  Li  Li3  1  0.61700453  0.76599093  0.44943655  1
  Li  Li4  1  0.38262059  0.23475883  0.56244111  1
  Li  Li5  1  0.12386836  0.75226327  0.67752474  1
  Li  Li6  1  0.87795449  0.24409102  0.79904737  1
  Li  Li7  1  0.62086067  0.75827866  0.93124804  1
  Li  Li8  1  0.00015942  0.99968115  0.50058023  1
  Mn  Mn9  1  0.00019353  -0.00038706  0.00014778  1
  Mn  Mn10  1  0.74948414  0.50103172  0.12423834  1
  Co  Co11  1  0.49568914  0.00862172  0.27096973  1
  Co  Co12  1  0.24837112  0.50325776  0.37802399  1
  Co  Co13  1  0.75081790  0.49836420  0.62527470  1
  Co  Co14  1  0.50440873  0.99118254  0.73010003  1
  Co  Co15  1  0.25085564  0.49828873  0.87202657  1
  O  O16  1  0.44409386  0.11181227  0.91807947  1
  O  O17  1  0.19274767  0.61450465  0.04674949  1
  O  O18  1  0.94612600  0.10774800  0.14816152  1
  O  O19  1  0.69904338  0.60191324  0.27809041  1
  O  O20  1  0.43725467  0.12549066  0.39350553  1
  O  O21  1  0.19121605  0.61756791  0.53532630  1
  O  O22  1  0.94184084  0.11631831  0.66382374  1
  O  O23  1  0.69594502  0.60810996  0.79112552  1
  O  O24  1  0.30662686  0.38674629  0.20171310  1
  O  O25  1  0.05946214  0.88107573  0.33510547  1
  O  O26  1  0.80356782  0.39286436  0.45945448  1
  O  O27  1  0.56173195  0.87653610  0.60617364  1
  O  O28  1  0.31004202  0.37991596  0.71679634  1
  O  O29  1  0.05407634  0.89184732  0.85238850  1
  O  O30  1  0.80100961  0.39798079  0.97069966  1
  O  O31  1  0.55612185  0.88775631  0.08233613  1
