# generated using pymatgen
data_Nb5Ga13
_symmetry_space_group_name_H-M   'P 1'
_cell_length_a   3.80573297
_cell_length_b   3.79071793
_cell_length_c   20.48964570
_cell_angle_alpha   90.00000000
_cell_angle_beta   95.32871835
_cell_angle_gamma   90.00000000
_symmetry_Int_Tables_number   1
_chemical_formula_structural   Nb5Ga13
_chemical_formula_sum   'Nb5 Ga13'
_cell_volume   294.31558589
_cell_formula_units_Z   1
loop_
 _symmetry_equiv_pos_site_id
 _symmetry_equiv_pos_as_xyz
  1  'x, y, z'
loop_
 _atom_site_type_symbol
 _atom_site_label
 _atom_site_symmetry_multiplicity
 _atom_site_fract_x
 _atom_site_fract_y
 _atom_site_fract_z
 _atom_site_occupancy
  Ga  Ga0  1  0.44514246  0.50000000  0.89028492  1
  Ga  Ga1  1  0.55485754  0.50000000  0.10971508  1
  Ga  Ga2  1  0.33565607  0.50000000  0.67131214  1
  Ga  Ga3  1  0.66434393  0.50000000  0.32868786  1
  Ga  Ga4  1  0.22817861  0.50000000  0.45635722  1
  Ga  Ga5  1  0.00000000  0.50000000  0.00000000  1
  Ga  Ga6  1  0.94538939  0.00000000  0.89077878  1
  Ga  Ga7  1  0.05461061  0.00000000  0.10922122  1
  Ga  Ga8  1  0.83504511  0.00000000  0.67009022  1
  Ga  Ga9  1  0.16495489  0.00000000  0.32990978  1
  Ga  Ga10  1  0.61189290  0.00000000  0.22378581  1
  Ga  Ga11  1  0.38810710  0.00000000  0.77621419  1
  Ga  Ga12  1  0.77182139  0.50000000  0.54364278  1
  Nb  Nb13  1  0.10797928  0.50000000  0.21595857  1
  Nb  Nb14  1  0.89202072  0.50000000  0.78404143  1
  Nb  Nb15  1  0.28391547  0.00000000  0.56783093  1
  Nb  Nb16  1  0.71608453  0.00000000  0.43216907  1
  Nb  Nb17  1  0.50000000  0.00000000  0.00000000  1
