# generated using pymatgen
data_La3Co2Sn7
_symmetry_space_group_name_H-M   'P 1'
_cell_length_a   4.64756646
_cell_length_b   4.64499995
_cell_length_c   14.07998564
_cell_angle_alpha   90.00000000
_cell_angle_beta   99.49965059
_cell_angle_gamma   90.00000000
_symmetry_Int_Tables_number   1
_chemical_formula_structural   La3Co2Sn7
_chemical_formula_sum   'La3 Co2 Sn7'
_cell_volume   299.78967466
_cell_formula_units_Z   1
loop_
 _symmetry_equiv_pos_site_id
 _symmetry_equiv_pos_as_xyz
  1  'x, y, z'
loop_
 _atom_site_type_symbol
 _atom_site_label
 _atom_site_symmetry_multiplicity
 _atom_site_fract_x
 _atom_site_fract_y
 _atom_site_fract_z
 _atom_site_occupancy
  Co  Co0  1  0.62727089  0.50000000  0.25454178  1
  Co  Co1  1  0.37272911  0.50000000  0.74545822  1
  Sn  Sn2  1  0.71737227  0.50000000  0.43474455  1
  Sn  Sn3  1  0.28262773  0.50000000  0.56525545  1
  Sn  Sn4  1  0.59014678  0.00000000  0.18029355  1
  Sn  Sn5  1  0.00000000  0.00000000  0.00000000  1
  Sn  Sn6  1  0.40985322  0.00000000  0.81970645  1
  Sn  Sn7  1  0.90968231  0.50000000  0.81936461  1
  Sn  Sn8  1  0.09031769  0.50000000  0.18063539  1
  La  La9  1  0.50000000  0.50000000  0.00000000  1
  La  La10  1  0.18455857  0.00000000  0.36911713  1
  La  La11  1  0.81544143  0.00000000  0.63088287  1
