# generated using pymatgen
data_ErAl4Ge2Au
_symmetry_space_group_name_H-M   'P 1'
_cell_length_a   10.56016579
_cell_length_b   10.56016579
_cell_length_c   10.56016579
_cell_angle_alpha   23.17318828
_cell_angle_beta   23.17318831
_cell_angle_gamma   23.17318826
_symmetry_Int_Tables_number   1
_chemical_formula_structural   ErAl4Ge2Au
_chemical_formula_sum   'Er1 Al4 Ge2 Au1'
_cell_volume   160.07939315
_cell_formula_units_Z   1
loop_
 _symmetry_equiv_pos_site_id
 _symmetry_equiv_pos_as_xyz
  1  'x, y, z'
loop_
 _atom_site_type_symbol
 _atom_site_label
 _atom_site_symmetry_multiplicity
 _atom_site_fract_x
 _atom_site_fract_y
 _atom_site_fract_z
 _atom_site_occupancy
  Al  Al0  1  0.91550305  0.91550305  0.91550305  1
  Al  Al1  1  0.69304504  0.69304504  0.69304504  1
  Al  Al2  1  0.08449695  0.08449695  0.08449695  1
  Al  Al3  1  0.30695496  0.30695496  0.30695496  1
  Ge  Ge4  1  0.77897085  0.77897085  0.77897085  1
  Ge  Ge5  1  0.22102915  0.22102915  0.22102915  1
  Er  Er6  1  0.50000000  0.50000000  0.50000000  1
  Au  Au7  1  0.00000000  0.00000000  0.00000000  1
