# generated using pymatgen
data_La2CuBiS5
_symmetry_space_group_name_H-M   'P 1'
_cell_length_a   4.00389351
_cell_length_b   12.01458070
_cell_length_c   17.07793264
_cell_angle_alpha   90.00000000
_cell_angle_beta   90.00000000
_cell_angle_gamma   90.00000000
_symmetry_Int_Tables_number   1
_chemical_formula_structural   La2CuBiS5
_chemical_formula_sum   'La8 Cu4 Bi4 S20'
_cell_volume   821.53568630
_cell_formula_units_Z   4
loop_
 _symmetry_equiv_pos_site_id
 _symmetry_equiv_pos_as_xyz
  1  'x, y, z'
loop_
 _atom_site_type_symbol
 _atom_site_label
 _atom_site_symmetry_multiplicity
 _atom_site_fract_x
 _atom_site_fract_y
 _atom_site_fract_z
 _atom_site_occupancy
  La  La0  1  0.75000000  0.46771149  0.82595337  1
  La  La1  1  0.75000000  0.96771149  0.67404663  1
  La  La2  1  0.25000000  0.53228851  0.17404663  1
  La  La3  1  0.25000000  0.03228851  0.32595337  1
  La  La4  1  0.75000000  0.12616740  0.90232620  1
  La  La5  1  0.75000000  0.62616740  0.59767380  1
  La  La6  1  0.25000000  0.87383260  0.09767380  1
  La  La7  1  0.25000000  0.37383260  0.40232620  1
  Cu  Cu8  1  0.75000000  0.09835900  0.50297409  1
  Cu  Cu9  1  0.75000000  0.59835900  0.99702591  1
  Cu  Cu10  1  0.25000000  0.90164100  0.49702591  1
  Cu  Cu11  1  0.25000000  0.40164100  0.00297409  1
  Bi  Bi12  1  0.75000000  0.20037135  0.13706450  1
  Bi  Bi13  1  0.75000000  0.70037135  0.36293550  1
  Bi  Bi14  1  0.25000000  0.79962865  0.86293550  1
  Bi  Bi15  1  0.25000000  0.29962865  0.63706450  1
  S  S16  1  0.75000000  0.48809020  0.29814010  1
  S  S17  1  0.75000000  0.98809020  0.20185990  1
  S  S18  1  0.25000000  0.51190980  0.70185990  1
  S  S19  1  0.25000000  0.01190980  0.79814010  1
  S  S20  1  0.75000000  0.41473812  0.07348105  1
  S  S21  1  0.75000000  0.91473812  0.42651895  1
  S  S22  1  0.25000000  0.58526188  0.92651895  1
  S  S23  1  0.25000000  0.08526188  0.57348105  1
  S  S24  1  0.75000000  0.39333278  0.53050296  1
  S  S25  1  0.75000000  0.89333278  0.96949704  1
  S  S26  1  0.25000000  0.60666722  0.46949704  1
  S  S27  1  0.25000000  0.10666722  0.03050296  1
  S  S28  1  0.75000000  0.23439873  0.73425257  1
  S  S29  1  0.75000000  0.73439873  0.76574743  1
  S  S30  1  0.25000000  0.76560127  0.26574743  1
  S  S31  1  0.25000000  0.26560127  0.23425257  1
  S  S32  1  0.75000000  0.19132493  0.38727343  1
  S  S33  1  0.75000000  0.69132493  0.11272657  1
  S  S34  1  0.25000000  0.80867507  0.61272657  1
  S  S35  1  0.25000000  0.30867507  0.88727343  1
