# generated using pymatgen
data_LiYbGe2
_symmetry_space_group_name_H-M   'P 1'
_cell_length_a   3.91768853
_cell_length_b   7.96165621
_cell_length_c   10.61510093
_cell_angle_alpha   90.00000000
_cell_angle_beta   90.00000000
_cell_angle_gamma   90.00000000
_symmetry_Int_Tables_number   1
_chemical_formula_structural   LiYbGe2
_chemical_formula_sum   'Li4 Yb4 Ge8'
_cell_volume   331.09868314
_cell_formula_units_Z   4
loop_
 _symmetry_equiv_pos_site_id
 _symmetry_equiv_pos_as_xyz
  1  'x, y, z'
loop_
 _atom_site_type_symbol
 _atom_site_label
 _atom_site_symmetry_multiplicity
 _atom_site_fract_x
 _atom_site_fract_y
 _atom_site_fract_z
 _atom_site_occupancy
  Li  Li0  1  0.25000000  0.98930767  0.89111896  1
  Li  Li1  1  0.75000000  0.01069233  0.10888104  1
  Li  Li2  1  0.25000000  0.48930767  0.60888104  1
  Li  Li3  1  0.75000000  0.51069233  0.39111896  1
  Ge  Ge4  1  0.75000000  0.84503247  0.31985157  1
  Ge  Ge5  1  0.25000000  0.15496753  0.68014843  1
  Ge  Ge6  1  0.75000000  0.34503247  0.18014843  1
  Ge  Ge7  1  0.25000000  0.65496753  0.81985157  1
  Ge  Ge8  1  0.75000000  0.76692421  0.93952765  1
  Ge  Ge9  1  0.25000000  0.23307579  0.06047235  1
  Ge  Ge10  1  0.75000000  0.26692421  0.56047235  1
  Ge  Ge11  1  0.25000000  0.73307579  0.43952765  1
  Yb  Yb12  1  0.25000000  0.63462981  0.13667852  1
  Yb  Yb13  1  0.75000000  0.36537019  0.86332148  1
  Yb  Yb14  1  0.25000000  0.13462981  0.36332148  1
  Yb  Yb15  1  0.75000000  0.86537019  0.63667852  1
