# generated using pymatgen
data_Li9Mn2Co5O16
_symmetry_space_group_name_H-M   'P 1'
_cell_length_a   5.83743840
_cell_length_b   9.85267544
_cell_length_c   5.87381142
_cell_angle_alpha   98.37964942
_cell_angle_beta   60.20463073
_cell_angle_gamma   89.99999808
_symmetry_Int_Tables_number   1
_chemical_formula_structural   Li9Mn2Co5O16
_chemical_formula_sum   'Li9 Mn2 Co5 O16'
_cell_volume   289.00622038
_cell_formula_units_Z   1
loop_
 _symmetry_equiv_pos_site_id
 _symmetry_equiv_pos_as_xyz
  1  'x, y, z'
loop_
 _atom_site_type_symbol
 _atom_site_label
 _atom_site_symmetry_multiplicity
 _atom_site_fract_x
 _atom_site_fract_y
 _atom_site_fract_z
 _atom_site_occupancy
  Li  Li0  1  0.62590071  0.24128157  0.23874222  1
  Li  Li1  1  0.37318399  0.75863298  0.76126151  1
  Li  Li2  1  0.13535706  0.24128157  0.23874222  1
  Li  Li3  1  0.12773132  0.23934692  0.74453736  1
  Li  Li4  1  0.87427424  0.75918261  0.25145151  1
  Li  Li5  1  0.62105441  0.23584732  0.75789117  1
  Li  Li6  1  0.37759571  0.76494070  0.24480858  1
  Li  Li7  1  0.86555450  0.75863298  0.76126151  1
  Li  Li8  1  0.50010456  0.99963754  0.99979087  1
  Mn  Mn9  1  0.00010014  0.00007310  -0.00020027  1
  Mn  Mn10  1  0.74975843  0.50004554  0.50048315  1
  Co  Co11  1  0.24975971  0.50070517  0.50048059  1
  Co  Co12  1  0.50034759  0.00005086  0.49985344  1
  Co  Co13  1  0.24952714  0.49956127  0.00027774  1
  Co  Co14  1  -0.00020104  0.00005086  0.49985344  1
  Co  Co15  1  0.75019512  0.49956127  0.00027774  1
  O  O16  1  0.82979410  0.11395790  0.87270937  1
  O  O17  1  0.56867236  0.61295964  0.38263139  1
  O  O18  1  0.29749652  0.11395790  0.87270937  1
  O  O19  1  0.30475318  0.11124114  0.39049364  1
  O  O20  1  0.05646233  0.61143173  0.88707534  1
  O  O21  1  0.82433296  0.11577967  0.35133407  1
  O  O22  1  0.57341153  0.61398698  0.85317695  1
  O  O23  1  0.04869625  0.61295964  0.38263139  1
  O  O24  1  0.45157766  0.38711106  0.61743080  1
  O  O25  1  0.17184995  0.88648043  0.12722503  1
  O  O26  1  0.93099154  0.38711106  0.61743080  1
  O  O27  1  0.92505428  0.38823833  0.14989144  1
  O  O28  1  0.69530975  0.89041232  0.60938049  1
  O  O29  1  0.44404126  0.38599351  0.11191747  1
  O  O30  1  0.17638768  0.88306602  0.64722464  1
  O  O31  1  0.70092502  0.88648043  0.12722503  1
