# generated using pymatgen
data_Cs4U3Si4O17
_symmetry_space_group_name_H-M   'P 1'
_cell_length_a   6.97833235
_cell_length_b   6.97833235
_cell_length_c   11.97001893
_cell_angle_alpha   75.45628007
_cell_angle_beta   75.45628007
_cell_angle_gamma   66.22423420
_symmetry_Int_Tables_number   1
_chemical_formula_structural   Cs4U3Si4O17
_chemical_formula_sum   'Cs4 U3 Si4 O17'
_cell_volume   508.89652057
_cell_formula_units_Z   1
loop_
 _symmetry_equiv_pos_site_id
 _symmetry_equiv_pos_as_xyz
  1  'x, y, z'
loop_
 _atom_site_type_symbol
 _atom_site_label
 _atom_site_symmetry_multiplicity
 _atom_site_fract_x
 _atom_site_fract_y
 _atom_site_fract_z
 _atom_site_occupancy
  Cs  Cs0  1  0.17915417  0.17915417  0.48233395  1
  Cs  Cs1  1  0.82084583  0.82084583  0.51766605  1
  Cs  Cs2  1  0.14879874  0.14879874  0.07950317  1
  Cs  Cs3  1  0.85120126  0.85120126  0.92049683  1
  U  U4  1  0.55028709  0.55028709  0.31303761  1
  U  U5  1  0.44971291  0.44971291  0.68696239  1
  U  U6  1  0.50000000  0.50000000  -0.00000000  1
  Si  Si7  1  0.04567116  0.63286767  0.23353197  1
  Si  Si8  1  0.63286767  0.04567116  0.23353197  1
  Si  Si9  1  0.95432884  0.36713233  0.76646803  1
  Si  Si10  1  0.36713233  0.95432884  0.76646803  1
  O  O11  1  0.17446612  0.57857582  0.10355004  1
  O  O12  1  0.57857582  0.17446612  0.10355004  1
  O  O13  1  0.82553388  0.42142418  0.89644996  1
  O  O14  1  0.42142418  0.82553388  0.89644996  1
  O  O15  1  0.89852986  0.48894832  0.29712611  1
  O  O16  1  0.48894832  0.89852986  0.29712611  1
  O  O17  1  0.10147014  0.51105168  0.70287389  1
  O  O18  1  0.51105168  0.10147014  0.70287389  1
  O  O19  1  0.20843173  0.61003938  0.31835607  1
  O  O20  1  0.61003938  0.20843173  0.31835607  1
  O  O21  1  0.79156827  0.38996062  0.68164393  1
  O  O22  1  0.38996062  0.79156827  0.68164393  1
  O  O23  1  0.88646060  0.88646060  0.21385563  1
  O  O24  1  0.11353940  0.11353940  0.78614437  1
  O  O25  1  0.59418009  0.59418009  0.12288872  1
  O  O26  1  0.40581991  0.40581991  0.87711128  1
  O  O27  1  0.50000000  0.50000000  0.50000000  1
