# generated using pymatgen
data_RbCr(SO4)2
_symmetry_space_group_name_H-M   'P 1'
_cell_length_a   4.90082019
_cell_length_b   4.90082019
_cell_length_c   17.16538878
_cell_angle_alpha   90.00000000
_cell_angle_beta   90.00000000
_cell_angle_gamma   119.99999692
_symmetry_Int_Tables_number   1
_chemical_formula_structural   RbCr(SO4)2
_chemical_formula_sum   'Rb2 Cr2 S4 O16'
_cell_volume   357.04407214
_cell_formula_units_Z   2
loop_
 _symmetry_equiv_pos_site_id
 _symmetry_equiv_pos_as_xyz
  1  'x, y, z'
loop_
 _atom_site_type_symbol
 _atom_site_label
 _atom_site_symmetry_multiplicity
 _atom_site_fract_x
 _atom_site_fract_y
 _atom_site_fract_z
 _atom_site_occupancy
  Rb  Rb0  1  -0.00000000  -0.00000000  -0.00000000  1
  Rb  Rb1  1  -0.00000000  -0.00000000  0.50000000  1
  Cr  Cr2  1  -0.00000000  -0.00000000  0.75000000  1
  Cr  Cr3  1  -0.00000000  -0.00000000  0.25000000  1
  S  S4  1  0.66666700  0.33333300  0.84906953  1
  S  S5  1  0.33333300  0.66666700  0.15093047  1
  S  S6  1  0.66666700  0.33333300  0.34906953  1
  S  S7  1  0.33333300  0.66666700  0.65093047  1
  O  O8  1  0.64164119  0.92973717  0.67988109  1
  O  O9  1  0.28809599  0.35835881  0.67988109  1
  O  O10  1  0.71190401  0.07026283  0.32011891  1
  O  O11  1  0.07026283  0.71190401  0.67988109  1
  O  O12  1  0.92973717  0.64164119  0.32011891  1
  O  O13  1  0.35835881  0.28809599  0.32011891  1
  O  O14  1  0.66666700  0.33333300  0.93427255  1
  O  O15  1  0.33333300  0.66666700  0.06572745  1
  O  O16  1  0.92973717  0.28809599  0.82011891  1
  O  O17  1  0.35835881  0.07026283  0.82011891  1
  O  O18  1  0.64164119  0.71190401  0.17988109  1
  O  O19  1  0.71190401  0.64164119  0.82011891  1
  O  O20  1  0.28809599  0.92973717  0.17988109  1
  O  O21  1  0.07026283  0.35835881  0.17988109  1
  O  O22  1  0.66666700  0.33333300  0.43427255  1
  O  O23  1  0.33333300  0.66666700  0.56572745  1
