# generated using pymatgen
data_Li9Mn2Co5O16
_symmetry_space_group_name_H-M   'P 1'
_cell_length_a   5.01746918
_cell_length_b   9.80514165
_cell_length_c   5.90708597
_cell_angle_alpha   90.00000000
_cell_angle_beta   90.00000000
_cell_angle_gamma   100.29275814
_symmetry_Int_Tables_number   1
_chemical_formula_structural   Li9Mn2Co5O16
_chemical_formula_sum   'Li9 Mn2 Co5 O16'
_cell_volume   285.93426694
_cell_formula_units_Z   1
loop_
 _symmetry_equiv_pos_site_id
 _symmetry_equiv_pos_as_xyz
  1  'x, y, z'
loop_
 _atom_site_type_symbol
 _atom_site_label
 _atom_site_symmetry_multiplicity
 _atom_site_fract_x
 _atom_site_fract_y
 _atom_site_fract_z
 _atom_site_occupancy
  Li  Li0  1  0.24530757  0.24312204  0.25601474  1
  Li  Li1  1  0.75469243  0.75687796  0.25601474  1
  Li  Li2  1  0.75304253  0.24131482  0.50000000  1
  Li  Li3  1  0.24695747  0.75868518  0.50000000  1
  Li  Li4  1  0.24530757  0.24312204  0.74398526  1
  Li  Li5  1  0.75469243  0.75687796  0.74398526  1
  Li  Li6  1  0.74859523  0.24366470  0.00000000  1
  Li  Li7  1  0.25140477  0.75633530  0.00000000  1
  Li  Li8  1  0.00000000  0.00000000  0.50000000  1
  Mn  Mn9  1  0.00000000  0.00000000  0.00000000  1
  Mn  Mn10  1  0.50000000  0.50000000  0.50000000  1
  Co  Co11  1  0.50000000  0.50000000  0.00000000  1
  Co  Co12  1  0.50000000  0.00000000  0.26006509  1
  Co  Co13  1  0.00000000  0.50000000  0.24356058  1
  Co  Co14  1  0.50000000  0.00000000  0.73993491  1
  Co  Co15  1  0.00000000  0.50000000  0.75643942  1
  O  O16  1  0.86104765  0.11064731  0.23195390  1
  O  O17  1  0.37564200  0.61202717  0.26522934  1
  O  O18  1  0.39229745  0.11773365  0.50000000  1
  O  O19  1  0.85861824  0.61173801  0.50000000  1
  O  O20  1  0.86104765  0.11064731  0.76804610  1
  O  O21  1  0.37564200  0.61202717  0.73477066  1
  O  O22  1  0.35367762  0.11496048  0.00000000  1
  O  O23  1  0.88631708  0.61638057  0.00000000  1
  O  O24  1  0.62435800  0.38797283  0.26522934  1
  O  O25  1  0.13895235  0.88935269  0.23195390  1
  O  O26  1  0.14138176  0.38826199  0.50000000  1
  O  O27  1  0.60770255  0.88226635  0.50000000  1
  O  O28  1  0.62435800  0.38797283  0.73477066  1
  O  O29  1  0.13895235  0.88935269  0.76804610  1
  O  O30  1  0.11368292  0.38361943  0.00000000  1
  O  O31  1  0.64632238  0.88503952  0.00000000  1
