# generated using pymatgen
data_HoSbO4
_symmetry_space_group_name_H-M   'P 1'
_cell_length_a   5.39190914
_cell_length_b   7.66842061
_cell_length_c   7.56255683
_cell_angle_alpha   81.00193314
_cell_angle_beta   90.82701509
_cell_angle_gamma   92.10976297
_symmetry_Int_Tables_number   1
_chemical_formula_structural   HoSbO4
_chemical_formula_sum   'Ho4 Sb4 O16'
_cell_volume   308.62287969
_cell_formula_units_Z   4
loop_
 _symmetry_equiv_pos_site_id
 _symmetry_equiv_pos_as_xyz
  1  'x, y, z'
loop_
 _atom_site_type_symbol
 _atom_site_label
 _atom_site_symmetry_multiplicity
 _atom_site_fract_x
 _atom_site_fract_y
 _atom_site_fract_z
 _atom_site_occupancy
  Ho  Ho0  1  0.25829227  0.13701235  0.62023106  1
  Ho  Ho1  1  0.74170773  0.86298765  0.37976894  1
  Ho  Ho2  1  0.21280977  0.15860173  0.10943385  1
  Ho  Ho3  1  0.78719023  0.84139827  0.89056615  1
  Sb  Sb4  1  0.23982686  0.66027294  0.19510534  1
  Sb  Sb5  1  0.76017314  0.33972706  0.80489466  1
  Sb  Sb6  1  0.72916381  0.33198241  0.30754636  1
  Sb  Sb7  1  0.27083619  0.66801759  0.69245364  1
  O  O8  1  0.08456650  0.43679730  0.68769990  1
  O  O9  1  0.91543350  0.56320270  0.31230010  1
  O  O10  1  0.61134490  0.31742176  0.55967332  1
  O  O11  1  0.38865510  0.68257824  0.44032668  1
  O  O12  1  0.87578345  0.33504560  0.06022159  1
  O  O13  1  0.12421655  0.66495440  0.93977841  1
  O  O14  1  0.39937674  0.42639707  0.20276983  1
  O  O15  1  0.60062326  0.57360293  0.79723017  1
  O  O16  1  0.04454430  0.88441712  0.17078378  1
  O  O17  1  0.95545570  0.11558288  0.82921622  1
  O  O18  1  0.52351642  0.10647170  0.31048555  1
  O  O19  1  0.47648358  0.89352830  0.68951445  1
  O  O20  1  0.45917563  0.19816096  0.87942998  1
  O  O21  1  0.54082437  0.80183904  0.12057002  1
  O  O22  1  0.00263610  0.16921984  0.38063304  1
  O  O23  1  0.99736390  0.83078016  0.61936696  1
