# generated using pymatgen
data_KSi
_symmetry_space_group_name_H-M   'P 1'
_cell_length_a   12.69958236
_cell_length_b   12.69958236
_cell_length_c   12.69958236
_cell_angle_alpha   90.00000000
_cell_angle_beta   90.00000000
_cell_angle_gamma   90.00000000
_symmetry_Int_Tables_number   1
_chemical_formula_structural   KSi
_chemical_formula_sum   'K32 Si32'
_cell_volume   2048.18092318
_cell_formula_units_Z   32
loop_
 _symmetry_equiv_pos_site_id
 _symmetry_equiv_pos_as_xyz
  1  'x, y, z'
loop_
 _atom_site_type_symbol
 _atom_site_label
 _atom_site_symmetry_multiplicity
 _atom_site_fract_x
 _atom_site_fract_y
 _atom_site_fract_z
 _atom_site_occupancy
  Si  Si0  1  0.56228024  0.92650279  0.81695918  1
  Si  Si1  1  0.56228024  0.07349721  0.18304082  1
  Si  Si2  1  0.92650279  0.81695918  0.56228024  1
  Si  Si3  1  0.07349721  0.81695918  0.43771976  1
  Si  Si4  1  0.81695918  0.56228024  0.92650279  1
  Si  Si5  1  0.18304082  0.43771976  0.92650279  1
  Si  Si6  1  0.93771976  0.68304082  0.42650279  1
  Si  Si7  1  0.93771976  0.31695918  0.57349721  1
  Si  Si8  1  0.06228024  0.68304082  0.57349721  1
  Si  Si9  1  0.31695918  0.57349721  0.93771976  1
  Si  Si10  1  0.57349721  0.06228024  0.68304082  1
  Si  Si11  1  0.57349721  0.93771976  0.31695918  1
  Si  Si12  1  0.68304082  0.42650279  0.93771976  1
  Si  Si13  1  0.42650279  0.93771976  0.68304082  1
  Si  Si14  1  0.68304082  0.57349721  0.06228024  1
  Si  Si15  1  0.06775478  0.06775478  0.06775478  1
  Si  Si16  1  0.42650279  0.06228024  0.31695918  1
  Si  Si17  1  0.18304082  0.56228024  0.07349721  1
  Si  Si18  1  0.81695918  0.43771976  0.07349721  1
  Si  Si19  1  0.92650279  0.18304082  0.43771976  1
  Si  Si20  1  0.07349721  0.18304082  0.56228024  1
  Si  Si21  1  0.43771976  0.07349721  0.81695918  1
  Si  Si22  1  0.43771976  0.92650279  0.18304082  1
  Si  Si23  1  0.06228024  0.31695918  0.42650279  1
  Si  Si24  1  0.56775478  0.56775478  0.56775478  1
  Si  Si25  1  0.93224522  0.06775478  0.93224522  1
  Si  Si26  1  0.06775478  0.93224522  0.93224522  1
  Si  Si27  1  0.93224522  0.93224522  0.06775478  1
  Si  Si28  1  0.56775478  0.43224522  0.43224522  1
  Si  Si29  1  0.43224522  0.43224522  0.56775478  1
  Si  Si30  1  0.43224522  0.56775478  0.43224522  1
  Si  Si31  1  0.31695918  0.42650279  0.06228024  1
  K  K32  1  0.06637954  0.33725532  0.14006477  1
  K  K33  1  0.83725532  0.43362046  0.35993523  1
  K  K34  1  0.56637954  0.64006477  0.83725532  1
  K  K35  1  0.43362046  0.64006477  0.16274468  1
  K  K36  1  0.64006477  0.83725532  0.56637954  1
  K  K37  1  0.35993523  0.16274468  0.56637954  1
  K  K38  1  0.66274468  0.85993523  0.06637954  1
  K  K39  1  0.66274468  0.14006477  0.93362046  1
  K  K40  1  0.33725532  0.85993523  0.93362046  1
  K  K41  1  0.14006477  0.93362046  0.66274468  1
  K  K42  1  0.93362046  0.33725532  0.85993523  1
  K  K43  1  0.93362046  0.66274468  0.14006477  1
  K  K44  1  0.85993523  0.06637954  0.66274468  1
  K  K45  1  0.06637954  0.66274468  0.85993523  1
  K  K46  1  0.85993523  0.93362046  0.33725532  1
  K  K47  1  0.14006477  0.06637954  0.33725532  1
  K  K48  1  0.83725532  0.56637954  0.64006477  1
  K  K49  1  0.35993523  0.83725532  0.43362046  1
  K  K50  1  0.64006477  0.16274468  0.43362046  1
  K  K51  1  0.56637954  0.35993523  0.16274468  1
  K  K52  1  0.43362046  0.35993523  0.83725532  1
  K  K53  1  0.16274468  0.43362046  0.64006477  1
  K  K54  1  0.16274468  0.56637954  0.35993523  1
  K  K55  1  0.33725532  0.14006477  0.06637954  1
  K  K56  1  0.83373041  0.83373041  0.83373041  1
  K  K57  1  0.66626959  0.33373041  0.66626959  1
  K  K58  1  0.33373041  0.66626959  0.66626959  1
  K  K59  1  0.66626959  0.66626959  0.33373041  1
  K  K60  1  0.83373041  0.16626959  0.16626959  1
  K  K61  1  0.16626959  0.16626959  0.83373041  1
  K  K62  1  0.16626959  0.83373041  0.16626959  1
  K  K63  1  0.33373041  0.33373041  0.33373041  1
