# generated using pymatgen
data_PrB4
_symmetry_space_group_name_H-M   'P 1'
_cell_length_a   4.14410588
_cell_length_b   7.27020889
_cell_length_c   7.27020889
_cell_angle_alpha   90.00000000
_cell_angle_beta   90.00000000
_cell_angle_gamma   90.00000000
_symmetry_Int_Tables_number   1
_chemical_formula_structural   PrB4
_chemical_formula_sum   'Pr4 B16'
_cell_volume   219.04060058
_cell_formula_units_Z   4
loop_
 _symmetry_equiv_pos_site_id
 _symmetry_equiv_pos_as_xyz
  1  'x, y, z'
loop_
 _atom_site_type_symbol
 _atom_site_label
 _atom_site_symmetry_multiplicity
 _atom_site_fract_x
 _atom_site_fract_y
 _atom_site_fract_z
 _atom_site_occupancy
  B  B0  1  0.50000000  0.46109485  0.32623568  1
  B  B1  1  0.50000000  0.53890515  0.67376432  1
  B  B2  1  0.50000000  0.32623568  0.53890515  1
  B  B3  1  0.50000000  0.67376432  0.46109485  1
  B  B4  1  0.20526044  0.00000000  0.00000000  1
  B  B5  1  0.79473956  0.50000000  0.50000000  1
  B  B6  1  0.79473956  0.00000000  0.00000000  1
  B  B7  1  0.20526044  0.50000000  0.50000000  1
  B  B8  1  0.50000000  0.08824237  0.58824237  1
  B  B9  1  0.50000000  0.41175763  0.08824237  1
  B  B10  1  0.50000000  0.58824237  0.91175763  1
  B  B11  1  0.50000000  0.91175763  0.41175763  1
  B  B12  1  0.50000000  0.17376432  0.03890515  1
  B  B13  1  0.50000000  0.96109485  0.17376432  1
  B  B14  1  0.50000000  0.03890515  0.82623568  1
  B  B15  1  0.50000000  0.82623568  0.96109485  1
  Pr  Pr16  1  0.00000000  0.68287232  0.18287232  1
  Pr  Pr17  1  0.00000000  0.81712768  0.68287232  1
  Pr  Pr18  1  0.00000000  0.18287232  0.31712768  1
  Pr  Pr19  1  0.00000000  0.31712768  0.81712768  1
