# generated using pymatgen
data_Ba3SbN
_symmetry_space_group_name_H-M   'P 1'
_cell_length_a   7.66724049
_cell_length_b   7.66724049
_cell_length_c   6.75528389
_cell_angle_alpha   90.00000000
_cell_angle_beta   90.00000000
_cell_angle_gamma   119.99999997
_symmetry_Int_Tables_number   1
_chemical_formula_structural   Ba3SbN
_chemical_formula_sum   'Ba6 Sb2 N2'
_cell_volume   343.91602105
_cell_formula_units_Z   2
loop_
 _symmetry_equiv_pos_site_id
 _symmetry_equiv_pos_as_xyz
  1  'x, y, z'
loop_
 _atom_site_type_symbol
 _atom_site_label
 _atom_site_symmetry_multiplicity
 _atom_site_fract_x
 _atom_site_fract_y
 _atom_site_fract_z
 _atom_site_occupancy
  N  N0  1  0.00000000  0.00000000  0.50000000  1
  N  N1  1  0.00000000  0.00000000  0.00000000  1
  Sb  Sb2  1  0.66666667  0.33333333  0.25000000  1
  Sb  Sb3  1  0.33333333  0.66666667  0.75000000  1
  Ba  Ba4  1  0.68094834  0.84047417  0.25000000  1
  Ba  Ba5  1  0.84047417  0.15952583  0.75000000  1
  Ba  Ba6  1  0.15952583  0.31905166  0.25000000  1
  Ba  Ba7  1  0.84047417  0.68094834  0.75000000  1
  Ba  Ba8  1  0.31905166  0.15952583  0.75000000  1
  Ba  Ba9  1  0.15952583  0.84047417  0.25000000  1
