# generated using pymatgen
data_Li9Mn2Co5O16
_symmetry_space_group_name_H-M   'P 1'
_cell_length_a   2.93809385
_cell_length_b   10.05544554
_cell_length_c   9.93161134
_cell_angle_alpha   101.17859842
_cell_angle_beta   90.00000000
_cell_angle_gamma   90.00000000
_symmetry_Int_Tables_number   1
_chemical_formula_structural   Li9Mn2Co5O16
_chemical_formula_sum   'Li9 Mn2 Co5 O16'
_cell_volume   287.85113154
_cell_formula_units_Z   1
loop_
 _symmetry_equiv_pos_site_id
 _symmetry_equiv_pos_as_xyz
  1  'x, y, z'
loop_
 _atom_site_type_symbol
 _atom_site_label
 _atom_site_symmetry_multiplicity
 _atom_site_fract_x
 _atom_site_fract_y
 _atom_site_fract_z
 _atom_site_occupancy
  Li  Li0  1  0.50000000  0.13211539  0.27082842  1
  Li  Li1  1  0.50000000  0.36788461  0.72917158  1
  Li  Li2  1  0.50000000  0.62992486  0.25755679  1
  Li  Li3  1  -0.00000000  0.37581124  0.26257169  1
  Li  Li4  1  0.00000000  0.62477702  0.73306296  1
  Li  Li5  1  0.00000000  0.87522298  0.26693704  1
  Li  Li6  1  0.50000000  0.87007514  0.74244321  1
  Li  Li7  1  -0.00000000  0.12418876  0.73742831  1
  Li  Li8  1  0.00000000  0.25000000  0.50000000  1
  Mn  Mn9  1  -0.00000000  0.00336978  0.00148637  1
  Mn  Mn10  1  -0.00000000  0.49663022  -0.00148637  1
  Co  Co11  1  0.00000000  0.75000000  0.50000000  1
  Co  Co12  1  0.50000000  0.48663355  0.49830476  1
  Co  Co13  1  0.50000000  0.75000000  0.00000000  1
  Co  Co14  1  0.50000000  0.01336645  0.50169524  1
  Co  Co15  1  0.50000000  0.25000000  0.00000000  1
  O  O16  1  0.50000000  0.95510422  0.11148254  1
  O  O17  1  0.50000000  0.17234462  0.62260903  1
  O  O18  1  0.50000000  0.43353268  0.10451434  1
  O  O19  1  -0.00000000  0.19094022  0.10457072  1
  O  O20  1  0.00000000  0.44195735  0.61732559  1
  O  O21  1  -0.00000000  0.67177458  0.11242028  1
  O  O22  1  0.50000000  0.68405346  0.61535698  1
  O  O23  1  0.00000000  0.92783525  0.61278291  1
  O  O24  1  0.50000000  0.32765538  0.37739097  1
  O  O25  1  0.50000000  0.54489578  0.88851746  1
  O  O26  1  0.50000000  0.81594654  0.38464302  1
  O  O27  1  -0.00000000  0.57216475  0.38721709  1
  O  O28  1  0.00000000  0.82822542  0.88757972  1
  O  O29  1  -0.00000000  0.05804265  0.38267441  1
  O  O30  1  0.50000000  0.06646732  0.89548566  1
  O  O31  1  0.00000000  0.30905978  0.89542928  1
