# generated using pymatgen
data_Zn(CoO2)2
_symmetry_space_group_name_H-M   'P 1'
_cell_length_a   5.93556772
_cell_length_b   5.93556724
_cell_length_c   23.80843502
_cell_angle_alpha   60.09188132
_cell_angle_beta   60.09188399
_cell_angle_gamma   59.99999978
_symmetry_Int_Tables_number   1
_chemical_formula_structural   Zn(CoO2)2
_chemical_formula_sum   'Zn8 Co16 O32'
_cell_volume   593.93935167
_cell_formula_units_Z   8
loop_
 _symmetry_equiv_pos_site_id
 _symmetry_equiv_pos_as_xyz
  1  'x, y, z'
loop_
 _atom_site_type_symbol
 _atom_site_label
 _atom_site_symmetry_multiplicity
 _atom_site_fract_x
 _atom_site_fract_y
 _atom_site_fract_z
 _atom_site_occupancy
  Zn  Zn0  1  0.00252635  0.00252635  0.99810524  1
  Zn  Zn1  1  0.00401629  0.00401629  0.24698778  1
  Zn  Zn2  1  0.99873493  0.99873493  0.50094880  1
  Zn  Zn3  1  0.62821752  0.62821752  0.02883686  1
  Zn  Zn4  1  0.24998819  0.24998819  0.56250885  1
  Zn  Zn5  1  0.62122033  0.62122033  0.28408476  1
  Zn  Zn6  1  0.25068294  0.25068294  0.81198779  1
  Zn  Zn7  1  0.00040571  0.00040571  0.74969572  1
  Co  Co8  1  0.24602826  0.24602826  0.06547880  1
  Co  Co9  1  0.12461781  0.62523876  0.15622617  1
  Co  Co10  1  0.24834273  0.24834273  0.31374295  1
  Co  Co11  1  0.62523876  0.12461781  0.15622617  1
  Co  Co12  1  0.62523876  0.62523876  0.15622617  1
  Co  Co13  1  0.12166321  0.62345520  0.40785660  1
  Co  Co14  1  0.62345520  0.12166321  0.40785660  1
  Co  Co15  1  0.62345520  0.62345520  0.40785660  1
  Co  Co16  1  0.12639050  0.62568086  0.65556195  1
  Co  Co17  1  0.62568086  0.12639050  0.65556195  1
  Co  Co18  1  0.62313241  0.62313241  0.53265069  1
  Co  Co19  1  0.62568086  0.62568086  0.65556195  1
  Co  Co20  1  0.12574430  0.62643932  0.90534426  1
  Co  Co21  1  0.62643932  0.12574430  0.90534426  1
  Co  Co22  1  0.62638386  0.62638386  0.78021211  1
  Co  Co23  1  0.62643932  0.62643932  0.90534426  1
  O  O24  1  0.37862322  0.37862322  0.10184850  1
  O  O25  1  0.38297735  0.38297735  0.21276699  1
  O  O26  1  0.37862322  0.83535957  0.10184850  1
  O  O27  1  0.83535957  0.37862322  0.10184850  1
  O  O28  1  0.37006093  0.37006093  0.35296762  1
  O  O29  1  0.41698153  0.86996630  0.21077147  1
  O  O30  1  0.38327736  0.38327736  0.46254198  1
  O  O31  1  0.37006093  0.84800767  0.35296762  1
  O  O32  1  0.86996630  0.41698153  0.21077147  1
  O  O33  1  0.86656472  0.86656472  0.10007646  1
  O  O34  1  0.84800767  0.37006093  0.35296762  1
  O  O35  1  0.86996630  0.86996630  0.21077147  1
  O  O36  1  0.39046999  0.39046999  0.59467916  1
  O  O37  1  0.41060212  0.85460385  0.47004754  1
  O  O38  1  0.38543476  0.38543476  0.71092393  1
  O  O39  1  0.39046999  0.84034340  0.59467916  1
  O  O40  1  0.85460385  0.41060212  0.47004754  1
  O  O41  1  0.86671899  0.86671899  0.34996075  1
  O  O42  1  0.85460385  0.85460385  0.47004754  1
  O  O43  1  0.84034340  0.39046999  0.59467916  1
  O  O44  1  0.38784825  0.38784825  0.84491155  1
  O  O45  1  0.40526858  0.86830832  0.71452869  1
  O  O46  1  0.38185015  0.38185015  0.96361239  1
  O  O47  1  0.86513329  0.86513329  0.60115003  1
  O  O48  1  0.38784825  0.84465730  0.84491155  1
  O  O49  1  0.86830832  0.40526858  0.71452869  1
  O  O50  1  0.84465730  0.38784825  0.84491155  1
  O  O51  1  0.86830832  0.86830832  0.71452869  1
  O  O52  1  0.40623505  0.87696644  0.95995802  1
  O  O53  1  0.87696644  0.40623505  0.95995802  1
  O  O54  1  0.86716994  0.86716994  0.84962254  1
  O  O55  1  0.87696644  0.87696644  0.95995802  1
