# generated using pymatgen
data_Tm2Ge2O7
_symmetry_space_group_name_H-M   'P 1'
_cell_length_a   6.79945060
_cell_length_b   6.79945060
_cell_length_c   12.37775204
_cell_angle_alpha   90.00000000
_cell_angle_beta   90.00000000
_cell_angle_gamma   90.00000000
_symmetry_Int_Tables_number   1
_chemical_formula_structural   Tm2Ge2O7
_chemical_formula_sum   'Tm8 Ge8 O28'
_cell_volume   572.25477348
_cell_formula_units_Z   4
loop_
 _symmetry_equiv_pos_site_id
 _symmetry_equiv_pos_as_xyz
  1  'x, y, z'
loop_
 _atom_site_type_symbol
 _atom_site_label
 _atom_site_symmetry_multiplicity
 _atom_site_fract_x
 _atom_site_fract_y
 _atom_site_fract_z
 _atom_site_occupancy
  O  O0  1  0.85683135  0.32081117  0.95594615  1
  O  O1  1  0.14316865  0.67918883  0.45594615  1
  O  O2  1  0.32081117  0.85683135  0.04405385  1
  O  O3  1  0.82081117  0.64316865  0.70594615  1
  O  O4  1  0.17918883  0.35683135  0.20594615  1
  O  O5  1  0.64316865  0.82081117  0.29405385  1
  O  O6  1  0.35683135  0.17918883  0.79405385  1
  O  O7  1  0.67918883  0.14316865  0.54405385  1
  O  O8  1  0.66175373  0.93381438  0.92946113  1
  O  O9  1  0.33824627  0.06618562  0.42946113  1
  O  O10  1  0.93381438  0.66175373  0.07053887  1
  O  O11  1  0.43381438  0.83824627  0.67946113  1
  O  O12  1  0.56618562  0.16175373  0.17946113  1
  O  O13  1  0.83824627  0.43381438  0.32053887  1
  O  O14  1  0.16175373  0.56618562  0.82053887  1
  O  O15  1  0.06618562  0.33824627  0.57053887  1
  O  O16  1  0.80366062  0.19633938  0.75000000  1
  O  O17  1  0.30366062  0.30366062  0.00000000  1
  O  O18  1  0.69633938  0.69633938  0.50000000  1
  O  O19  1  0.19633938  0.80366062  0.25000000  1
  O  O20  1  0.07983623  0.96507207  0.62150357  1
  O  O21  1  0.53492793  0.57983623  0.87150357  1
  O  O22  1  0.46507207  0.42016377  0.37150357  1
  O  O23  1  0.57983623  0.53492793  0.12849643  1
  O  O24  1  0.42016377  0.46507207  0.62849643  1
  O  O25  1  0.92016377  0.03492793  0.12150357  1
  O  O26  1  0.96507207  0.07983623  0.37849643  1
  O  O27  1  0.03492793  0.92016377  0.87849643  1
  Ge  Ge28  1  0.84977598  0.10004972  0.88203280  1
  Ge  Ge29  1  0.15022402  0.89995028  0.38203280  1
  Ge  Ge30  1  0.10004972  0.84977598  0.11796720  1
  Ge  Ge31  1  0.60004972  0.65022402  0.63203280  1
  Ge  Ge32  1  0.39995028  0.34977598  0.13203280  1
  Ge  Ge33  1  0.65022402  0.60004972  0.36796720  1
  Ge  Ge34  1  0.34977598  0.39995028  0.86796720  1
  Ge  Ge35  1  0.89995028  0.15022402  0.61796720  1
  Tm  Tm36  1  0.64510142  0.12644495  0.36480259  1
  Tm  Tm37  1  0.35489858  0.87355505  0.86480259  1
  Tm  Tm38  1  0.12644495  0.64510142  0.63519741  1
  Tm  Tm39  1  0.62644495  0.85489858  0.11480259  1
  Tm  Tm40  1  0.37355505  0.14510142  0.61480259  1
  Tm  Tm41  1  0.85489858  0.62644495  0.88519741  1
  Tm  Tm42  1  0.14510142  0.37355505  0.38519741  1
  Tm  Tm43  1  0.87355505  0.35489858  0.13519741  1
