# generated using pymatgen
data_Tc3P
_symmetry_space_group_name_H-M   'P 1'
_cell_length_a   4.85921293
_cell_length_b   7.18585599
_cell_length_c   7.18585599
_cell_angle_alpha   83.43570658
_cell_angle_beta   70.23826124
_cell_angle_gamma   70.23826119
_symmetry_Int_Tables_number   1
_chemical_formula_structural   Tc3P
_chemical_formula_sum   'Tc12 P4'
_cell_volume   222.22900286
_cell_formula_units_Z   4
loop_
 _symmetry_equiv_pos_site_id
 _symmetry_equiv_pos_as_xyz
  1  'x, y, z'
loop_
 _atom_site_type_symbol
 _atom_site_label
 _atom_site_symmetry_multiplicity
 _atom_site_fract_x
 _atom_site_fract_y
 _atom_site_fract_z
 _atom_site_occupancy
  P  P0  1  0.20900779  0.28808764  0.29403757  1
  P  P1  1  0.49695463  0.29403757  0.71191236  1
  P  P2  1  0.50290457  0.70596243  0.28808764  1
  P  P3  1  0.79113301  0.71191236  0.70596243  1
  Tc  Tc4  1  0.34419041  0.65385350  0.64884711  1
  Tc  Tc5  1  0.00696248  0.64884711  0.34614650  1
  Tc  Tc6  1  0.00195610  0.35115289  0.65385350  1
  Tc  Tc7  1  0.64689101  0.34614650  0.35115289  1
  Tc  Tc8  1  0.90706426  0.00534955  0.59157788  1
  Tc  Tc9  1  0.50135787  0.59157788  0.99465045  1
  Tc  Tc10  1  0.08758619  0.40842212  0.00534955  1
  Tc  Tc11  1  0.50399169  0.99465045  0.40842212  1
  Tc  Tc12  1  0.09472938  0.00064883  0.19711858  1
  Tc  Tc13  1  0.70815204  0.19711858  0.99935117  1
  Tc  Tc14  1  0.90462179  0.80288142  0.00064883  1
  Tc  Tc15  1  0.29249679  0.99935117  0.80288142  1
