# generated using pymatgen
data_Ba4GeP4
_symmetry_space_group_name_H-M   'P 1'
_cell_length_a   13.22419104
_cell_length_b   13.22419104
_cell_length_c   13.22419104
_cell_angle_alpha   90.00000000
_cell_angle_beta   90.00000000
_cell_angle_gamma   90.00000000
_symmetry_Int_Tables_number   1
_chemical_formula_structural   Ba4GeP4
_chemical_formula_sum   'Ba32 Ge8 P32'
_cell_volume   2312.63632876
_cell_formula_units_Z   8
loop_
 _symmetry_equiv_pos_site_id
 _symmetry_equiv_pos_as_xyz
  1  'x, y, z'
loop_
 _atom_site_type_symbol
 _atom_site_label
 _atom_site_symmetry_multiplicity
 _atom_site_fract_x
 _atom_site_fract_y
 _atom_site_fract_z
 _atom_site_occupancy
  P  P0  1  0.65096983  0.89640525  0.61219746  1
  P  P1  1  0.65096983  0.10359475  0.38780254  1
  P  P2  1  0.89640525  0.61219746  0.65096983  1
  P  P3  1  0.10359475  0.61219746  0.34903017  1
  P  P4  1  0.61219746  0.65096983  0.89640525  1
  P  P5  1  0.38780254  0.34903017  0.89640525  1
  P  P6  1  0.84903017  0.88780254  0.39640525  1
  P  P7  1  0.84903017  0.11219746  0.60359475  1
  P  P8  1  0.15096983  0.88780254  0.60359475  1
  P  P9  1  0.11219746  0.60359475  0.84903017  1
  P  P10  1  0.60359475  0.15096983  0.88780254  1
  P  P11  1  0.60359475  0.84903017  0.11219746  1
  P  P12  1  0.88780254  0.39640525  0.84903017  1
  P  P13  1  0.39640525  0.84903017  0.88780254  1
  P  P14  1  0.88780254  0.60359475  0.15096983  1
  P  P15  1  0.11219746  0.39640525  0.15096983  1
  P  P16  1  0.39640525  0.15096983  0.11219746  1
  P  P17  1  0.38780254  0.65096983  0.10359475  1
  P  P18  1  0.61219746  0.34903017  0.10359475  1
  P  P19  1  0.89640525  0.38780254  0.34903017  1
  P  P20  1  0.10359475  0.38780254  0.65096983  1
  P  P21  1  0.34903017  0.10359475  0.61219746  1
  P  P22  1  0.34903017  0.89640525  0.38780254  1
  P  P23  1  0.15096983  0.11219746  0.39640525  1
  P  P24  1  0.89545962  0.89545962  0.89545962  1
  P  P25  1  0.60454038  0.39545962  0.60454038  1
  P  P26  1  0.39545962  0.60454038  0.60454038  1
  P  P27  1  0.60454038  0.60454038  0.39545962  1
  P  P28  1  0.89545962  0.10454038  0.10454038  1
  P  P29  1  0.10454038  0.10454038  0.89545962  1
  P  P30  1  0.10454038  0.89545962  0.10454038  1
  P  P31  1  0.39545962  0.39545962  0.39545962  1
  Ge  Ge32  1  0.75000000  0.00000000  0.50000000  1
  Ge  Ge33  1  0.50000000  0.75000000  0.00000000  1
  Ge  Ge34  1  0.50000000  0.25000000  0.00000000  1
  Ge  Ge35  1  0.00000000  0.50000000  0.25000000  1
  Ge  Ge36  1  0.00000000  0.50000000  0.75000000  1
  Ge  Ge37  1  0.25000000  0.00000000  0.50000000  1
  Ge  Ge38  1  0.50000000  0.50000000  0.50000000  1
  Ge  Ge39  1  0.00000000  0.00000000  0.00000000  1
  Ba  Ba40  1  0.90489895  0.86771626  0.64491513  1
  Ba  Ba41  1  0.90489895  0.13228374  0.35508487  1
  Ba  Ba42  1  0.86771626  0.64491513  0.90489895  1
  Ba  Ba43  1  0.13228374  0.64491513  0.09510105  1
  Ba  Ba44  1  0.64491513  0.90489895  0.86771626  1
  Ba  Ba45  1  0.35508487  0.09510105  0.86771626  1
  Ba  Ba46  1  0.59510105  0.85508487  0.36771626  1
  Ba  Ba47  1  0.59510105  0.14491513  0.63228374  1
  Ba  Ba48  1  0.40489895  0.85508487  0.63228374  1
  Ba  Ba49  1  0.14491513  0.63228374  0.59510105  1
  Ba  Ba50  1  0.63228374  0.40489895  0.85508487  1
  Ba  Ba51  1  0.63228374  0.59510105  0.14491513  1
  Ba  Ba52  1  0.85508487  0.36771626  0.59510105  1
  Ba  Ba53  1  0.36771626  0.59510105  0.85508487  1
  Ba  Ba54  1  0.85508487  0.63228374  0.40489895  1
  Ba  Ba55  1  0.14491513  0.36771626  0.40489895  1
  Ba  Ba56  1  0.36771626  0.40489895  0.14491513  1
  Ba  Ba57  1  0.35508487  0.90489895  0.13228374  1
  Ba  Ba58  1  0.64491513  0.09510105  0.13228374  1
  Ba  Ba59  1  0.86771626  0.35508487  0.09510105  1
  Ba  Ba60  1  0.13228374  0.35508487  0.90489895  1
  Ba  Ba61  1  0.09510105  0.13228374  0.64491513  1
  Ba  Ba62  1  0.09510105  0.86771626  0.35508487  1
  Ba  Ba63  1  0.40489895  0.14491513  0.36771626  1
  Ba  Ba64  1  0.14497791  0.14497791  0.14497791  1
  Ba  Ba65  1  0.35502209  0.64497791  0.35502209  1
  Ba  Ba66  1  0.64497791  0.35502209  0.35502209  1
  Ba  Ba67  1  0.35502209  0.35502209  0.64497791  1
  Ba  Ba68  1  0.14497791  0.85502209  0.85502209  1
  Ba  Ba69  1  0.85502209  0.85502209  0.14497791  1
  Ba  Ba70  1  0.85502209  0.14497791  0.85502209  1
  Ba  Ba71  1  0.64497791  0.64497791  0.64497791  1
