# generated using pymatgen
data_Y3Ge5
_symmetry_space_group_name_H-M   'P 1'
_cell_length_a   5.79711904
_cell_length_b   7.48837510
_cell_length_c   9.18651820
_cell_angle_alpha   82.98489531
_cell_angle_beta   71.60759886
_cell_angle_gamma   67.22740775
_symmetry_Int_Tables_number   1
_chemical_formula_structural   Y3Ge5
_chemical_formula_sum   'Y6 Ge10'
_cell_volume   348.92581274
_cell_formula_units_Z   2
loop_
 _symmetry_equiv_pos_site_id
 _symmetry_equiv_pos_as_xyz
  1  'x, y, z'
loop_
 _atom_site_type_symbol
 _atom_site_label
 _atom_site_symmetry_multiplicity
 _atom_site_fract_x
 _atom_site_fract_y
 _atom_site_fract_z
 _atom_site_occupancy
  Ge  Ge0  1  0.40092789  0.70187075  0.87160315  1
  Ge  Ge1  1  0.89720136  0.70187075  0.12839685  1
  Ge  Ge2  1  0.27559821  0.20187075  0.37160315  1
  Ge  Ge3  1  0.52253105  0.20187075  0.62839685  1
  Ge  Ge4  1  0.66869603  0.33527473  0.82605668  1
  Ge  Ge5  1  0.99602924  0.33527473  0.17394332  1
  Ge  Ge6  1  0.94386400  0.11227201  0.00000000  1
  Ge  Ge7  1  0.19386400  0.61227201  0.50000000  1
  Ge  Ge8  1  0.74475271  0.83527473  0.67394332  1
  Ge  Ge9  1  0.41997256  0.83527473  0.32605668  1
  Y  Y10  1  0.74516527  0.50966946  0.50000000  1
  Y  Y11  1  0.49516527  0.00966946  0.00000000  1
  Y  Y12  1  0.15597237  0.99378379  0.66376996  1
  Y  Y13  1  0.85024384  0.99378379  0.33623004  1
  Y  Y14  1  0.43647388  0.49378379  0.16376996  1
  Y  Y15  1  0.06974233  0.49378379  0.83623004  1
