# generated using pymatgen
data_Y2Zr2O7
_symmetry_space_group_name_H-M   'P 1'
_cell_length_a   5.94499932
_cell_length_b   5.94499932
_cell_length_c   5.62808359
_cell_angle_alpha   83.94817770
_cell_angle_beta   96.05182230
_cell_angle_gamma   71.87934829
_symmetry_Int_Tables_number   1
_chemical_formula_structural   Y2Zr2O7
_chemical_formula_sum   'Y2 Zr2 O7'
_cell_volume   185.97323881
_cell_formula_units_Z   1
loop_
 _symmetry_equiv_pos_site_id
 _symmetry_equiv_pos_as_xyz
  1  'x, y, z'
loop_
 _atom_site_type_symbol
 _atom_site_label
 _atom_site_symmetry_multiplicity
 _atom_site_fract_x
 _atom_site_fract_y
 _atom_site_fract_z
 _atom_site_occupancy
  Y  Y0  1  0.68986079  0.68986079  -0.00000000  1
  Y  Y1  1  0.31013921  0.31013921  -0.00000000  1
  Zr  Zr2  1  0.25660776  0.74339224  0.39706231  1
  Zr  Zr3  1  0.74339224  0.25660776  0.60293769  1
  O  O4  1  0.05776614  0.59572382  0.19727387  1
  O  O5  1  0.40427618  0.94223386  0.19727387  1
  O  O6  1  0.44224157  0.55775843  0.73067798  1
  O  O7  1  -0.00000000  0.00000000  0.50000000  1
  O  O8  1  0.55775843  0.44224157  0.26932202  1
  O  O9  1  0.94223386  0.40427618  0.80272613  1
  O  O10  1  0.59572382  0.05776614  0.80272613  1
