# generated using pymatgen
data_CeB4
_symmetry_space_group_name_H-M   'P 1'
_cell_length_a   4.07463064
_cell_length_b   7.17377415
_cell_length_c   7.17377415
_cell_angle_alpha   90.00000000
_cell_angle_beta   90.00000000
_cell_angle_gamma   90.00000000
_symmetry_Int_Tables_number   1
_chemical_formula_structural   CeB4
_chemical_formula_sum   'Ce4 B16'
_cell_volume   209.69286150
_cell_formula_units_Z   4
loop_
 _symmetry_equiv_pos_site_id
 _symmetry_equiv_pos_as_xyz
  1  'x, y, z'
loop_
 _atom_site_type_symbol
 _atom_site_label
 _atom_site_symmetry_multiplicity
 _atom_site_fract_x
 _atom_site_fract_y
 _atom_site_fract_z
 _atom_site_occupancy
  B  B0  1  0.50000000  0.46138567  0.32386062  1
  B  B1  1  0.50000000  0.53861433  0.67613938  1
  B  B2  1  0.50000000  0.32386062  0.53861433  1
  B  B3  1  0.50000000  0.67613938  0.46138567  1
  B  B4  1  0.20193251  0.00000000  0.00000000  1
  B  B5  1  0.79806749  0.50000000  0.50000000  1
  B  B6  1  0.79806749  0.00000000  0.00000000  1
  B  B7  1  0.20193251  0.50000000  0.50000000  1
  B  B8  1  0.50000000  0.08800505  0.58800505  1
  B  B9  1  0.50000000  0.41199495  0.08800505  1
  B  B10  1  0.50000000  0.58800505  0.91199495  1
  B  B11  1  0.50000000  0.91199495  0.41199495  1
  B  B12  1  0.50000000  0.17613938  0.03861433  1
  B  B13  1  0.50000000  0.96138567  0.17613938  1
  B  B14  1  0.50000000  0.03861433  0.82386062  1
  B  B15  1  0.50000000  0.82386062  0.96138567  1
  Ce  Ce16  1  0.00000000  0.68687372  0.18687372  1
  Ce  Ce17  1  0.00000000  0.81312628  0.68687372  1
  Ce  Ce18  1  0.00000000  0.18687372  0.31312628  1
  Ce  Ce19  1  0.00000000  0.31312628  0.81312628  1
