# generated using pymatgen
data_BMo
_symmetry_space_group_name_H-M   'P 1'
_cell_length_a   3.13188067
_cell_length_b   3.13188067
_cell_length_c   8.81118694
_cell_angle_alpha   100.23709126
_cell_angle_beta   100.23709124
_cell_angle_gamma   90.00000006
_symmetry_Int_Tables_number   1
_chemical_formula_structural   BMo
_chemical_formula_sum   'B4 Mo4'
_cell_volume   83.65178266
_cell_formula_units_Z   4
loop_
 _symmetry_equiv_pos_site_id
 _symmetry_equiv_pos_as_xyz
  1  'x, y, z'
loop_
 _atom_site_type_symbol
 _atom_site_label
 _atom_site_symmetry_multiplicity
 _atom_site_fract_x
 _atom_site_fract_y
 _atom_site_fract_z
 _atom_site_occupancy
  B  B0  1  0.46975453  0.71975453  0.43950907  1
  B  B1  1  0.21975453  0.96975453  0.93950907  1
  B  B2  1  0.53024547  0.28024547  0.56049093  1
  B  B3  1  0.78024547  0.03024547  0.06049093  1
  Mo  Mo4  1  0.32201825  0.57201825  0.14403650  1
  Mo  Mo5  1  0.07201825  0.82201825  0.64403650  1
  Mo  Mo6  1  0.67798175  0.42798175  0.85596350  1
  Mo  Mo7  1  0.92798175  0.17798175  0.35596350  1
