# generated using pymatgen
data_CeZnSn
_symmetry_space_group_name_H-M   'P 1'
_cell_length_a   4.59625658
_cell_length_b   4.59625658
_cell_length_c   16.51576136
_cell_angle_alpha   90.00000000
_cell_angle_beta   90.00000000
_cell_angle_gamma   120.00000000
_symmetry_Int_Tables_number   1
_chemical_formula_structural   CeZnSn
_chemical_formula_sum   'Ce4 Zn4 Sn4'
_cell_volume   302.16054830
_cell_formula_units_Z   4
loop_
 _symmetry_equiv_pos_site_id
 _symmetry_equiv_pos_as_xyz
  1  'x, y, z'
loop_
 _atom_site_type_symbol
 _atom_site_label
 _atom_site_symmetry_multiplicity
 _atom_site_fract_x
 _atom_site_fract_y
 _atom_site_fract_z
 _atom_site_occupancy
  Zn  Zn0  1  0.66666667  0.33333333  0.84461717  1
  Zn  Zn1  1  0.66666667  0.33333333  0.65538283  1
  Zn  Zn2  1  0.33333333  0.66666667  0.15538283  1
  Zn  Zn3  1  0.33333333  0.66666667  0.34461717  1
  Sn  Sn4  1  0.66666667  0.33333333  0.11653717  1
  Sn  Sn5  1  0.66666667  0.33333333  0.38346283  1
  Sn  Sn6  1  0.33333333  0.66666667  0.88346283  1
  Sn  Sn7  1  0.33333333  0.66666667  0.61653717  1
  Ce  Ce8  1  0.00000000  0.00000000  0.75000000  1
  Ce  Ce9  1  0.00000000  0.00000000  0.25000000  1
  Ce  Ce10  1  0.00000000  0.00000000  0.50000000  1
  Ce  Ce11  1  0.00000000  0.00000000  0.00000000  1
