# generated using pymatgen
data_V3Si3O10
_symmetry_space_group_name_H-M   'P 1'
_cell_length_a   4.82249594
_cell_length_b   7.99139130
_cell_length_c   10.65072645
_cell_angle_alpha   91.09829908
_cell_angle_beta   90.42657321
_cell_angle_gamma   72.33419420
_symmetry_Int_Tables_number   1
_chemical_formula_structural   V3Si3O10
_chemical_formula_sum   'V6 Si6 O20'
_cell_volume   391.03380695
_cell_formula_units_Z   2
loop_
 _symmetry_equiv_pos_site_id
 _symmetry_equiv_pos_as_xyz
  1  'x, y, z'
loop_
 _atom_site_type_symbol
 _atom_site_label
 _atom_site_symmetry_multiplicity
 _atom_site_fract_x
 _atom_site_fract_y
 _atom_site_fract_z
 _atom_site_occupancy
  V  V0  1  0.90534253  0.69483559  0.72515250  1
  V  V1  1  0.61001304  0.30739504  0.77618783  1
  V  V2  1  0.50000000  0.50000000  0.50000000  1
  V  V3  1  0.38998696  0.69260496  0.22381217  1
  V  V4  1  -0.00000000  0.50000000  0.00000000  1
  V  V5  1  0.09465747  0.30516441  0.27484750  1
  Si  Si6  1  0.83929707  0.69579628  0.40859797  1
  Si  Si7  1  0.45479695  0.69795330  0.91174582  1
  Si  Si8  1  0.80848268  0.00005884  0.25202197  1
  Si  Si9  1  0.54520305  0.30204670  0.08825418  1
  Si  Si10  1  0.16070293  0.30420372  0.59140203  1
  Si  Si11  1  0.19151732  -0.00005884  0.74797803  1
  O  O12  1  0.64454848  0.86404372  0.32236012  1
  O  O13  1  0.71064079  0.67883416  0.54714521  1
  O  O14  1  0.74054562  0.53444008  0.33392291  1
  O  O15  1  0.93595735  0.13000487  0.83658500  1
  O  O16  1  0.86777686  0.32498499  0.09592044  1
  O  O17  1  0.81593258  0.32526651  0.60287873  1
  O  O18  1  0.92352127  0.12133466  0.34428229  1
  O  O19  1  0.70587991  0.52850065  0.83780328  1
  O  O20  1  0.60866549  0.68177794  0.05067748  1
  O  O21  1  0.47084703  0.87211317  0.83366251  1
  O  O22  1  0.52915297  0.12788683  0.16633749  1
  O  O23  1  0.39133451  0.31822206  0.94932252  1
  O  O24  1  0.29412009  0.47149935  0.16219672  1
  O  O25  1  0.07647873  0.87866534  0.65571771  1
  O  O26  1  0.18406742  0.67473349  0.39712127  1
  O  O27  1  0.13222314  0.67501501  0.90407956  1
  O  O28  1  0.06404265  0.86999513  0.16341500  1
  O  O29  1  0.25945438  0.46555992  0.66607709  1
  O  O30  1  0.28935921  0.32116584  0.45285479  1
  O  O31  1  0.35545152  0.13595628  0.67763988  1
