# generated using pymatgen
data_NaBrO3
_symmetry_space_group_name_H-M   'P 1'
_cell_length_a   6.82000228
_cell_length_b   6.82000228
_cell_length_c   6.82000228
_cell_angle_alpha   90.00000000
_cell_angle_beta   90.00000000
_cell_angle_gamma   90.00000000
_symmetry_Int_Tables_number   1
_chemical_formula_structural   NaBrO3
_chemical_formula_sum   'Na4 Br4 O12'
_cell_volume   317.21488614
_cell_formula_units_Z   4
loop_
 _symmetry_equiv_pos_site_id
 _symmetry_equiv_pos_as_xyz
  1  'x, y, z'
loop_
 _atom_site_type_symbol
 _atom_site_label
 _atom_site_symmetry_multiplicity
 _atom_site_fract_x
 _atom_site_fract_y
 _atom_site_fract_z
 _atom_site_occupancy
  O  O0  1  0.21472090  0.40125501  0.00184704  1
  O  O1  1  0.71472090  0.09874499  0.99815296  1
  O  O2  1  0.78527910  0.90125501  0.49815296  1
  O  O3  1  0.09874499  0.99815296  0.71472090  1
  O  O4  1  0.49815296  0.78527910  0.90125501  1
  O  O5  1  0.99815296  0.71472090  0.09874499  1
  O  O6  1  0.40125501  0.00184704  0.21472090  1
  O  O7  1  0.00184704  0.21472090  0.40125501  1
  O  O8  1  0.28527910  0.59874499  0.50184704  1
  O  O9  1  0.50184704  0.28527910  0.59874499  1
  O  O10  1  0.59874499  0.50184704  0.28527910  1
  O  O11  1  0.90125501  0.49815296  0.78527910  1
  Na  Na12  1  0.07848587  0.07848587  0.07848587  1
  Na  Na13  1  0.42151413  0.92151413  0.57848587  1
  Na  Na14  1  0.57848587  0.42151413  0.92151413  1
  Na  Na15  1  0.92151413  0.57848587  0.42151413  1
  Br  Br16  1  0.40433309  0.40433309  0.40433309  1
  Br  Br17  1  0.09566691  0.59566691  0.90433309  1
  Br  Br18  1  0.90433309  0.09566691  0.59566691  1
  Br  Br19  1  0.59566691  0.90433309  0.09566691  1
