# generated using pymatgen
data_PuH3
_symmetry_space_group_name_H-M   'P 1'
_cell_length_a   3.72252087
_cell_length_b   3.72252087
_cell_length_c   6.68810653
_cell_angle_alpha   90.00000000
_cell_angle_beta   90.00000000
_cell_angle_gamma   120.00000006
_symmetry_Int_Tables_number   1
_chemical_formula_structural   PuH3
_chemical_formula_sum   'Pu2 H6'
_cell_volume   80.26165235
_cell_formula_units_Z   2
loop_
 _symmetry_equiv_pos_site_id
 _symmetry_equiv_pos_as_xyz
  1  'x, y, z'
loop_
 _atom_site_type_symbol
 _atom_site_label
 _atom_site_symmetry_multiplicity
 _atom_site_fract_x
 _atom_site_fract_y
 _atom_site_fract_z
 _atom_site_occupancy
  H  H0  1  0.33333333  0.66666667  0.90570432  1
  H  H1  1  0.66666667  0.33333333  0.40570432  1
  H  H2  1  0.00000000  0.00000000  0.25000000  1
  H  H3  1  0.00000000  0.00000000  0.75000000  1
  H  H4  1  0.33333333  0.66666667  0.59429568  1
  H  H5  1  0.66666667  0.33333333  0.09429568  1
  Pu  Pu6  1  0.66666667  0.33333333  0.75000000  1
  Pu  Pu7  1  0.33333333  0.66666667  0.25000000  1
