# generated using pymatgen
data_Ti2O3
_symmetry_space_group_name_H-M   'P 1'
_cell_length_a   5.14813072
_cell_length_b   3.00185244
_cell_length_c   7.36359821
_cell_angle_alpha   90.00000000
_cell_angle_beta   101.65860906
_cell_angle_gamma   90.00000000
_symmetry_Int_Tables_number   1
_chemical_formula_structural   Ti2O3
_chemical_formula_sum   'Ti4 O6'
_cell_volume   111.44879177
_cell_formula_units_Z   2
loop_
 _symmetry_equiv_pos_site_id
 _symmetry_equiv_pos_as_xyz
  1  'x, y, z'
loop_
 _atom_site_type_symbol
 _atom_site_label
 _atom_site_symmetry_multiplicity
 _atom_site_fract_x
 _atom_site_fract_y
 _atom_site_fract_z
 _atom_site_occupancy
  Ti  Ti0  1  0.15895501  0.25000000  0.65780979  1
  Ti  Ti1  1  0.26857955  0.25000000  0.02250866  1
  Ti  Ti2  1  0.73142045  0.75000000  0.97749134  1
  Ti  Ti3  1  0.84104499  0.75000000  0.34219021  1
  O  O4  1  0.05903050  0.75000000  0.84586763  1
  O  O5  1  0.21357899  0.75000000  0.50419776  1
  O  O6  1  0.51456150  0.25000000  0.83086905  1
  O  O7  1  0.48543850  0.75000000  0.16913095  1
  O  O8  1  0.78642101  0.25000000  0.49580224  1
  O  O9  1  0.94096950  0.25000000  0.15413237  1
