# generated using pymatgen
data_Sr(AlCl4)2
_symmetry_space_group_name_H-M   'P 1'
_cell_length_a   11.62196181
_cell_length_b   11.74725052
_cell_length_c   20.61068062
_cell_angle_alpha   90.00000000
_cell_angle_beta   90.00000000
_cell_angle_gamma   90.00000000
_symmetry_Int_Tables_number   1
_chemical_formula_structural   Sr(AlCl4)2
_chemical_formula_sum   'Sr8 Al16 Cl64'
_cell_volume   2813.89577983
_cell_formula_units_Z   8
loop_
 _symmetry_equiv_pos_site_id
 _symmetry_equiv_pos_as_xyz
  1  'x, y, z'
loop_
 _atom_site_type_symbol
 _atom_site_label
 _atom_site_symmetry_multiplicity
 _atom_site_fract_x
 _atom_site_fract_y
 _atom_site_fract_z
 _atom_site_occupancy
  Al  Al0  1  0.52843344  0.54111367  0.76068322  1
  Al  Al1  1  0.78595409  0.25252899  0.50227262  1
  Al  Al2  1  0.28595409  0.74747101  0.99772738  1
  Al  Al3  1  0.71404591  0.75252899  0.49772738  1
  Al  Al4  1  0.21404591  0.24747101  0.00227262  1
  Al  Al5  1  0.21404591  0.74747101  0.49772738  1
  Al  Al6  1  0.71404591  0.25252899  0.00227262  1
  Al  Al7  1  0.28595409  0.24747101  0.50227262  1
  Al  Al8  1  0.78595409  0.75252899  0.99772738  1
  Al  Al9  1  0.02843344  0.45888633  0.73931678  1
  Al  Al10  1  0.97156656  0.04111367  0.23931678  1
  Al  Al11  1  0.47156656  0.95888633  0.26068322  1
  Al  Al12  1  0.47156656  0.45888633  0.23931678  1
  Al  Al13  1  0.97156656  0.54111367  0.26068322  1
  Al  Al14  1  0.02843344  0.95888633  0.76068322  1
  Al  Al15  1  0.52843344  0.04111367  0.73931678  1
  Cl  Cl16  1  0.59296262  0.38963766  0.01772158  1
  Cl  Cl17  1  0.79589596  0.76162881  0.59184032  1
  Cl  Cl18  1  0.29589596  0.23837119  0.90815968  1
  Cl  Cl19  1  0.70410404  0.26162881  0.40815968  1
  Cl  Cl20  1  0.20410404  0.73837119  0.09184032  1
  Cl  Cl21  1  0.20410404  0.23837119  0.40815968  1
  Cl  Cl22  1  0.70410404  0.76162881  0.09184032  1
  Cl  Cl23  1  0.29589596  0.73837119  0.59184032  1
  Cl  Cl24  1  0.66505422  0.77587217  0.91936821  1
  Cl  Cl25  1  0.16505422  0.22412783  0.58063179  1
  Cl  Cl26  1  0.83494578  0.27587217  0.08063179  1
  Cl  Cl27  1  0.33494578  0.72412783  0.41936821  1
  Cl  Cl28  1  0.33494578  0.22412783  0.08063179  1
  Cl  Cl29  1  0.83494578  0.77587217  0.41936821  1
  Cl  Cl30  1  0.16505422  0.72412783  0.91936821  1
  Cl  Cl31  1  0.66505422  0.27587217  0.58063179  1
  Cl  Cl32  1  0.50353535  0.90356051  0.67120858  1
  Cl  Cl33  1  0.00353535  0.09643949  0.82879142  1
  Cl  Cl34  1  0.99646465  0.40356051  0.32879142  1
  Cl  Cl35  1  0.49646465  0.59643949  0.17120858  1
  Cl  Cl36  1  0.49646465  0.09643949  0.32879142  1
  Cl  Cl37  1  0.99646465  0.90356051  0.17120858  1
  Cl  Cl38  1  0.00353535  0.59643949  0.67120858  1
  Cl  Cl39  1  0.50353535  0.40356051  0.82879142  1
  Cl  Cl40  1  0.89842821  0.83772492  0.78998587  1
  Cl  Cl41  1  0.39842821  0.16227508  0.71001413  1
  Cl  Cl42  1  0.60157179  0.33772492  0.21001413  1
  Cl  Cl43  1  0.10157179  0.66227508  0.28998587  1
  Cl  Cl44  1  0.10157179  0.16227508  0.21001413  1
  Cl  Cl45  1  0.60157179  0.83772492  0.28998587  1
  Cl  Cl46  1  0.39842821  0.66227508  0.78998587  1
  Cl  Cl47  1  0.89842821  0.33772492  0.71001413  1
  Cl  Cl48  1  0.86147862  0.58445009  0.99878274  1
  Cl  Cl49  1  0.36147862  0.41554991  0.50121726  1
  Cl  Cl50  1  0.63852138  0.08445009  0.00121726  1
  Cl  Cl51  1  0.13852138  0.91554991  0.49878274  1
  Cl  Cl52  1  0.13852138  0.41554991  0.00121726  1
  Cl  Cl53  1  0.63852138  0.58445009  0.49878274  1
  Cl  Cl54  1  0.36147862  0.91554991  0.99878274  1
  Cl  Cl55  1  0.86147862  0.08445009  0.50121726  1
  Cl  Cl56  1  0.90703738  0.88963766  0.98227842  1
  Cl  Cl57  1  0.40703738  0.11036234  0.51772158  1
  Cl  Cl58  1  0.79589596  0.26162881  0.90815968  1
  Cl  Cl59  1  0.09296262  0.61036234  0.48227842  1
  Cl  Cl60  1  0.09296262  0.11036234  0.01772158  1
  Cl  Cl61  1  0.59296262  0.88963766  0.48227842  1
  Cl  Cl62  1  0.40703738  0.61036234  0.98227842  1
  Cl  Cl63  1  0.90703738  0.38963766  0.51772158  1
  Cl  Cl64  1  0.50701706  0.98834166  0.83894217  1
  Cl  Cl65  1  0.00701706  0.01165834  0.66105783  1
  Cl  Cl66  1  0.70354323  0.10368447  0.73930449  1
  Cl  Cl67  1  0.49298294  0.51165834  0.33894217  1
  Cl  Cl68  1  0.49298294  0.01165834  0.16105783  1
  Cl  Cl69  1  0.99298294  0.98834166  0.33894217  1
  Cl  Cl70  1  0.00701706  0.51165834  0.83894217  1
  Cl  Cl71  1  0.50701706  0.48834166  0.66105783  1
  Cl  Cl72  1  0.70354323  0.60368447  0.76069551  1
  Cl  Cl73  1  0.20354323  0.39631553  0.73930449  1
  Cl  Cl74  1  0.79645677  0.10368447  0.23930449  1
  Cl  Cl75  1  0.29645677  0.89631553  0.26069551  1
  Cl  Cl76  1  0.29645677  0.39631553  0.23930449  1
  Cl  Cl77  1  0.79645677  0.60368447  0.26069551  1
  Cl  Cl78  1  0.20354323  0.89631553  0.76069551  1
  Cl  Cl79  1  0.99298294  0.48834166  0.16105783  1
  Sr  Sr80  1  0.76340506  0.00822045  0.87544709  1
  Sr  Sr81  1  0.26340506  0.99177955  0.62455291  1
  Sr  Sr82  1  0.73659494  0.50822045  0.12455291  1
  Sr  Sr83  1  0.23659494  0.49177955  0.37544709  1
  Sr  Sr84  1  0.23659494  0.99177955  0.12455291  1
  Sr  Sr85  1  0.73659494  0.00822045  0.37544709  1
  Sr  Sr86  1  0.26340506  0.49177955  0.87544709  1
  Sr  Sr87  1  0.76340506  0.50822045  0.62455291  1
