# generated using pymatgen
data_V(PO3)3
_symmetry_space_group_name_H-M   'P 1'
_cell_length_a   6.55893592
_cell_length_b   7.48248746
_cell_length_c   8.42310883
_cell_angle_alpha   74.19395661
_cell_angle_beta   67.08645238
_cell_angle_gamma   64.00544085
_symmetry_Int_Tables_number   1
_chemical_formula_structural   V(PO3)3
_chemical_formula_sum   'V2 P6 O18'
_cell_volume   339.64999005
_cell_formula_units_Z   2
loop_
 _symmetry_equiv_pos_site_id
 _symmetry_equiv_pos_as_xyz
  1  'x, y, z'
loop_
 _atom_site_type_symbol
 _atom_site_label
 _atom_site_symmetry_multiplicity
 _atom_site_fract_x
 _atom_site_fract_y
 _atom_site_fract_z
 _atom_site_occupancy
  O  O0  1  0.41345084  0.54845327  0.20595261  1
  O  O1  1  0.33214329  0.04845327  0.70595261  1
  O  O2  1  0.46657108  0.58237317  0.88454502  1
  O  O3  1  0.56651073  0.08237317  0.38454502  1
  O  O4  1  0.74744924  0.04918206  0.59907805  1
  O  O5  1  0.10429065  0.54918206  0.09907805  1
  O  O6  1  0.67517280  0.14289811  0.06083125  1
  O  O7  1  0.62109783  0.64289811  0.56083125  1
  O  O8  1  0.81076308  0.69085662  0.74871689  1
  O  O9  1  0.24966341  0.19085662  0.24871689  1
  O  O10  1  0.07802584  0.27772117  0.99802562  1
  O  O11  1  0.14622737  0.77772117  0.49802562  1
  O  O12  1  0.82099632  0.38927896  0.30137271  1
  O  O13  1  0.98835202  0.88927896  0.80137271  1
  O  O14  1  0.56533451  0.83855034  0.23043782  1
  O  O15  1  0.86567733  0.33855034  0.73043782  1
  O  O16  1  0.40872047  0.37031986  0.56075374  1
  O  O17  1  0.16020593  0.87031986  0.06075374  1
  P  P18  1  0.29000942  0.64723171  0.07001753  1
  P  P19  1  0.49274135  0.14723171  0.57001753  1
  P  P20  1  0.05359168  0.34725298  0.15801479  1
  P  P21  1  0.94114055  0.84725298  0.65801479  1
  P  P22  1  0.52666815  0.05366764  0.22027347  1
  P  P23  1  0.69939073  0.55366764  0.72027347  1
  V  V24  1  0.49419203  0.59921411  0.39498049  1
  V  V25  1  0.01161336  0.09921411  0.89498049  1
