# generated using pymatgen
data_In7Cl9
_symmetry_space_group_name_H-M   'P 1'
_cell_length_a   12.42853489
_cell_length_b   12.42853489
_cell_length_c   12.42853489
_cell_angle_alpha   90.00000000
_cell_angle_beta   90.00000000
_cell_angle_gamma   90.00000000
_symmetry_Int_Tables_number   1
_chemical_formula_structural   In7Cl9
_chemical_formula_sum   'In28 Cl36'
_cell_volume   1919.81688702
_cell_formula_units_Z   4
loop_
 _symmetry_equiv_pos_site_id
 _symmetry_equiv_pos_as_xyz
  1  'x, y, z'
loop_
 _atom_site_type_symbol
 _atom_site_label
 _atom_site_symmetry_multiplicity
 _atom_site_fract_x
 _atom_site_fract_y
 _atom_site_fract_z
 _atom_site_occupancy
  Cl  Cl0  1  0.95009585  0.19557740  0.45687004  1
  Cl  Cl1  1  0.45009585  0.30442260  0.54312996  1
  Cl  Cl2  1  0.04990415  0.69557740  0.04312996  1
  Cl  Cl3  1  0.30442260  0.54312996  0.45009585  1
  Cl  Cl4  1  0.04312996  0.04990415  0.69557740  1
  Cl  Cl5  1  0.54312996  0.45009585  0.30442260  1
  Cl  Cl6  1  0.19557740  0.45687004  0.95009585  1
  Cl  Cl7  1  0.45687004  0.95009585  0.19557740  1
  Cl  Cl8  1  0.69557740  0.04312996  0.04990415  1
  Cl  Cl9  1  0.80442260  0.95687004  0.54990415  1
  Cl  Cl10  1  0.95687004  0.54990415  0.80442260  1
  Cl  Cl11  1  0.54990415  0.80442260  0.95687004  1
  Cl  Cl12  1  0.04990415  0.80442260  0.54312996  1
  Cl  Cl13  1  0.54990415  0.69557740  0.45687004  1
  Cl  Cl14  1  0.95009585  0.30442260  0.95687004  1
  Cl  Cl15  1  0.83296206  0.66703794  0.33296206  1
  Cl  Cl16  1  0.69557740  0.45687004  0.54990415  1
  Cl  Cl17  1  0.45687004  0.54990415  0.69557740  1
  Cl  Cl18  1  0.80442260  0.54312996  0.04990415  1
  Cl  Cl19  1  0.54312996  0.04990415  0.80442260  1
  Cl  Cl20  1  0.30442260  0.95687004  0.95009585  1
  Cl  Cl21  1  0.19557740  0.04312996  0.45009585  1
  Cl  Cl22  1  0.04312996  0.45009585  0.19557740  1
  Cl  Cl23  1  0.45009585  0.19557740  0.04312996  1
  Cl  Cl24  1  0.16703794  0.33296206  0.66703794  1
  Cl  Cl25  1  0.33296206  0.66703794  0.16703794  1
  Cl  Cl26  1  0.66703794  0.16703794  0.33296206  1
  Cl  Cl27  1  0.83296206  0.83296206  0.83296206  1
  Cl  Cl28  1  0.00000000  0.00000000  0.00000000  1
  Cl  Cl29  1  0.50000000  0.00000000  0.50000000  1
  Cl  Cl30  1  0.50000000  0.50000000  0.00000000  1
  Cl  Cl31  1  0.00000000  0.50000000  0.50000000  1
  Cl  Cl32  1  0.16703794  0.16703794  0.16703794  1
  Cl  Cl33  1  0.33296206  0.83296206  0.66703794  1
  Cl  Cl34  1  0.66703794  0.33296206  0.83296206  1
  Cl  Cl35  1  0.95687004  0.95009585  0.30442260  1
  In  In36  1  0.81780072  0.43305252  0.32885564  1
  In  In37  1  0.31780072  0.06694748  0.67114436  1
  In  In38  1  0.18219928  0.93305252  0.17114436  1
  In  In39  1  0.06694748  0.67114436  0.31780072  1
  In  In40  1  0.17114436  0.18219928  0.93305252  1
  In  In41  1  0.67114436  0.31780072  0.06694748  1
  In  In42  1  0.43305252  0.32885564  0.81780072  1
  In  In43  1  0.32885564  0.81780072  0.43305252  1
  In  In44  1  0.93305252  0.17114436  0.18219928  1
  In  In45  1  0.56694748  0.82885564  0.68219928  1
  In  In46  1  0.82885564  0.68219928  0.56694748  1
  In  In47  1  0.68219928  0.56694748  0.82885564  1
  In  In48  1  0.18219928  0.56694748  0.67114436  1
  In  In49  1  0.68219928  0.93305252  0.32885564  1
  In  In50  1  0.81780072  0.06694748  0.82885564  1
  In  In51  1  0.93305252  0.32885564  0.68219928  1
  In  In52  1  0.82885564  0.81780072  0.06694748  1
  In  In53  1  0.32885564  0.68219928  0.93305252  1
  In  In54  1  0.56694748  0.67114436  0.18219928  1
  In  In55  1  0.67114436  0.18219928  0.56694748  1
  In  In56  1  0.06694748  0.82885564  0.81780072  1
  In  In57  1  0.43305252  0.17114436  0.31780072  1
  In  In58  1  0.17114436  0.31780072  0.43305252  1
  In  In59  1  0.31780072  0.43305252  0.17114436  1
  In  In60  1  0.50000000  0.50000000  0.50000000  1
  In  In61  1  0.50000000  0.00000000  0.00000000  1
  In  In62  1  0.00000000  0.00000000  0.50000000  1
  In  In63  1  0.00000000  0.50000000  0.00000000  1
