# generated using pymatgen
data_BaSi7N10
_symmetry_space_group_name_H-M   'P 1'
_cell_length_a   6.92472000
_cell_length_b   6.77019000
_cell_length_c   9.69746343
_cell_angle_alpha   90.00000000
_cell_angle_beta   106.17471403
_cell_angle_gamma   90.00000000
_symmetry_Int_Tables_number   1
_chemical_formula_structural   BaSi7N10
_chemical_formula_sum   'Ba2 Si14 N20'
_cell_volume   436.63740390
_cell_formula_units_Z   2
loop_
 _symmetry_equiv_pos_site_id
 _symmetry_equiv_pos_as_xyz
  1  'x, y, z'
loop_
 _atom_site_type_symbol
 _atom_site_label
 _atom_site_symmetry_multiplicity
 _atom_site_fract_x
 _atom_site_fract_y
 _atom_site_fract_z
 _atom_site_occupancy
  Ba  Ba0  1  0.28939700  0.59404700  0.21222500  1
  Ba  Ba1  1  0.28939700  0.40595300  0.71222500  1
  Si  Si2  1  0.99515300  0.86548500  0.53170500  1
  Si  Si3  1  0.99515300  0.13451500  0.03170500  1
  Si  Si4  1  0.81240700  0.87133900  0.22655400  1
  Si  Si5  1  0.81240700  0.12866100  0.72655400  1
  Si  Si6  1  0.62509000  0.11861700  0.42286500  1
  Si  Si7  1  0.62509000  0.88138300  0.92286500  1
  Si  Si8  1  0.43801600  0.10653500  0.11182900  1
  Si  Si9  1  0.43801600  0.89346500  0.61182900  1
  Si  Si10  1  0.17797200  0.12411500  0.34658800  1
  Si  Si11  1  0.17797200  0.87588500  0.84658800  1
  Si  Si12  1  0.86898100  0.47290500  0.36742300  1
  Si  Si13  1  0.86898100  0.52709500  0.86742300  1
  Si  Si14  1  0.68586000  0.47232100  0.05564200  1
  Si  Si15  1  0.68586000  0.52767900  0.55564200  1
  N  N16  1  0.03245100  0.91566200  0.36287800  1
  N  N17  1  0.03245100  0.08433800  0.86287800  1
  N  N18  1  0.21658100  0.88889100  0.67059300  1
  N  N19  1  0.21658100  0.11110900  0.17059300  1
  N  N20  1  0.40735300  0.92280400  0.97600100  1
  N  N21  1  0.40735300  0.07719600  0.47600100  1
  N  N22  1  0.61402300  0.00008000  0.26282900  1
  N  N23  1  0.61402300  0.99992000  0.76282900  1
  N  N24  1  0.82651700  0.03674700  0.56291200  1
  N  N25  1  0.82651700  0.96325300  0.06291200  1
  N  N26  1  0.77519800  0.61707500  0.21151700  1
  N  N27  1  0.77519800  0.38292500  0.71151700  1
  N  N28  1  0.07397800  0.34141900  0.36948900  1
  N  N29  1  0.07397800  0.65858100  0.86948900  1
  N  N30  1  0.48717100  0.33303400  0.05724700  1
  N  N31  1  0.48717100  0.66696600  0.55724700  1
  N  N32  1  0.89709100  0.36756400  0.01494100  1
  N  N33  1  0.89709100  0.63243600  0.51494100  1
  N  N34  1  0.65120200  0.63069600  0.90500300  1
  N  N35  1  0.65120200  0.36930400  0.40500300  1
