# generated using pymatgen
data_Ta6Be15Cu8
_symmetry_space_group_name_H-M   'P 1'
_cell_length_a   7.64634852
_cell_length_b   7.64634852
_cell_length_c   7.64634851
_cell_angle_alpha   59.99999999
_cell_angle_beta   59.99999998
_cell_angle_gamma   59.99999997
_symmetry_Int_Tables_number   1
_chemical_formula_structural   Ta6Be15Cu8
_chemical_formula_sum   'Ta6 Be15 Cu8'
_cell_volume   316.11657568
_cell_formula_units_Z   1
loop_
 _symmetry_equiv_pos_site_id
 _symmetry_equiv_pos_as_xyz
  1  'x, y, z'
loop_
 _atom_site_type_symbol
 _atom_site_label
 _atom_site_symmetry_multiplicity
 _atom_site_fract_x
 _atom_site_fract_y
 _atom_site_fract_z
 _atom_site_occupancy
  Be  Be0  1  0.50000000  0.50000000  0.50000000  1
  Be  Be1  1  0.50000000  0.00000000  0.00000000  1
  Be  Be2  1  0.00000000  0.00000000  0.50000000  1
  Be  Be3  1  0.50000000  0.50000000  0.00000000  1
  Be  Be4  1  0.00000000  0.50000000  0.50000000  1
  Be  Be5  1  0.00000000  0.50000000  0.00000000  1
  Be  Be6  1  0.50000000  0.00000000  0.50000000  1
  Be  Be7  1  0.17297146  0.17297146  0.17297146  1
  Be  Be8  1  0.82702854  0.82702854  0.51891438  1
  Be  Be9  1  0.51891438  0.82702854  0.82702854  1
  Be  Be10  1  0.82702854  0.51891438  0.82702854  1
  Be  Be11  1  0.48108562  0.17297146  0.17297146  1
  Be  Be12  1  0.17297146  0.48108562  0.17297146  1
  Be  Be13  1  0.17297146  0.17297146  0.48108562  1
  Be  Be14  1  0.82702854  0.82702854  0.82702854  1
  Cu  Cu15  1  0.37702270  0.37702270  0.37702270  1
  Cu  Cu16  1  0.62297730  0.62297730  0.13106811  1
  Cu  Cu17  1  0.13106811  0.62297730  0.62297730  1
  Cu  Cu18  1  0.62297730  0.13106811  0.62297730  1
  Cu  Cu19  1  0.86893189  0.37702270  0.37702270  1
  Cu  Cu20  1  0.37702270  0.86893189  0.37702270  1
  Cu  Cu21  1  0.37702270  0.37702270  0.86893189  1
  Cu  Cu22  1  0.62297730  0.62297730  0.62297730  1
  Ta  Ta23  1  0.80802454  0.19197546  0.19197546  1
  Ta  Ta24  1  0.80802454  0.80802454  0.19197546  1
  Ta  Ta25  1  0.19197546  0.19197546  0.80802454  1
  Ta  Ta26  1  0.80802454  0.19197546  0.80802454  1
  Ta  Ta27  1  0.19197546  0.80802454  0.19197546  1
  Ta  Ta28  1  0.19197546  0.80802454  0.80802454  1
