# generated using pymatgen
data_Nd2TeO6
_symmetry_space_group_name_H-M   'P 1'
_cell_length_a   5.48401078
_cell_length_b   9.41829027
_cell_length_c   10.31116657
_cell_angle_alpha   90.00000000
_cell_angle_beta   89.99999617
_cell_angle_gamma   90.00000000
_symmetry_Int_Tables_number   1
_chemical_formula_structural   Nd2TeO6
_chemical_formula_sum   'Nd8 Te4 O24'
_cell_volume   532.57180871
_cell_formula_units_Z   4
loop_
 _symmetry_equiv_pos_site_id
 _symmetry_equiv_pos_as_xyz
  1  'x, y, z'
loop_
 _atom_site_type_symbol
 _atom_site_label
 _atom_site_symmetry_multiplicity
 _atom_site_fract_x
 _atom_site_fract_y
 _atom_site_fract_z
 _atom_site_occupancy
  O  O0  1  0.75256113  0.41427050  0.49179063  1
  O  O1  1  0.25256100  0.08572946  0.50820940  1
  O  O2  1  0.24743887  0.91427050  0.00820937  1
  O  O3  1  0.74743900  0.58572946  0.99179060  1
  O  O4  1  0.72174023  0.11205595  0.56485672  1
  O  O5  1  0.22174026  0.38794398  0.43514336  1
  O  O6  1  0.27825977  0.61205595  0.93514328  1
  O  O7  1  0.77825974  0.88794398  0.06485664  1
  O  O8  1  0.80828113  0.36077946  0.82420485  1
  O  O9  1  0.30828110  0.13922054  0.17579506  1
  O  O10  1  0.19171887  0.86077946  0.67579515  1
  O  O11  1  0.69171890  0.63922054  0.32420494  1
  O  O12  1  0.66711947  0.94720438  0.78757022  1
  O  O13  1  0.16711952  0.55279579  0.21242972  1
  O  O14  1  0.33288053  0.44720438  0.71242978  1
  O  O15  1  0.83288048  0.05279579  0.28757028  1
  O  O16  1  0.68101572  0.63650900  0.74291781  1
  O  O17  1  0.18101582  0.86349102  0.25708215  1
  O  O18  1  0.31898428  0.13650900  0.75708219  1
  O  O19  1  0.81898418  0.36349102  0.24291785  1
  O  O20  1  0.57351119  0.84971516  0.52361309  1
  O  O21  1  0.07351112  0.65028470  0.47638694  1
  O  O22  1  0.42648881  0.34971516  0.97638691  1
  O  O23  1  0.92648888  0.15028470  0.02361306  1
  Te  Te24  1  0.04127952  0.00479561  0.14340031  1
  Te  Te25  1  0.54127965  0.49520447  0.85659963  1
  Te  Te26  1  0.95872048  0.50479561  0.35659969  1
  Te  Te27  1  0.45872035  0.99520447  0.64340037  1
  Nd  Nd28  1  0.52477390  0.10397021  0.95867796  1
  Nd  Nd29  1  0.02477387  0.39602973  0.04132213  1
  Nd  Nd30  1  0.47522610  0.60397021  0.54132204  1
  Nd  Nd31  1  0.97522613  0.89602973  0.45867787  1
  Nd  Nd32  1  0.53374181  0.21706435  0.36242192  1
  Nd  Nd33  1  0.03374193  0.28293570  0.63757817  1
  Nd  Nd34  1  0.46625819  0.71706435  0.13757808  1
  Nd  Nd35  1  0.96625807  0.78293570  0.86242183  1
