# generated using pymatgen
data_TiMn2O6
_symmetry_space_group_name_H-M   'P 1'
_cell_length_a   5.11824472
_cell_length_b   5.11824422
_cell_length_c   9.46182281
_cell_angle_alpha   90.00000000
_cell_angle_beta   90.00000000
_cell_angle_gamma   120.12303519
_symmetry_Int_Tables_number   1
_chemical_formula_structural   TiMn2O6
_chemical_formula_sum   'Ti2 Mn4 O12'
_cell_volume   214.39158095
_cell_formula_units_Z   2
loop_
 _symmetry_equiv_pos_site_id
 _symmetry_equiv_pos_as_xyz
  1  'x, y, z'
loop_
 _atom_site_type_symbol
 _atom_site_label
 _atom_site_symmetry_multiplicity
 _atom_site_fract_x
 _atom_site_fract_y
 _atom_site_fract_z
 _atom_site_occupancy
  Ti  Ti0  1  0.00000000  -0.00000000  0.00000000  1
  Ti  Ti1  1  0.50000000  0.50000000  0.50000000  1
  Mn  Mn2  1  0.16686116  0.83313884  0.50000000  1
  Mn  Mn3  1  0.33313884  0.66686116  0.00000000  1
  Mn  Mn4  1  0.66686116  0.33313884  -0.00000000  1
  Mn  Mn5  1  0.83313884  0.16686116  0.50000000  1
  O  O6  1  0.00000216  0.66121330  0.10202625  1
  O  O7  1  0.99999784  0.33878670  0.89797375  1
  O  O8  1  0.16121330  0.50000216  0.39797375  1
  O  O9  1  0.49999784  0.83878670  0.60202625  1
  O  O10  1  0.16064572  0.16064572  0.60238141  1
  O  O11  1  0.33935428  0.33935428  0.10238141  1
  O  O12  1  0.66064572  0.66064572  0.89761859  1
  O  O13  1  0.33878670  0.99999784  0.89797375  1
  O  O14  1  0.83935428  0.83935428  0.39761859  1
  O  O15  1  0.50000216  0.16121330  0.39797375  1
  O  O16  1  0.83878670  0.49999784  0.60202625  1
  O  O17  1  0.66121330  0.00000216  0.10202625  1
