# generated using pymatgen
data_LiMo2(PO4)3
_symmetry_space_group_name_H-M   'P 1'
_cell_length_a   8.67895869
_cell_length_b   12.30441867
_cell_length_c   8.95291741
_cell_angle_alpha   90.00000000
_cell_angle_beta   90.00000000
_cell_angle_gamma   90.77148911
_symmetry_Int_Tables_number   1
_chemical_formula_structural   LiMo2(PO4)3
_chemical_formula_sum   'Li4 Mo8 P12 O48'
_cell_volume   955.99127425
_cell_formula_units_Z   4
loop_
 _symmetry_equiv_pos_site_id
 _symmetry_equiv_pos_as_xyz
  1  'x, y, z'
loop_
 _atom_site_type_symbol
 _atom_site_label
 _atom_site_symmetry_multiplicity
 _atom_site_fract_x
 _atom_site_fract_y
 _atom_site_fract_z
 _atom_site_occupancy
  Li  Li0  1  0.19436045  0.17770871  0.77697615  1
  Li  Li1  1  0.30564033  0.32229133  0.27697634  1
  Li  Li2  1  0.69436008  0.67770876  0.72302442  1
  Li  Li3  1  0.80563996  0.82229138  0.22302460  1
  O  O4  1  0.31034030  0.46103990  0.55513238  1
  O  O5  1  0.93540571  0.13089477  0.11063259  1
  O  O6  1  0.92361831  0.40808693  0.32019953  1
  O  O7  1  0.92814435  0.83571518  0.41736543  1
  O  O8  1  0.90189148  0.42409874  0.63839041  1
  O  O9  1  0.82265051  0.81738161  0.74314854  1
  O  O10  1  0.85056514  0.03051951  0.57367699  1
  O  O11  1  0.84288701  0.76874623  0.01644621  1
  O  O12  1  0.05096236  0.44228070  0.87203315  1
  O  O13  1  0.06459469  0.86910452  0.88936704  1
  O  O14  1  0.07638210  0.59191317  0.67980010  1
  O  O15  1  0.07185492  0.16428491  0.58263420  1
  O  O16  1  0.09810893  0.57590135  0.36160922  1
  O  O17  1  0.11832490  0.83054329  0.21672240  1
  O  O18  1  0.14943527  0.96948058  0.42632264  1
  O  O19  1  0.15711225  0.23125387  0.98355342  1
  O  O20  1  0.17734990  0.18261849  0.25685222  1
  O  O21  1  0.16789545  0.42872741  0.17708113  1
  O  O22  1  0.19805447  0.77524312  0.48493145  1
  O  O23  1  0.18965933  0.03896015  0.05513144  1
  O  O24  1  0.30194591  0.72475686  0.98493126  1
  O  O25  1  0.94903805  0.55771940  0.12796761  1
  O  O26  1  0.33210534  0.07127264  0.67708095  1
  O  O27  1  0.32264973  0.31738156  0.75685204  1
  O  O28  1  0.34288738  0.26874618  0.48355361  1
  O  O29  1  0.35056511  0.53051939  0.92632245  1
  O  O30  1  0.38167548  0.66945668  0.71672221  1
  O  O31  1  0.40189145  0.92409862  0.86160904  1
  O  O32  1  0.42361829  0.90808681  0.17980029  1
  O  O33  1  0.42814472  0.33571514  0.08263438  1
  O  O34  1  0.43540569  0.63089546  0.38936722  1
  O  O35  1  0.44903727  0.05771935  0.37203221  1
  O  O36  1  0.55096200  0.94228074  0.62796742  1
  O  O37  1  0.56459472  0.36910464  0.61063241  1
  O  O38  1  0.57185570  0.66428496  0.91736525  1
  O  O39  1  0.57638213  0.09191329  0.82019934  1
  O  O40  1  0.59810896  0.07590147  0.13839059  1
  O  O41  1  0.61832493  0.33054341  0.28327742  1
  O  O42  1  0.64943529  0.46947989  0.07367718  1
  O  O43  1  0.65711303  0.73125391  0.51644715  1
  O  O44  1  0.67734953  0.68261853  0.24314872  1
  O  O45  1  0.66789508  0.92872746  0.32291868  1
  O  O46  1  0.68965896  0.53896020  0.44486838  1
  O  O47  1  0.69805450  0.27524324  0.01506837  1
  O  O48  1  0.81033993  0.96103995  0.94486819  1
  O  O49  1  0.80194594  0.22475698  0.51506818  1
  O  O50  1  0.83210497  0.57127269  0.82291850  1
  O  O51  1  0.88167551  0.16945680  0.78327836  1
  P  P52  1  0.96439473  0.50670054  0.74939935  1
  P  P53  1  0.89628225  0.14776962  0.61536709  1
  P  P54  1  0.88828997  0.85597209  0.89535601  1
  P  P55  1  0.61171008  0.64402806  0.39535507  1
  P  P56  1  0.60371818  0.35222978  0.11536727  1
  P  P57  1  0.53560531  0.99329960  0.24939841  1
  P  P58  1  0.46439510  0.00670049  0.75060122  1
  P  P59  1  0.39628222  0.64776950  0.88463348  1
  P  P60  1  0.03560568  0.49329956  0.25060141  1
  P  P61  1  0.10371816  0.85223048  0.38463367  1
  P  P62  1  0.38829034  0.35597204  0.60464456  1
  P  P63  1  0.11170929  0.14402801  0.10464474  1
  Mo  Mo64  1  0.24800643  0.61965360  0.53179113  1
  Mo  Mo65  1  0.24368843  0.38704167  0.95985991  1
  Mo  Mo66  1  0.25199396  0.88034638  0.03179132  1
  Mo  Mo67  1  0.25631120  0.11295838  0.45986010  1
  Mo  Mo68  1  0.74368806  0.88704172  0.54014066  1
  Mo  Mo69  1  0.74800530  0.11965372  0.96820944  1
  Mo  Mo70  1  0.75631198  0.61295842  0.04014084  1
  Mo  Mo71  1  0.75199397  0.38034568  0.46820850  1
