# generated using pymatgen
data_Mo2(PO4)3
_symmetry_space_group_name_H-M   'P 1'
_cell_length_a   8.71260262
_cell_length_b   8.75683108
_cell_length_c   9.04791682
_cell_angle_alpha   89.92503539
_cell_angle_beta   60.83831585
_cell_angle_gamma   119.47812634
_symmetry_Int_Tables_number   1
_chemical_formula_structural   Mo2(PO4)3
_chemical_formula_sum   'Mo4 P6 O24'
_cell_volume   497.68320107
_cell_formula_units_Z   2
loop_
 _symmetry_equiv_pos_site_id
 _symmetry_equiv_pos_as_xyz
  1  'x, y, z'
loop_
 _atom_site_type_symbol
 _atom_site_label
 _atom_site_symmetry_multiplicity
 _atom_site_fract_x
 _atom_site_fract_y
 _atom_site_fract_z
 _atom_site_occupancy
  O  O0  1  0.50280078  0.07984210  0.20741229  1
  O  O1  1  0.87901188  0.37560236  0.91771104  1
  O  O2  1  0.88714628  0.14285307  0.58958356  1
  O  O3  1  0.83960588  0.54184882  0.73066447  1
  O  O4  1  0.12098709  0.62439782  0.08228963  1
  O  O5  1  0.11285401  0.85714711  0.41041651  1
  O  O6  1  0.16039309  0.45815136  0.26933621  1
  O  O7  1  0.14046485  0.72181023  0.77039903  1
  O  O8  1  0.15989875  0.51965483  0.58155651  1
  O  O9  1  0.27474661  0.19935318  0.28160749  1
  O  O10  1  0.28514016  0.00814312  0.07986054  1
  O  O11  1  0.70400197  0.92015490  0.23121291  1
  O  O12  1  0.53250906  0.57667328  0.26460971  1
  O  O13  1  0.26771702  0.26530119  0.59011648  1
  O  O14  1  0.84010154  0.48034535  0.41844356  1
  O  O15  1  0.07533308  0.20520958  0.92335431  1
  O  O16  1  0.92466591  0.79479061  0.07664524  1
  O  O17  1  0.85953544  0.27818995  0.22960104  1
  O  O18  1  0.73228238  0.73469760  0.40988289  1
  O  O19  1  0.46749125  0.42332691  0.73538924  1
  O  O20  1  0.29599741  0.07984388  0.76878758  1
  O  O21  1  0.71486013  0.99185706  0.92013953  1
  O  O22  1  0.72525367  0.80064701  0.71839258  1
  O  O23  1  0.49719820  0.92015808  0.79258838  1
  P  P24  1  0.28220197  0.03105613  0.24968427  1
  P  P25  1  0.71414724  0.75096567  0.25136869  1
  P  P26  1  0.28585305  0.24903451  0.74863138  1
  P  P27  1  0.71779832  0.96894405  0.75031580  1
  P  P28  1  0.00386820  0.53704166  0.74913472  1
  P  P29  1  0.99613118  0.46295712  0.25086577  1
  Mo  Mo30  1  0.78868553  0.14362579  0.07180209  1
  Mo  Mo31  1  0.78927761  0.64160710  0.57000872  1
  Mo  Mo32  1  0.21072177  0.35839168  0.42999178  1
  Mo  Mo33  1  0.21131476  0.85637439  0.92819798  1
