# generated using pymatgen
data_Zn3Mo2O9
_symmetry_space_group_name_H-M   'P 1'
_cell_length_a   7.20722513
_cell_length_b   7.93086465
_cell_length_c   8.54020970
_cell_angle_alpha   117.46625680
_cell_angle_beta   90.00000000
_cell_angle_gamma   90.00000000
_symmetry_Int_Tables_number   1
_chemical_formula_structural   Zn3Mo2O9
_chemical_formula_sum   'Zn6 Mo4 O18'
_cell_volume   433.13086670
_cell_formula_units_Z   2
loop_
 _symmetry_equiv_pos_site_id
 _symmetry_equiv_pos_as_xyz
  1  'x, y, z'
loop_
 _atom_site_type_symbol
 _atom_site_label
 _atom_site_symmetry_multiplicity
 _atom_site_fract_x
 _atom_site_fract_y
 _atom_site_fract_z
 _atom_site_occupancy
  O  O0  1  0.24999995  0.34392900  0.74017523  1
  O  O1  1  0.74999985  0.65607083  0.25982458  1
  O  O2  1  0.24999995  0.46366141  0.46710322  1
  O  O3  1  0.74999985  0.53633842  0.53289659  1
  O  O4  1  0.54790399  0.07528925  0.78085554  1
  O  O5  1  0.04790408  0.92471058  0.21914427  1
  O  O6  1  0.45209582  0.92471058  0.21914427  1
  O  O7  1  0.95209572  0.07528925  0.78085554  1
  O  O8  1  0.24999995  0.58077138  0.16648530  1
  O  O9  1  0.74999985  0.41922846  0.83351568  1
  O  O10  1  0.74999985  0.90086026  0.00595783  1
  O  O11  1  0.24999995  0.09913958  0.99404197  1
  O  O12  1  0.95177096  0.30807326  0.20073847  1
  O  O13  1  0.45177106  0.69192658  0.79926134  1
  O  O14  1  0.24999995  0.90996379  0.51350194  1
  O  O15  1  0.54822874  0.30807326  0.20073847  1
  O  O16  1  0.74999985  0.09003604  0.48649787  1
  O  O17  1  0.04822884  0.69192658  0.79926134  1
  Zn  Zn18  1  0.74999985  0.89158263  0.23546651  1
  Zn  Zn19  1  0.24999995  0.10841721  0.76453329  1
  Zn  Zn20  1  0.74999985  0.64640141  0.79368066  1
  Zn  Zn21  1  0.24999995  0.35359843  0.20631915  1
  Zn  Zn22  1  0.49999990  0.00000000  0.00000000  1
  Zn  Zn23  1  0.00000000  0.00000000  0.00000000  1
  Mo  Mo24  1  0.74999985  0.16508919  0.71798995  1
  Mo  Mo25  1  0.24999995  0.83491207  0.28201047  1
  Mo  Mo26  1  0.74999985  0.45413590  0.30015132  1
  Mo  Mo27  1  0.24999995  0.54586394  0.69984966  1
