# generated using pymatgen
data_Li3Mo2(PO4)3
_symmetry_space_group_name_H-M   'P 1'
_cell_length_a   8.64754220
_cell_length_b   9.27189469
_cell_length_c   8.64770565
_cell_angle_alpha   89.99820005
_cell_angle_beta   59.99956282
_cell_angle_gamma   117.79620653
_symmetry_Int_Tables_number   1
_chemical_formula_structural   Li3Mo2(PO4)3
_chemical_formula_sum   'Li6 Mo4 P6 O24'
_cell_volume   505.97465629
_cell_formula_units_Z   2
loop_
 _symmetry_equiv_pos_site_id
 _symmetry_equiv_pos_as_xyz
  1  'x, y, z'
loop_
 _atom_site_type_symbol
 _atom_site_label
 _atom_site_symmetry_multiplicity
 _atom_site_fract_x
 _atom_site_fract_y
 _atom_site_fract_z
 _atom_site_occupancy
  Li  Li0  1  0.93110060  0.85687143  0.33507605  1
  Li  Li1  1  0.19199826  0.85690892  0.73379485  1
  Li  Li2  1  0.59071351  0.85687868  0.07421617  1
  Li  Li3  1  0.40928712  0.14312296  0.92578373  1
  Li  Li4  1  0.80800226  0.14309183  0.26620514  1
  Li  Li5  1  0.06889991  0.14312970  0.66492335  1
  O  O6  1  0.80911652  0.40809324  0.00179837  1
  O  O7  1  0.11720754  0.26316959  0.13572639  1
  O  O8  1  0.03504719  0.19199766  0.46299553  1
  O  O9  1  0.64670334  0.09228316  0.14658045  1
  O  O10  1  0.76103521  0.90764534  0.79332598  1
  O  O11  1  0.88279301  0.73683095  0.86427349  1
  O  O12  1  0.96495140  0.80800171  0.53700494  1
  O  O13  1  0.35329560  0.90771662  0.85342072  1
  O  O14  1  0.23896399  0.09235433  0.20667453  1
  O  O15  1  0.70096808  0.90769350  0.44563676  1
  O  O16  1  0.59012228  0.59182538  0.81093894  1
  O  O17  1  0.98976711  0.73681412  0.14594603  1
  O  O18  1  0.34498575  0.80797105  0.49802048  1
  O  O19  1  0.60119880  0.73687395  0.25292023  1
  O  O20  1  0.19088301  0.59190638  0.99820141  1
  O  O21  1  0.40280209  0.59186046  0.59892869  1
  O  O22  1  0.59719907  0.40813936  0.40107033  1
  O  O23  1  0.30601065  0.80797007  0.15698460  1
  O  O24  1  0.39880126  0.26312641  0.74707924  1
  O  O25  1  0.65501367  0.19202835  0.50198004  1
  O  O26  1  0.01023191  0.26318506  0.85405517  1
  O  O27  1  0.40987664  0.40817376  0.18906325  1
  O  O28  1  0.29903177  0.09230662  0.55436301  1
  O  O29  1  0.69398845  0.19202887  0.84301616  1
  P  P30  1  0.20439254  0.24579229  0.24947753  1
  P  P31  1  0.20810509  0.75423805  0.04138388  1
  P  P32  1  0.49524188  0.24575778  0.54614257  1
  P  P33  1  0.50475816  0.75424212  0.45385710  1
  P  P34  1  0.79560694  0.75420747  0.75052308  1
  P  P35  1  0.79189389  0.24576126  0.95861699  1
  Mo  Mo36  1  0.30480134  0.95720963  0.34758542  1
  Mo  Mo37  1  0.29058288  0.43586574  0.85469889  1
  Mo  Mo38  1  0.70941726  0.56413439  0.14530096  1
  Mo  Mo39  1  0.69519735  0.04278934  0.65241540  1
