# generated using pymatgen
data_Li2Ni3(P2O7)2
_symmetry_space_group_name_H-M   'P 1'
_cell_length_a   7.28503839
_cell_length_b   7.87500756
_cell_length_c   9.44227156
_cell_angle_alpha   90.00000000
_cell_angle_beta   110.12752323
_cell_angle_gamma   90.00000000
_symmetry_Int_Tables_number   1
_chemical_formula_structural   Li2Ni3(P2O7)2
_chemical_formula_sum   'Li4 Ni6 P8 O28'
_cell_volume   508.61842837
_cell_formula_units_Z   2
loop_
 _symmetry_equiv_pos_site_id
 _symmetry_equiv_pos_as_xyz
  1  'x, y, z'
loop_
 _atom_site_type_symbol
 _atom_site_label
 _atom_site_symmetry_multiplicity
 _atom_site_fract_x
 _atom_site_fract_y
 _atom_site_fract_z
 _atom_site_occupancy
  Li  Li0  1  0.29250458  0.58373315  0.86419704  1
  Li  Li1  1  0.29250458  0.91626685  0.36419704  1
  Li  Li2  1  0.70749542  0.08373315  0.63580296  1
  Li  Li3  1  0.70749542  0.41626685  0.13580296  1
  O  O4  1  0.98809653  0.29481122  0.13710512  1
  O  O5  1  0.96632265  0.92148659  0.10734328  1
  O  O6  1  0.84913416  0.62227493  0.11798678  1
  O  O7  1  0.98809653  0.20518878  0.63710512  1
  O  O8  1  0.96632265  0.57851341  0.60734328  1
  O  O9  1  0.67730514  0.86362637  0.19146105  1
  O  O10  1  0.01190347  0.70518878  0.86289488  1
  O  O11  1  0.03367735  0.07851341  0.89265672  1
  O  O12  1  0.15086584  0.37772507  0.88201322  1
  O  O13  1  0.01190347  0.79481122  0.36289488  1
  O  O14  1  0.03367735  0.42148659  0.39265672  1
  O  O15  1  0.32269486  0.13637363  0.80853895  1
  O  O16  1  0.37858337  0.83166981  0.90286193  1
  O  O17  1  0.15086584  0.12227493  0.38201322  1
  O  O18  1  0.27892440  0.88971939  0.62228606  1
  O  O19  1  0.38478857  0.49392839  0.70009091  1
  O  O20  1  0.32269486  0.36362637  0.30853895  1
  O  O21  1  0.37858337  0.66833019  0.40286193  1
  O  O22  1  0.27892440  0.61028061  0.12228606  1
  O  O23  1  0.61521143  0.99392839  0.79990909  1
  O  O24  1  0.38478857  0.00607161  0.20009091  1
  O  O25  1  0.72107560  0.38971939  0.87771394  1
  O  O26  1  0.62141663  0.33166981  0.59713807  1
  O  O27  1  0.67730514  0.63637363  0.69146105  1
  O  O28  1  0.61521143  0.50607161  0.29990909  1
  O  O29  1  0.72107560  0.11028061  0.37771394  1
  O  O30  1  0.84913416  0.87772507  0.61798678  1
  O  O31  1  0.62141663  0.16833019  0.09713807  1
  P  P32  1  0.88350125  0.79435321  0.19372721  1
  P  P33  1  0.88350125  0.70564679  0.69372721  1
  P  P34  1  0.59584386  0.04916885  0.21684140  1
  P  P35  1  0.40415614  0.54916885  0.28315860  1
  P  P36  1  0.59584386  0.45083115  0.71684140  1
  P  P37  1  0.40415614  0.95083115  0.78315860  1
  P  P38  1  0.11649875  0.20564679  0.80627279  1
  P  P39  1  0.11649875  0.29435321  0.30627279  1
  Ni  Ni40  1  0.00000000  0.00000000  0.50000000  1
  Ni  Ni41  1  0.18830711  0.62560241  0.51918347  1
  Ni  Ni42  1  0.00000000  0.50000000  0.00000000  1
  Ni  Ni43  1  0.18830711  0.87439759  0.01918347  1
  Ni  Ni44  1  0.81169289  0.12560241  0.98081653  1
  Ni  Ni45  1  0.81169289  0.37439759  0.48081653  1
