# generated using pymatgen
data_Mo2P3O11
_symmetry_space_group_name_H-M   'P 1'
_cell_length_a   7.53099602
_cell_length_b   7.53099602
_cell_length_c   9.21485116
_cell_angle_alpha   70.53458293
_cell_angle_beta   109.46541703
_cell_angle_gamma   107.82310115
_symmetry_Int_Tables_number   1
_chemical_formula_structural   Mo2P3O11
_chemical_formula_sum   'Mo4 P6 O22'
_cell_volume   453.27275089
_cell_formula_units_Z   2
loop_
 _symmetry_equiv_pos_site_id
 _symmetry_equiv_pos_as_xyz
  1  'x, y, z'
loop_
 _atom_site_type_symbol
 _atom_site_label
 _atom_site_symmetry_multiplicity
 _atom_site_fract_x
 _atom_site_fract_y
 _atom_site_fract_z
 _atom_site_occupancy
  O  O0  1  0.60496390  0.25693095  0.67930830  1
  O  O1  1  0.98646080  0.13897226  0.10498240  1
  O  O2  1  0.95532434  0.77685099  0.21285993  1
  O  O3  1  0.86827598  0.02880889  0.60518471  1
  O  O4  1  0.02880946  0.86827664  0.89481608  1
  O  O5  1  0.05635393  0.22758643  0.79446561  1
  O  O6  1  0.13897213  0.98646066  0.39501751  1
  O  O7  1  0.25693077  0.60496351  0.82069257  1
  O  O8  1  0.22758520  0.05635376  0.70553382  1
  O  O9  1  0.16080640  0.52728522  0.12596297  1
  O  O10  1  0.45687468  0.83924112  0.63250170  1
  O  O11  1  0.27681501  0.37833362  0.42324124  1
  O  O12  1  0.61978882  0.72205634  0.92730226  1
  O  O13  1  0.77685106  0.95532455  0.28713994  1
  O  O14  1  0.37983398  0.74168006  0.30866702  1
  O  O15  1  0.51185842  0.51185899  0.25000034  1
  O  O16  1  0.74168080  0.37983450  0.19133404  1
  O  O17  1  0.37833311  0.27681477  0.07675859  1
  O  O18  1  0.72205693  0.61978977  0.57269845  1
  O  O19  1  0.52728447  0.16080740  0.37403645  1
  O  O20  1  0.83924082  0.45687475  0.86749792  1
  O  O21  1  0.49078307  0.49078329  0.75000035  1
  P  P22  1  0.45639732  0.67118774  0.78820904  1
  P  P23  1  0.32795243  0.54369803  0.28297865  1
  P  P24  1  0.67118766  0.45639701  0.71179074  1
  P  P25  1  0.54369803  0.32795213  0.21702133  1
  P  P26  1  0.03786841  0.03786936  0.75000014  1
  P  P27  1  0.96048726  0.96048709  0.25000055  1
  Mo  Mo28  1  0.88474029  0.63168671  0.03994538  1
  Mo  Mo29  1  0.63168634  0.88473997  0.46005451  1
  Mo  Mo30  1  0.35907857  0.11638455  0.53890283  1
  Mo  Mo31  1  0.11638484  0.35907817  0.96109707  1
