# generated using pymatgen
data_Na5NiO4
_symmetry_space_group_name_H-M   'P 1'
_cell_length_a   5.98263538
_cell_length_b   10.34112753
_cell_length_c   18.05970872
_cell_angle_alpha   90.00000000
_cell_angle_beta   90.00000000
_cell_angle_gamma   90.00000000
_symmetry_Int_Tables_number   1
_chemical_formula_structural   Na5NiO4
_chemical_formula_sum   'Na40 Ni8 O32'
_cell_volume   1117.30352879
_cell_formula_units_Z   8
loop_
 _symmetry_equiv_pos_site_id
 _symmetry_equiv_pos_as_xyz
  1  'x, y, z'
loop_
 _atom_site_type_symbol
 _atom_site_label
 _atom_site_symmetry_multiplicity
 _atom_site_fract_x
 _atom_site_fract_y
 _atom_site_fract_z
 _atom_site_occupancy
  O  O0  1  0.86336901  0.04788663  0.12045269  1
  O  O1  1  0.36336904  0.95211296  0.37954719  1
  O  O2  1  0.63663092  0.54788738  0.87954707  1
  O  O3  1  0.13663094  0.45211317  0.62045256  1
  O  O4  1  0.13663094  0.95211296  0.87954707  1
  O  O5  1  0.63663092  0.04788663  0.62045256  1
  O  O6  1  0.36336904  0.45211317  0.12045269  1
  O  O7  1  0.86336901  0.54788738  0.37954719  1
  O  O8  1  0.80369446  0.36890541  0.04575253  1
  O  O9  1  0.30369448  0.63109417  0.45424735  1
  O  O10  1  0.69630547  0.86890520  0.95424722  1
  O  O11  1  0.19630550  0.13109438  0.54575240  1
  O  O12  1  0.19630550  0.63109417  0.95424722  1
  O  O13  1  0.69630547  0.36890541  0.54575240  1
  O  O14  1  0.30369448  0.13109438  0.04575253  1
  O  O15  1  0.80369446  0.86890520  0.45424735  1
  O  O16  1  0.73552940  0.37355543  0.71156240  1
  O  O17  1  0.23552942  0.62644415  0.78843778  1
  O  O18  1  0.76447053  0.87355619  0.28843791  1
  O  O19  1  0.26447056  0.12644436  0.21156197  1
  O  O20  1  0.26447056  0.62644415  0.28843791  1
  O  O21  1  0.76447053  0.37355543  0.21156197  1
  O  O22  1  0.23552942  0.12644436  0.71156240  1
  O  O23  1  0.73552940  0.87355619  0.78843778  1
  O  O24  1  0.73770079  0.13632171  0.87444580  1
  O  O25  1  0.23770082  0.86367788  0.62555438  1
  O  O26  1  0.76229914  0.63632150  0.12555450  1
  O  O27  1  0.26229916  0.36367809  0.37444593  1
  O  O28  1  0.26229916  0.86367788  0.12555450  1
  O  O29  1  0.76229914  0.13632171  0.37444593  1
  O  O30  1  0.23770082  0.36367809  0.87444580  1
  O  O31  1  0.73770079  0.63632150  0.62555438  1
  Na  Na32  1  0.10472272  0.41953417  0.75127047  1
  Na  Na33  1  0.42697964  0.29781943  0.63865768  1
  Na  Na34  1  0.57302031  0.20218036  0.13865780  1
  Na  Na35  1  0.07302033  0.79781922  0.36134207  1
  Na  Na36  1  0.07302033  0.29781943  0.13865780  1
  Na  Na37  1  0.57302031  0.70218015  0.36134207  1
  Na  Na38  1  0.42697964  0.79781922  0.86134195  1
  Na  Na39  1  0.92697962  0.20218036  0.63865768  1
  Na  Na40  1  0.89824999  0.82855006  0.17146773  1
  Na  Na41  1  0.39825002  0.17144952  0.32853215  1
  Na  Na42  1  0.60174993  0.32855027  0.82853202  1
  Na  Na43  1  0.10174996  0.67144931  0.67146760  1
  Na  Na44  1  0.10174996  0.17144952  0.82853202  1
  Na  Na45  1  0.60174993  0.82855006  0.67146760  1
  Na  Na46  1  0.39825002  0.67144931  0.17146773  1
  Na  Na47  1  0.89824999  0.32855027  0.32853215  1
  Na  Na48  1  0.91426020  0.15820845  0.00152355  1
  Na  Na49  1  0.41426023  0.84179210  0.49847688  1
  Na  Na50  1  0.58573973  0.65820824  0.99847676  1
  Na  Na51  1  0.08573975  0.34179231  0.50152342  1
  Na  Na52  1  0.08573975  0.84179210  0.99847676  1
  Na  Na53  1  0.58573973  0.15820845  0.50152342  1
  Na  Na54  1  0.41426023  0.34179231  0.00152355  1
  Na  Na55  1  0.91426020  0.65820824  0.49847688  1
  Na  Na56  1  0.92091366  0.93915049  0.56555903  1
  Na  Na57  1  0.39527725  0.91953396  0.24872928  1
  Na  Na58  1  0.60472270  0.58046638  0.74872971  1
  Na  Na59  1  0.92697962  0.70218015  0.86134195  1
  Na  Na60  1  0.10472272  0.91953396  0.74872971  1
  Na  Na61  1  0.60472270  0.08046562  0.75127047  1
  Na  Na62  1  0.39527725  0.41953417  0.25127059  1
  Na  Na63  1  0.89527723  0.58046638  0.24872928  1
  Na  Na64  1  0.92091366  0.43914973  0.93444059  1
  Na  Na65  1  0.42091368  0.56084985  0.56555903  1
  Na  Na66  1  0.57908627  0.93915049  0.06555916  1
  Na  Na67  1  0.07908630  0.06085006  0.43444072  1
  Na  Na68  1  0.07908630  0.56084985  0.06555916  1
  Na  Na69  1  0.57908627  0.43914973  0.43444072  1
  Na  Na70  1  0.42091368  0.06085006  0.93444059  1
  Na  Na71  1  0.89527723  0.08046562  0.25127059  1
  Ni  Ni72  1  0.82484409  0.46054640  0.62410956  1
  Ni  Ni73  1  0.32484412  0.53945415  0.87589062  1
  Ni  Ni74  1  0.67515584  0.96054619  0.37589074  1
  Ni  Ni75  1  0.17515586  0.03945436  0.12410913  1
  Ni  Ni76  1  0.17515586  0.53945415  0.37589074  1
  Ni  Ni77  1  0.67515584  0.46054640  0.12410913  1
  Ni  Ni78  1  0.32484412  0.03945436  0.62410956  1
  Ni  Ni79  1  0.82484409  0.96054619  0.87589062  1
