# generated using pymatgen
data_Li2NiGe3O8
_symmetry_space_group_name_H-M   'P 1'
_cell_length_a   8.30532866
_cell_length_b   8.30532866
_cell_length_c   8.30532866
_cell_angle_alpha   90.00000000
_cell_angle_beta   90.00000000
_cell_angle_gamma   90.00000000
_symmetry_Int_Tables_number   1
_chemical_formula_structural   Li2NiGe3O8
_chemical_formula_sum   'Li8 Ni4 Ge12 O32'
_cell_volume   572.88898134
_cell_formula_units_Z   4
loop_
 _symmetry_equiv_pos_site_id
 _symmetry_equiv_pos_as_xyz
  1  'x, y, z'
loop_
 _atom_site_type_symbol
 _atom_site_label
 _atom_site_symmetry_multiplicity
 _atom_site_fract_x
 _atom_site_fract_y
 _atom_site_fract_z
 _atom_site_occupancy
  Li  Li0  1  0.00321038  0.00321038  0.00321038  1
  Li  Li1  1  0.75321057  0.74678982  0.25321044  1
  Li  Li2  1  0.25321044  0.75321057  0.74678982  1
  Li  Li3  1  0.74678982  0.25321044  0.75321057  1
  Li  Li4  1  0.49678975  0.99678988  0.50321051  1
  Li  Li5  1  0.50321051  0.49678975  0.99678988  1
  Li  Li6  1  0.99678988  0.50321051  0.49678975  1
  Li  Li7  1  0.24678969  0.24678969  0.24678969  1
  O  O8  1  0.11586996  0.61587009  0.88412910  1
  O  O9  1  0.14954309  0.85670443  0.12382914  1
  O  O10  1  0.64954322  0.64329476  0.87617112  1
  O  O11  1  0.85670443  0.12382914  0.14954309  1
  O  O12  1  0.14329583  0.62382807  0.35045704  1
  O  O13  1  0.12382914  0.14954309  0.85670443  1
  O  O14  1  0.37617099  0.85045597  0.35670430  1
  O  O15  1  0.39954315  0.87382813  0.89329482  1
  O  O16  1  0.89954328  0.62617105  0.10670423  1
  O  O17  1  0.60045590  0.37382800  0.60670436  1
  O  O18  1  0.62617105  0.10670423  0.89954328  1
  O  O19  1  0.60670436  0.60045590  0.37382800  1
  O  O20  1  0.10670423  0.89954328  0.62617105  1
  O  O21  1  0.87382813  0.89329482  0.39954315  1
  O  O22  1  0.89329482  0.39954315  0.87382813  1
  O  O23  1  0.37382800  0.60670436  0.60045590  1
  O  O24  1  0.38412897  0.38412897  0.38412897  1
  O  O25  1  0.13413011  0.36587002  0.63412903  1
  O  O26  1  0.63412903  0.13413011  0.36587002  1
  O  O27  1  0.36587002  0.63412903  0.13413011  1
  O  O28  1  0.12617092  0.39329469  0.10045698  1
  O  O29  1  0.88412910  0.11586996  0.61587009  1
  O  O30  1  0.61587009  0.88412910  0.11586996  1
  O  O31  1  0.86587015  0.86587015  0.86587015  1
  O  O32  1  0.39329469  0.10045698  0.12617092  1
  O  O33  1  0.85045597  0.35670430  0.37617099  1
  O  O34  1  0.35045704  0.14329583  0.62382807  1
  O  O35  1  0.64329476  0.87617112  0.64954322  1
  O  O36  1  0.35670430  0.37617099  0.85045597  1
  O  O37  1  0.62382807  0.35045704  0.14329583  1
  O  O38  1  0.87617112  0.64954322  0.64329476  1
  O  O39  1  0.10045698  0.12617092  0.39329469  1
  Ni  Ni40  1  0.62499956  0.62499956  0.62499956  1
  Ni  Ni41  1  0.87499963  0.37499950  0.12499943  1
  Ni  Ni42  1  0.12499943  0.87499963  0.37499950  1
  Ni  Ni43  1  0.37499950  0.12499943  0.87499963  1
  Ge  Ge44  1  0.37744487  0.87255545  0.12499943  1
  Ge  Ge45  1  0.87255545  0.12499943  0.37744487  1
  Ge  Ge46  1  0.12744481  0.62499956  0.12255526  1
  Ge  Ge47  1  0.37255532  0.37499950  0.62255539  1
  Ge  Ge48  1  0.62255539  0.37255532  0.37499950  1
  Ge  Ge49  1  0.12255526  0.12744481  0.62499956  1
  Ge  Ge50  1  0.37499950  0.62255539  0.37255532  1
  Ge  Ge51  1  0.87499963  0.87744500  0.62744494  1
  Ge  Ge52  1  0.12499943  0.37744487  0.87255545  1
  Ge  Ge53  1  0.62744494  0.87499963  0.87744500  1
  Ge  Ge54  1  0.62499956  0.12255526  0.12744481  1
  Ge  Ge55  1  0.87744500  0.62744494  0.87499963  1
