# generated using pymatgen
data_Sr2CaI6
_symmetry_space_group_name_H-M   'P 1'
_cell_length_a   8.63852364
_cell_length_b   8.86065348
_cell_length_c   11.51564692
_cell_angle_alpha   93.43145796
_cell_angle_beta   82.94702095
_cell_angle_gamma   119.17412802
_symmetry_Int_Tables_number   1
_chemical_formula_structural   Sr2CaI6
_chemical_formula_sum   'Sr4 Ca2 I12'
_cell_volume   763.80034969
_cell_formula_units_Z   2
loop_
 _symmetry_equiv_pos_site_id
 _symmetry_equiv_pos_as_xyz
  1  'x, y, z'
loop_
 _atom_site_type_symbol
 _atom_site_label
 _atom_site_symmetry_multiplicity
 _atom_site_fract_x
 _atom_site_fract_y
 _atom_site_fract_z
 _atom_site_occupancy
  Sr  Sr0  1  0.29911790  0.68077544  0.54085656  1
  Sr  Sr1  1  0.38165754  0.68077544  0.95914344  1
  Sr  Sr2  1  0.61834246  0.31922456  0.04085656  1
  Sr  Sr3  1  0.70088210  0.31922456  0.45914344  1
  Ca  Ca4  1  0.04615418  0.09230936  0.25000000  1
  Ca  Ca5  1  0.95384582  0.90769064  0.75000000  1
  I  I6  1  0.29454623  0.93040050  0.14418969  1
  I  I7  1  0.95270983  0.39235659  0.19642054  1
  I  I8  1  0.02505774  0.25454014  0.53908999  1
  I  I9  1  0.22948240  0.25454014  0.96091001  1
  I  I10  1  0.43964775  0.39235659  0.30357946  1
  I  I11  1  0.63585427  0.93040050  0.35581031  1
  I  I12  1  0.36414573  0.06959950  0.64418969  1
  I  I13  1  0.56035225  0.60764341  0.69642054  1
  I  I14  1  0.77051760  0.74545986  0.03908999  1
  I  I15  1  0.97494226  0.74545986  0.46091001  1
  I  I16  1  0.04729017  0.60764341  0.80357946  1
  I  I17  1  0.70545377  0.06959950  0.85581031  1
