# generated using pymatgen
data_LiNi(PO3)3
_symmetry_space_group_name_H-M   'P 1'
_cell_length_a   8.42349042
_cell_length_b   8.58719598
_cell_length_c   8.69657025
_cell_angle_alpha   90.00000000
_cell_angle_beta   90.00000000
_cell_angle_gamma   90.00000000
_symmetry_Int_Tables_number   1
_chemical_formula_structural   LiNi(PO3)3
_chemical_formula_sum   'Li4 Ni4 P12 O36'
_cell_volume   629.05913063
_cell_formula_units_Z   4
loop_
 _symmetry_equiv_pos_site_id
 _symmetry_equiv_pos_as_xyz
  1  'x, y, z'
loop_
 _atom_site_type_symbol
 _atom_site_label
 _atom_site_symmetry_multiplicity
 _atom_site_fract_x
 _atom_site_fract_y
 _atom_site_fract_z
 _atom_site_occupancy
  Li  Li0  1  0.15200585  0.86690434  0.38413480  1
  Li  Li1  1  0.34799335  0.13309535  0.88413432  1
  Li  Li2  1  0.65200624  0.63309578  0.61586541  1
  Li  Li3  1  0.84799374  0.36690391  0.11586588  1
  O  O4  1  0.34080126  0.86243100  0.90061755  1
  O  O5  1  0.91069768  0.88445682  0.36703345  1
  O  O6  1  0.89649462  0.62744583  0.58002238  1
  O  O7  1  0.88360262  0.11574380  0.18002421  1
  O  O8  1  0.04081464  0.22677436  0.65299510  1
  O  O9  1  0.08930191  0.38445640  0.13296608  1
  O  O10  1  0.10350496  0.12744657  0.91997735  1
  O  O11  1  0.11639816  0.61574423  0.31997647  1
  O  O12  1  0.13376817  0.80898396  0.62208798  1
  O  O13  1  0.13985481  0.53550061  0.73636267  1
  O  O14  1  0.15919912  0.13756985  0.40061802  1
  O  O15  1  0.18869155  0.90981609  0.15495102  1
  O  O16  1  0.22382099  0.63595414  0.04737491  1
  O  O17  1  0.27617940  0.36404555  0.54737444  1
  O  O18  1  0.31130764  0.09018360  0.65495055  1
  O  O19  1  0.95918495  0.72677362  0.84700463  1
  O  O20  1  0.36014439  0.46449908  0.23636314  1
  O  O21  1  0.36623102  0.19101573  0.12208846  1
  O  O22  1  0.38360223  0.38425663  0.81997599  1
  O  O23  1  0.39649543  0.87255429  0.41997667  1
  O  O24  1  0.41069848  0.61554329  0.63296676  1
  O  O25  1  0.45918456  0.77322649  0.15299557  1
  O  O26  1  0.54081503  0.27322607  0.34700511  1
  O  O27  1  0.58930230  0.11554403  0.86703297  1
  O  O28  1  0.86623141  0.30898353  0.87791175  1
  O  O29  1  0.61639735  0.88425589  0.68002374  1
  O  O30  1  0.63376856  0.69101616  0.37791222  1
  O  O31  1  0.63985519  0.96449951  0.26363638  1
  O  O32  1  0.65919951  0.36243058  0.59938218  1
  O  O33  1  0.68869194  0.59018403  0.84504918  1
  O  O34  1  0.72382019  0.86404598  0.95262529  1
  O  O35  1  0.77617979  0.13595488  0.45262577  1
  O  O36  1  0.81130803  0.40981683  0.34504966  1
  O  O37  1  0.84080046  0.63756911  0.09938266  1
  O  O38  1  0.86014478  0.03550135  0.76363706  1
  O  O39  1  0.60350535  0.37255386  0.08002285  1
  P  P40  1  0.97005633  0.17987398  0.81771541  1
  P  P41  1  0.81554411  0.02066732  0.31018108  1
  P  P42  1  0.79694378  0.69017789  0.94109855  1
  P  P43  1  0.70305619  0.30982297  0.44109787  1
  P  P44  1  0.02994444  0.67987441  0.68228432  1
  P  P45  1  0.18445547  0.52066775  0.18981845  1
  P  P46  1  0.20305699  0.19017746  0.55890233  1
  P  P47  1  0.29694340  0.80982223  0.05890165  1
  P  P48  1  0.68445586  0.97933237  0.81018060  1
  P  P49  1  0.47005594  0.32012644  0.18228479  1
  P  P50  1  0.52994364  0.82012570  0.31771473  1
  P  P51  1  0.31554491  0.47933194  0.68981912  1
  Ni  Ni52  1  0.13021771  0.14504129  0.15720259  1
  Ni  Ni53  1  0.36978267  0.85495840  0.65720211  1
  Ni  Ni54  1  0.63021810  0.35495797  0.84279761  1
  Ni  Ni55  1  0.86978187  0.64504171  0.34279809  1
