# generated using pymatgen
data_K3(NiO2)2
_symmetry_space_group_name_H-M   'P 1'
_cell_length_a   5.49661960
_cell_length_b   5.49661960
_cell_length_c   10.70782262
_cell_angle_alpha   90.00000000
_cell_angle_beta   90.00000000
_cell_angle_gamma   112.29111499
_symmetry_Int_Tables_number   1
_chemical_formula_structural   K3(NiO2)2
_chemical_formula_sum   'K6 Ni4 O8'
_cell_volume   299.33695274
_cell_formula_units_Z   2
loop_
 _symmetry_equiv_pos_site_id
 _symmetry_equiv_pos_as_xyz
  1  'x, y, z'
loop_
 _atom_site_type_symbol
 _atom_site_label
 _atom_site_symmetry_multiplicity
 _atom_site_fract_x
 _atom_site_fract_y
 _atom_site_fract_z
 _atom_site_occupancy
  O  O0  1  0.86452149  0.73194073  0.61557166  1
  O  O1  1  0.86452149  0.73194073  0.88442869  1
  O  O2  1  0.26805936  0.13547922  0.61557166  1
  O  O3  1  0.73194129  0.86452226  0.11557123  1
  O  O4  1  0.13547840  0.26805878  0.38442920  1
  O  O5  1  0.26805936  0.13547922  0.88442869  1
  O  O6  1  0.73194129  0.86452226  0.38442920  1
  O  O7  1  0.13547840  0.26805878  0.11557123  1
  K  K8  1  0.29774366  0.70225818  0.24999975  1
  K  K9  1  0.70225699  0.29774329  0.75000018  1
  K  K10  1  0.35008162  0.64991935  0.57250497  1
  K  K11  1  0.64991904  0.35008212  0.07250454  1
  K  K12  1  0.64991904  0.35008212  0.42749496  1
  K  K13  1  0.35008162  0.64991935  0.92749539  1
  Ni  Ni14  1  0.06588857  0.93411130  0.75000018  1
  Ni  Ni15  1  0.00000000  0.00000000  0.50000043  1
  Ni  Ni16  1  0.00000000  0.00000000  0.00000000  1
  Ni  Ni17  1  0.93411133  0.06588820  0.24999975  1
