# generated using pymatgen
data_EuNiO3
_symmetry_space_group_name_H-M   'P 1'
_cell_length_a   5.41771039
_cell_length_b   5.47464130
_cell_length_c   7.64989503
_cell_angle_alpha   90.00000000
_cell_angle_beta   90.00000000
_cell_angle_gamma   90.00000000
_symmetry_Int_Tables_number   1
_chemical_formula_structural   EuNiO3
_chemical_formula_sum   'Eu4 Ni4 O12'
_cell_volume   226.89604764
_cell_formula_units_Z   4
loop_
 _symmetry_equiv_pos_site_id
 _symmetry_equiv_pos_as_xyz
  1  'x, y, z'
loop_
 _atom_site_type_symbol
 _atom_site_label
 _atom_site_symmetry_multiplicity
 _atom_site_fract_x
 _atom_site_fract_y
 _atom_site_fract_z
 _atom_site_occupancy
  O  O0  1  0.70199779  0.29809479  0.46035400  1
  O  O1  1  0.20199779  0.20190521  0.53964600  1
  O  O2  1  0.79800221  0.79809479  0.03964600  1
  O  O3  1  0.29800221  0.70190521  0.96035400  1
  O  O4  1  0.29800221  0.70190521  0.53964600  1
  O  O5  1  0.79800221  0.79809479  0.46035400  1
  O  O6  1  0.20199779  0.20190521  0.96035400  1
  O  O7  1  0.70199779  0.29809479  0.03964600  1
  O  O8  1  0.07857431  0.48288843  0.25000000  1
  O  O9  1  0.57857431  0.01711157  0.75000000  1
  O  O10  1  0.42142569  0.98288843  0.25000000  1
  O  O11  1  0.92142569  0.51711157  0.75000000  1
  Ni  Ni12  1  0.50000000  0.00000000  0.50000000  1
  Ni  Ni13  1  0.00000000  0.50000000  0.50000000  1
  Ni  Ni14  1  0.00000000  0.50000000  0.00000000  1
  Ni  Ni15  1  0.50000000  0.00000000  0.00000000  1
  Eu  Eu16  1  0.00709103  0.95349844  0.75000000  1
  Eu  Eu17  1  0.50709103  0.54650156  0.25000000  1
  Eu  Eu18  1  0.49290897  0.45349844  0.75000000  1
  Eu  Eu19  1  0.99290897  0.04650156  0.25000000  1
