# generated using pymatgen
data_Mo(PO4)2
_symmetry_space_group_name_H-M   'P 1'
_cell_length_a   4.99124917
_cell_length_b   12.97715784
_cell_length_c   10.85035387
_cell_angle_alpha   90.00000000
_cell_angle_beta   95.25679210
_cell_angle_gamma   90.00000000
_symmetry_Int_Tables_number   1
_chemical_formula_structural   Mo(PO4)2
_chemical_formula_sum   'Mo4 P8 O32'
_cell_volume   699.84566556
_cell_formula_units_Z   4
loop_
 _symmetry_equiv_pos_site_id
 _symmetry_equiv_pos_as_xyz
  1  'x, y, z'
loop_
 _atom_site_type_symbol
 _atom_site_label
 _atom_site_symmetry_multiplicity
 _atom_site_fract_x
 _atom_site_fract_y
 _atom_site_fract_z
 _atom_site_occupancy
  O  O0  1  0.47657124  0.66573532  0.25064471  1
  O  O1  1  0.02342756  0.16573573  0.24935575  1
  O  O2  1  0.96022420  0.68449809  0.33064756  1
  O  O3  1  0.87530987  0.32494123  0.11549977  1
  O  O4  1  0.97657201  0.83426423  0.75064444  1
  O  O5  1  0.03977741  0.31550187  0.66935180  1
  O  O6  1  0.12468969  0.67505874  0.88450042  1
  O  O7  1  0.04791563  0.52597446  0.63335125  1
  O  O8  1  0.06049292  0.55256725  0.14259996  1
  O  O9  1  0.04084878  0.95486361  0.20263029  1
  O  O10  1  0.24461920  0.20365224  0.83953560  1
  O  O11  1  0.25538113  0.70365261  0.66046431  1
  O  O12  1  0.13881623  0.09646858  0.01736684  1
  O  O13  1  0.45208470  0.02597409  0.86664866  1
  O  O14  1  0.37531064  0.17505914  0.61549949  1
  O  O15  1  0.36118457  0.59646818  0.48263284  1
  O  O16  1  0.46022293  0.81550146  0.83064812  1
  O  O17  1  0.52342833  0.33426464  0.74935548  1
  O  O18  1  0.45915200  0.45486401  0.29737031  1
  O  O19  1  0.93950665  0.44743271  0.85740023  1
  O  O20  1  0.56049370  0.94743231  0.64260055  1
  O  O21  1  0.54084757  0.54513595  0.70262988  1
  O  O22  1  0.95208393  0.47402627  0.36664893  1
  O  O23  1  0.53977664  0.18449850  0.16935207  1
  O  O24  1  0.63881500  0.40353178  0.51736735  1
  O  O25  1  0.62468893  0.82494082  0.38450069  1
  O  O26  1  0.54791690  0.97402587  0.13335070  1
  O  O27  1  0.86118334  0.90353138  0.98263334  1
  O  O28  1  0.74461845  0.29634735  0.33953496  1
  O  O29  1  0.75538037  0.79634772  0.16046458  1
  O  O30  1  0.95915280  0.04513635  0.79736999  1
  O  O31  1  0.43950788  0.05256765  0.35739972  1
  P  P32  1  0.30315932  0.58894124  0.61568071  1
  P  P33  1  0.69684026  0.41105872  0.38431856  1
  P  P34  1  0.69781133  0.74819273  0.29437388  1
  P  P35  1  0.80218949  0.24819236  0.20562667  1
  P  P36  1  0.19683900  0.08894088  0.88431911  1
  P  P37  1  0.19781008  0.75180760  0.79437351  1
  P  P38  1  0.30219026  0.25180724  0.70562640  1
  P  P39  1  0.80316057  0.91105909  0.11568107  1
  Mo  Mo40  1  0.80444339  0.42889485  0.71080052  1
  Mo  Mo41  1  0.69555698  0.92889522  0.78919934  1
  Mo  Mo42  1  0.30444261  0.07110474  0.21079993  1
  Mo  Mo43  1  0.19555820  0.57110511  0.28919975  1
