# generated using pymatgen
data_Dy(BO2)3
_symmetry_space_group_name_H-M   'P 1'
_cell_length_a   7.43805932
_cell_length_b   12.33113681
_cell_length_c   16.04503593
_cell_angle_alpha   90.00000000
_cell_angle_beta   90.00000000
_cell_angle_gamma   90.00000000
_symmetry_Int_Tables_number   1
_chemical_formula_structural   Dy(BO2)3
_chemical_formula_sum   'Dy16 B48 O96'
_cell_volume   1471.64631642
_cell_formula_units_Z   16
loop_
 _symmetry_equiv_pos_site_id
 _symmetry_equiv_pos_as_xyz
  1  'x, y, z'
loop_
 _atom_site_type_symbol
 _atom_site_label
 _atom_site_symmetry_multiplicity
 _atom_site_fract_x
 _atom_site_fract_y
 _atom_site_fract_z
 _atom_site_occupancy
  B  B0  1  0.06997892  0.81306264  0.21695563  1
  B  B1  1  0.56040058  0.82261933  0.46771668  1
  B  B2  1  0.06040058  0.17738067  0.53228332  1
  B  B3  1  0.43959942  0.32261933  0.03228332  1
  B  B4  1  0.93959942  0.67738067  0.96771668  1
  B  B5  1  0.43959942  0.17738067  0.53228332  1
  B  B6  1  0.93959942  0.82261933  0.46771668  1
  B  B7  1  0.56040058  0.67738067  0.96771668  1
  B  B8  1  0.06040058  0.32261933  0.03228332  1
  B  B9  1  0.57732974  0.98217633  0.15277324  1
  B  B10  1  0.07732974  0.01782367  0.84722676  1
  B  B11  1  0.42267026  0.48217633  0.34722676  1
  B  B12  1  0.92267026  0.51782367  0.65277324  1
  B  B13  1  0.42267026  0.01782367  0.84722676  1
  B  B14  1  0.92267026  0.98217633  0.15277324  1
  B  B15  1  0.57732974  0.51782367  0.65277324  1
  B  B16  1  0.07732974  0.48217633  0.34722676  1
  B  B17  1  0.56997892  0.18693736  0.78304437  1
  B  B18  1  0.93002108  0.31306264  0.28304437  1
  B  B19  1  0.43002108  0.68693736  0.71695563  1
  B  B20  1  0.93002108  0.18693736  0.78304437  1
  B  B21  1  0.43002108  0.81306264  0.21695563  1
  B  B22  1  0.06997892  0.68693736  0.71695563  1
  B  B23  1  0.56997892  0.31306264  0.28304437  1
  B  B24  1  0.07244727  0.84522139  0.05649238  1
  B  B25  1  0.57244727  0.15477861  0.94350762  1
  B  B26  1  0.92755273  0.34522139  0.44350762  1
  B  B27  1  0.42755273  0.65477861  0.55649238  1
  B  B28  1  0.92755273  0.15477861  0.94350762  1
  B  B29  1  0.42755273  0.84522139  0.05649238  1
  B  B30  1  0.07244727  0.65477861  0.55649238  1
  B  B31  1  0.57244727  0.34522139  0.44350762  1
  B  B32  1  0.07649086  0.64308628  0.10947761  1
  B  B33  1  0.57649086  0.35691372  0.89052239  1
  B  B34  1  0.92350914  0.14308628  0.39052239  1
  B  B35  1  0.42350914  0.85691372  0.60947761  1
  B  B36  1  0.92350914  0.35691372  0.89052239  1
  B  B37  1  0.42350914  0.64308628  0.10947761  1
  B  B38  1  0.07649086  0.85691372  0.60947761  1
  B  B39  1  0.57649086  0.14308628  0.39052239  1
  B  B40  1  0.06896300  0.12742513  0.24236801  1
  B  B41  1  0.56896300  0.87257487  0.75763199  1
  B  B42  1  0.93103700  0.62742513  0.25763199  1
  B  B43  1  0.43103700  0.37257487  0.74236801  1
  B  B44  1  0.93103700  0.87257487  0.75763199  1
  B  B45  1  0.43103700  0.12742513  0.24236801  1
  B  B46  1  0.06896300  0.37257487  0.74236801  1
  B  B47  1  0.56896300  0.62742513  0.25763199  1
  O  O48  1  0.93578532  0.62235706  0.04784706  1
  O  O49  1  0.01910435  0.70904062  0.47800864  1
  O  O50  1  0.51910435  0.29095938  0.52199136  1
  O  O51  1  0.98089565  0.20904062  0.02199136  1
  O  O52  1  0.48089565  0.79095938  0.97800864  1
  O  O53  1  0.98089565  0.29095938  0.52199136  1
  O  O54  1  0.48089565  0.70904062  0.47800864  1
  O  O55  1  0.01910435  0.79095938  0.97800864  1
  O  O56  1  0.51910435  0.20904062  0.02199136  1
  O  O57  1  0.04378533  0.87684595  0.40380109  1
  O  O58  1  0.54378533  0.12315405  0.59619891  1
  O  O59  1  0.95621467  0.37684595  0.09619891  1
  O  O60  1  0.45621467  0.62315405  0.90380109  1
  O  O61  1  0.95621467  0.12315405  0.59619891  1
  O  O62  1  0.45621467  0.87684595  0.40380109  1
  O  O63  1  0.04378533  0.62315405  0.90380109  1
  O  O64  1  0.25000000  0.85334739  0.24477104  1
  O  O65  1  0.75000000  0.14665261  0.75522896  1
  O  O66  1  0.75000000  0.35334739  0.25522896  1
  O  O67  1  0.25000000  0.64665261  0.74477104  1
  O  O68  1  0.25000000  0.89673621  0.04759779  1
  O  O69  1  0.75000000  0.10326379  0.95240221  1
  O  O70  1  0.75000000  0.39673621  0.45240221  1
  O  O71  1  0.25000000  0.60326379  0.54759779  1
  O  O72  1  0.25000000  0.60531486  0.07868126  1
  O  O73  1  0.75000000  0.39468514  0.92131874  1
  O  O74  1  0.75000000  0.10531486  0.42131874  1
  O  O75  1  0.25000000  0.89468514  0.57868126  1
  O  O76  1  0.25000000  0.13655812  0.27569123  1
  O  O77  1  0.75000000  0.86344188  0.72430877  1
  O  O78  1  0.75000000  0.63655812  0.22430877  1
  O  O79  1  0.25000000  0.36344188  0.77569123  1
  O  O80  1  0.25000000  0.53981702  0.34068138  1
  O  O81  1  0.75000000  0.46018298  0.65931862  1
  O  O82  1  0.75000000  0.03981702  0.15931862  1
  O  O83  1  0.25000000  0.96018298  0.84068138  1
  O  O84  1  0.25000000  0.30650369  0.06630774  1
  O  O85  1  0.75000000  0.69349631  0.93369226  1
  O  O86  1  0.75000000  0.80650369  0.43369226  1
  O  O87  1  0.25000000  0.19349631  0.56630774  1
  O  O88  1  0.07299193  0.76486182  0.12843760  1
  O  O89  1  0.57299193  0.23513818  0.87156240  1
  O  O90  1  0.92700807  0.26486182  0.37156240  1
  O  O91  1  0.42700807  0.73513818  0.62843760  1
  O  O92  1  0.92700807  0.23513818  0.87156240  1
  O  O93  1  0.42700807  0.76486182  0.12843760  1
  O  O94  1  0.07299193  0.73513818  0.62843760  1
  O  O95  1  0.57299193  0.26486182  0.37156240  1
  O  O96  1  0.03338785  0.57687516  0.18468401  1
  O  O97  1  0.53338785  0.42312484  0.81531599  1
  O  O98  1  0.96661215  0.07687516  0.31531599  1
  O  O99  1  0.46661215  0.92312484  0.68468401  1
  O  O100  1  0.96661215  0.42312484  0.81531599  1
  O  O101  1  0.46661215  0.57687516  0.18468401  1
  O  O102  1  0.03338785  0.92312484  0.68468401  1
  O  O103  1  0.53338785  0.07687516  0.31531599  1
  O  O104  1  0.06421468  0.12235706  0.45215294  1
  O  O105  1  0.56421468  0.87764294  0.54784706  1
  O  O106  1  0.54378533  0.37684595  0.09619891  1
  O  O107  1  0.43578532  0.37764294  0.95215294  1
  O  O108  1  0.93578532  0.87764294  0.54784706  1
  O  O109  1  0.43578532  0.12235706  0.45215294  1
  O  O110  1  0.06421468  0.37764294  0.95215294  1
  O  O111  1  0.56421468  0.62235706  0.04784706  1
  O  O112  1  0.01959130  0.72929605  0.27594359  1
  O  O113  1  0.51959130  0.27070395  0.72405641  1
  O  O114  1  0.98040870  0.22929605  0.22405641  1
  O  O115  1  0.48040870  0.77070395  0.77594359  1
  O  O116  1  0.98040870  0.27070395  0.72405641  1
  O  O117  1  0.48040870  0.72929605  0.27594359  1
  O  O118  1  0.01959130  0.77070395  0.77594359  1
  O  O119  1  0.51959130  0.22929605  0.22405641  1
  O  O120  1  0.56409056  0.89828596  0.21785597  1
  O  O121  1  0.56482444  0.93590107  0.83548815  1
  O  O122  1  0.93517556  0.56409893  0.33548815  1
  O  O123  1  0.43517556  0.43590107  0.66451185  1
  O  O124  1  0.93517556  0.93590107  0.83548815  1
  O  O125  1  0.43517556  0.06409893  0.16451185  1
  O  O126  1  0.06482444  0.43590107  0.66451185  1
  O  O127  1  0.56482444  0.56409893  0.33548815  1
  O  O128  1  0.05814192  0.43180504  0.43036250  1
  O  O129  1  0.55814192  0.56819496  0.56963750  1
  O  O130  1  0.94185808  0.93180504  0.06963750  1
  O  O131  1  0.44185808  0.06819496  0.93036250  1
  O  O132  1  0.94185808  0.56819496  0.56963750  1
  O  O133  1  0.44185808  0.43180504  0.43036250  1
  O  O134  1  0.05814192  0.06819496  0.93036250  1
  O  O135  1  0.55814192  0.93180504  0.06963750  1
  O  O136  1  0.06409056  0.39828596  0.28214403  1
  O  O137  1  0.56409056  0.60171404  0.71785597  1
  O  O138  1  0.93590944  0.89828596  0.21785597  1
  O  O139  1  0.43590944  0.10171404  0.78214403  1
  O  O140  1  0.93590944  0.60171404  0.71785597  1
  O  O141  1  0.43590944  0.39828596  0.28214403  1
  O  O142  1  0.06409056  0.10171404  0.78214403  1
  O  O143  1  0.06482444  0.06409893  0.16451185  1
  Dy  Dy144  1  0.25000000  0.76692057  0.87119682  1
  Dy  Dy145  1  0.75000000  0.23307943  0.12880318  1
  Dy  Dy146  1  0.75000000  0.26692057  0.62880318  1
  Dy  Dy147  1  0.25000000  0.73307943  0.37119682  1
  Dy  Dy148  1  0.25000000  0.41338203  0.54858844  1
  Dy  Dy149  1  0.75000000  0.58661797  0.45141156  1
  Dy  Dy150  1  0.75000000  0.91338203  0.95141156  1
  Dy  Dy151  1  0.25000000  0.08661797  0.04858844  1
  Dy  Dy152  1  0.25000000  0.06465625  0.67318681  1
  Dy  Dy153  1  0.75000000  0.93534375  0.32681319  1
  Dy  Dy154  1  0.75000000  0.56465625  0.82681319  1
  Dy  Dy155  1  0.25000000  0.43534375  0.17318681  1
  Dy  Dy156  1  0.25000000  0.49079035  0.88061726  1
  Dy  Dy157  1  0.75000000  0.50920965  0.11938274  1
  Dy  Dy158  1  0.75000000  0.99079035  0.61938274  1
  Dy  Dy159  1  0.25000000  0.00920965  0.38061726  1
