# generated using pymatgen
data_Ce2Se3
_symmetry_space_group_name_H-M   'P 1'
_cell_length_a   23.12160755
_cell_length_b   8.90414562
_cell_length_c   8.90414607
_cell_angle_alpha   89.99999730
_cell_angle_beta   54.71450753
_cell_angle_gamma   54.71450545
_symmetry_Int_Tables_number   1
_chemical_formula_structural   Ce2Se3
_chemical_formula_sum   'Ce16 Se24'
_cell_volume   1057.27745127
_cell_formula_units_Z   8
loop_
 _symmetry_equiv_pos_site_id
 _symmetry_equiv_pos_as_xyz
  1  'x, y, z'
loop_
 _atom_site_type_symbol
 _atom_site_label
 _atom_site_symmetry_multiplicity
 _atom_site_fract_x
 _atom_site_fract_y
 _atom_site_fract_z
 _atom_site_occupancy
  Ce  Ce0  1  0.99641897  0.12197899  0.76090494  1
  Ce  Ce1  1  0.08370579  0.62444082  0.37444082  1
  Ce  Ce2  1  0.16666700  0.25000000  0.62966215  1
  Ce  Ce3  1  0.24962721  0.87555918  0.12555918  1
  Ce  Ce4  1  0.33691403  0.37802101  0.25016184  1
  Ce  Ce5  1  0.16666700  0.75000000  0.87033785  1
  Ce  Ce6  1  0.33691403  0.11123589  0.73909506  1
  Ce  Ce7  1  0.49641897  0.26090494  0.62197899  1
  Ce  Ce8  1  0.66666700  0.37033785  0.25000000  1
  Ce  Ce9  1  0.58370579  0.87444082  0.12444082  1
  Ce  Ce10  1  0.66666700  0.12966215  0.75000000  1
  Ce  Ce11  1  0.49641897  0.74983816  0.88876411  1
  Ce  Ce12  1  0.74962721  0.62555918  0.37555918  1
  Ce  Ce13  1  0.83691403  0.23909506  0.61123589  1
  Ce  Ce14  1  0.99641897  0.38876411  0.24983816  1
  Ce  Ce15  1  0.83691403  0.75016184  0.87802101  1
  Se  Se16  1  0.12303279  0.49112898  0.99486150  1
  Se  Se17  1  0.05072788  0.34779389  0.49770084  1
  Se  Se18  1  0.05072788  0.00002147  0.35011452  1
  Se  Se19  1  0.28260512  0.15220611  0.14988548  1
  Se  Se20  1  0.28260512  0.49997853  0.00229916  1
  Se  Se21  1  0.12303279  0.63977164  0.63603913  1
  Se  Se22  1  0.21030021  0.86022836  0.50513850  1
  Se  Se23  1  0.44872003  0.49776088  0.99878311  1
  Se  Se24  1  0.38461397  0.34494220  0.50223912  1
  Se  Se25  1  0.21030021  0.00887102  0.86396087  1
  Se  Se26  1  0.38461397  0.00121689  0.34391997  1
  Se  Se27  1  0.62303279  0.13603913  0.13977164  1
  Se  Se28  1  0.62303279  0.49486150  0.99112898  1
  Se  Se29  1  0.44872003  0.65608003  0.65505780  1
  Se  Se30  1  0.55072788  0.85011452  0.50002147  1
  Se  Se31  1  0.78260512  0.50229916  0.99997853  1
  Se  Se32  1  0.71030021  0.36396087  0.50887102  1
  Se  Se33  1  0.55072788  0.99770084  0.84779389  1
  Se  Se34  1  0.94872003  0.15505780  0.15608003  1
  Se  Se35  1  0.71030021  0.00513850  0.36022836  1
  Se  Se36  1  0.94872003  0.49878311  0.99776088  1
  Se  Se37  1  0.78260512  0.64988548  0.65220611  1
  Se  Se38  1  0.88461397  0.84391997  0.50121689  1
  Se  Se39  1  0.88461397  0.00223912  0.84494220  1
