# generated using pymatgen
data_LiVPO5
_symmetry_space_group_name_H-M   'P 1'
_cell_length_a   7.41600746
_cell_length_b   6.39254421
_cell_length_c   7.35992608
_cell_angle_alpha   90.00000000
_cell_angle_beta   90.00000000
_cell_angle_gamma   90.00000000
_symmetry_Int_Tables_number   1
_chemical_formula_structural   LiVPO5
_chemical_formula_sum   'Li4 V4 P4 O20'
_cell_volume   348.91316051
_cell_formula_units_Z   4
loop_
 _symmetry_equiv_pos_site_id
 _symmetry_equiv_pos_as_xyz
  1  'x, y, z'
loop_
 _atom_site_type_symbol
 _atom_site_label
 _atom_site_symmetry_multiplicity
 _atom_site_fract_x
 _atom_site_fract_y
 _atom_site_fract_z
 _atom_site_occupancy
  Li  Li0  1  0.00000000  0.00000000  0.50000066  1
  Li  Li1  1  0.00000000  0.49999966  0.50000066  1
  Li  Li2  1  0.50000007  0.00000000  0.00000000  1
  Li  Li3  1  0.50000007  0.49999966  0.00000000  1
  O  O4  1  0.36992920  0.94284271  0.75228337  1
  O  O5  1  0.11026706  0.24999983  0.66220142  1
  O  O6  1  0.13007087  0.05715661  0.25228409  1
  O  O7  1  0.13007087  0.44284305  0.25228409  1
  O  O8  1  0.20255788  0.74999949  0.50008265  1
  O  O9  1  0.29744219  0.24999983  1.00008336  1
  O  O10  1  0.36992920  0.55715627  0.75228337  1
  O  O11  1  0.04617038  0.74999949  0.98994554  1
  O  O12  1  0.38973301  0.74999949  0.16220076  1
  O  O13  1  0.45382969  0.24999983  0.48994625  1
  O  O14  1  0.54617045  0.74999949  0.51005369  1
  O  O15  1  0.61026712  0.24999983  0.83779918  1
  O  O16  1  0.95382975  0.24999983  0.01005440  1
  O  O17  1  0.63007093  0.44284305  0.24771657  1
  O  O18  1  0.70255795  0.74999949  -0.00008342  1
  O  O19  1  0.79744225  0.24999983  0.49991730  1
  O  O20  1  0.86992927  0.55715627  0.74771586  1
  O  O21  1  0.86992927  0.94284271  0.74771586  1
  O  O22  1  0.88973308  0.74999949  0.33779852  1
  O  O23  1  0.63007093  0.05715661  0.24771657  1
  P  P24  1  0.12682755  0.24999983  0.12434315  1
  P  P25  1  0.37317251  0.74999949  0.62434244  1
  P  P26  1  0.62682762  0.24999983  0.37565750  1
  P  P27  1  0.87317258  0.74999949  0.87565679  1
  V  V28  1  0.16700118  0.74999949  0.22112625  1
  V  V29  1  0.33299888  0.24999983  0.72112554  1
  V  V30  1  0.66700125  0.74999949  0.27887441  1
  V  V31  1  0.83299895  0.24999983  0.77887369  1
