# generated using pymatgen
data_LiV2(PO4)3
_symmetry_space_group_name_H-M   'P 1'
_cell_length_a   8.52129871
_cell_length_b   8.52129870
_cell_length_c   8.53450623
_cell_angle_alpha   60.46983784
_cell_angle_beta   60.46983788
_cell_angle_gamma   60.53472413
_symmetry_Int_Tables_number   1
_chemical_formula_structural   LiV2(PO4)3
_chemical_formula_sum   'Li2 V4 P6 O24'
_cell_volume   443.06968572
_cell_formula_units_Z   2
loop_
 _symmetry_equiv_pos_site_id
 _symmetry_equiv_pos_as_xyz
  1  'x, y, z'
loop_
 _atom_site_type_symbol
 _atom_site_label
 _atom_site_symmetry_multiplicity
 _atom_site_fract_x
 _atom_site_fract_y
 _atom_site_fract_z
 _atom_site_occupancy
  Li  Li0  1  0.50000031  0.00000052  0.99999928  1
  Li  Li1  1  0.99999988  0.49999979  0.50000026  1
  O  O2  1  0.91505713  0.55611324  0.76791746  1
  O  O3  1  0.69163310  0.37594967  0.00180252  1
  O  O4  1  0.87480998  0.99556957  0.19570172  1
  O  O5  1  0.41671492  0.26688854  0.05600922  1
  O  O6  1  0.94266745  0.23166517  0.58310285  1
  O  O7  1  0.73311240  0.58328484  0.44399077  1
  O  O8  1  0.55611220  0.91505762  0.26791732  1
  O  O9  1  0.99556970  0.87480911  0.69570132  1
  O  O10  1  0.23166504  0.94266706  0.08310387  1
  O  O11  1  0.62404986  0.30836661  0.49819819  1
  O  O12  1  0.80837800  0.50677471  0.12223585  1
  O  O13  1  0.49322536  0.19162264  0.37776297  1
  O  O14  1  0.50677503  0.80837798  0.62223611  1
  O  O15  1  0.08494325  0.44388738  0.23208280  1
  O  O16  1  0.37594964  0.69163258  0.50180202  1
  O  O17  1  0.76833398  0.05733356  0.91689705  1
  O  O18  1  0.19162238  0.49322591  0.87776323  1
  O  O19  1  0.44388683  0.08494301  0.73208242  1
  O  O20  1  0.26688798  0.41671578  0.55600831  1
  O  O21  1  0.05733340  0.76833402  0.41689671  1
  O  O22  1  0.58328546  0.73311207  0.94399103  1
  O  O23  1  0.12519040  0.00443105  0.80429854  1
  O  O24  1  0.30836775  0.62404951  0.99819821  1
  O  O25  1  0.00443116  0.12519008  0.30429824  1
  P  P26  1  0.25050932  0.45916745  0.03901726  1
  P  P27  1  0.96003492  0.03996521  0.74999993  1
  P  P28  1  0.54083191  0.74949123  0.46098195  1
  P  P29  1  0.45916759  0.25050796  0.53901826  1
  P  P30  1  0.03996593  0.96003398  0.24999963  1
  P  P31  1  0.74949154  0.54083174  0.96098230  1
  V  V32  1  0.86001553  0.36000738  0.35755834  1
  V  V33  1  0.63999327  0.13998474  0.14244155  1
  V  V34  1  0.36000712  0.86001588  0.85755753  1
  V  V35  1  0.13998486  0.63999324  0.64244191  1
