# generated using pymatgen
data_Ce5O9
_symmetry_space_group_name_H-M   'P 1'
_cell_length_a   7.80957511
_cell_length_b   21.66447740
_cell_length_c   10.30708476
_cell_angle_alpha   18.22554546
_cell_angle_beta   55.56555810
_cell_angle_gamma   51.08940925
_symmetry_Int_Tables_number   1
_chemical_formula_structural   Ce5O9
_chemical_formula_sum   'Ce10 O18'
_cell_volume   420.90861658
_cell_formula_units_Z   2
loop_
 _symmetry_equiv_pos_site_id
 _symmetry_equiv_pos_as_xyz
  1  'x, y, z'
loop_
 _atom_site_type_symbol
 _atom_site_label
 _atom_site_symmetry_multiplicity
 _atom_site_fract_x
 _atom_site_fract_y
 _atom_site_fract_z
 _atom_site_occupancy
  Ce  Ce0  1  0.00536649  0.99649634  0.00599505  1
  Ce  Ce1  1  0.49821001  0.96952422  0.07201173  1
  Ce  Ce2  1  0.40178999  0.23047578  0.92798827  1
  Ce  Ce3  1  0.29987245  0.39523656  0.99358565  1
  Ce  Ce4  1  0.89463351  0.20350366  0.99400495  1
  Ce  Ce5  1  0.17532796  0.62196430  0.97575341  1
  Ce  Ce6  1  0.82541235  0.38990028  0.00757657  1
  Ce  Ce7  1  0.07458765  0.81009972  0.99242343  1
  Ce  Ce8  1  0.72467204  0.57803570  0.02424659  1
  Ce  Ce9  1  0.60012755  0.80476344  0.00641435  1
  O  O10  1  0.09076698  0.13196037  0.27089102  1
  O  O11  1  0.53605963  0.12869018  0.28124804  1
  O  O12  1  0.36394037  0.07130982  0.71875196  1
  O  O13  1  0.25958926  0.27293400  0.68508117  1
  O  O14  1  0.35749829  0.58474502  0.18993218  1
  O  O15  1  0.80923302  0.06803963  0.72910898  1
  O  O16  1  0.15021233  0.45954754  0.72710743  1
  O  O17  1  0.96441031  0.33869627  0.25958501  1
  O  O18  1  0.75863087  0.24891429  0.74187028  1
  O  O19  1  0.25690219  0.77652821  0.17973679  1
  O  O20  1  0.09193333  0.62226416  0.78856663  1
  O  O21  1  0.80806667  0.57773584  0.21143337  1
  O  O22  1  0.64309781  0.42347179  0.82026321  1
  O  O23  1  0.14136913  0.95108571  0.25812972  1
  O  O24  1  0.74978767  0.74045246  0.27289257  1
  O  O25  1  0.54250171  0.61525498  0.81006782  1
  O  O26  1  0.64041074  0.92706600  0.31491883  1
  O  O27  1  0.93558969  0.86130373  0.74041499  1
