# generated using pymatgen
data_Ti3NiSb2(PO4)6
_symmetry_space_group_name_H-M   'P 1'
_cell_length_a   8.87375543
_cell_length_b   8.87375568
_cell_length_c   8.87375564
_cell_angle_alpha   58.85274269
_cell_angle_beta   58.85274779
_cell_angle_gamma   58.85274601
_symmetry_Int_Tables_number   1
_chemical_formula_structural   Ti3NiSb2(PO4)6
_chemical_formula_sum   'Ti3 Ni1 Sb2 P6 O24'
_cell_volume   481.15036490
_cell_formula_units_Z   1
loop_
 _symmetry_equiv_pos_site_id
 _symmetry_equiv_pos_as_xyz
  1  'x, y, z'
loop_
 _atom_site_type_symbol
 _atom_site_label
 _atom_site_symmetry_multiplicity
 _atom_site_fract_x
 _atom_site_fract_y
 _atom_site_fract_z
 _atom_site_occupancy
  Ti  Ti0  1  0.14584668  0.14584668  0.14584668  1
  Ti  Ti1  1  0.35091390  0.35091390  0.35091390  1
  Ti  Ti2  1  0.64948950  0.64948950  0.64948950  1
  Ni  Ni3  1  0.85022436  0.85022436  0.85022436  1
  Sb  Sb4  1  0.99094720  0.99094720  0.99094720  1
  Sb  Sb5  1  0.49589912  0.49589912  0.49589912  1
  P  P6  1  0.04171081  0.75201426  0.46093460  1
  P  P7  1  0.46093460  0.04171081  0.75201426  1
  P  P8  1  0.25083225  0.54067960  0.95906331  1
  P  P9  1  0.54067960  0.95906331  0.25083225  1
  P  P10  1  0.95906331  0.25083225  0.54067960  1
  P  P11  1  0.75201426  0.46093460  0.04171081  1
  O  O12  1  0.11759376  0.30602532  0.50106435  1
  O  O13  1  0.30602532  0.50106435  0.11759376  1
  O  O14  1  0.06309542  0.91502277  0.26851659  1
  O  O15  1  0.50106435  0.11759376  0.30602532  1
  O  O16  1  0.01454727  0.79884566  0.61539126  1
  O  O17  1  0.23435464  0.58148095  0.43531373  1
  O  O18  1  0.26851659  0.06309542  0.91502277  1
  O  O19  1  0.43531373  0.23435464  0.58148095  1
  O  O20  1  0.19462751  0.38412163  0.99721128  1
  O  O21  1  0.58148095  0.43531373  0.23435464  1
  O  O22  1  0.08592010  0.73330917  0.94211725  1
  O  O23  1  0.38412163  0.99721128  0.19462751  1
  O  O24  1  0.61539126  0.01454727  0.79884566  1
  O  O25  1  0.91502277  0.26851659  0.06309542  1
  O  O26  1  0.41703854  0.56047270  0.76959873  1
  O  O27  1  0.79884566  0.61539126  0.01454727  1
  O  O28  1  0.56047270  0.76959873  0.41703854  1
  O  O29  1  0.73330917  0.94211725  0.08592010  1
  O  O30  1  0.76959873  0.41703854  0.56047270  1
  O  O31  1  0.99721128  0.19462751  0.38412163  1
  O  O32  1  0.49499097  0.88484615  0.69593767  1
  O  O33  1  0.94211725  0.08592010  0.73330917  1
  O  O34  1  0.69593767  0.49499097  0.88484615  1
  O  O35  1  0.88484615  0.69593767  0.49499097  1
