# generated using pymatgen
data_TbAsO4
_symmetry_space_group_name_H-M   'P 1'
_cell_length_a   5.99841683
_cell_length_b   5.99841683
_cell_length_c   5.99841684
_cell_angle_alpha   106.42894217
_cell_angle_beta   106.42894209
_cell_angle_gamma   115.74381279
_symmetry_Int_Tables_number   1
_chemical_formula_structural   TbAsO4
_chemical_formula_sum   'Tb2 As2 O8'
_cell_volume   164.63574172
_cell_formula_units_Z   2
loop_
 _symmetry_equiv_pos_site_id
 _symmetry_equiv_pos_as_xyz
  1  'x, y, z'
loop_
 _atom_site_type_symbol
 _atom_site_label
 _atom_site_symmetry_multiplicity
 _atom_site_fract_x
 _atom_site_fract_y
 _atom_site_fract_z
 _atom_site_occupancy
  O  O0  1  0.30144637  0.23246339  0.43101702  1
  O  O1  1  0.87042935  0.30144637  0.56898298  1
  O  O2  1  0.23246339  0.30144637  0.93101702  1
  O  O3  1  0.30144637  0.87042935  0.06898298  1
  O  O4  1  0.12957065  0.69855363  0.43101702  1
  O  O5  1  0.69855363  0.76753661  0.56898298  1
  O  O6  1  0.69855363  0.12957065  0.93101702  1
  O  O7  1  0.76753661  0.69855363  0.06898298  1
  As  As8  1  0.87500000  0.12500000  0.75000000  1
  As  As9  1  0.12500000  0.87500000  0.25000000  1
  Tb  Tb10  1  0.37500000  0.62500000  0.75000000  1
  Tb  Tb11  1  0.62500000  0.37500000  0.25000000  1
