# generated using pymatgen
data_Ca2V2O7
_symmetry_space_group_name_H-M   'P 1'
_cell_length_a   6.76508734
_cell_length_b   7.07780899
_cell_length_c   7.14803498
_cell_angle_alpha   85.17986309
_cell_angle_beta   63.78878649
_cell_angle_gamma   81.94042916
_symmetry_Int_Tables_number   1
_chemical_formula_structural   Ca2V2O7
_chemical_formula_sum   'Ca4 V4 O14'
_cell_volume   303.94093284
_cell_formula_units_Z   2
loop_
 _symmetry_equiv_pos_site_id
 _symmetry_equiv_pos_as_xyz
  1  'x, y, z'
loop_
 _atom_site_type_symbol
 _atom_site_label
 _atom_site_symmetry_multiplicity
 _atom_site_fract_x
 _atom_site_fract_y
 _atom_site_fract_z
 _atom_site_occupancy
  O  O0  1  0.75770475  0.78894851  0.66978294  1
  O  O1  1  0.24229671  0.21105093  0.33021640  1
  O  O2  1  0.36171182  0.82242899  0.57953788  1
  O  O3  1  0.63828780  0.17757190  0.42046212  1
  O  O4  1  0.34869073  0.55138664  0.89463723  1
  O  O5  1  0.65130890  0.44861425  0.10536277  1
  O  O6  1  0.88446429  0.13589536  0.74300740  1
  O  O7  1  0.11553551  0.86410410  0.25699263  1
  O  O8  1  0.04739837  0.20146051  0.06520477  1
  O  O9  1  0.95260143  0.79853894  0.93479526  1
  O  O10  1  0.45803882  0.09212769  0.86951585  1
  O  O11  1  0.14207803  0.49440247  0.63478449  1
  O  O12  1  0.85792177  0.50559699  0.36521554  1
  O  O13  1  0.54196098  0.90787175  0.13048558  1
  Ca  Ca14  1  0.25975256  0.54409125  0.25978014  1
  Ca  Ca15  1  0.74024724  0.45590821  0.74021989  1
  Ca  Ca16  1  0.74438583  0.84131451  0.33153045  1
  Ca  Ca17  1  0.25561380  0.15868637  0.66847095  1
  V  V18  1  0.72608249  0.95058145  0.84604745  1
  V  V19  1  0.27391714  0.04941943  0.15395255  1
  V  V20  1  0.20133242  0.66630838  0.76342999  1
  V  V21  1  0.79866738  0.33369106  0.23657144  1
