# generated using pymatgen
data_Dy6Se11
_symmetry_space_group_name_H-M   'P 1'
_cell_length_a   11.58043533
_cell_length_b   11.62528639
_cell_length_c   12.07541637
_cell_angle_alpha   89.90232093
_cell_angle_beta   90.18919825
_cell_angle_gamma   91.73407829
_symmetry_Int_Tables_number   1
_chemical_formula_structural   Dy6Se11
_chemical_formula_sum   'Dy24 Se44'
_cell_volume   1624.90807698
_cell_formula_units_Z   4
loop_
 _symmetry_equiv_pos_site_id
 _symmetry_equiv_pos_as_xyz
  1  'x, y, z'
loop_
 _atom_site_type_symbol
 _atom_site_label
 _atom_site_symmetry_multiplicity
 _atom_site_fract_x
 _atom_site_fract_y
 _atom_site_fract_z
 _atom_site_occupancy
  Dy  Dy0  1  0.00640593  0.24965849  0.50074495  1
  Dy  Dy1  1  0.13867671  0.86100943  0.66653720  1
  Dy  Dy2  1  0.13988178  0.86208164  0.33631994  1
  Dy  Dy3  1  0.15493544  0.84407917  0.99930823  1
  Dy  Dy4  1  0.23923019  0.51338461  0.49984696  1
  Dy  Dy5  1  0.24589868  0.49761478  0.83001002  1
  Dy  Dy6  1  0.25406764  0.49900730  0.17046462  1
  Dy  Dy7  1  0.38717326  0.11926197  0.33257767  1
  Dy  Dy8  1  0.38560252  0.11984512  0.66854900  1
  Dy  Dy9  1  0.38680299  0.10651340  0.99923717  1
  Dy  Dy10  1  0.48332860  0.77536530  0.50412525  1
  Dy  Dy11  1  0.49566682  0.75822039  0.16494039  1
  Dy  Dy12  1  0.50216105  0.75274460  0.82804151  1
  Dy  Dy13  1  0.62543001  0.37243696  0.00097005  1
  Dy  Dy14  1  0.65121142  0.34224889  0.32880111  1
  Dy  Dy15  1  0.64745154  0.35443609  0.66509104  1
  Dy  Dy16  1  0.74934521  0.99198896  0.50096229  1
  Dy  Dy17  1  0.74005257  0.01307293  0.83720844  1
  Dy  Dy18  1  0.73987917  0.00858307  0.16328235  1
  Dy  Dy19  1  0.89358366  0.60984049  0.33218159  1
  Dy  Dy20  1  0.87981778  0.61578520  0.66350536  1
  Dy  Dy21  1  0.89191916  0.61284087  0.00000756  1
  Dy  Dy22  1  0.98976713  0.26136433  0.16289781  1
  Dy  Dy23  1  0.98675591  0.26237384  0.83740743  1
  Se  Se24  1  0.00406480  0.99369778  0.50302594  1
  Se  Se25  1  0.05925837  0.68903978  0.50035162  1
  Se  Se26  1  0.06680416  0.68549336  0.83294566  1
  Se  Se27  1  0.07048250  0.68597882  0.16721897  1
  Se  Se28  1  0.06935463  0.43176934  0.00065986  1
  Se  Se29  1  0.07287025  0.43059231  0.33248737  1
  Se  Se30  1  0.06632549  0.43262347  0.66572265  1
  Se  Se31  1  0.06650872  0.08201930  0.00181632  1
  Se  Se32  1  0.12274655  0.11492035  0.69501281  1
  Se  Se33  1  0.12559935  0.11607871  0.30882769  1
  Se  Se34  1  0.24418001  0.23268595  0.16181489  1
  Se  Se35  1  0.23828537  0.22852039  0.83993901  1
  Se  Se36  1  0.27004244  0.26324124  0.49862560  1
  Se  Se37  1  0.30886216  0.94755192  0.50119768  1
  Se  Se38  1  0.31462740  0.93179183  0.83358872  1
  Se  Se39  1  0.31230408  0.93369015  0.16605950  1
  Se  Se40  1  0.31834002  0.68318576  0.66465590  1
  Se  Se41  1  0.32452392  0.68439177  0.33762567  1
  Se  Se42  1  0.32938866  0.67031533  0.99886066  1
  Se  Se43  1  0.36860228  0.36003919  0.00273496  1
  Se  Se44  1  0.40587663  0.39849115  0.34866450  1
  Se  Se45  1  0.39137055  0.38397329  0.65133168  1
  Se  Se46  1  0.52220179  0.51081532  0.20475760  1
  Se  Se47  1  0.50536262  0.49749633  0.81012389  1
  Se  Se48  1  0.56674707  0.93240592  0.33127152  1
  Se  Se49  1  0.56862477  0.93485677  0.66847574  1
  Se  Se50  1  0.56941781  0.93092340  0.99869902  1
  Se  Se51  1  0.55978735  0.18621794  0.16498156  1
  Se  Se52  1  0.55968690  0.18949728  0.83353702  1
  Se  Se53  1  0.57022327  0.18235191  0.49971895  1
  Se  Se54  1  0.61906931  0.60999111  0.62905017  1
  Se  Se55  1  0.63550787  0.62795794  0.00293398  1
  Se  Se56  1  0.72555451  0.72020846  0.47842267  1
  Se  Se57  1  0.76114988  0.74966191  0.17078231  1
  Se  Se58  1  0.76702369  0.75837831  0.83728921  1
  Se  Se59  1  0.81333035  0.44049559  0.16799699  1
  Se  Se60  1  0.81089205  0.44250232  0.83208684  1
  Se  Se61  1  0.80403436  0.19622329  0.00042408  1
  Se  Se62  1  0.81425811  0.43153167  0.49458657  1
  Se  Se63  1  0.82716167  0.17062069  0.33019705  1
  Se  Se64  1  0.82395907  0.17623138  0.66822876  1
  Se  Se65  1  0.87972634  0.86943311  0.31399213  1
  Se  Se66  1  0.88143357  0.87349696  0.68974036  1
  Se  Se67  1  0.91408412  0.92935338  0.00071801  1
