# generated using pymatgen
data_Sr3P2
_symmetry_space_group_name_H-M   'P 1'
_cell_length_a   24.33906024
_cell_length_b   9.37771688
_cell_length_c   9.37771682
_cell_angle_alpha   89.99999579
_cell_angle_beta   54.69404502
_cell_angle_gamma   54.69404530
_symmetry_Int_Tables_number   1
_chemical_formula_structural   Sr3P2
_chemical_formula_sum   'Sr24 P16'
_cell_volume   1233.23050479
_cell_formula_units_Z   8
loop_
 _symmetry_equiv_pos_site_id
 _symmetry_equiv_pos_as_xyz
  1  'x, y, z'
loop_
 _atom_site_type_symbol
 _atom_site_label
 _atom_site_symmetry_multiplicity
 _atom_site_fract_x
 _atom_site_fract_y
 _atom_site_fract_z
 _atom_site_occupancy
  P  P0  1  0.08914532  0.61628152  0.36628152  1
  P  P1  1  0.16666700  0.25000000  0.62893232  1
  P  P2  1  0.24418768  0.88371848  0.13371848  1
  P  P3  1  0.34176282  0.38515994  0.24818184  1
  P  P4  1  0.34176282  0.08955059  0.72652869  1
  P  P5  1  0.16666700  0.75000000  0.87106768  1
  P  P6  1  0.49157018  0.27347131  0.61484006  1
  P  P7  1  0.66666700  0.37106768  0.25000000  1
  P  P8  1  0.58914532  0.86628152  0.11628152  1
  P  P9  1  0.49157018  0.75181816  0.91044941  1
  P  P10  1  0.66666700  0.12893232  0.75000000  1
  P  P11  1  0.74418768  0.63371848  0.38371848  1
  P  P12  1  0.84176282  0.22652869  0.58955059  1
  P  P13  1  0.99157018  0.41044941  0.25181816  1
  P  P14  1  0.99157018  0.11484006  0.77347131  1
  P  P15  1  0.84176282  0.74818184  0.88515994  1
  Sr  Sr16  1  0.13828384  0.47650194  0.98685571  1
  Sr  Sr17  1  0.04515632  0.37408665  0.48998594  1
  Sr  Sr18  1  0.28817668  0.12591335  0.12545590  1
  Sr  Sr19  1  0.04515632  0.99044339  0.37454410  1
  Sr  Sr20  1  0.28817668  0.50955661  0.01001406  1
  Sr  Sr21  1  0.13828384  0.60864553  0.59829176  1
  Sr  Sr22  1  0.19504916  0.89135447  0.51314429  1
  Sr  Sr23  1  0.45546089  0.48687568  0.98208713  1
  Sr  Sr24  1  0.37787311  0.34846880  0.51312432  1
  Sr  Sr25  1  0.19504916  0.02349806  0.90170824  1
  Sr  Sr26  1  0.63828384  0.09829176  0.10864553  1
  Sr  Sr27  1  0.37787311  0.01791287  0.35325735  1
  Sr  Sr28  1  0.63828384  0.48685571  0.97650194  1
  Sr  Sr29  1  0.45546089  0.64674265  0.65153120  1
  Sr  Sr30  1  0.54515632  0.87454410  0.49044339  1
  Sr  Sr31  1  0.78817668  0.51001406  0.00955661  1
  Sr  Sr32  1  0.69504916  0.40170824  0.52349806  1
  Sr  Sr33  1  0.54515632  0.98998594  0.87408665  1
  Sr  Sr34  1  0.95546089  0.15153120  0.14674265  1
  Sr  Sr35  1  0.69504916  0.01314429  0.39135447  1
  Sr  Sr36  1  0.95546089  0.48208713  0.98687568  1
  Sr  Sr37  1  0.78817668  0.62545590  0.62591335  1
  Sr  Sr38  1  0.87787311  0.85325735  0.51791287  1
  Sr  Sr39  1  0.87787311  0.01312432  0.84846880  1
