# generated using pymatgen
data_PrFeSi2
_symmetry_space_group_name_H-M   'P 1'
_cell_length_a   4.03015335
_cell_length_b   4.12557971
_cell_length_c   8.75268698
_cell_angle_alpha   103.63141752
_cell_angle_beta   90.00000000
_cell_angle_gamma   90.00000000
_symmetry_Int_Tables_number   1
_chemical_formula_structural   PrFeSi2
_chemical_formula_sum   'Pr2 Fe2 Si4'
_cell_volume   141.42920817
_cell_formula_units_Z   2
loop_
 _symmetry_equiv_pos_site_id
 _symmetry_equiv_pos_as_xyz
  1  'x, y, z'
loop_
 _atom_site_type_symbol
 _atom_site_label
 _atom_site_symmetry_multiplicity
 _atom_site_fract_x
 _atom_site_fract_y
 _atom_site_fract_z
 _atom_site_occupancy
  Si  Si0  1  0.25000000  0.68946321  0.37892642  1
  Si  Si1  1  0.75000000  0.31053679  0.62107358  1
  Si  Si2  1  0.75000000  0.46174109  0.92348217  1
  Si  Si3  1  0.25000000  0.53825891  0.07651783  1
  Fe  Fe4  1  0.75000000  0.74953934  0.49907867  1
  Fe  Fe5  1  0.25000000  0.25046066  0.50092133  1
  Pr  Pr6  1  0.25000000  0.89314419  0.78628839  1
  Pr  Pr7  1  0.75000000  0.10685581  0.21371161  1
