# generated using pymatgen
data_VCo3O8
_symmetry_space_group_name_H-M   'P 1'
_cell_length_a   5.70869332
_cell_length_b   5.67539891
_cell_length_c   8.84700113
_cell_angle_alpha   89.50381558
_cell_angle_beta   90.24664353
_cell_angle_gamma   119.80726128
_symmetry_Int_Tables_number   1
_chemical_formula_structural   VCo3O8
_chemical_formula_sum   'V2 Co6 O16'
_cell_volume   248.70455128
_cell_formula_units_Z   2
loop_
 _symmetry_equiv_pos_site_id
 _symmetry_equiv_pos_as_xyz
  1  'x, y, z'
loop_
 _atom_site_type_symbol
 _atom_site_label
 _atom_site_symmetry_multiplicity
 _atom_site_fract_x
 _atom_site_fract_y
 _atom_site_fract_z
 _atom_site_occupancy
  V  V0  1  0.33514947  0.67248065  0.50004777  1
  V  V1  1  0.66485053  0.33733118  0.00004777  1
  Co  Co2  1  0.17134896  0.83095452  0.21707234  1
  Co  Co3  1  0.17005430  0.33955849  0.21175926  1
  Co  Co4  1  0.66420506  0.83249180  0.20930801  1
  Co  Co5  1  0.33579494  0.16828674  0.70930801  1
  Co  Co6  1  0.82865104  0.65960556  0.71707234  1
  Co  Co7  1  0.82994570  0.16950419  0.71175926  1
  O  O8  1  0.15909328  0.81302252  0.59460156  1
  O  O9  1  0.04030595  0.51638613  0.33363504  1
  O  O10  1  0.33240232  0.67392768  0.10711226  1
  O  O11  1  0.00075141  0.99353217  0.30909627  1
  O  O12  1  0.99924859  0.99278175  0.80909627  1
  O  O13  1  0.16091925  0.33835767  0.59669317  1
  O  O14  1  0.46055168  0.95547092  0.34465617  1
  O  O15  1  0.46785073  0.51114424  0.33582361  1
  O  O16  1  0.34087147  0.17452464  0.09805554  1
  O  O17  1  0.65912853  0.83365318  0.59805554  1
  O  O18  1  0.53944832  0.49491924  0.84465617  1
  O  O19  1  0.53214927  0.04329252  0.83582361  1
  O  O20  1  0.66759768  0.34152537  0.60711226  1
  O  O21  1  0.84090672  0.65392924  0.09460156  1
  O  O22  1  0.95969405  0.47608018  0.83363504  1
  O  O23  1  0.83908075  0.17743842  0.09669317  1
