# generated using pymatgen
data_La2Se3
_symmetry_space_group_name_H-M   'P 1'
_cell_length_a   23.63384964
_cell_length_b   9.10708164
_cell_length_c   9.10708122
_cell_angle_alpha   89.99999750
_cell_angle_beta   54.68924035
_cell_angle_gamma   54.68924221
_symmetry_Int_Tables_number   1
_chemical_formula_structural   La2Se3
_chemical_formula_sum   'La16 Se24'
_cell_volume   1129.10835578
_cell_formula_units_Z   8
loop_
 _symmetry_equiv_pos_site_id
 _symmetry_equiv_pos_as_xyz
  1  'x, y, z'
loop_
 _atom_site_type_symbol
 _atom_site_label
 _atom_site_symmetry_multiplicity
 _atom_site_fract_x
 _atom_site_fract_y
 _atom_site_fract_z
 _atom_site_occupancy
  La  La0  1  0.99545750  0.12030981  0.76411685  1
  La  La1  1  0.08392061  0.62411859  0.37411859  1
  La  La2  1  0.16666700  0.25000000  0.62994469  1
  La  La3  1  0.24941239  0.87588141  0.12588141  1
  La  La4  1  0.33787550  0.37969019  0.25048936  1
  La  La5  1  0.16666700  0.75000000  0.87005531  1
  La  La6  1  0.33787550  0.10668232  0.73588315  1
  La  La7  1  0.49545750  0.26411685  0.62030981  1
  La  La8  1  0.66666700  0.37005531  0.25000000  1
  La  La9  1  0.58392061  0.87411859  0.12411859  1
  La  La10  1  0.66666700  0.12994469  0.75000000  1
  La  La11  1  0.49545750  0.74951064  0.89331768  1
  La  La12  1  0.74941239  0.62588141  0.37588141  1
  La  La13  1  0.83787550  0.23588315  0.60668232  1
  La  La14  1  0.99545750  0.39331768  0.24951064  1
  La  La15  1  0.83787550  0.75048936  0.87969019  1
  Se  Se16  1  0.12476389  0.48931386  0.99322585  1
  Se  Se17  1  0.05088658  0.34806079  0.49616555  1
  Se  Se18  1  0.05088658  -0.00072154  0.35117370  1
  Se  Se19  1  0.28244642  0.15193921  0.14882630  1
  Se  Se20  1  0.28244642  0.50072154  0.00383445  1
  Se  Se21  1  0.12476389  0.63639347  0.63248148  1
  Se  Se22  1  0.20856911  0.01068614  0.86751852  1
  Se  Se23  1  0.20856911  0.86360653  0.50677415  1
  Se  Se24  1  0.44905749  0.49591491  0.99621393  1
  Se  Se25  1  0.38427651  0.34338542  0.50408509  1
  Se  Se26  1  0.62476389  0.13248148  0.13639347  1
  Se  Se27  1  0.38427651  0.00378607  0.34308639  1
  Se  Se28  1  0.62476389  0.49322585  0.98931386  1
  Se  Se29  1  0.55088658  0.99616555  0.84806079  1
  Se  Se30  1  0.44905749  0.65691361  0.65661458  1
  Se  Se31  1  0.55088658  0.85117370  0.49927846  1
  Se  Se32  1  0.78244642  0.50383445  1.00072154  1
  Se  Se33  1  0.70856911  0.36751852  0.51068614  1
  Se  Se34  1  0.94905749  0.15661458  0.15691361  1
  Se  Se35  1  0.70856911  0.00677415  0.36360653  1
  Se  Se36  1  0.94905749  0.49621393  0.99591491  1
  Se  Se37  1  0.78244642  0.64882630  0.65193921  1
  Se  Se38  1  0.88427651  0.00408509  0.84338542  1
  Se  Se39  1  0.88427651  0.84308639  0.50378607  1
