# generated using pymatgen
data_Nd2Se3
_symmetry_space_group_name_H-M   'P 1'
_cell_length_a   23.23891842
_cell_length_b   8.94854861
_cell_length_c   8.94854896
_cell_angle_alpha   90.00000183
_cell_angle_beta   54.71801320
_cell_angle_gamma   54.71801159
_symmetry_Int_Tables_number   1
_chemical_formula_structural   Nd2Se3
_chemical_formula_sum   'Nd16 Se24'
_cell_volume   1073.45251408
_cell_formula_units_Z   8
loop_
 _symmetry_equiv_pos_site_id
 _symmetry_equiv_pos_as_xyz
  1  'x, y, z'
loop_
 _atom_site_type_symbol
 _atom_site_label
 _atom_site_symmetry_multiplicity
 _atom_site_fract_x
 _atom_site_fract_y
 _atom_site_fract_z
 _atom_site_occupancy
  Nd  Nd0  1  0.99638989  0.38955288  0.24792074  1
  Nd  Nd1  1  0.99638989  0.12127747  0.76290960  1
  Nd  Nd2  1  0.08330173  0.62504690  0.37504690  1
  Nd  Nd3  1  0.16666700  0.25000000  0.63032811  1
  Nd  Nd4  1  0.25003127  0.87495310  0.12495310  1
  Nd  Nd5  1  0.33694311  0.37872253  0.25207926  1
  Nd  Nd6  1  0.16666700  0.75000000  0.86967189  1
  Nd  Nd7  1  0.33694311  0.11044712  0.73709040  1
  Nd  Nd8  1  0.49638989  0.26290960  0.62127747  1
  Nd  Nd9  1  0.58330173  0.87504690  0.12504690  1
  Nd  Nd10  1  0.66666700  0.36967189  0.25000000  1
  Nd  Nd11  1  0.66666700  0.13032811  0.75000000  1
  Nd  Nd12  1  0.49638989  0.74792074  0.88955288  1
  Nd  Nd13  1  0.75003127  0.62495310  0.37495310  1
  Nd  Nd14  1  0.83694311  0.23709040  0.61044712  1
  Nd  Nd15  1  0.83694311  0.75207926  0.87872253  1
  Se  Se16  1  0.12392758  0.49053966  0.99382220  1
  Se  Se17  1  0.05068750  0.34861037  0.49641502  1
  Se  Se18  1  0.28264550  0.15138963  0.14847851  1
  Se  Se19  1  0.05068750  0.99932613  0.35152149  1
  Se  Se20  1  0.28264550  0.50067387  0.00358498  1
  Se  Se21  1  0.20940542  0.00946034  0.86560595  1
  Se  Se22  1  0.12392758  0.63767659  0.63439405  1
  Se  Se23  1  0.20940542  0.86232341  0.50617780  1
  Se  Se24  1  0.44883372  0.49631456  0.99864144  1
  Se  Se25  1  0.38450028  0.34514160  0.50368544  1
  Se  Se26  1  0.62392758  0.13439405  0.13767659  1
  Se  Se27  1  0.38450028  0.00135856  0.34281471  1
  Se  Se28  1  0.62392758  0.49382220  0.99053966  1
  Se  Se29  1  0.44883372  0.65718529  0.65485840  1
  Se  Se30  1  0.55068750  0.99641502  0.84861037  1
  Se  Se31  1  0.55068750  0.85152149  0.49932613  1
  Se  Se32  1  0.78264550  0.50358498  0.00067387  1
  Se  Se33  1  0.70940542  0.36560595  0.50946034  1
  Se  Se34  1  0.94883372  0.15485840  0.15718529  1
  Se  Se35  1  0.70940542  0.00617780  0.36232341  1
  Se  Se36  1  0.94883372  0.49864144  0.99631456  1
  Se  Se37  1  0.88450028  0.00368544  0.84514160  1
  Se  Se38  1  0.78264550  0.64847851  0.65138963  1
  Se  Se39  1  0.88450028  0.84281471  0.50135856  1
