# generated using pymatgen
data_Si5P6O25
_symmetry_space_group_name_H-M   'P 1'
_cell_length_a   9.32677735
_cell_length_b   9.32677735
_cell_length_c   9.32677735
_cell_angle_alpha   50.65675020
_cell_angle_beta   50.65675022
_cell_angle_gamma   50.65675022
_symmetry_Int_Tables_number   1
_chemical_formula_structural   Si5P6O25
_chemical_formula_sum   'Si5 P6 O25'
_cell_volume   447.23155509
_cell_formula_units_Z   1
loop_
 _symmetry_equiv_pos_site_id
 _symmetry_equiv_pos_as_xyz
  1  'x, y, z'
loop_
 _atom_site_type_symbol
 _atom_site_label
 _atom_site_symmetry_multiplicity
 _atom_site_fract_x
 _atom_site_fract_y
 _atom_site_fract_z
 _atom_site_occupancy
  O  O0  1  0.09372675  0.14839561  0.42702318  1
  O  O1  1  0.14839561  0.42702318  0.09372675  1
  O  O2  1  0.42702318  0.09372675  0.14839561  1
  O  O3  1  0.90627325  0.85160439  0.57297682  1
  O  O4  1  0.85160439  0.57297682  0.90627325  1
  O  O5  1  0.57297682  0.90627325  0.85160439  1
  O  O6  1  0.78774315  0.40641923  0.57664210  1
  O  O7  1  0.40641923  0.57664210  0.78774315  1
  O  O8  1  0.57664210  0.78774315  0.40641923  1
  O  O9  1  0.21225685  0.59358077  0.42335790  1
  O  O10  1  0.59358077  0.42335790  0.21225685  1
  O  O11  1  0.50000000  0.50000000  0.50000000  1
  O  O12  1  0.27113769  0.21709469  0.92678998  1
  O  O13  1  0.92678998  0.27113769  0.21709469  1
  O  O14  1  0.21709469  0.92678998  0.27113769  1
  O  O15  1  0.72886231  0.78290531  0.07321002  1
  O  O16  1  0.07321002  0.72886231  0.78290531  1
  O  O17  1  0.78290531  0.07321002  0.72886231  1
  O  O18  1  0.24904996  0.97705929  0.89602721  1
  O  O19  1  0.89602721  0.24904996  0.97705929  1
  O  O20  1  0.97705929  0.89602721  0.24904996  1
  O  O21  1  0.75095004  0.02294071  0.10397279  1
  O  O22  1  0.10397279  0.75095004  0.02294071  1
  O  O23  1  0.02294071  0.10397279  0.75095004  1
  O  O24  1  0.42335790  0.21225685  0.59358077  1
  Si  Si25  1  0.00000000  0.00000000  0.00000000  1
  Si  Si26  1  0.18078095  0.18078095  0.18078095  1
  Si  Si27  1  0.81921905  0.81921905  0.81921905  1
  Si  Si28  1  0.43397643  0.43397643  0.43397643  1
  Si  Si29  1  0.56602357  0.56602357  0.56602357  1
  P  P30  1  0.37725904  0.07438919  0.82568115  1
  P  P31  1  0.82568115  0.37725904  0.07438919  1
  P  P32  1  0.07438919  0.82568115  0.37725904  1
  P  P33  1  0.62274096  0.92561081  0.17431885  1
  P  P34  1  0.17431885  0.62274096  0.92561081  1
  P  P35  1  0.92561081  0.17431885  0.62274096  1
