# generated using pymatgen
data_Pr2Se3
_symmetry_space_group_name_H-M   'P 1'
_cell_length_a   23.39758545
_cell_length_b   9.00906574
_cell_length_c   9.00906623
_cell_angle_alpha   90.00000572
_cell_angle_beta   54.72062621
_cell_angle_gamma   54.72062401
_symmetry_Int_Tables_number   1
_chemical_formula_structural   Pr2Se3
_chemical_formula_sum   'Pr16 Se24'
_cell_volume   1095.59078349
_cell_formula_units_Z   8
loop_
 _symmetry_equiv_pos_site_id
 _symmetry_equiv_pos_as_xyz
  1  'x, y, z'
loop_
 _atom_site_type_symbol
 _atom_site_label
 _atom_site_symmetry_multiplicity
 _atom_site_fract_x
 _atom_site_fract_y
 _atom_site_fract_z
 _atom_site_occupancy
  Pr  Pr0  1  0.08335801  0.62496249  0.37496249  1
  Pr  Pr1  1  0.16666700  0.25000000  0.63031256  1
  Pr  Pr2  1  0.33691416  0.37850314  0.25204815  1
  Pr  Pr3  1  0.24997499  0.87503751  0.12503751  1
  Pr  Pr4  1  0.33691416  0.11075337  0.73720836  1
  Pr  Pr5  1  0.16666700  0.75000000  0.86968744  1
  Pr  Pr6  1  0.49641884  0.26279164  0.62149686  1
  Pr  Pr7  1  0.66666700  0.36968744  0.25000000  1
  Pr  Pr8  1  0.58335801  0.87496249  0.12496249  1
  Pr  Pr9  1  0.66666700  0.13031256  0.75000000  1
  Pr  Pr10  1  0.49641884  0.74795185  0.88924663  1
  Pr  Pr11  1  0.74997499  0.62503751  0.37503751  1
  Pr  Pr12  1  0.83691416  0.23720836  0.61075337  1
  Pr  Pr13  1  0.99641884  0.38924663  0.24795185  1
  Pr  Pr14  1  0.99641884  0.12149686  0.76279164  1
  Pr  Pr15  1  0.83691416  0.75204815  0.87850314  1
  Se  Se16  1  0.05099367  -0.00056799  0.35055490  1
  Se  Se17  1  0.12375123  0.49044036  0.99376811  1
  Se  Se18  1  0.05099367  0.34758598  0.49646309  1
  Se  Se19  1  0.28233933  0.15241402  0.14944510  1
  Se  Se20  1  0.28233933  0.50056799  0.00353691  1
  Se  Se21  1  0.12375123  0.63830495  0.63497720  1
  Se  Se22  1  0.38486898  0.00114607  0.34206552  1
  Se  Se23  1  0.20958177  0.86169505  0.50623189  1
  Se  Se24  1  0.44846502  0.49667145  0.99885393  1
  Se  Se25  1  0.38486898  0.34424800  0.50332855  1
  Se  Se26  1  0.20958177  0.00955964  0.86502280  1
  Se  Se27  1  0.62375123  0.13497720  0.13830495  1
  Se  Se28  1  0.62375123  0.49376811  0.99044036  1
  Se  Se29  1  0.44846502  0.65793448  0.65575200  1
  Se  Se30  1  0.70958177  0.00623189  0.36169505  1
  Se  Se31  1  0.55099367  0.85055490  0.49943201  1
  Se  Se32  1  0.78233933  0.50353691  1.00056799  1
  Se  Se33  1  0.70958177  0.36502280  0.50955964  1
  Se  Se34  1  0.55099367  0.99646309  0.84758598  1
  Se  Se35  1  0.94846502  0.15575200  0.15793448  1
  Se  Se36  1  0.94846502  0.49885393  0.99667145  1
  Se  Se37  1  0.78233933  0.64944510  0.65241402  1
  Se  Se38  1  0.88486898  0.84206552  0.50114607  1
  Se  Se39  1  0.88486898  0.00332855  0.84424800  1
