# generated using pymatgen
data_P
_symmetry_space_group_name_H-M   'P 1'
_cell_length_a   6.00087235
_cell_length_b   6.81542413
_cell_length_c   6.81542413
_cell_angle_alpha   83.15697245
_cell_angle_beta   89.84714668
_cell_angle_gamma   89.84714663
_symmetry_Int_Tables_number   1
_chemical_formula_structural   P
_chemical_formula_sum   P8
_cell_volume   276.75313597
_cell_formula_units_Z   8
loop_
 _symmetry_equiv_pos_site_id
 _symmetry_equiv_pos_as_xyz
  1  'x, y, z'
loop_
 _atom_site_type_symbol
 _atom_site_label
 _atom_site_symmetry_multiplicity
 _atom_site_fract_x
 _atom_site_fract_y
 _atom_site_fract_z
 _atom_site_occupancy
  P  P0  1  0.24498037  0.16249842  0.16249842  1
  P  P1  1  0.75501963  0.83750158  0.83750158  1
  P  P2  1  0.54972886  0.28213482  0.28213482  1
  P  P3  1  0.45027114  0.71786518  0.71786518  1
  P  P4  1  0.25257619  0.47130972  0.22771686  1
  P  P5  1  0.74742381  0.77228314  0.52869028  1
  P  P6  1  0.74742381  0.52869028  0.77228314  1
  P  P7  1  0.25257619  0.22771686  0.47130972  1
