# generated using pymatgen
data_Ac2S3
_symmetry_space_group_name_H-M   'P 1'
_cell_length_a   23.53665862
_cell_length_b   9.07674538
_cell_length_c   9.07674557
_cell_angle_alpha   89.99999801
_cell_angle_beta   54.65739297
_cell_angle_gamma   54.65739212
_symmetry_Int_Tables_number   1
_chemical_formula_structural   Ac2S3
_chemical_formula_sum   'Ac16 S24'
_cell_volume   1115.21928234
_cell_formula_units_Z   8
loop_
 _symmetry_equiv_pos_site_id
 _symmetry_equiv_pos_as_xyz
  1  'x, y, z'
loop_
 _atom_site_type_symbol
 _atom_site_label
 _atom_site_symmetry_multiplicity
 _atom_site_fract_x
 _atom_site_fract_y
 _atom_site_fract_z
 _atom_site_occupancy
  Ac  Ac0  1  0.99325317  0.40319882  0.25062603  1
  Ac  Ac1  1  0.08784924  0.61822564  0.36822564  1
  Ac  Ac2  1  0.16666700  0.25000000  0.62930023  1
  Ac  Ac3  1  0.34007983  0.38295833  0.24937397  1
  Ac  Ac4  1  0.24548376  0.88177436  0.13177436  1
  Ac  Ac5  1  0.34007983  0.09680118  0.73038555  1
  Ac  Ac6  1  0.16666700  0.75000000  0.87069977  1
  Ac  Ac7  1  0.49325317  0.26961445  0.61704167  1
  Ac  Ac8  1  0.58784924  0.86822564  0.11822564  1
  Ac  Ac9  1  0.66666700  0.37069977  0.25000000  1
  Ac  Ac10  1  0.49325317  0.75062603  0.90319882  1
  Ac  Ac11  1  0.66666700  0.12930023  0.75000000  1
  Ac  Ac12  1  0.74548376  0.63177436  0.38177436  1
  Ac  Ac13  1  0.84007983  0.23038555  0.59680118  1
  Ac  Ac14  1  0.84007983  0.74937397  0.88295833  1
  Ac  Ac15  1  0.99325317  0.11704167  0.76961445  1
  S  S16  1  0.05060252  0.99763131  0.35334588  1
  S  S17  1  0.12806297  0.48471316  0.99063478  1
  S  S18  1  0.05060252  0.35056014  0.49484557  1
  S  S19  1  0.28273048  0.14943986  0.14665412  1
  S  S20  1  0.28273048  0.50236869  0.00515443  1
  S  S21  1  0.12806297  0.63109692  0.62517530  1
  S  S22  1  0.38307462  0.01097054  0.34356986  1
  S  S23  1  0.20527003  0.86890308  0.50936522  1
  S  S24  1  0.45025938  0.49279274  0.98902946  1
  S  S25  1  0.38307462  0.33980659  0.50720726  1
  S  S26  1  0.20527003  0.01528684  0.87482470  1
  S  S27  1  0.62806297  0.12517530  0.13109692  1
  S  S28  1  0.62806297  0.49063478  0.98471316  1
  S  S29  1  0.45025938  0.65643014  0.66019341  1
  S  S30  1  0.70527003  0.00936522  0.36890308  1
  S  S31  1  0.55060252  0.85334588  0.49763131  1
  S  S32  1  0.78273048  0.50515443  0.00236869  1
  S  S33  1  0.70527003  0.37482470  0.51528684  1
  S  S34  1  0.55060252  0.99484557  0.85056014  1
  S  S35  1  0.95025938  0.16019341  0.15643014  1
  S  S36  1  0.95025938  0.48902946  0.99279274  1
  S  S37  1  0.78273048  0.64665412  0.64943986  1
  S  S38  1  0.88307462  0.84356986  0.51097054  1
  S  S39  1  0.88307462  0.00720726  0.83980659  1
