# generated using pymatgen
data_Li7MnAs4
_symmetry_space_group_name_H-M   'P 1'
_cell_length_a   6.13120976
_cell_length_b   12.23369454
_cell_length_c   8.65052837
_cell_angle_alpha   45.00000000
_cell_angle_beta   90.00000000
_cell_angle_gamma   90.00000000
_symmetry_Int_Tables_number   1
_chemical_formula_structural   Li7MnAs4
_chemical_formula_sum   'Li14 Mn2 As8'
_cell_volume   458.80848815
_cell_formula_units_Z   2
loop_
 _symmetry_equiv_pos_site_id
 _symmetry_equiv_pos_as_xyz
  1  'x, y, z'
loop_
 _atom_site_type_symbol
 _atom_site_label
 _atom_site_symmetry_multiplicity
 _atom_site_fract_x
 _atom_site_fract_y
 _atom_site_fract_z
 _atom_site_occupancy
  Li  Li0  1  0.03618979  0.00000000  -0.00000000  1
  Li  Li1  1  0.96381021  0.50000000  0.00000000  1
  Li  Li2  1  0.25000000  0.24166942  0.50000000  1
  Li  Li3  1  0.25000000  0.75833058  0.50000000  1
  Li  Li4  1  0.25000000  0.00000000  0.50000000  1
  Li  Li5  1  0.25000000  0.24166942  0.01666117  1
  Li  Li6  1  0.25000000  0.75833058  0.98333883  1
  Li  Li7  1  0.53618979  0.00000000  -0.00000000  1
  Li  Li8  1  0.46381021  0.50000000  -0.00000000  1
  Li  Li9  1  0.75000000  0.25833058  0.98333883  1
  Li  Li10  1  0.75000000  0.50000000  0.50000000  1
  Li  Li11  1  0.75000000  0.74166942  0.01666117  1
  Li  Li12  1  0.75000000  0.25833058  0.50000000  1
  Li  Li13  1  0.75000000  0.74166942  0.50000000  1
  Mn  Mn14  1  0.25000000  0.50000000  0.50000000  1
  Mn  Mn15  1  0.75000000  0.00000000  0.50000000  1
  As  As16  1  0.03395248  0.50000000  0.27944036  1
  As  As17  1  0.96604752  0.00000000  0.72055964  1
  As  As18  1  0.53395248  0.22055964  0.27944036  1
  As  As19  1  0.46604752  0.27944036  0.72055964  1
  As  As20  1  0.46604752  0.72055964  0.27944036  1
  As  As21  1  0.53395248  0.77944036  0.72055964  1
  As  As22  1  0.03395248  0.50000000  0.72055964  1
  As  As23  1  0.96604752  0.00000000  0.27944036  1
