# generated using pymatgen
data_Sr2Sb2O7
_symmetry_space_group_name_H-M   'P 1'
_cell_length_a   7.57285192
_cell_length_b   7.56575627
_cell_length_c   7.56575628
_cell_angle_alpha   62.05459540
_cell_angle_beta   59.96897087
_cell_angle_gamma   59.96897087
_symmetry_Int_Tables_number   1
_chemical_formula_structural   Sr2Sb2O7
_chemical_formula_sum   'Sr4 Sb4 O14'
_cell_volume   310.83590458
_cell_formula_units_Z   2
loop_
 _symmetry_equiv_pos_site_id
 _symmetry_equiv_pos_as_xyz
  1  'x, y, z'
loop_
 _atom_site_type_symbol
 _atom_site_label
 _atom_site_symmetry_multiplicity
 _atom_site_fract_x
 _atom_site_fract_y
 _atom_site_fract_z
 _atom_site_occupancy
  O  O0  1  0.32348767  0.31324197  0.44908737  1
  O  O1  1  0.08581702  0.68675803  0.55091263  1
  O  O2  1  0.17651233  0.05091263  0.18675803  1
  O  O3  1  0.41418298  0.94908737  0.81324197  1
  O  O4  1  0.67651233  0.68675803  0.55091263  1
  O  O5  1  0.91418298  0.31324197  0.44908737  1
  O  O6  1  0.82348767  0.94908737  0.81324197  1
  O  O7  1  0.58581702  0.05091263  0.18675803  1
  O  O8  1  0.25000000  0.90191659  0.59808341  1
  O  O9  1  0.75000000  0.09808341  0.40191659  1
  O  O10  1  0.09158498  0.62712003  0.18971002  1
  O  O11  1  0.90841502  0.37287997  0.81028998  1
  O  O12  1  0.40841502  0.31028998  0.87287997  1
  O  O13  1  0.59158498  0.68971002  0.12712003  1
  Sr  Sr14  1  0.50000000  0.50000000  0.00000000  1
  Sr  Sr15  1  0.00000000  0.50000000  0.00000000  1
  Sr  Sr16  1  0.00000000  0.00000000  0.00000000  1
  Sr  Sr17  1  0.50000000  0.50000000  0.50000000  1
  Sb  Sb18  1  0.50000000  0.00000000  0.50000000  1
  Sb  Sb19  1  0.00000000  0.00000000  0.50000000  1
  Sb  Sb20  1  0.00000000  0.50000000  0.50000000  1
  Sb  Sb21  1  0.50000000  0.00000000  0.00000000  1
