# generated using pymatgen
data_La5TlSe8
_symmetry_space_group_name_H-M   'P 1'
_cell_length_a   7.94353349
_cell_length_b   7.94353412
_cell_length_c   7.94353381
_cell_angle_alpha   109.17338149
_cell_angle_beta   110.06855195
_cell_angle_gamma   109.17338121
_symmetry_Int_Tables_number   1
_chemical_formula_structural   La5TlSe8
_chemical_formula_sum   'La5 Tl1 Se8'
_cell_volume   385.81928033
_cell_formula_units_Z   1
loop_
 _symmetry_equiv_pos_site_id
 _symmetry_equiv_pos_as_xyz
  1  'x, y, z'
loop_
 _atom_site_type_symbol
 _atom_site_label
 _atom_site_symmetry_multiplicity
 _atom_site_fract_x
 _atom_site_fract_y
 _atom_site_fract_z
 _atom_site_occupancy
  La  La0  1  0.24363564  0.62901209  0.37643489  1
  La  La1  1  0.37500000  0.25000000  0.62500000  1
  La  La2  1  0.74742281  0.87098791  0.11462355  1
  La  La3  1  0.62356511  0.36720074  0.25257719  1
  La  La4  1  0.88537645  0.13279926  0.75636436  1
  Se  Se5  1  0.99511380  0.85478987  0.48837012  1
  Se  Se6  1  0.99648905  0.33433625  0.48817939  1
  Se  Se7  1  0.51182061  0.00830966  0.84615686  1
  Se  Se8  1  0.15384314  0.16566375  0.16215280  1
  Se  Se9  1  0.35967607  0.49325632  0.00488620  1
  Se  Se10  1  0.63358025  0.64521013  0.64032393  1
  Se  Se11  1  0.51162988  0.00674368  0.36641975  1
  Se  Se12  1  0.83784720  0.49169034  0.00351095  1
  Tl  Tl13  1  0.12500000  0.75000000  0.87500000  1
