# generated using pymatgen
data_Tb(Ni2P)2
_symmetry_space_group_name_H-M   'P 1'
_cell_length_a   3.60162393
_cell_length_b   7.10414607
_cell_length_c   7.10414607
_cell_angle_alpha   90.00000000
_cell_angle_beta   90.00000000
_cell_angle_gamma   90.00000000
_symmetry_Int_Tables_number   1
_chemical_formula_structural   Tb(Ni2P)2
_chemical_formula_sum   'Tb2 Ni8 P4'
_cell_volume   181.76996693
_cell_formula_units_Z   2
loop_
 _symmetry_equiv_pos_site_id
 _symmetry_equiv_pos_as_xyz
  1  'x, y, z'
loop_
 _atom_site_type_symbol
 _atom_site_label
 _atom_site_symmetry_multiplicity
 _atom_site_fract_x
 _atom_site_fract_y
 _atom_site_fract_z
 _atom_site_occupancy
  Ni  Ni0  1  0.00000000  0.33726321  0.08493775  1
  Ni  Ni1  1  0.50000000  0.41506225  0.83726321  1
  Ni  Ni2  1  0.50000000  0.58493775  0.16273679  1
  Ni  Ni3  1  0.00000000  0.66273679  0.91506225  1
  Ni  Ni4  1  0.50000000  0.83726321  0.41506225  1
  Ni  Ni5  1  0.50000000  0.16273679  0.58493775  1
  Ni  Ni6  1  0.00000000  0.08493775  0.33726321  1
  Ni  Ni7  1  0.00000000  0.91506225  0.66273679  1
  Tb  Tb8  1  0.50000000  0.00000000  0.00000000  1
  Tb  Tb9  1  0.00000000  0.50000000  0.50000000  1
  P  P10  1  0.00000000  0.22053608  0.77946392  1
  P  P11  1  0.50000000  0.72053608  0.72053608  1
  P  P12  1  0.50000000  0.27946392  0.27946392  1
  P  P13  1  0.00000000  0.77946392  0.22053608  1
