# generated using pymatgen
data_Hf3P
_symmetry_space_group_name_H-M   'P 1'
_cell_length_a   5.32310931
_cell_length_b   10.69933368
_cell_length_c   10.69933368
_cell_angle_alpha   90.00000000
_cell_angle_beta   90.00000000
_cell_angle_gamma   90.00000000
_symmetry_Int_Tables_number   1
_chemical_formula_structural   Hf3P
_chemical_formula_sum   'Hf24 P8'
_cell_volume   609.36688373
_cell_formula_units_Z   8
loop_
 _symmetry_equiv_pos_site_id
 _symmetry_equiv_pos_as_xyz
  1  'x, y, z'
loop_
 _atom_site_type_symbol
 _atom_site_label
 _atom_site_symmetry_multiplicity
 _atom_site_fract_x
 _atom_site_fract_y
 _atom_site_fract_z
 _atom_site_occupancy
  Hf  Hf0  1  0.78249336  0.85804465  0.16581435  1
  Hf  Hf1  1  0.78249336  0.64195535  0.33418565  1
  Hf  Hf2  1  0.28249336  0.66581435  0.14195535  1
  Hf  Hf3  1  0.28249336  0.83418565  0.35804465  1
  Hf  Hf4  1  0.21750664  0.14195535  0.83418565  1
  Hf  Hf5  1  0.21750664  0.35804465  0.66581435  1
  Hf  Hf6  1  0.71750664  0.33418565  0.85804465  1
  Hf  Hf7  1  0.71750664  0.16581435  0.64195535  1
  Hf  Hf8  1  0.96971674  0.22238271  0.11205049  1
  Hf  Hf9  1  0.96971674  0.27761729  0.38794951  1
  Hf  Hf10  1  0.46971674  0.61205049  0.77761729  1
  Hf  Hf11  1  0.46971674  0.88794951  0.72238271  1
  Hf  Hf12  1  0.03028326  0.77761729  0.88794951  1
  Hf  Hf13  1  0.03028326  0.72238271  0.61205049  1
  Hf  Hf14  1  0.53028326  0.38794951  0.22238271  1
  Hf  Hf15  1  0.53028326  0.11205049  0.27761729  1
  Hf  Hf16  1  0.26179063  0.96612467  0.06963866  1
  Hf  Hf17  1  0.26179063  0.53387533  0.43036134  1
  Hf  Hf18  1  0.76179063  0.56963866  0.03387533  1
  Hf  Hf19  1  0.76179063  0.93036134  0.46612467  1
  Hf  Hf20  1  0.73820937  0.03387533  0.93036134  1
  Hf  Hf21  1  0.73820937  0.46612467  0.56963866  1
  Hf  Hf22  1  0.23820937  0.43036134  0.96612467  1
  Hf  Hf23  1  0.23820937  0.06963866  0.53387533  1
  P  P24  1  0.46283197  0.20862917  0.04435824  1
  P  P25  1  0.46283197  0.29137083  0.45564176  1
  P  P26  1  0.96283197  0.54435824  0.79137083  1
  P  P27  1  0.96283197  0.95564176  0.70862917  1
  P  P28  1  0.53716803  0.79137083  0.95564176  1
  P  P29  1  0.53716803  0.70862917  0.54435824  1
  P  P30  1  0.03716803  0.45564176  0.20862917  1
  P  P31  1  0.03716803  0.04435824  0.29137083  1
