# generated using pymatgen
data_YB7Mo3
_symmetry_space_group_name_H-M   'P 1'
_cell_length_a   3.11148243
_cell_length_b   11.02713937
_cell_length_c   12.92263107
_cell_angle_alpha   90.00000000
_cell_angle_beta   90.00000000
_cell_angle_gamma   90.00000000
_symmetry_Int_Tables_number   1
_chemical_formula_structural   YB7Mo3
_chemical_formula_sum   'Y4 B28 Mo12'
_cell_volume   443.38516919
_cell_formula_units_Z   4
loop_
 _symmetry_equiv_pos_site_id
 _symmetry_equiv_pos_as_xyz
  1  'x, y, z'
loop_
 _atom_site_type_symbol
 _atom_site_label
 _atom_site_symmetry_multiplicity
 _atom_site_fract_x
 _atom_site_fract_y
 _atom_site_fract_z
 _atom_site_occupancy
  Y  Y0  1  0.25000000  0.05109408  0.69181691  1
  Y  Y1  1  0.25000000  0.55109408  0.80818309  1
  Y  Y2  1  0.75000000  0.44890592  0.19181691  1
  Y  Y3  1  0.75000000  0.94890592  0.30818309  1
  B  B4  1  0.75000000  0.23026320  0.08184252  1
  B  B5  1  0.25000000  0.93212298  0.88402534  1
  B  B6  1  0.25000000  0.48951622  0.36266224  1
  B  B7  1  0.25000000  0.98951622  0.13733776  1
  B  B8  1  0.25000000  0.76973680  0.91815748  1
  B  B9  1  0.25000000  0.43212298  0.61597466  1
  B  B10  1  0.25000000  0.46265230  0.01797337  1
  B  B11  1  0.75000000  0.03734770  0.51797337  1
  B  B12  1  0.75000000  0.24939593  0.32651652  1
  B  B13  1  0.25000000  0.96265230  0.48202663  1
  B  B14  1  0.75000000  0.16620823  0.83299323  1
  B  B15  1  0.25000000  0.33379177  0.33299323  1
  B  B16  1  0.25000000  0.31294262  0.06651296  1
  B  B17  1  0.75000000  0.74939593  0.17348348  1
  B  B18  1  0.75000000  0.18705738  0.56651296  1
  B  B19  1  0.75000000  0.68705738  0.93348704  1
  B  B20  1  0.25000000  0.81294262  0.43348704  1
  B  B21  1  0.75000000  0.06787702  0.11597466  1
  B  B22  1  0.75000000  0.53734770  0.98202663  1
  B  B23  1  0.25000000  0.75060407  0.67348348  1
  B  B24  1  0.75000000  0.01048378  0.86266224  1
  B  B25  1  0.75000000  0.73026320  0.41815748  1
  B  B26  1  0.75000000  0.51048378  0.63733776  1
  B  B27  1  0.25000000  0.26973680  0.58184252  1
  B  B28  1  0.25000000  0.25060407  0.82651652  1
  B  B29  1  0.75000000  0.66620823  0.66700677  1
  B  B30  1  0.75000000  0.56787702  0.38402534  1
  B  B31  1  0.25000000  0.83379177  0.16700677  1
  Mo  Mo32  1  0.75000000  0.31520549  0.70164484  1
  Mo  Mo33  1  0.75000000  0.38222585  0.47309967  1
  Mo  Mo34  1  0.75000000  0.34032951  0.93621316  1
  Mo  Mo35  1  0.25000000  0.61777415  0.52690033  1
  Mo  Mo36  1  0.25000000  0.15967049  0.43621316  1
  Mo  Mo37  1  0.25000000  0.68479451  0.29835516  1
  Mo  Mo38  1  0.75000000  0.84032951  0.56378684  1
  Mo  Mo39  1  0.75000000  0.81520549  0.79835516  1
  Mo  Mo40  1  0.25000000  0.18479451  0.20164484  1
  Mo  Mo41  1  0.75000000  0.88222585  0.02690033  1
  Mo  Mo42  1  0.25000000  0.65967049  0.06378684  1
  Mo  Mo43  1  0.25000000  0.11777415  0.97309967  1
