# generated using pymatgen
data_Hf5CoAs3
_symmetry_space_group_name_H-M   'P 1'
_cell_length_a   3.68050093
_cell_length_b   10.45516878
_cell_length_c   17.41793968
_cell_angle_alpha   90.00000000
_cell_angle_beta   90.00000000
_cell_angle_gamma   90.00000000
_symmetry_Int_Tables_number   1
_chemical_formula_structural   Hf5CoAs3
_chemical_formula_sum   'Hf20 Co4 As12'
_cell_volume   670.24682000
_cell_formula_units_Z   4
loop_
 _symmetry_equiv_pos_site_id
 _symmetry_equiv_pos_as_xyz
  1  'x, y, z'
loop_
 _atom_site_type_symbol
 _atom_site_label
 _atom_site_symmetry_multiplicity
 _atom_site_fract_x
 _atom_site_fract_y
 _atom_site_fract_z
 _atom_site_occupancy
  Hf  Hf0  1  0.25000000  0.18470028  0.36803280  1
  Hf  Hf1  1  0.75000000  0.81529972  0.63196720  1
  Hf  Hf2  1  0.75000000  0.68470028  0.13196720  1
  Hf  Hf3  1  0.25000000  0.31529972  0.86803280  1
  Hf  Hf4  1  0.25000000  0.87959400  0.47814420  1
  Hf  Hf5  1  0.75000000  0.12040600  0.52185580  1
  Hf  Hf6  1  0.75000000  0.37959400  0.02185580  1
  Hf  Hf7  1  0.25000000  0.62040600  0.97814420  1
  Hf  Hf8  1  0.25000000  0.94323185  0.07731416  1
  Hf  Hf9  1  0.75000000  0.05676815  0.92268584  1
  Hf  Hf10  1  0.75000000  0.44323185  0.42268584  1
  Hf  Hf11  1  0.25000000  0.55676815  0.57731416  1
  Hf  Hf12  1  0.25000000  0.24192113  0.16693810  1
  Hf  Hf13  1  0.75000000  0.75807887  0.83306190  1
  Hf  Hf14  1  0.75000000  0.74192113  0.33306190  1
  Hf  Hf15  1  0.25000000  0.25807887  0.66693810  1
  Hf  Hf16  1  0.25000000  0.51597258  0.27619234  1
  Hf  Hf17  1  0.75000000  0.48402742  0.72380766  1
  Hf  Hf18  1  0.75000000  0.01597258  0.22380766  1
  Hf  Hf19  1  0.25000000  0.98402742  0.77619234  1
  Co  Co20  1  0.25000000  0.63132618  0.40837680  1
  Co  Co21  1  0.75000000  0.36867382  0.59162320  1
  Co  Co22  1  0.75000000  0.13132618  0.09162320  1
  Co  Co23  1  0.25000000  0.86867382  0.90837680  1
  As  As24  1  0.25000000  0.49119771  0.11884403  1
  As  As25  1  0.75000000  0.50880229  0.88115597  1
  As  As26  1  0.75000000  0.99119771  0.38115597  1
  As  As27  1  0.25000000  0.00880229  0.61884403  1
  As  As28  1  0.25000000  0.81471432  0.21930889  1
  As  As29  1  0.75000000  0.18528568  0.78069111  1
  As  As30  1  0.75000000  0.31471432  0.28069111  1
  As  As31  1  0.25000000  0.68528568  0.71930889  1
  As  As32  1  0.25000000  0.18872300  0.00730077  1
  As  As33  1  0.75000000  0.81127700  0.99269923  1
  As  As34  1  0.75000000  0.68872300  0.49269923  1
  As  As35  1  0.25000000  0.31127700  0.50730077  1
