# generated using pymatgen
data_Zr(Ni2P)2
_symmetry_space_group_name_H-M   'P 1'
_cell_length_a   3.58317697
_cell_length_b   6.92840384
_cell_length_c   6.92840384
_cell_angle_alpha   90.00000000
_cell_angle_beta   90.00000000
_cell_angle_gamma   90.00000000
_symmetry_Int_Tables_number   1
_chemical_formula_structural   Zr(Ni2P)2
_chemical_formula_sum   'Zr2 Ni8 P4'
_cell_volume   172.00245497
_cell_formula_units_Z   2
loop_
 _symmetry_equiv_pos_site_id
 _symmetry_equiv_pos_as_xyz
  1  'x, y, z'
loop_
 _atom_site_type_symbol
 _atom_site_label
 _atom_site_symmetry_multiplicity
 _atom_site_fract_x
 _atom_site_fract_y
 _atom_site_fract_z
 _atom_site_occupancy
  Ni  Ni0  1  0.00000000  0.08514655  0.33484092  1
  Ni  Ni1  1  0.50000000  0.16515908  0.58514655  1
  Ni  Ni2  1  0.50000000  0.83484092  0.41485345  1
  Ni  Ni3  1  0.00000000  0.91485345  0.66515908  1
  Ni  Ni4  1  0.50000000  0.58514655  0.16515908  1
  Ni  Ni5  1  0.50000000  0.41485345  0.83484092  1
  Ni  Ni6  1  0.00000000  0.33484092  0.08514655  1
  Ni  Ni7  1  0.00000000  0.66515908  0.91485345  1
  Zr  Zr8  1  0.50000000  0.00000000  0.00000000  1
  Zr  Zr9  1  0.00000000  0.50000000  0.50000000  1
  P  P10  1  0.00000000  0.21954089  0.78045911  1
  P  P11  1  0.50000000  0.71954089  0.71954089  1
  P  P12  1  0.50000000  0.28045911  0.28045911  1
  P  P13  1  0.00000000  0.78045911  0.21954089  1
