# generated using pymatgen
data_Na5Al3F14
_symmetry_space_group_name_H-M   'P 1'
_cell_length_a   7.11760245
_cell_length_b   7.11760245
_cell_length_c   10.56160566
_cell_angle_alpha   90.00000000
_cell_angle_beta   90.00000000
_cell_angle_gamma   90.00000000
_symmetry_Int_Tables_number   1
_chemical_formula_structural   Na5Al3F14
_chemical_formula_sum   'Na10 Al6 F28'
_cell_volume   535.05373772
_cell_formula_units_Z   2
loop_
 _symmetry_equiv_pos_site_id
 _symmetry_equiv_pos_as_xyz
  1  'x, y, z'
loop_
 _atom_site_type_symbol
 _atom_site_label
 _atom_site_symmetry_multiplicity
 _atom_site_fract_x
 _atom_site_fract_y
 _atom_site_fract_z
 _atom_site_occupancy
  F  F0  1  0.03479818  0.68001911  0.62013033  1
  F  F1  1  0.96520182  0.31998089  0.62013033  1
  F  F2  1  0.18001911  0.53479818  0.87986967  1
  F  F3  1  0.68001911  0.96520182  0.62013033  1
  F  F4  1  0.31998089  0.03479818  0.62013033  1
  F  F5  1  0.46520182  0.18001911  0.87986967  1
  F  F6  1  0.53479818  0.81998089  0.87986967  1
  F  F7  1  0.81998089  0.46520182  0.87986967  1
  F  F8  1  0.96520182  0.31998089  0.37986967  1
  F  F9  1  0.03479818  0.68001911  0.37986967  1
  F  F10  1  0.81998089  0.46520182  0.12013033  1
  F  F11  1  0.31998089  0.03479818  0.37986967  1
  F  F12  1  0.68001911  0.96520182  0.37986967  1
  F  F13  1  0.53479818  0.81998089  0.12013033  1
  F  F14  1  0.46520182  0.18001911  0.12013033  1
  F  F15  1  0.18001911  0.53479818  0.12013033  1
  F  F16  1  0.00000000  0.00000000  0.17148075  1
  F  F17  1  0.50000000  0.50000000  0.32851925  1
  F  F18  1  0.00000000  0.00000000  0.82851925  1
  F  F19  1  0.50000000  0.50000000  0.67148075  1
  F  F20  1  0.06338205  0.24791558  0.00000000  1
  F  F21  1  0.75208442  0.06338205  0.00000000  1
  F  F22  1  0.24791558  0.93661795  0.00000000  1
  F  F23  1  0.56338205  0.25208442  0.50000000  1
  F  F24  1  0.43661795  0.74791558  0.50000000  1
  F  F25  1  0.93661795  0.75208442  0.00000000  1
  F  F26  1  0.74791558  0.56338205  0.50000000  1
  F  F27  1  0.25208442  0.43661795  0.50000000  1
  Na  Na28  1  0.00000000  0.00000000  0.50000000  1
  Na  Na29  1  0.50000000  0.50000000  0.00000000  1
  Na  Na30  1  0.27519667  0.77519667  0.25000000  1
  Na  Na31  1  0.22480333  0.27519667  0.25000000  1
  Na  Na32  1  0.77519667  0.72480333  0.25000000  1
  Na  Na33  1  0.72480333  0.22480333  0.25000000  1
  Na  Na34  1  0.27519667  0.77519667  0.75000000  1
  Na  Na35  1  0.22480333  0.27519667  0.75000000  1
  Na  Na36  1  0.77519667  0.72480333  0.75000000  1
  Na  Na37  1  0.72480333  0.22480333  0.75000000  1
  Al  Al38  1  0.00000000  0.00000000  0.00000000  1
  Al  Al39  1  0.50000000  0.50000000  0.50000000  1
  Al  Al40  1  0.00000000  0.50000000  0.00000000  1
  Al  Al41  1  0.50000000  0.00000000  0.00000000  1
  Al  Al42  1  0.50000000  0.00000000  0.50000000  1
  Al  Al43  1  0.00000000  0.50000000  0.50000000  1
