# generated using pymatgen
data_Pb5SO8
_symmetry_space_group_name_H-M   'P 1'
_cell_length_a   7.48502221
_cell_length_b   11.91545485
_cell_length_c   12.00588105
_cell_angle_alpha   90.00000000
_cell_angle_beta   90.00000000
_cell_angle_gamma   90.94127714
_symmetry_Int_Tables_number   1
_chemical_formula_structural   Pb5SO8
_chemical_formula_sum   'Pb20 S4 O32'
_cell_volume   1070.62935216
_cell_formula_units_Z   4
loop_
 _symmetry_equiv_pos_site_id
 _symmetry_equiv_pos_as_xyz
  1  'x, y, z'
loop_
 _atom_site_type_symbol
 _atom_site_label
 _atom_site_symmetry_multiplicity
 _atom_site_fract_x
 _atom_site_fract_y
 _atom_site_fract_z
 _atom_site_occupancy
  Pb  Pb0  1  0.89167201  0.61214297  0.75863647  1
  Pb  Pb1  1  0.10832799  0.88785703  0.25863647  1
  Pb  Pb2  1  0.10832799  0.38785703  0.24136353  1
  Pb  Pb3  1  0.89167201  0.11214297  0.74136353  1
  Pb  Pb4  1  0.87683253  0.60701846  0.08961970  1
  Pb  Pb5  1  0.12316747  0.89298154  0.58961970  1
  Pb  Pb6  1  0.12316747  0.39298154  0.91038030  1
  Pb  Pb7  1  0.87683253  0.10701846  0.41038030  1
  Pb  Pb8  1  0.36734136  0.61177970  0.74144432  1
  Pb  Pb9  1  0.63265864  0.88822030  0.24144432  1
  Pb  Pb10  1  0.63265864  0.38822030  0.25855568  1
  Pb  Pb11  1  0.36734136  0.11177970  0.75855568  1
  Pb  Pb12  1  0.62444266  0.38599142  0.93944347  1
  Pb  Pb13  1  0.37555734  0.11400858  0.43944347  1
  Pb  Pb14  1  0.37555734  0.61400858  0.06055653  1
  Pb  Pb15  1  0.62444266  0.88599142  0.56055653  1
  Pb  Pb16  1  0.13869164  0.37125043  0.58337999  1
  Pb  Pb17  1  0.86130836  0.12874957  0.08337999  1
  Pb  Pb18  1  0.86130836  0.62874957  0.41662001  1
  Pb  Pb19  1  0.13869164  0.87125043  0.91662001  1
  S  S20  1  0.64380821  0.84676079  0.89511136  1
  S  S21  1  0.35619179  0.65323921  0.39511136  1
  S  S22  1  0.35619179  0.15323921  0.10488864  1
  S  S23  1  0.64380821  0.34676079  0.60488864  1
  O  O24  1  0.13292773  0.49184346  0.08378094  1
  O  O25  1  0.86707227  0.00815654  0.58378094  1
  O  O26  1  0.86707227  0.50815654  0.91621906  1
  O  O27  1  0.13292773  0.99184346  0.41621906  1
  O  O28  1  0.39088711  0.50209455  0.90103319  1
  O  O29  1  0.60911289  0.99790545  0.40103319  1
  O  O30  1  0.60911289  0.49790545  0.09896681  1
  O  O31  1  0.39088711  0.00209455  0.59896681  1
  O  O32  1  0.12719515  0.48891037  0.72726427  1
  O  O33  1  0.87280485  0.01108963  0.22726427  1
  O  O34  1  0.87280485  0.51108963  0.27273573  1
  O  O35  1  0.12719515  0.98891037  0.77273573  1
  O  O36  1  0.13742705  0.70834392  0.82399716  1
  O  O37  1  0.86257295  0.79165608  0.32399716  1
  O  O38  1  0.86257295  0.29165608  0.17600284  1
  O  O39  1  0.13742705  0.20834392  0.67600284  1
  O  O40  1  0.62580940  0.72144076  0.90862430  1
  O  O41  1  0.37419060  0.77855924  0.40862430  1
  O  O42  1  0.37419060  0.27855924  0.09137570  1
  O  O43  1  0.62580940  0.22144076  0.59137570  1
  O  O44  1  0.76173444  0.87199734  0.79727030  1
  O  O45  1  0.23826556  0.62800266  0.29727030  1
  O  O46  1  0.23826556  0.12800266  0.20272970  1
  O  O47  1  0.76173444  0.37199734  0.70272970  1
  O  O48  1  0.46200245  0.89367817  0.87141780  1
  O  O49  1  0.53799755  0.60632183  0.37141780  1
  O  O50  1  0.53799755  0.10632183  0.12858220  1
  O  O51  1  0.46200245  0.39367817  0.62858220  1
  O  O52  1  0.72356691  0.89687626  0.99730466  1
  O  O53  1  0.27643309  0.60312374  0.49730466  1
  O  O54  1  0.27643309  0.10312374  0.00269534  1
  O  O55  1  0.72356691  0.39687626  0.50269534  1
