# generated using pymatgen
data_Ni(N3O2)2
_symmetry_space_group_name_H-M   'P 1'
_cell_length_a   6.88910661
_cell_length_b   6.88910661
_cell_length_c   4.11606291
_cell_angle_alpha   63.69972243
_cell_angle_beta   63.69972243
_cell_angle_gamma   82.39970009
_symmetry_Int_Tables_number   1
_chemical_formula_structural   Ni(N3O2)2
_chemical_formula_sum   'Ni1 N6 O4'
_cell_volume   156.49822146
_cell_formula_units_Z   1
loop_
 _symmetry_equiv_pos_site_id
 _symmetry_equiv_pos_as_xyz
  1  'x, y, z'
loop_
 _atom_site_type_symbol
 _atom_site_label
 _atom_site_symmetry_multiplicity
 _atom_site_fract_x
 _atom_site_fract_y
 _atom_site_fract_z
 _atom_site_occupancy
  Ni  Ni0  1  0.00000000  -0.00000000  0.00000000  1
  N  N1  1  0.81588427  0.81588427  0.93766308  1
  N  N2  1  0.18411573  0.18411573  0.06233692  1
  N  N3  1  0.25086847  0.68201622  0.16695068  1
  N  N4  1  0.68201622  0.25086847  0.16695068  1
  N  N5  1  0.74913153  0.31798378  0.83304932  1
  N  N6  1  0.31798378  0.74913153  0.83304932  1
  O  O7  1  0.67856273  0.67856273  0.24196359  1
  O  O8  1  0.32143727  0.32143727  0.75803641  1
  O  O9  1  0.83224686  0.83224686  0.60142834  1
  O  O10  1  0.16775314  0.16775314  0.39857166  1
