# generated using pymatgen
data_Ca(Ni2Sn)2
_symmetry_space_group_name_H-M   'P 1'
_cell_length_a   6.72195608
_cell_length_b   6.72195584
_cell_length_c   6.72195626
_cell_angle_alpha   107.95993841
_cell_angle_beta   110.23210714
_cell_angle_gamma   110.23211041
_symmetry_Int_Tables_number   1
_chemical_formula_structural   Ca(Ni2Sn)2
_chemical_formula_sum   'Ca2 Ni8 Sn4'
_cell_volume   233.68946934
_cell_formula_units_Z   2
loop_
 _symmetry_equiv_pos_site_id
 _symmetry_equiv_pos_as_xyz
  1  'x, y, z'
loop_
 _atom_site_type_symbol
 _atom_site_label
 _atom_site_symmetry_multiplicity
 _atom_site_fract_x
 _atom_site_fract_y
 _atom_site_fract_z
 _atom_site_occupancy
  Sn  Sn0  1  0.50000000  0.15849311  0.34150689  1
  Sn  Sn1  1  0.18301377  0.34150689  0.84150689  1
  Sn  Sn2  1  0.81698623  0.65849311  0.15849311  1
  Sn  Sn3  1  0.50000000  0.84150689  0.65849311  1
  Ni  Ni4  1  0.50000000  0.47447261  0.69533606  1
  Ni  Ni5  1  0.22086344  0.69533606  0.19533606  1
  Ni  Ni6  1  0.77913656  0.97447261  0.47447261  1
  Ni  Ni7  1  0.77913656  0.30466394  0.80466394  1
  Ni  Ni8  1  0.22086344  0.02552739  0.52552739  1
  Ni  Ni9  1  0.50000000  0.19533606  0.97447261  1
  Ni  Ni10  1  0.50000000  0.80466394  0.02552739  1
  Ni  Ni11  1  0.50000000  0.52552739  0.30466394  1
  Ca  Ca12  1  0.00000000  0.25000000  0.25000000  1
  Ca  Ca13  1  0.00000000  0.75000000  0.75000000  1
