# generated using pymatgen
data_Ce11O20
_symmetry_space_group_name_H-M   'P 1'
_cell_length_a   6.76431974
_cell_length_b   6.77660898
_cell_length_c   10.28204984
_cell_angle_alpha   96.12245334
_cell_angle_beta   90.17614887
_cell_angle_gamma   99.72038151
_symmetry_Int_Tables_number   1
_chemical_formula_structural   Ce11O20
_chemical_formula_sum   'Ce11 O20'
_cell_volume   461.79730316
_cell_formula_units_Z   1
loop_
 _symmetry_equiv_pos_site_id
 _symmetry_equiv_pos_as_xyz
  1  'x, y, z'
loop_
 _atom_site_type_symbol
 _atom_site_label
 _atom_site_symmetry_multiplicity
 _atom_site_fract_x
 _atom_site_fract_y
 _atom_site_fract_z
 _atom_site_occupancy
  Ce  Ce0  1  0.00000000  0.00000000  0.00000000  1
  Ce  Ce1  1  0.17829765  0.10014440  0.36406328  1
  Ce  Ce2  1  0.82170235  0.89985560  0.63593672  1
  Ce  Ce3  1  0.11791084  0.55388239  0.17210563  1
  Ce  Ce4  1  0.88208916  0.44611761  0.82789437  1
  Ce  Ce5  1  0.27191018  0.63979561  0.52556392  1
  Ce  Ce6  1  0.72808982  0.36020439  0.47443608  1
  Ce  Ce7  1  0.35866772  0.14510201  0.72428814  1
  Ce  Ce8  1  0.64133228  0.85489799  0.27571186  1
  Ce  Ce9  1  0.47200677  0.73590670  0.91810965  1
  Ce  Ce10  1  0.52799323  0.26409330  0.08189035  1
  O  O11  1  0.13801211  0.65369594  0.95992383  1
  O  O12  1  0.86198789  0.34630406  0.04007617  1
  O  O13  1  0.03423468  0.16032565  0.79988339  1
  O  O14  1  0.96576532  0.83967435  0.20011661  1
  O  O15  1  0.04472386  0.43257754  0.37027174  1
  O  O16  1  0.95527614  0.56742246  0.62972826  1
  O  O17  1  0.15240194  0.94242453  0.56463939  1
  O  O18  1  0.84759806  0.05757547  0.43536061  1
  O  O19  1  0.33986644  0.03404226  0.93077498  1
  O  O20  1  0.66013356  0.96595774  0.06922502  1
  O  O21  1  0.19795820  0.22299559  0.15405103  1
  O  O22  1  0.80204180  0.77700441  0.84594897  1
  O  O23  1  0.30989588  0.79935343  0.33567611  1
  O  O24  1  0.69010412  0.20064657  0.66432389  1
  O  O25  1  0.36234917  0.32996463  0.54084467  1
  O  O26  1  0.63765083  0.67003537  0.45915533  1
  O  O27  1  0.45959690  0.81820208  0.70183464  1
  O  O28  1  0.54040310  0.18179792  0.29816536  1
  O  O29  1  0.46606143  0.59002173  0.12689331  1
  O  O30  1  0.53393857  0.40997827  0.87310669  1
