# generated using pymatgen
data_Sr3EuRhO6
_symmetry_space_group_name_H-M   'P 1'
_cell_length_a   6.90428429
_cell_length_b   6.90428430
_cell_length_c   6.90428403
_cell_angle_alpha   91.48485537
_cell_angle_beta   91.48485538
_cell_angle_gamma   91.48485863
_symmetry_Int_Tables_number   1
_chemical_formula_structural   Sr3EuRhO6
_chemical_formula_sum   'Sr6 Eu2 Rh2 O12'
_cell_volume   328.78390115
_cell_formula_units_Z   2
loop_
 _symmetry_equiv_pos_site_id
 _symmetry_equiv_pos_as_xyz
  1  'x, y, z'
loop_
 _atom_site_type_symbol
 _atom_site_label
 _atom_site_symmetry_multiplicity
 _atom_site_fract_x
 _atom_site_fract_y
 _atom_site_fract_z
 _atom_site_occupancy
  Sr  Sr0  1  0.61875327  0.88124673  0.25000000  1
  Sr  Sr1  1  0.25000000  0.61875327  0.88124673  1
  Sr  Sr2  1  0.88124673  0.25000000  0.61875327  1
  Sr  Sr3  1  0.38124673  0.11875327  0.75000000  1
  Sr  Sr4  1  0.75000000  0.38124673  0.11875327  1
  Sr  Sr5  1  0.11875327  0.75000000  0.38124673  1
  Eu  Eu6  1  0.25000000  0.25000000  0.25000000  1
  Eu  Eu7  1  0.75000000  0.75000000  0.75000000  1
  Rh  Rh8  1  0.00000000  0.00000000  0.00000000  1
  Rh  Rh9  1  0.50000000  0.50000000  0.50000000  1
  O  O10  1  0.28900783  0.94936311  0.08237271  1
  O  O11  1  0.08237271  0.28900783  0.94936311  1
  O  O12  1  0.94936311  0.08237271  0.28900783  1
  O  O13  1  0.55063689  0.21099217  0.41762729  1
  O  O14  1  0.41762729  0.55063689  0.21099217  1
  O  O15  1  0.21099217  0.41762729  0.55063689  1
  O  O16  1  0.71099217  0.05063689  0.91762729  1
  O  O17  1  0.91762729  0.71099217  0.05063689  1
  O  O18  1  0.05063689  0.91762729  0.71099217  1
  O  O19  1  0.44936311  0.78900783  0.58237271  1
  O  O20  1  0.58237271  0.44936311  0.78900783  1
  O  O21  1  0.78900783  0.58237271  0.44936311  1
