# generated using pymatgen
data_NdGeBO5
_symmetry_space_group_name_H-M   'P 1'
_cell_length_a   5.01000454
_cell_length_b   7.68111000
_cell_length_c   10.14340618
_cell_angle_alpha   90.00000000
_cell_angle_beta   91.94074831
_cell_angle_gamma   90.00000000
_symmetry_Int_Tables_number   1
_chemical_formula_structural   NdGeBO5
_chemical_formula_sum   'Nd4 Ge4 B4 O20'
_cell_volume   390.11866632
_cell_formula_units_Z   4
loop_
 _symmetry_equiv_pos_site_id
 _symmetry_equiv_pos_as_xyz
  1  'x, y, z'
loop_
 _atom_site_type_symbol
 _atom_site_label
 _atom_site_symmetry_multiplicity
 _atom_site_fract_x
 _atom_site_fract_y
 _atom_site_fract_z
 _atom_site_occupancy
  Nd  Nd0  1  0.99326283  0.89198621  0.32065815  1
  Nd  Nd1  1  0.00673717  0.39198621  0.17934185  1
  Nd  Nd2  1  0.00673717  0.10801379  0.67934185  1
  Nd  Nd3  1  0.99326283  0.60801379  0.82065815  1
  Ge  Ge4  1  0.52886026  0.23451124  0.42414991  1
  Ge  Ge5  1  0.47113974  0.73451124  0.07585009  1
  Ge  Ge6  1  0.47113974  0.76548876  0.57585009  1
  Ge  Ge7  1  0.52886026  0.26548876  0.92414991  1
  B  B8  1  0.54496582  0.90382596  0.83071909  1
  B  B9  1  0.45503418  0.40382596  0.66928091  1
  B  B10  1  0.45503418  0.09617404  0.16928091  1
  B  B11  1  0.54496582  0.59617404  0.33071909  1
  O  O12  1  0.26620054  0.89681607  0.81049021  1
  O  O13  1  0.73379946  0.39681607  0.68950979  1
  O  O14  1  0.73379946  0.10318393  0.18950979  1
  O  O15  1  0.26620054  0.60318393  0.31049021  1
  O  O16  1  0.66114802  0.78564571  0.93597406  1
  O  O17  1  0.33885198  0.28564571  0.56402594  1
  O  O18  1  0.33885198  0.21435429  0.06402594  1
  O  O19  1  0.66114802  0.71435429  0.43597406  1
  O  O20  1  0.70249661  0.83997265  0.70437463  1
  O  O21  1  0.29750339  0.33997265  0.79562537  1
  O  O22  1  0.29750339  0.16002735  0.29562537  1
  O  O23  1  0.70249661  0.66002735  0.20437463  1
  O  O24  1  0.22217674  0.91095386  0.52759183  1
  O  O25  1  0.77782326  0.41095386  0.97240817  1
  O  O26  1  0.77782326  0.08904614  0.47240817  1
  O  O27  1  0.22217674  0.58904614  0.02759183  1
  O  O28  1  0.32887275  0.92104166  0.15004359  1
  O  O29  1  0.67112725  0.42104166  0.34995641  1
  O  O30  1  0.67112725  0.07895834  0.84995641  1
  O  O31  1  0.32887275  0.57895834  0.65004359  1
