# generated using pymatgen
data_ScH13Cl2O7
_symmetry_space_group_name_H-M   'P 1'
_cell_length_a   7.24935022
_cell_length_b   8.70099538
_cell_length_c   15.66861061
_cell_angle_alpha   90.00000000
_cell_angle_beta   90.00000000
_cell_angle_gamma   90.00000000
_symmetry_Int_Tables_number   1
_chemical_formula_structural   ScH13Cl2O7
_chemical_formula_sum   'Sc4 H52 Cl8 O28'
_cell_volume   988.32210070
_cell_formula_units_Z   4
loop_
 _symmetry_equiv_pos_site_id
 _symmetry_equiv_pos_as_xyz
  1  'x, y, z'
loop_
 _atom_site_type_symbol
 _atom_site_label
 _atom_site_symmetry_multiplicity
 _atom_site_fract_x
 _atom_site_fract_y
 _atom_site_fract_z
 _atom_site_occupancy
  Cl  Cl0  1  0.00000000  0.16645060  0.29448079  1
  Cl  Cl1  1  0.00000000  0.83354940  0.70551921  1
  Cl  Cl2  1  0.50000000  0.66645060  0.20551921  1
  Cl  Cl3  1  0.50000000  0.33354940  0.79448079  1
  Cl  Cl4  1  0.00000000  0.77114551  0.11896802  1
  Cl  Cl5  1  0.00000000  0.22885449  0.88103198  1
  Cl  Cl6  1  0.50000000  0.27114551  0.38103198  1
  Cl  Cl7  1  0.50000000  0.72885449  0.61896802  1
  Sc  Sc8  1  0.00000000  0.63449515  0.42044625  1
  Sc  Sc9  1  0.00000000  0.36550485  0.57955375  1
  Sc  Sc10  1  0.50000000  0.13449515  0.07955375  1
  Sc  Sc11  1  0.50000000  0.86550485  0.92044625  1
  O  O12  1  0.00000000  0.81026680  0.31743626  1
  O  O13  1  0.00000000  0.18973320  0.68256374  1
  O  O14  1  0.50000000  0.31026680  0.18256374  1
  O  O15  1  0.50000000  0.68973320  0.81743626  1
  O  O16  1  0.00000000  0.39944162  0.44789986  1
  O  O17  1  0.00000000  0.60055838  0.55210014  1
  O  O18  1  0.50000000  0.89944162  0.05210014  1
  O  O19  1  0.50000000  0.10055838  0.94789986  1
  O  O20  1  0.21202520  0.54206016  0.33061591  1
  O  O21  1  0.21202520  0.45793984  0.66938409  1
  O  O22  1  0.28797480  0.04206016  0.16938409  1
  O  O23  1  0.28797480  0.95793984  0.83061591  1
  O  O24  1  0.78797480  0.45793984  0.66938409  1
  O  O25  1  0.78797480  0.54206016  0.33061591  1
  O  O26  1  0.71202520  0.95793984  0.83061591  1
  O  O27  1  0.71202520  0.04206016  0.16938409  1
  O  O28  1  0.22824611  0.78613650  0.45973434  1
  O  O29  1  0.22824611  0.21386350  0.54026566  1
  O  O30  1  0.27175389  0.28613650  0.04026566  1
  O  O31  1  0.27175389  0.71386350  0.95973434  1
  O  O32  1  0.77175389  0.21386350  0.54026566  1
  O  O33  1  0.77175389  0.78613650  0.45973434  1
  O  O34  1  0.72824611  0.71386350  0.95973434  1
  O  O35  1  0.72824611  0.28613650  0.04026566  1
  O  O36  1  0.00000000  0.40704585  0.14047430  1
  O  O37  1  0.00000000  0.59295415  0.85952570  1
  O  O38  1  0.50000000  0.90704585  0.35952570  1
  O  O39  1  0.50000000  0.09295415  0.64047430  1
  H  H40  1  0.00000000  0.78804468  0.25543813  1
  H  H41  1  0.00000000  0.21195532  0.74456187  1
  H  H42  1  0.50000000  0.28804468  0.24456187  1
  H  H43  1  0.50000000  0.71195532  0.75543813  1
  H  H44  1  0.00000000  0.92386148  0.32297893  1
  H  H45  1  0.00000000  0.07613852  0.67702107  1
  H  H46  1  0.50000000  0.42386148  0.17702107  1
  H  H47  1  0.50000000  0.57613852  0.82297893  1
  H  H48  1  0.00000000  0.31960271  0.40319826  1
  H  H49  1  0.00000000  0.68039729  0.59680174  1
  H  H50  1  0.50000000  0.81960271  0.09680174  1
  H  H51  1  0.50000000  0.18039729  0.90319826  1
  H  H52  1  0.29525524  0.59845990  0.29089151  1
  H  H53  1  0.29525524  0.40154010  0.70910849  1
  H  H54  1  0.20474476  0.09845990  0.20910849  1
  H  H55  1  0.20474476  0.90154010  0.79089151  1
  H  H56  1  0.70474476  0.40154010  0.70910849  1
  H  H57  1  0.70474476  0.59845990  0.29089151  1
  H  H58  1  0.79525524  0.90154010  0.79089151  1
  H  H59  1  0.79525524  0.09845990  0.20910849  1
  H  H60  1  0.28149428  0.45033957  0.34886439  1
  H  H61  1  0.28149428  0.54966043  0.65113561  1
  H  H62  1  0.21850572  0.95033957  0.15113561  1
  H  H63  1  0.21850572  0.04966043  0.84886439  1
  H  H64  1  0.71850572  0.54966043  0.65113561  1
  H  H65  1  0.71850572  0.45033957  0.34886439  1
  H  H66  1  0.78149428  0.04966043  0.84886439  1
  H  H67  1  0.78149428  0.95033957  0.15113561  1
  H  H68  1  0.29482105  0.76697551  0.51357111  1
  H  H69  1  0.29482105  0.23302449  0.48642889  1
  H  H70  1  0.20517895  0.26697551  0.98642889  1
  H  H71  1  0.20517895  0.73302449  0.01357111  1
  H  H72  1  0.70517895  0.23302449  0.48642889  1
  H  H73  1  0.70517895  0.76697551  0.51357111  1
  H  H74  1  0.79482105  0.73302449  0.01357111  1
  H  H75  1  0.79482105  0.26697551  0.98642889  1
  H  H76  1  0.31868832  0.83283302  0.41931493  1
  H  H77  1  0.31868832  0.16716698  0.58068507  1
  H  H78  1  0.18131168  0.33283302  0.08068507  1
  H  H79  1  0.18131168  0.66716698  0.91931493  1
  H  H80  1  0.68131168  0.16716698  0.58068507  1
  H  H81  1  0.68131168  0.83283302  0.41931493  1
  H  H82  1  0.81868832  0.66716698  0.91931493  1
  H  H83  1  0.81868832  0.33283302  0.08068507  1
  H  H84  1  0.00000000  0.52068606  0.14384700  1
  H  H85  1  0.00000000  0.47931394  0.85615300  1
  H  H86  1  0.50000000  0.02068606  0.35615300  1
  H  H87  1  0.50000000  0.97931394  0.64384700  1
  H  H88  1  0.00000000  0.36685958  0.19941185  1
  H  H89  1  0.00000000  0.63314042  0.80058815  1
  H  H90  1  0.50000000  0.86685958  0.30058815  1
  H  H91  1  0.50000000  0.13314042  0.69941185  1
