# generated using pymatgen
data_CeNiPt
_symmetry_space_group_name_H-M   'P 1'
_cell_length_a   4.20065021
_cell_length_b   7.74945370
_cell_length_c   6.97695466
_cell_angle_alpha   90.00000000
_cell_angle_beta   90.00000000
_cell_angle_gamma   90.00000000
_symmetry_Int_Tables_number   1
_chemical_formula_structural   CeNiPt
_chemical_formula_sum   'Ce4 Ni4 Pt4'
_cell_volume   227.11902113
_cell_formula_units_Z   4
loop_
 _symmetry_equiv_pos_site_id
 _symmetry_equiv_pos_as_xyz
  1  'x, y, z'
loop_
 _atom_site_type_symbol
 _atom_site_label
 _atom_site_symmetry_multiplicity
 _atom_site_fract_x
 _atom_site_fract_y
 _atom_site_fract_z
 _atom_site_occupancy
  Ce  Ce0  1  0.25000000  0.78812415  0.49972957  1
  Ce  Ce1  1  0.25000000  0.71187585  -0.00027043  1
  Ce  Ce2  1  0.75000000  0.21187585  0.50027043  1
  Ce  Ce3  1  0.75000000  0.28812415  0.00027043  1
  Ni  Ni4  1  0.25000000  0.40807827  0.68885882  1
  Ni  Ni5  1  0.25000000  0.09192173  0.18885882  1
  Ni  Ni6  1  0.75000000  0.59192173  0.31114118  1
  Ni  Ni7  1  0.75000000  0.90807827  0.81114118  1
  Pt  Pt8  1  0.25000000  0.08970017  0.77973757  1
  Pt  Pt9  1  0.25000000  0.41029983  0.27973757  1
  Pt  Pt10  1  0.75000000  0.91029983  0.22026243  1
  Pt  Pt11  1  0.75000000  0.58970017  0.72026243  1
