# generated using pymatgen
data_K2(ReSe2)3
_symmetry_space_group_name_H-M   'P 1'
_cell_length_a   10.14793196
_cell_length_b   10.14793206
_cell_length_c   12.52955593
_cell_angle_alpha   88.65268235
_cell_angle_beta   88.65268234
_cell_angle_gamma   60.64482849
_symmetry_Int_Tables_number   1
_chemical_formula_structural   K2(ReSe2)3
_chemical_formula_sum   'K8 Re12 Se24'
_cell_volume   1124.20532503
_cell_formula_units_Z   4
loop_
 _symmetry_equiv_pos_site_id
 _symmetry_equiv_pos_as_xyz
  1  'x, y, z'
loop_
 _atom_site_type_symbol
 _atom_site_label
 _atom_site_symmetry_multiplicity
 _atom_site_fract_x
 _atom_site_fract_y
 _atom_site_fract_z
 _atom_site_occupancy
  Re  Re0  1  0.31565043  0.00347781  0.52583087  1
  Re  Re1  1  0.99652219  0.68434957  0.97416913  1
  Re  Re2  1  0.68434957  0.99652219  0.47416913  1
  Re  Re3  1  0.00347781  0.31565043  0.02583087  1
  Re  Re4  1  0.46999123  0.11262667  0.62558395  1
  Re  Re5  1  0.88737333  0.53000877  0.87441605  1
  Re  Re6  1  0.53000877  0.88737333  0.37441605  1
  Re  Re7  1  0.11262667  0.46999123  0.12558395  1
  Re  Re8  1  0.60095065  0.81839729  0.58127623  1
  Re  Re9  1  0.18160271  0.39904935  0.91872377  1
  Re  Re10  1  0.39904935  0.18160271  0.41872377  1
  Re  Re11  1  0.81839729  0.60095065  0.08127623  1
  K  K12  1  0.39738859  0.60261141  0.75000000  1
  K  K13  1  0.60261141  0.39738859  0.25000000  1
  K  K14  1  0.78359434  0.21640566  0.75000000  1
  K  K15  1  0.21640566  0.78359434  0.25000000  1
  K  K16  1  0.64881125  0.12212388  0.01686373  1
  K  K17  1  0.87787612  0.35118875  0.48313627  1
  K  K18  1  0.35118875  0.87787612  0.98313627  1
  K  K19  1  0.12212388  0.64881125  0.51686373  1
  Se  Se20  1  0.25381416  0.07192690  0.33051827  1
  Se  Se21  1  0.92807310  0.74618584  0.16948173  1
  Se  Se22  1  0.74618584  0.92807310  0.66948173  1
  Se  Se23  1  0.07192690  0.25381416  0.83051827  1
  Se  Se24  1  0.71513490  0.79916887  0.93081908  1
  Se  Se25  1  0.20083113  0.28486510  0.56918092  1
  Se  Se26  1  0.28486510  0.20083113  0.06918092  1
  Se  Se27  1  0.79916887  0.71513490  0.43081908  1
  Se  Se28  1  0.61071707  0.05991686  0.27910846  1
  Se  Se29  1  0.94008314  0.38928293  0.22089154  1
  Se  Se30  1  0.38928293  0.94008314  0.72089154  1
  Se  Se31  1  0.05991686  0.61071707  0.77910846  1
  Se  Se32  1  0.55138567  0.28024000  0.51853390  1
  Se  Se33  1  0.71976000  0.44861433  0.98146610  1
  Se  Se34  1  0.44861433  0.71976000  0.48146610  1
  Se  Se35  1  0.28024000  0.55138567  0.01853390  1
  Se  Se36  1  0.99592339  0.06853604  0.08110944  1
  Se  Se37  1  0.93146396  0.00407661  0.41889056  1
  Se  Se38  1  0.00407661  0.93146396  0.91889056  1
  Se  Se39  1  0.06853604  0.99592339  0.58110944  1
  Se  Se40  1  0.43853303  0.26487458  0.80404021  1
  Se  Se41  1  0.73512542  0.56146697  0.69595979  1
  Se  Se42  1  0.56146697  0.73512542  0.19595979  1
  Se  Se43  1  0.26487458  0.43853303  0.30404021  1
