# generated using pymatgen
data_Eu(ErS2)2
_symmetry_space_group_name_H-M   'P 1'
_cell_length_a   3.94289710
_cell_length_b   11.88883294
_cell_length_c   14.20438450
_cell_angle_alpha   90.00000000
_cell_angle_beta   90.00000000
_cell_angle_gamma   90.00000000
_symmetry_Int_Tables_number   1
_chemical_formula_structural   Eu(ErS2)2
_chemical_formula_sum   'Eu4 Er8 S16'
_cell_volume   665.85104766
_cell_formula_units_Z   4
loop_
 _symmetry_equiv_pos_site_id
 _symmetry_equiv_pos_as_xyz
  1  'x, y, z'
loop_
 _atom_site_type_symbol
 _atom_site_label
 _atom_site_symmetry_multiplicity
 _atom_site_fract_x
 _atom_site_fract_y
 _atom_site_fract_z
 _atom_site_occupancy
  Eu  Eu0  1  0.75000000  0.24215919  0.33782904  1
  Eu  Eu1  1  0.25000000  0.75784081  0.66217096  1
  Eu  Eu2  1  0.75000000  0.74215919  0.16217096  1
  Eu  Eu3  1  0.25000000  0.25784081  0.83782904  1
  Er  Er4  1  0.75000000  0.58112850  0.89975582  1
  Er  Er5  1  0.25000000  0.41887150  0.10024418  1
  Er  Er6  1  0.75000000  0.08112850  0.60024418  1
  Er  Er7  1  0.25000000  0.91887150  0.39975582  1
  Er  Er8  1  0.75000000  0.56706381  0.38955810  1
  Er  Er9  1  0.25000000  0.43293619  0.61044190  1
  Er  Er10  1  0.75000000  0.06706381  0.11044190  1
  Er  Er11  1  0.25000000  0.93293619  0.88955810  1
  S  S12  1  0.75000000  0.86893504  0.52825623  1
  S  S13  1  0.25000000  0.13106496  0.47174377  1
  S  S14  1  0.75000000  0.36893504  0.97174377  1
  S  S15  1  0.25000000  0.63106496  0.02825623  1
  S  S16  1  0.75000000  0.97714802  0.28415184  1
  S  S17  1  0.25000000  0.02285198  0.71584816  1
  S  S18  1  0.75000000  0.47714802  0.21584816  1
  S  S19  1  0.25000000  0.52285198  0.78415184  1
  S  S20  1  0.75000000  0.58782446  0.57888318  1
  S  S21  1  0.25000000  0.41217554  0.42111682  1
  S  S22  1  0.75000000  0.08782446  0.92111682  1
  S  S23  1  0.25000000  0.91217554  0.07888318  1
  S  S24  1  0.75000000  0.79260368  0.82434561  1
  S  S25  1  0.25000000  0.20739632  0.17565439  1
  S  S26  1  0.75000000  0.29260368  0.67565439  1
  S  S27  1  0.25000000  0.70739632  0.32434561  1
