# generated using pymatgen
data_Mg2B4Ru5
_symmetry_space_group_name_H-M   'P 1'
_cell_length_a   2.96324423
_cell_length_b   8.43703872
_cell_length_c   10.06579296
_cell_angle_alpha   90.00000000
_cell_angle_beta   90.00000000
_cell_angle_gamma   90.00000000
_symmetry_Int_Tables_number   1
_chemical_formula_structural   Mg2B4Ru5
_chemical_formula_sum   'Mg4 B8 Ru10'
_cell_volume   251.65495326
_cell_formula_units_Z   2
loop_
 _symmetry_equiv_pos_site_id
 _symmetry_equiv_pos_as_xyz
  1  'x, y, z'
loop_
 _atom_site_type_symbol
 _atom_site_label
 _atom_site_symmetry_multiplicity
 _atom_site_fract_x
 _atom_site_fract_y
 _atom_site_fract_z
 _atom_site_occupancy
  Ru  Ru0  1  0.00000000  0.39559229  0.73811737  1
  Ru  Ru1  1  0.00000000  0.60440771  0.26188263  1
  Ru  Ru2  1  0.00000000  0.89559229  0.76188263  1
  Ru  Ru3  1  0.00000000  0.10440771  0.23811737  1
  Ru  Ru4  1  0.00000000  0.00000000  0.50000000  1
  Ru  Ru5  1  0.00000000  0.50000000  0.00000000  1
  Ru  Ru6  1  0.00000000  0.65589507  0.54796067  1
  Ru  Ru7  1  0.00000000  0.34410493  0.45203933  1
  Ru  Ru8  1  0.00000000  0.15589507  0.95203933  1
  Ru  Ru9  1  0.00000000  0.84410493  0.04796067  1
  Mg  Mg10  1  0.50000000  0.64870169  0.81545203  1
  Mg  Mg11  1  0.50000000  0.35129831  0.18454797  1
  Mg  Mg12  1  0.50000000  0.14870169  0.68454797  1
  Mg  Mg13  1  0.50000000  0.85129831  0.31545203  1
  B  B14  1  0.50000000  0.85212965  0.60253290  1
  B  B15  1  0.50000000  0.14787035  0.39746710  1
  B  B16  1  0.50000000  0.35212965  0.89746710  1
  B  B17  1  0.50000000  0.64787035  0.10253290  1
  B  B18  1  0.50000000  0.95981619  0.91127545  1
  B  B19  1  0.50000000  0.04018381  0.08872455  1
  B  B20  1  0.50000000  0.45981619  0.58872455  1
  B  B21  1  0.50000000  0.54018381  0.41127545  1
