# generated using pymatgen
data_Rb2(ReSe2)3
_symmetry_space_group_name_H-M   'P 1'
_cell_length_a   10.31498218
_cell_length_b   10.35244447
_cell_length_c   12.68490278
_cell_angle_alpha   91.01317056
_cell_angle_beta   90.00000000
_cell_angle_gamma   119.88036673
_symmetry_Int_Tables_number   1
_chemical_formula_structural   Rb2(ReSe2)3
_chemical_formula_sum   'Rb8 Re12 Se24'
_cell_volume   1174.25149693
_cell_formula_units_Z   4
loop_
 _symmetry_equiv_pos_site_id
 _symmetry_equiv_pos_as_xyz
  1  'x, y, z'
loop_
 _atom_site_type_symbol
 _atom_site_label
 _atom_site_symmetry_multiplicity
 _atom_site_fract_x
 _atom_site_fract_y
 _atom_site_fract_z
 _atom_site_occupancy
  Re  Re0  1  0.00306045  0.32159500  0.47729579  1
  Re  Re1  1  0.68146545  0.67840500  0.02270421  1
  Re  Re2  1  0.99693955  0.67840500  0.52270421  1
  Re  Re3  1  0.31853455  0.32159500  0.97729579  1
  Re  Re4  1  0.11402306  0.57914860  0.37638733  1
  Re  Re5  1  0.53487446  0.42085140  0.12361267  1
  Re  Re6  1  0.88597694  0.42085140  0.62361267  1
  Re  Re7  1  0.46512554  0.57914860  0.87638733  1
  Re  Re8  1  0.82211003  0.42260221  0.41810480  1
  Re  Re9  1  0.39950782  0.57739779  0.08189520  1
  Re  Re10  1  0.17788997  0.57739779  0.58189520  1
  Re  Re11  1  0.60049218  0.42260221  0.91810480  1
  Rb  Rb12  1  0.61331084  0.00000000  0.25000000  1
  Rb  Rb13  1  0.38668916  0.00000000  0.75000000  1
  Rb  Rb14  1  0.21747923  0.00000000  0.25000000  1
  Rb  Rb15  1  0.78252077  0.00000000  0.75000000  1
  Rb  Rb16  1  0.13453938  0.77435954  0.98075726  1
  Rb  Rb17  1  0.36017984  0.22564046  0.51924274  1
  Rb  Rb18  1  0.86546062  0.22564046  0.01924274  1
  Rb  Rb19  1  0.63982016  0.77435954  0.48075726  1
  Se  Se20  1  0.06813735  0.32956066  0.67104888  1
  Se  Se21  1  0.73857669  0.67043934  0.82895112  1
  Se  Se22  1  0.93186265  0.67043934  0.32895112  1
  Se  Se23  1  0.26142331  0.32956066  0.17104888  1
  Se  Se24  1  0.80040117  0.51930796  0.06427798  1
  Se  Se25  1  0.28109322  0.48069204  0.43572202  1
  Se  Se26  1  0.19959883  0.48069204  0.93572202  1
  Se  Se27  1  0.71890678  0.51930796  0.56427798  1
  Se  Se28  1  0.05394206  0.66711825  0.71633009  1
  Se  Se29  1  0.38682381  0.33288175  0.78366991  1
  Se  Se30  1  0.94605794  0.33288175  0.28366991  1
  Se  Se31  1  0.61317619  0.66711825  0.21633009  1
  Se  Se32  1  0.27874799  0.82199239  0.48102789  1
  Se  Se33  1  0.45675561  0.17800761  0.01897211  1
  Se  Se34  1  0.72125201  0.17800761  0.51897211  1
  Se  Se35  1  0.54324439  0.82199239  0.98102789  1
  Se  Se36  1  0.07432413  0.06993380  0.92269968  1
  Se  Se37  1  0.00439033  0.93006620  0.57730032  1
  Se  Se38  1  0.92567587  0.93006620  0.07730032  1
  Se  Se39  1  0.99560967  0.06993380  0.42269968  1
  Se  Se40  1  0.26752002  0.69535492  0.19989372  1
  Se  Se41  1  0.57216510  0.30464508  0.30010628  1
  Se  Se42  1  0.73247998  0.30464508  0.80010628  1
  Se  Se43  1  0.42783490  0.69535492  0.69989372  1
