# generated using pymatgen
data_CsUN3O11
_symmetry_space_group_name_H-M   'P 1'
_cell_length_a   8.75884401
_cell_length_b   8.75884429
_cell_length_c   8.75884452
_cell_angle_alpha   68.59567934
_cell_angle_beta   68.59567860
_cell_angle_gamma   68.59567827
_symmetry_Int_Tables_number   1
_chemical_formula_structural   CsUN3O11
_chemical_formula_sum   'Cs2 U2 N6 O22'
_cell_volume   561.25488182
_cell_formula_units_Z   2
loop_
 _symmetry_equiv_pos_site_id
 _symmetry_equiv_pos_as_xyz
  1  'x, y, z'
loop_
 _atom_site_type_symbol
 _atom_site_label
 _atom_site_symmetry_multiplicity
 _atom_site_fract_x
 _atom_site_fract_y
 _atom_site_fract_z
 _atom_site_occupancy
  Cs  Cs0  1  0.00000000  0.00000000  0.00000000  1
  Cs  Cs1  1  0.50000000  0.50000000  0.50000000  1
  U  U2  1  0.25000000  0.25000000  0.25000000  1
  U  U3  1  0.75000000  0.75000000  0.75000000  1
  O  O4  1  0.15986822  0.15986822  0.15986822  1
  O  O5  1  0.34013178  0.34013178  0.34013178  1
  O  O6  1  0.84013178  0.84013178  0.84013178  1
  O  O7  1  0.65986822  0.65986822  0.65986822  1
  N  N8  1  0.54835173  0.95164827  0.25000000  1
  N  N9  1  0.25000000  0.54835173  0.95164827  1
  N  N10  1  0.95164827  0.25000000  0.54835173  1
  N  N11  1  0.45164827  0.04835173  0.75000000  1
  N  N12  1  0.75000000  0.45164827  0.04835173  1
  N  N13  1  0.04835173  0.75000000  0.45164827  1
  O  O14  1  0.67276766  0.82723234  0.25000000  1
  O  O15  1  0.25000000  0.67276766  0.82723234  1
  O  O16  1  0.82723234  0.25000000  0.67276766  1
  O  O17  1  0.32723234  0.17276766  0.75000000  1
  O  O18  1  0.75000000  0.32723234  0.17276766  1
  O  O19  1  0.17276766  0.75000000  0.32723234  1
  O  O20  1  0.54613694  0.08963296  0.12732964  1
  O  O21  1  0.12732964  0.54613694  0.08963296  1
  O  O22  1  0.08963296  0.12732964  0.54613694  1
  O  O23  1  0.41036704  0.95386306  0.37267036  1
  O  O24  1  0.37267036  0.41036704  0.95386306  1
  O  O25  1  0.95386306  0.37267036  0.41036704  1
  O  O26  1  0.45386306  0.91036704  0.87267036  1
  O  O27  1  0.87267036  0.45386306  0.91036704  1
  O  O28  1  0.91036704  0.87267036  0.45386306  1
  O  O29  1  0.58963296  0.04613694  0.62732964  1
  O  O30  1  0.62732964  0.58963296  0.04613694  1
  O  O31  1  0.04613694  0.62732964  0.58963296  1
