# generated using pymatgen
data_NdAg(PO3)4
_symmetry_space_group_name_H-M   'P 1'
_cell_length_a   7.37338379
_cell_length_b   10.06763249
_cell_length_c   13.36581729
_cell_angle_alpha   90.00000000
_cell_angle_beta   90.00000000
_cell_angle_gamma   90.48365595
_symmetry_Int_Tables_number   1
_chemical_formula_structural   NdAg(PO3)4
_chemical_formula_sum   'Nd4 Ag4 P16 O48'
_cell_volume   992.14292633
_cell_formula_units_Z   4
loop_
 _symmetry_equiv_pos_site_id
 _symmetry_equiv_pos_as_xyz
  1  'x, y, z'
loop_
 _atom_site_type_symbol
 _atom_site_label
 _atom_site_symmetry_multiplicity
 _atom_site_fract_x
 _atom_site_fract_y
 _atom_site_fract_z
 _atom_site_occupancy
  Nd  Nd0  1  0.98760336  0.02208682  0.21850902  1
  Nd  Nd1  1  0.51239664  0.47791318  0.71850902  1
  Nd  Nd2  1  0.01239664  0.97791318  0.78149098  1
  Nd  Nd3  1  0.48760336  0.52208682  0.28149098  1
  Ag  Ag4  1  1.00078729  0.43257981  0.27724605  1
  Ag  Ag5  1  0.49921271  0.06742019  0.77724605  1
  Ag  Ag6  1  -0.00078729  0.56742019  0.72275395  1
  Ag  Ag7  1  0.50078729  0.93257981  0.22275395  1
  P  P8  1  0.74636313  0.25337406  0.40014572  1
  P  P9  1  0.75363687  0.24662594  0.90014572  1
  P  P10  1  0.25363687  0.74662594  0.59985428  1
  P  P11  1  0.24636313  0.75337406  0.09985428  1
  P  P12  1  0.23524939  0.29770046  0.09004372  1
  P  P13  1  0.26475061  0.20229954  0.59004372  1
  P  P14  1  0.76475061  0.70229954  0.90995628  1
  P  P15  1  0.73524939  0.79770046  0.40995628  1
  P  P16  1  0.62343260  0.23693174  0.11357161  1
  P  P17  1  0.87656740  0.26306826  0.61357161  1
  P  P18  1  0.37656740  0.76306826  0.88642839  1
  P  P19  1  0.12343260  0.73693174  0.38642839  1
  P  P20  1  0.35386008  0.19590695  0.37411960  1
  P  P21  1  0.14613992  0.30409305  0.87411960  1
  P  P22  1  0.64613992  0.80409305  0.62588040  1
  P  P23  1  0.85386008  0.69590695  0.12588040  1
  O  O24  1  0.71637603  0.29211344  0.01345577  1
  O  O25  1  0.78362397  0.20788656  0.51345577  1
  O  O26  1  0.28362397  0.70788656  0.98654423  1
  O  O27  1  0.21637603  0.79211344  0.48654423  1
  O  O28  1  0.89738237  0.19964040  0.33564764  1
  O  O29  1  0.60261763  0.30035960  0.83564764  1
  O  O30  1  0.10261763  0.80035960  0.66435236  1
  O  O31  1  0.39738237  0.69964040  0.16435236  1
  O  O32  1  0.56821006  0.16434367  0.37916444  1
  O  O33  1  0.93178994  0.33565633  0.87916444  1
  O  O34  1  0.43178994  0.83565633  0.62083556  1
  O  O35  1  0.06821006  0.66434367  0.12083556  1
  O  O36  1  0.70918075  0.40008284  0.39282306  1
  O  O37  1  0.79081925  0.09991716  0.89282306  1
  O  O38  1  0.29081925  0.59991716  0.60717694  1
  O  O39  1  0.20918075  0.90008284  0.10717694  1
  O  O40  1  0.28095316  0.13823701  0.47945514  1
  O  O41  1  0.21904684  0.36176299  0.97945514  1
  O  O42  1  0.71904684  0.86176299  0.52054486  1
  O  O43  1  0.78095316  0.63823701  0.02054486  1
  O  O44  1  0.41653107  0.20936547  0.07953502  1
  O  O45  1  0.08346893  0.29063453  0.57953502  1
  O  O46  1  0.58346893  0.79063453  0.92046498  1
  O  O47  1  0.91653107  0.70936547  0.42046498  1
  O  O48  1  0.08018450  0.20388255  0.10979151  1
  O  O49  1  0.41981550  0.29611745  0.60979151  1
  O  O50  1  0.91981550  0.79611745  0.89020849  1
  O  O51  1  0.58018450  0.70388255  0.39020849  1
  O  O52  1  0.26419642  0.41288436  0.16036966  1
  O  O53  1  0.23580358  0.08711564  0.66036966  1
  O  O54  1  0.73580358  0.58711564  0.83963034  1
  O  O55  1  0.76419642  0.91288436  0.33963034  1
  O  O56  1  0.70104232  0.10478801  0.14305381  1
  O  O57  1  0.79895768  0.39521199  0.64305381  1
  O  O58  1  0.29895768  0.89521199  0.85694619  1
  O  O59  1  0.20104232  0.60478801  0.35694619  1
  O  O60  1  0.63204789  0.34801475  0.18780554  1
  O  O61  1  0.86795211  0.15198525  0.68780554  1
  O  O62  1  0.36795211  0.65198525  0.81219446  1
  O  O63  1  0.13204789  0.84801475  0.31219446  1
  O  O64  1  0.27927171  0.10661053  0.29357526  1
  O  O65  1  0.22072829  0.39338947  0.79357526  1
  O  O66  1  0.72072829  0.89338947  0.70642474  1
  O  O67  1  0.77927171  0.60661053  0.20642474  1
  O  O68  1  0.32554635  0.34305856  0.36754918  1
  O  O69  1  0.17445365  0.15694144  0.86754918  1
  O  O70  1  0.67445365  0.65694144  0.63245082  1
  O  O71  1  0.82554635  0.84305856  0.13245082  1
