# generated using pymatgen
data_Cs3P7
_symmetry_space_group_name_H-M   'P 1'
_cell_length_a   9.25153431
_cell_length_b   9.25153431
_cell_length_c   16.94100139
_cell_angle_alpha   90.00000000
_cell_angle_beta   90.00000000
_cell_angle_gamma   90.00000000
_symmetry_Int_Tables_number   1
_chemical_formula_structural   Cs3P7
_chemical_formula_sum   'Cs12 P28'
_cell_volume   1449.99533715
_cell_formula_units_Z   4
loop_
 _symmetry_equiv_pos_site_id
 _symmetry_equiv_pos_as_xyz
  1  'x, y, z'
loop_
 _atom_site_type_symbol
 _atom_site_label
 _atom_site_symmetry_multiplicity
 _atom_site_fract_x
 _atom_site_fract_y
 _atom_site_fract_z
 _atom_site_occupancy
  Cs  Cs0  1  0.74598298  0.38086718  0.00084127  1
  Cs  Cs1  1  0.61913282  0.74598298  0.25084127  1
  Cs  Cs2  1  0.38086718  0.25401702  0.75084127  1
  Cs  Cs3  1  0.25401702  0.61913282  0.50084127  1
  Cs  Cs4  1  0.41770957  0.73561404  0.83826306  1
  Cs  Cs5  1  0.26438596  0.41770957  0.08826306  1
  Cs  Cs6  1  0.73561404  0.58229043  0.58826306  1
  Cs  Cs7  1  0.58229043  0.26438596  0.33826306  1
  Cs  Cs8  1  0.02400397  0.83797332  0.99533346  1
  Cs  Cs9  1  0.16202668  0.02400397  0.24533346  1
  Cs  Cs10  1  0.83797332  0.97599603  0.74533346  1
  Cs  Cs11  1  0.97599603  0.16202668  0.49533346  1
  P  P12  1  0.78985300  0.59871513  0.81046898  1
  P  P13  1  0.40128487  0.78985300  0.06046898  1
  P  P14  1  0.59871513  0.21014700  0.56046898  1
  P  P15  1  0.21014700  0.40128487  0.31046898  1
  P  P16  1  0.44478704  0.09370951  0.94518063  1
  P  P17  1  0.90629049  0.44478704  0.19518063  1
  P  P18  1  0.09370951  0.55521296  0.69518063  1
  P  P19  1  0.55521296  0.90629049  0.44518063  1
  P  P20  1  0.10557615  0.47670418  0.89095813  1
  P  P21  1  0.52329582  0.10557615  0.14095813  1
  P  P22  1  0.47670418  0.89442385  0.64095813  1
  P  P23  1  0.89442385  0.52329582  0.39095813  1
  P  P24  1  0.35825632  0.02359234  0.05927282  1
  P  P25  1  0.97640766  0.35825632  0.30927282  1
  P  P26  1  0.02359234  0.64174368  0.80927282  1
  P  P27  1  0.64174368  0.97640766  0.55927282  1
  P  P28  1  0.62628592  0.79653265  0.03174538  1
  P  P29  1  0.20346735  0.62628592  0.28174538  1
  P  P30  1  0.79653265  0.37371408  0.78174538  1
  P  P31  1  0.37371408  0.20346735  0.53174538  1
  P  P32  1  0.99846534  0.34463745  0.70509044  1
  P  P33  1  0.65536255  0.99846534  0.95509044  1
  P  P34  1  0.34463745  0.00153466  0.45509044  1
  P  P35  1  0.00153466  0.65536255  0.20509044  1
  P  P36  1  0.00774537  0.29030391  0.83804582  1
  P  P37  1  0.70969609  0.00774537  0.08804582  1
  P  P38  1  0.29030391  0.99225463  0.58804582  1
  P  P39  1  0.99225463  0.70969609  0.33804582  1
