# generated using pymatgen
data_Nb2Cu3O8
_symmetry_space_group_name_H-M   'P 1'
_cell_length_a   5.25898781
_cell_length_b   5.52568483
_cell_length_c   6.21423275
_cell_angle_alpha   73.52601621
_cell_angle_beta   81.79129646
_cell_angle_gamma   66.66136042
_symmetry_Int_Tables_number   1
_chemical_formula_structural   Nb2Cu3O8
_chemical_formula_sum   'Nb2 Cu3 O8'
_cell_volume   158.90555108
_cell_formula_units_Z   1
loop_
 _symmetry_equiv_pos_site_id
 _symmetry_equiv_pos_as_xyz
  1  'x, y, z'
loop_
 _atom_site_type_symbol
 _atom_site_label
 _atom_site_symmetry_multiplicity
 _atom_site_fract_x
 _atom_site_fract_y
 _atom_site_fract_z
 _atom_site_occupancy
  Nb  Nb0  1  0.78178443  0.45797690  0.34607399  1
  Nb  Nb1  1  0.21812115  0.54201510  0.65399478  1
  Cu  Cu2  1  0.00006015  -0.00000688  0.00000620  1
  Cu  Cu3  1  0.53631071  0.93311644  0.75355916  1
  Cu  Cu4  1  0.46367806  0.06687349  0.24633474  1
  O  O5  1  0.76124983  0.79960610  0.10715645  1
  O  O6  1  0.23883604  0.20035806  0.89284209  1
  O  O7  1  0.73721647  0.25431296  0.16708253  1
  O  O8  1  0.26284883  0.74572918  0.83286944  1
  O  O9  1  0.63104148  0.26256864  0.62411277  1
  O  O10  1  0.36892689  0.73735738  0.37589714  1
  O  O11  1  0.83003258  0.68577331  0.60115300  1
  O  O12  1  0.16989338  0.31431932  0.39891769  1
