# generated using pymatgen
data_CsUNbO6
_symmetry_space_group_name_H-M   'P 1'
_cell_length_a   7.73677456
_cell_length_b   8.81426010
_cell_length_c   10.77440104
_cell_angle_alpha   90.00000000
_cell_angle_beta   104.03457008
_cell_angle_gamma   90.00000000
_symmetry_Int_Tables_number   1
_chemical_formula_structural   CsUNbO6
_chemical_formula_sum   'Cs4 U4 Nb4 O24'
_cell_volume   712.81633347
_cell_formula_units_Z   4
loop_
 _symmetry_equiv_pos_site_id
 _symmetry_equiv_pos_as_xyz
  1  'x, y, z'
loop_
 _atom_site_type_symbol
 _atom_site_label
 _atom_site_symmetry_multiplicity
 _atom_site_fract_x
 _atom_site_fract_y
 _atom_site_fract_z
 _atom_site_occupancy
  U  U0  1  0.01256073  0.98304912  0.32170538  1
  U  U1  1  0.98743927  0.48304912  0.17829462  1
  U  U2  1  0.98743927  0.01695088  0.67829462  1
  U  U3  1  0.01256073  0.51695088  0.82170538  1
  Nb  Nb4  1  0.11205472  0.15077776  0.05574847  1
  Nb  Nb5  1  0.88794528  0.65077776  0.44425153  1
  Nb  Nb6  1  0.88794528  0.84922224  0.94425153  1
  Nb  Nb7  1  0.11205472  0.34922224  0.55574847  1
  Cs  Cs8  1  0.53726106  0.22875703  0.85863603  1
  Cs  Cs9  1  0.46273894  0.72875703  0.64136397  1
  Cs  Cs10  1  0.46273894  0.77124297  0.14136397  1
  Cs  Cs11  1  0.53726106  0.27124297  0.35863603  1
  O  O12  1  0.77317091  0.02123900  0.26905859  1
  O  O13  1  0.22682909  0.52123900  0.23094141  1
  O  O14  1  0.22682909  0.97876100  0.73094141  1
  O  O15  1  0.77317091  0.47876100  0.76905859  1
  O  O16  1  0.74833328  0.05850505  0.62745584  1
  O  O17  1  0.25166672  0.55850505  0.87254416  1
  O  O18  1  0.25166672  0.94149495  0.37254416  1
  O  O19  1  0.74833328  0.44149495  0.12745584  1
  O  O20  1  0.96712833  0.05868321  0.88861129  1
  O  O21  1  0.03287167  0.55868321  0.61138871  1
  O  O22  1  0.03287167  0.94131679  0.11138871  1
  O  O23  1  0.96712833  0.44131679  0.38861129  1
  O  O24  1  0.03421784  0.14585228  0.49489913  1
  O  O25  1  0.96578216  0.64585228  0.00510087  1
  O  O26  1  0.96578216  0.85414772  0.50510087  1
  O  O27  1  0.03421784  0.35414772  0.99489913  1
  O  O28  1  0.34635691  0.13489393  0.07114660  1
  O  O29  1  0.65364309  0.63489393  0.42885340  1
  O  O30  1  0.65364309  0.86510607  0.92885340  1
  O  O31  1  0.34635691  0.36510607  0.57114660  1
  O  O32  1  0.07151817  0.21236733  0.22151056  1
  O  O33  1  0.92848183  0.71236733  0.27848944  1
  O  O34  1  0.92848183  0.78763267  0.77848944  1
  O  O35  1  0.07151817  0.28763267  0.72151056  1
