# generated using pymatgen
data_Nb2Hg3S(O2F5)2
_symmetry_space_group_name_H-M   'P 1'
_cell_length_a   9.31479724
_cell_length_b   9.31479700
_cell_length_c   10.48363128
_cell_angle_alpha   103.33603381
_cell_angle_beta   103.33603343
_cell_angle_gamma   118.73694630
_symmetry_Int_Tables_number   1
_chemical_formula_structural   Nb2Hg3S(O2F5)2
_chemical_formula_sum   'Nb4 Hg6 S2 O8 F20'
_cell_volume   711.17367036
_cell_formula_units_Z   2
loop_
 _symmetry_equiv_pos_site_id
 _symmetry_equiv_pos_as_xyz
  1  'x, y, z'
loop_
 _atom_site_type_symbol
 _atom_site_label
 _atom_site_symmetry_multiplicity
 _atom_site_fract_x
 _atom_site_fract_y
 _atom_site_fract_z
 _atom_site_occupancy
  Hg  Hg0  1  0.99851168  0.99851168  0.00000000  1
  Hg  Hg1  1  0.74851168  0.24851168  0.50000000  1
  Hg  Hg2  1  0.02018039  0.25074139  0.19926868  1
  Hg  Hg3  1  0.05147271  0.82091171  0.80073132  1
  Hg  Hg4  1  1.00074139  0.27018039  0.69926868  1
  Hg  Hg5  1  0.57091171  0.30147271  0.30073132  1
  Nb  Nb6  1  0.00998499  0.88982508  0.38589335  1
  Nb  Nb7  1  0.50393173  0.62409164  0.61410665  1
  Nb  Nb8  1  0.63982508  0.25998499  0.88589335  1
  Nb  Nb9  1  0.37409164  0.75393173  0.11410665  1
  S  S10  1  0.14510641  0.64510641  0.50000000  1
  S  S11  1  0.39510641  0.39510641  1.00000000  1
  F  F12  1  0.89357384  0.00980438  0.36243664  1
  F  F13  1  0.64736774  0.53113720  0.63756336  1
  F  F14  1  0.75980438  0.14357384  0.86243664  1
  F  F15  1  0.28113720  0.89736774  0.13756336  1
  F  F16  1  0.22779707  0.07895663  0.39206329  1
  F  F17  1  0.68689334  0.83573378  0.60793671  1
  F  F18  1  0.82895663  0.47779707  0.89206329  1
  F  F19  1  0.58573378  0.93689334  0.10793671  1
  F  F20  1  0.80287830  0.67816966  0.37464745  1
  F  F21  1  0.30352221  0.42823085  0.62535255  1
  F  F22  1  0.42816966  0.05287830  0.87464745  1
  F  F23  1  0.17823085  0.55352221  0.12535255  1
  F  F24  1  0.93195960  0.77755848  0.18240155  1
  F  F25  1  0.59515693  0.74955805  0.81759845  1
  F  F26  1  0.52755848  0.18195960  0.68240155  1
  F  F27  1  0.49955805  0.84515693  0.31759845  1
  F  F28  1  0.08128964  0.99762996  0.59134152  1
  F  F29  1  0.40628844  0.48994812  0.40865848  1
  F  F30  1  0.74762996  0.33128964  0.09134152  1
  F  F31  1  0.23994812  0.65628844  0.90865848  1
  O  O32  1  0.14514073  0.76880019  0.42924818  1
  O  O33  1  0.33955201  0.71589255  0.57075182  1
  O  O34  1  0.51880019  0.39514073  0.92924818  1
  O  O35  1  0.46589255  0.58955201  0.07075182  1
  O  O36  1  0.04251436  0.46099864  0.39242078  1
  O  O37  1  0.06857786  0.65009358  0.60757922  1
  O  O38  1  0.21099864  0.29251436  0.89242078  1
  O  O39  1  0.40009358  0.31857786  0.10757922  1
