# generated using pymatgen
data_Sc6C2I11
_symmetry_space_group_name_H-M   'P 1'
_cell_length_a   9.32546686
_cell_length_b   10.47131239
_cell_length_c   14.61058941
_cell_angle_alpha   90.85585843
_cell_angle_beta   75.47166678
_cell_angle_gamma   69.52854179
_symmetry_Int_Tables_number   1
_chemical_formula_structural   Sc6C2I11
_chemical_formula_sum   'Sc12 C4 I22'
_cell_volume   1285.56082453
_cell_formula_units_Z   2
loop_
 _symmetry_equiv_pos_site_id
 _symmetry_equiv_pos_as_xyz
  1  'x, y, z'
loop_
 _atom_site_type_symbol
 _atom_site_label
 _atom_site_symmetry_multiplicity
 _atom_site_fract_x
 _atom_site_fract_y
 _atom_site_fract_z
 _atom_site_occupancy
  I  I0  1  0.38669217  0.68726772  0.73014703  1
  I  I1  1  0.61330783  0.31273228  0.26985297  1
  I  I2  1  0.13366726  0.44442529  0.85019596  1
  I  I3  1  0.86633274  0.55557471  0.14980404  1
  I  I4  1  0.62608247  0.61979498  0.93853601  1
  I  I5  1  0.37391753  0.38020502  0.06146399  1
  I  I6  1  0.12094699  0.79468851  0.51818800  1
  I  I7  1  0.87905301  0.20531149  0.48181200  1
  I  I8  1  0.61841026  0.96888246  0.61002749  1
  I  I9  1  0.38158974  0.03111754  0.38997251  1
  I  I10  1  0.11797320  0.12975867  0.69373984  1
  I  I11  1  0.88202680  0.87024133  0.30626016  1
  I  I12  1  0.13882693  0.47692837  0.34510973  1
  I  I13  1  0.86117307  0.52307163  0.65489027  1
  I  I14  1  0.60955495  0.63406254  0.42964796  1
  I  I15  1  0.39044505  0.36593746  0.57035204  1
  I  I16  1  0.14814293  0.77618618  0.02456776  1
  I  I17  1  0.85185707  0.22381382  0.97543224  1
  I  I18  1  0.61662625  0.93878124  0.10696332  1
  I  I19  1  0.38337375  0.06121876  0.89303668  1
  I  I20  1  0.13033830  0.10520449  0.18689145  1
  I  I21  1  0.86966170  0.89479551  0.81310855  1
  Sc  Sc22  1  0.38964505  0.51933467  0.87986395  1
  Sc  Sc23  1  0.61035495  0.48066533  0.12013605  1
  Sc  Sc24  1  0.43636494  0.22313218  0.73524845  1
  Sc  Sc25  1  0.56363506  0.77686782  0.26475155  1
  Sc  Sc26  1  0.62369820  0.41344597  0.64668020  1
  Sc  Sc27  1  0.37630180  0.58655403  0.35331980  1
  Sc  Sc28  1  0.82346726  0.34524077  0.79632478  1
  Sc  Sc29  1  0.17653274  0.65475923  0.20367522  1
  Sc  Sc30  1  0.63117154  0.16128138  0.88843850  1
  Sc  Sc31  1  0.36882846  0.83871862  0.11156150  1
  Sc  Sc32  1  0.85665902  0.05635697  0.65208557  1
  Sc  Sc33  1  0.14334098  0.94364303  0.34791443  1
  C  C34  1  0.43236936  0.65383959  0.20130750  1
  C  C35  1  0.56763064  0.34616041  0.79869250  1
  C  C36  1  0.31409542  0.76978284  0.26163411  1
  C  C37  1  0.68590458  0.23021716  0.73836589  1
