# generated using pymatgen
data_Ta2Hg3S(O2F5)2
_symmetry_space_group_name_H-M   'P 1'
_cell_length_a   9.30622778
_cell_length_b   9.30622754
_cell_length_c   10.48936131
_cell_angle_alpha   103.36178355
_cell_angle_beta   103.36178321
_cell_angle_gamma   118.62279540
_symmetry_Int_Tables_number   1
_chemical_formula_structural   Ta2Hg3S(O2F5)2
_chemical_formula_sum   'Ta4 Hg6 S2 O8 F20'
_cell_volume   710.98906382
_cell_formula_units_Z   2
loop_
 _symmetry_equiv_pos_site_id
 _symmetry_equiv_pos_as_xyz
  1  'x, y, z'
loop_
 _atom_site_type_symbol
 _atom_site_label
 _atom_site_symmetry_multiplicity
 _atom_site_fract_x
 _atom_site_fract_y
 _atom_site_fract_z
 _atom_site_occupancy
  Hg  Hg0  1  0.99778086  0.99778086  0.00000000  1
  Hg  Hg1  1  0.74778086  0.24778086  0.50000000  1
  Hg  Hg2  1  0.02050578  0.25148861  0.19858212  1
  Hg  Hg3  1  0.05290650  0.82192366  0.80141788  1
  Hg  Hg4  1  0.00148861  0.27050578  0.69858212  1
  Hg  Hg5  1  0.57192366  0.30290650  0.30141788  1
  Ta  Ta6  1  0.01278124  0.89032215  0.38604083  1
  Ta  Ta7  1  0.50428131  0.62674041  0.61395917  1
  Ta  Ta8  1  0.64032215  0.26278124  0.88604083  1
  Ta  Ta9  1  0.37674041  0.75428131  0.11395917  1
  S  S10  1  0.14618685  0.64618685  0.50000000  1
  S  S11  1  0.39618685  0.39618685  0.00000000  1
  F  F12  1  0.89613432  0.00927224  0.36433465  1
  F  F13  1  0.64493759  0.53179967  0.63566535  1
  F  F14  1  0.75927224  0.14613432  0.86433465  1
  F  F15  1  0.28179967  0.89493759  0.13566535  1
  F  F16  1  0.22812099  0.07712319  0.38974003  1
  F  F17  1  0.68738315  0.83838095  0.61025997  1
  F  F18  1  0.82712319  0.47812099  0.88974003  1
  F  F19  1  0.58838095  0.93738315  0.11025997  1
  F  F20  1  0.80723595  0.68060143  0.37540258  1
  F  F21  1  0.30519886  0.43183337  0.62459742  1
  F  F22  1  0.43060143  0.05723595  0.87540258  1
  F  F23  1  0.18183337  0.55519886  0.12459742  1
  F  F24  1  0.93282615  0.77982734  0.18327779  1
  F  F25  1  0.59654955  0.74954836  0.81672221  1
  F  F26  1  0.52982734  0.18282615  0.68327779  1
  F  F27  1  0.49954836  0.84654955  0.31672221  1
  F  F28  1  0.08708082  0.00047818  0.59020193  1
  F  F29  1  0.41027625  0.49687888  0.40979807  1
  F  F30  1  0.75047818  0.33708082  0.09020193  1
  F  F31  1  0.24687888  0.66027625  0.90979807  1
  O  O32  1  0.14640753  0.76981947  0.42877403  1
  O  O33  1  0.34104544  0.71763351  0.57122597  1
  O  O34  1  0.51981947  0.39640753  0.92877403  1
  O  O35  1  0.46763351  0.59104544  0.07122597  1
  O  O36  1  0.04444517  0.46237630  0.39266060  1
  O  O37  1  0.06971570  0.65178457  0.60733940  1
  O  O38  1  0.21237630  0.29444517  0.89266060  1
  O  O39  1  0.40178457  0.31971570  0.10733940  1
