# generated using pymatgen
data_Nb2Se9
_symmetry_space_group_name_H-M   'P 1'
_cell_length_a   8.52516220
_cell_length_b   8.77065659
_cell_length_c   8.84056032
_cell_angle_alpha   100.06237653
_cell_angle_beta   96.01152908
_cell_angle_gamma   94.29068293
_symmetry_Int_Tables_number   1
_chemical_formula_structural   Nb2Se9
_chemical_formula_sum   'Nb4 Se18'
_cell_volume   644.33990938
_cell_formula_units_Z   2
loop_
 _symmetry_equiv_pos_site_id
 _symmetry_equiv_pos_as_xyz
  1  'x, y, z'
loop_
 _atom_site_type_symbol
 _atom_site_label
 _atom_site_symmetry_multiplicity
 _atom_site_fract_x
 _atom_site_fract_y
 _atom_site_fract_z
 _atom_site_occupancy
  Nb  Nb0  1  0.08964595  0.09794746  0.13809969  1
  Nb  Nb1  1  0.91035405  0.90205254  0.86190031  1
  Nb  Nb2  1  0.41447786  0.36194420  0.39839710  1
  Nb  Nb3  1  0.58552214  0.63805580  0.60160290  1
  Se  Se4  1  0.97887357  0.18443551  0.40637259  1
  Se  Se5  1  0.02112643  0.81556449  0.59362741  1
  Se  Se6  1  0.33882772  0.47740452  0.67931267  1
  Se  Se7  1  0.66117228  0.52259548  0.32068733  1
  Se  Se8  1  0.61281990  0.79072523  0.90464426  1
  Se  Se9  1  0.38718010  0.20927477  0.09535574  1
  Se  Se10  1  0.96043496  0.81316355  0.13662821  1
  Se  Se11  1  0.03956504  0.18683645  0.86337179  1
  Se  Se12  1  0.26543984  0.08068319  0.40674015  1
  Se  Se13  1  0.73456016  0.91931681  0.59325985  1
  Se  Se14  1  0.57111930  0.35204082  0.67073946  1
  Se  Se15  1  0.42888070  0.64795918  0.32926054  1
  Se  Se16  1  0.17923943  0.82780981  0.99855153  1
  Se  Se17  1  0.82076057  0.17219019  0.00144847  1
  Se  Se18  1  0.89654536  0.60498781  0.69182997  1
  Se  Se19  1  0.10345464  0.39501219  0.30817003  1
  Se  Se20  1  0.54096105  0.10390088  0.28867606  1
  Se  Se21  1  0.45903895  0.89609912  0.71132394  1
