# generated using pymatgen
data_Ce(SeO3)2
_symmetry_space_group_name_H-M   'P 1'
_cell_length_a   7.15527990
_cell_length_b   7.42134717
_cell_length_c   10.85608173
_cell_angle_alpha   90.00000000
_cell_angle_beta   90.00000000
_cell_angle_gamma   106.24192455
_symmetry_Int_Tables_number   1
_chemical_formula_structural   Ce(SeO3)2
_chemical_formula_sum   'Ce4 Se8 O24'
_cell_volume   553.47002190
_cell_formula_units_Z   4
loop_
 _symmetry_equiv_pos_site_id
 _symmetry_equiv_pos_as_xyz
  1  'x, y, z'
loop_
 _atom_site_type_symbol
 _atom_site_label
 _atom_site_symmetry_multiplicity
 _atom_site_fract_x
 _atom_site_fract_y
 _atom_site_fract_z
 _atom_site_occupancy
  Ce  Ce0  1  0.73951425  0.98789405  0.90326020  1
  Ce  Ce1  1  0.76048575  0.51210595  0.40326020  1
  Ce  Ce2  1  0.26048575  0.01210595  0.09673980  1
  Ce  Ce3  1  0.23951425  0.48789405  0.59673980  1
  Se  Se4  1  0.75921794  0.57290314  0.71476383  1
  Se  Se5  1  0.74078206  0.92709686  0.21476383  1
  Se  Se6  1  0.24078206  0.42709686  0.28523617  1
  Se  Se7  1  0.25921794  0.07290314  0.78523617  1
  Se  Se8  1  0.71442199  0.43060391  0.07179190  1
  Se  Se9  1  0.78557801  0.06939609  0.57179190  1
  Se  Se10  1  0.28557801  0.56939609  0.92820810  1
  Se  Se11  1  0.21442199  0.93060391  0.42820810  1
  O  O12  1  0.85533202  0.80192665  0.75817253  1
  O  O13  1  0.64466798  0.69807335  0.25817253  1
  O  O14  1  0.14466798  0.19807335  0.24182747  1
  O  O15  1  0.35533202  0.30192665  0.74182747  1
  O  O16  1  0.59390313  0.59270410  0.59912676  1
  O  O17  1  0.90609687  0.90729590  0.09912676  1
  O  O18  1  0.40609687  0.40729590  0.40087324  1
  O  O19  1  0.09390313  0.09270410  0.90087324  1
  O  O20  1  0.92755479  0.54168668  0.60514632  1
  O  O21  1  0.57244521  0.95831332  0.10514632  1
  O  O22  1  0.07244521  0.45831332  0.39485368  1
  O  O23  1  0.42755479  0.04168668  0.89485368  1
  O  O24  1  0.80857647  0.28644329  0.97962746  1
  O  O25  1  0.69142353  0.21355671  0.47962746  1
  O  O26  1  0.19142353  0.71355671  0.02037254  1
  O  O27  1  0.30857647  0.78644329  0.52037254  1
  O  O28  1  0.46877545  0.31296227  0.08820406  1
  O  O29  1  0.03122455  0.18703773  0.58820406  1
  O  O30  1  0.53122455  0.68703773  0.91179594  1
  O  O31  1  0.96877545  0.81296227  0.41179594  1
  O  O32  1  0.79825228  0.38759981  0.21562576  1
  O  O33  1  0.70174772  0.11240019  0.71562576  1
  O  O34  1  0.20174772  0.61240019  0.78437424  1
  O  O35  1  0.29825228  0.88759981  0.28437424  1
