# generated using pymatgen
data_Sr2RhF7
_symmetry_space_group_name_H-M   'P 1'
_cell_length_a   5.61923049
_cell_length_b   8.80584968
_cell_length_c   11.82805456
_cell_angle_alpha   90.00000000
_cell_angle_beta   90.00000000
_cell_angle_gamma   90.90217015
_symmetry_Int_Tables_number   1
_chemical_formula_structural   Sr2RhF7
_chemical_formula_sum   'Sr8 Rh4 F28'
_cell_volume   585.20441440
_cell_formula_units_Z   4
loop_
 _symmetry_equiv_pos_site_id
 _symmetry_equiv_pos_as_xyz
  1  'x, y, z'
loop_
 _atom_site_type_symbol
 _atom_site_label
 _atom_site_symmetry_multiplicity
 _atom_site_fract_x
 _atom_site_fract_y
 _atom_site_fract_z
 _atom_site_occupancy
  Sr  Sr0  1  0.77675640  0.84727156  0.55831056  1
  Sr  Sr1  1  0.22324360  0.65272844  0.05831056  1
  Sr  Sr2  1  0.22324360  0.15272844  0.44168944  1
  Sr  Sr3  1  0.77675640  0.34727156  0.94168944  1
  Sr  Sr4  1  0.23200806  0.55199593  0.70727710  1
  Sr  Sr5  1  0.76799194  0.94800407  0.20727710  1
  Sr  Sr6  1  0.76799194  0.44800407  0.29272290  1
  Sr  Sr7  1  0.23200806  0.05199593  0.79272290  1
  Rh  Rh8  1  0.68915307  0.81853619  0.86762034  1
  Rh  Rh9  1  0.31084693  0.68146381  0.36762034  1
  Rh  Rh10  1  0.31084693  0.18146381  0.13237966  1
  Rh  Rh11  1  0.68915307  0.31853619  0.63237966  1
  F  F12  1  0.89297359  0.99059733  0.39413445  1
  F  F13  1  0.10702641  0.50940267  0.89413445  1
  F  F14  1  0.10702641  0.00940267  0.60586555  1
  F  F15  1  0.89297359  0.49059733  0.10586555  1
  F  F16  1  0.86706090  0.32273172  0.48386323  1
  F  F17  1  0.13293910  0.17726828  0.98386323  1
  F  F18  1  0.13293910  0.67726828  0.51613677  1
  F  F19  1  0.86706090  0.82273172  0.01613677  1
  F  F20  1  0.61457153  0.62916627  0.44530900  1
  F  F21  1  0.38542847  0.87083373  0.94530900  1
  F  F22  1  0.38542847  0.37083373  0.55469100  1
  F  F23  1  0.61457153  0.12916627  0.05469100  1
  F  F24  1  0.41602939  0.89768498  0.39860731  1
  F  F25  1  0.58397061  0.60231502  0.89860731  1
  F  F26  1  0.58397061  0.10231502  0.60139269  1
  F  F27  1  0.41602939  0.39768498  0.10139269  1
  F  F28  1  0.23479659  0.96206617  0.16356090  1
  F  F29  1  0.76520341  0.53793383  0.66356090  1
  F  F30  1  0.76520341  0.03793383  0.83643910  1
  F  F31  1  0.23479659  0.46206617  0.33643910  1
  F  F32  1  0.49022968  0.81087348  0.72345253  1
  F  F33  1  0.50977032  0.68912652  0.22345253  1
  F  F34  1  0.50977032  0.18912652  0.27654747  1
  F  F35  1  0.49022968  0.31087348  0.77654747  1
  F  F36  1  0.98875685  0.28495260  0.72628966  1
  F  F37  1  0.01124315  0.21504740  0.22628966  1
  F  F38  1  0.01124315  0.71504740  0.27371034  1
  F  F39  1  0.98875685  0.78495260  0.77371034  1
