# generated using pymatgen
data_Cd2Si(P2O7)2
_symmetry_space_group_name_H-M   'P 1'
_cell_length_a   5.25918297
_cell_length_b   9.13091794
_cell_length_c   12.68652834
_cell_angle_alpha   102.69341260
_cell_angle_beta   90.00000000
_cell_angle_gamma   106.73751707
_symmetry_Int_Tables_number   1
_chemical_formula_structural   Cd2Si(P2O7)2
_chemical_formula_sum   'Cd4 Si2 P8 O28'
_cell_volume   567.84582767
_cell_formula_units_Z   2
loop_
 _symmetry_equiv_pos_site_id
 _symmetry_equiv_pos_as_xyz
  1  'x, y, z'
loop_
 _atom_site_type_symbol
 _atom_site_label
 _atom_site_symmetry_multiplicity
 _atom_site_fract_x
 _atom_site_fract_y
 _atom_site_fract_z
 _atom_site_occupancy
  Cd  Cd0  1  0.91097061  0.51080321  0.36818129  1
  Cd  Cd1  1  0.40016740  0.48919679  0.13181871  1
  Cd  Cd2  1  0.08902939  0.48919679  0.63181871  1
  Cd  Cd3  1  0.59983260  0.51080321  0.86818129  1
  Si  Si4  1  0.13903373  0.00000000  0.75000000  1
  Si  Si5  1  0.86096627  0.00000000  0.25000000  1
  P  P6  1  0.69615407  0.73806168  0.58586164  1
  P  P7  1  0.95809239  0.26193832  0.91413836  1
  P  P8  1  0.30384593  0.26193832  0.41413836  1
  P  P9  1  0.04190761  0.73806168  0.08586164  1
  P  P10  1  0.52864538  0.76404680  0.37047953  1
  P  P11  1  0.76459859  0.23595320  0.12952047  1
  P  P12  1  0.47135462  0.23595320  0.62952047  1
  P  P13  1  0.23540141  0.76404680  0.87047953  1
  O  O14  1  0.89647570  0.87446496  0.67046244  1
  O  O15  1  0.02201073  0.12553504  0.82953756  1
  O  O16  1  0.10352430  0.12553504  0.32953756  1
  O  O17  1  0.97798927  0.87446496  0.17046244  1
  O  O18  1  0.69946729  0.82264295  0.48579252  1
  O  O19  1  0.87682435  0.17735705  0.01420748  1
  O  O20  1  0.30053271  0.17735705  0.51420748  1
  O  O21  1  0.12317565  0.82264295  0.98579252  1
  O  O22  1  0.63722438  0.91635985  0.32434278  1
  O  O23  1  0.72086453  0.08364015  0.17565722  1
  O  O24  1  0.36277562  0.08364015  0.67565722  1
  O  O25  1  0.27913547  0.91635985  0.82434278  1
  O  O26  1  0.42648281  0.70446872  0.62965540  1
  O  O27  1  0.72201409  0.29553128  0.87034460  1
  O  O28  1  0.57351719  0.29553128  0.37034460  1
  O  O29  1  0.27798591  0.70446872  0.12965540  1
  O  O30  1  0.81266831  0.60237013  0.54913402  1
  O  O31  1  0.21029818  0.39762987  0.95086598  1
  O  O32  1  0.18733169  0.39762987  0.45086598  1
  O  O33  1  0.78970182  0.60237013  0.04913402  1
  O  O34  1  0.61400992  0.62735322  0.30302626  1
  O  O35  1  0.98665671  0.37264678  0.19697374  1
  O  O36  1  0.38599008  0.37264678  0.69697374  1
  O  O37  1  0.01334329  0.62735322  0.80302626  1
  O  O38  1  0.23728282  0.73613182  0.38490017  1
  O  O39  1  0.50115100  0.26386818  0.11509983  1
  O  O40  1  0.76271718  0.26386818  0.61509983  1
  O  O41  1  0.49884900  0.73613182  0.88490017  1
