# generated using pymatgen
data_AlGaCl4
_symmetry_space_group_name_H-M   'P 1'
_cell_length_a   7.27746857
_cell_length_b   9.60520736
_cell_length_c   10.23749933
_cell_angle_alpha   90.00000000
_cell_angle_beta   90.00000000
_cell_angle_gamma   93.36319816
_symmetry_Int_Tables_number   1
_chemical_formula_structural   AlGaCl4
_chemical_formula_sum   'Al4 Ga4 Cl16'
_cell_volume   714.38503194
_cell_formula_units_Z   4
loop_
 _symmetry_equiv_pos_site_id
 _symmetry_equiv_pos_as_xyz
  1  'x, y, z'
loop_
 _atom_site_type_symbol
 _atom_site_label
 _atom_site_symmetry_multiplicity
 _atom_site_fract_x
 _atom_site_fract_y
 _atom_site_fract_z
 _atom_site_occupancy
  Ga  Ga0  1  0.85334193  0.78859249  0.71299037  1
  Ga  Ga1  1  0.64665807  0.71140751  0.21299037  1
  Ga  Ga2  1  0.14665807  0.21140751  0.28700963  1
  Ga  Ga3  1  0.35334193  0.28859249  0.78700963  1
  Al  Al4  1  0.25702017  0.68246651  0.45503035  1
  Al  Al5  1  0.24297983  0.81753349  0.95503035  1
  Al  Al6  1  0.74297983  0.31753349  0.54496965  1
  Al  Al7  1  0.75702017  0.18246651  0.04496965  1
  Cl  Cl8  1  0.53555572  0.31952009  0.06953871  1
  Cl  Cl9  1  0.96444428  0.18047991  0.56953871  1
  Cl  Cl10  1  0.46444428  0.68047991  0.93046129  1
  Cl  Cl11  1  0.03555572  0.81952009  0.43046129  1
  Cl  Cl12  1  0.29147063  0.55373372  0.28334450  1
  Cl  Cl13  1  0.20852937  0.94626628  0.78334450  1
  Cl  Cl14  1  0.70852937  0.44626628  0.71665550  1
  Cl  Cl15  1  0.79147063  0.05373372  0.21665550  1
  Cl  Cl16  1  0.98101355  0.69796321  0.97104630  1
  Cl  Cl17  1  0.51898645  0.80203679  0.47104630  1
  Cl  Cl18  1  0.01898645  0.30203679  0.02895370  1
  Cl  Cl19  1  0.48101355  0.19796321  0.52895370  1
  Cl  Cl20  1  0.80332053  0.43927185  0.37222114  1
  Cl  Cl21  1  0.69667947  0.06072815  0.87222114  1
  Cl  Cl22  1  0.19667947  0.56072815  0.62777886  1
  Cl  Cl23  1  0.30332053  0.93927185  0.12777886  1
