# generated using pymatgen
data_KUVO6
_symmetry_space_group_name_H-M   'P 1'
_cell_length_a   6.91353054
_cell_length_b   8.46945975
_cell_length_c   10.58027664
_cell_angle_alpha   90.00000000
_cell_angle_beta   102.69478882
_cell_angle_gamma   90.00000000
_symmetry_Int_Tables_number   1
_chemical_formula_structural   KUVO6
_chemical_formula_sum   'K4 U4 V4 O24'
_cell_volume   604.37176881
_cell_formula_units_Z   4
loop_
 _symmetry_equiv_pos_site_id
 _symmetry_equiv_pos_as_xyz
  1  'x, y, z'
loop_
 _atom_site_type_symbol
 _atom_site_label
 _atom_site_symmetry_multiplicity
 _atom_site_fract_x
 _atom_site_fract_y
 _atom_site_fract_z
 _atom_site_occupancy
  O  O0  1  0.27826705  0.56495231  0.36795975  1
  O  O1  1  0.72173295  0.06495231  0.13204025  1
  O  O2  1  0.72173295  0.43504769  0.63204025  1
  O  O3  1  0.27826705  0.93504769  0.86795975  1
  O  O4  1  0.74641225  0.47607382  0.27108139  1
  O  O5  1  0.25358775  0.97607282  0.22891861  1
  O  O6  1  0.25358775  0.52392718  0.72891861  1
  O  O7  1  0.74641225  0.02392718  0.77108139  1
  O  O8  1  0.03513349  0.34519629  0.49377703  1
  O  O9  1  0.96486651  0.84519629  0.00622297  1
  O  O10  1  0.96486651  0.65480371  0.50622297  1
  O  O11  1  0.03513349  0.15480371  0.99377703  1
  O  O12  1  0.35121370  0.36760902  0.05593102  1
  O  O13  1  0.64878630  0.86760902  0.44406898  1
  O  O14  1  0.64878630  0.63239098  0.94406898  1
  O  O15  1  0.35121370  0.13239098  0.55593102  1
  O  O16  1  0.03943529  0.56112655  0.10632091  1
  O  O17  1  0.96056471  0.06112655  0.39367909  1
  O  O18  1  0.96056471  0.43887345  0.89367909  1
  O  O19  1  0.03943529  0.93887345  0.60632091  1
  O  O20  1  0.08535553  0.29013975  0.21574948  1
  O  O21  1  0.91464447  0.79013975  0.28425052  1
  O  O22  1  0.91464447  0.70986025  0.78425052  1
  O  O23  1  0.08535553  0.20986025  0.71574948  1
  V  V24  1  0.11323150  0.35324297  0.05308733  1
  V  V25  1  0.88676850  0.85324297  0.44691267  1
  V  V26  1  0.88676850  0.64675703  0.94691267  1
  V  V27  1  0.11323150  0.14675703  0.55308733  1
  K  K28  1  0.53014811  0.22711793  0.34912789  1
  K  K29  1  0.46985189  0.72711793  0.15087211  1
  K  K30  1  0.46985189  0.77288207  0.65087211  1
  K  K31  1  0.53014811  0.27288207  0.84912789  1
  U  U32  1  0.01248137  0.52064786  0.32036270  1
  U  U33  1  0.98751863  0.02064786  0.17963730  1
  U  U34  1  0.98751863  0.47935214  0.67963730  1
  U  U35  1  0.01248137  0.97935214  0.82036270  1
