# generated using pymatgen
data_Nb3SI7
_symmetry_space_group_name_H-M   'P 1'
_cell_length_a   8.05061300
_cell_length_b   12.77114784
_cell_length_c   16.11527739
_cell_angle_alpha   90.00000000
_cell_angle_beta   99.39221920
_cell_angle_gamma   90.00000000
_symmetry_Int_Tables_number   1
_chemical_formula_structural   Nb3SI7
_chemical_formula_sum   'Nb12 S4 I28'
_cell_volume   1634.68954261
_cell_formula_units_Z   4
loop_
 _symmetry_equiv_pos_site_id
 _symmetry_equiv_pos_as_xyz
  1  'x, y, z'
loop_
 _atom_site_type_symbol
 _atom_site_label
 _atom_site_symmetry_multiplicity
 _atom_site_fract_x
 _atom_site_fract_y
 _atom_site_fract_z
 _atom_site_occupancy
  I  I0  1  0.92524752  0.22127222  0.86338447  1
  I  I1  1  0.57475248  0.72127222  0.13661553  1
  I  I2  1  0.07475248  0.77872778  0.13661553  1
  I  I3  1  0.42524752  0.27872778  0.86338447  1
  I  I4  1  0.58904874  0.01229304  0.76609756  1
  I  I5  1  0.91095126  0.51229304  0.23390244  1
  I  I6  1  0.41095126  0.98770696  0.23390244  1
  I  I7  1  0.08904874  0.48770696  0.76609756  1
  I  I8  1  0.56308439  0.74574394  0.62951401  1
  I  I9  1  0.93691561  0.24574394  0.37048599  1
  I  I10  1  0.43691561  0.25425606  0.37048599  1
  I  I11  1  0.06308439  0.75425606  0.62951401  1
  I  I12  1  0.63142713  0.28152652  0.63609202  1
  I  I13  1  0.86857287  0.78152652  0.36390798  1
  I  I14  1  0.36857287  0.71847348  0.36390798  1
  I  I15  1  0.13142713  0.21847348  0.63609202  1
  I  I16  1  0.87939951  0.77632579  0.86045450  1
  I  I17  1  0.62060049  0.27632579  0.13954550  1
  I  I18  1  0.12060049  0.22367421  0.13954550  1
  I  I19  1  0.37939951  0.72367421  0.86045450  1
  Nb  Nb20  1  0.84468096  0.89021887  0.70825059  1
  Nb  Nb21  1  0.65531904  0.39021887  0.29174941  1
  Nb  Nb22  1  0.15531904  0.10978113  0.29174941  1
  Nb  Nb23  1  0.34468096  0.60978113  0.70825059  1
  I  I24  1  0.22871009  0.99265214  0.98034702  1
  I  I25  1  0.27128991  0.49265214  0.01965298  1
  I  I26  1  0.77128991  0.00734786  0.01965298  1
  I  I27  1  0.72871009  0.50734786  0.98034702  1
  Nb  Nb28  1  0.87113484  0.10957077  0.71004386  1
  Nb  Nb29  1  0.62886516  0.60957077  0.28995614  1
  Nb  Nb30  1  0.12886516  0.89042923  0.28995614  1
  Nb  Nb31  1  0.37113484  0.39042923  0.71004386  1
  Nb  Nb32  1  0.91832531  0.99821634  0.86144913  1
  Nb  Nb33  1  0.58167469  0.49821634  0.13855087  1
  Nb  Nb34  1  0.08167469  0.00178366  0.13855087  1
  Nb  Nb35  1  0.41832531  0.50178366  0.86144913  1
  S  S36  1  0.10230352  0.98791234  0.75605188  1
  S  S37  1  0.39769648  0.48791234  0.24394812  1
  S  S38  1  0.89769648  0.01208766  0.24394812  1
  S  S39  1  0.60230352  0.51208766  0.75605188  1
  I  I40  1  0.77260098  0.00422161  0.55493644  1
  I  I41  1  0.72739902  0.50422161  0.44506356  1
  I  I42  1  0.22739902  0.99577839  0.44506356  1
  I  I43  1  0.27260098  0.49577839  0.55493644  1
