# generated using pymatgen
data_RbTm(PO3)4
_symmetry_space_group_name_H-M   'P 1'
_cell_length_a   8.89392962
_cell_length_b   10.35428962
_cell_length_c   11.06831480
_cell_angle_alpha   106.59309786
_cell_angle_beta   90.00000000
_cell_angle_gamma   90.00000000
_symmetry_Int_Tables_number   1
_chemical_formula_structural   RbTm(PO3)4
_chemical_formula_sum   'Rb4 Tm4 P16 O48'
_cell_volume   976.83859696
_cell_formula_units_Z   4
loop_
 _symmetry_equiv_pos_site_id
 _symmetry_equiv_pos_as_xyz
  1  'x, y, z'
loop_
 _atom_site_type_symbol
 _atom_site_label
 _atom_site_symmetry_multiplicity
 _atom_site_fract_x
 _atom_site_fract_y
 _atom_site_fract_z
 _atom_site_occupancy
  Tm  Tm0  1  0.72711386  0.50195910  0.81708759  1
  Tm  Tm1  1  0.22711386  0.99804090  0.68291241  1
  Tm  Tm2  1  0.27288614  0.49804090  0.18291241  1
  Tm  Tm3  1  0.77288614  0.00195910  0.31708759  1
  Rb  Rb4  1  0.93547540  0.19049799  0.95854079  1
  Rb  Rb5  1  0.43547540  0.30950201  0.54145921  1
  Rb  Rb6  1  0.06452460  0.80950201  0.04145921  1
  Rb  Rb7  1  0.56452460  0.69049799  0.45854079  1
  P  P8  1  0.97467668  0.74605186  0.72012216  1
  P  P9  1  0.47467668  0.75394814  0.77987784  1
  P  P10  1  0.02532332  0.25394814  0.27987784  1
  P  P11  1  0.52532332  0.24605186  0.22012216  1
  P  P12  1  0.82927889  0.95918445  0.63251458  1
  P  P13  1  0.32927889  0.54081555  0.86748542  1
  P  P14  1  0.17072111  0.04081555  0.36748542  1
  P  P15  1  0.67072111  0.45918445  0.13251458  1
  P  P16  1  0.59070759  0.14843240  0.75779405  1
  P  P17  1  0.09070759  0.35156760  0.74220595  1
  P  P18  1  0.40929241  0.85156760  0.24220595  1
  P  P19  1  0.90929241  0.64843240  0.25779405  1
  P  P20  1  0.88738917  0.32469730  0.52398096  1
  P  P21  1  0.38738917  0.17530270  0.97601904  1
  P  P22  1  0.11261083  0.67530270  0.47601904  1
  P  P23  1  0.61261083  0.82469730  0.02398096  1
  O  O24  1  0.54929401  0.86301551  0.90120555  1
  O  O25  1  0.04929401  0.63698449  0.59879445  1
  O  O26  1  0.45070599  0.13698449  0.09879445  1
  O  O27  1  0.95070599  0.36301551  0.40120555  1
  O  O28  1  0.95654519  0.40060330  0.82476630  1
  O  O29  1  0.45654519  0.09939670  0.67523370  1
  O  O30  1  0.04345481  0.59939670  0.17523370  1
  O  O31  1  0.54345481  0.90060330  0.32476630  1
  O  O32  1  0.90556557  0.66776047  0.80061306  1
  O  O33  1  0.40556557  0.83223953  0.69938694  1
  O  O34  1  0.09443443  0.33223953  0.19938694  1
  O  O35  1  0.59443443  0.16776047  0.30061306  1
  O  O36  1  0.67515173  0.26828091  0.74376346  1
  O  O37  1  0.17515173  0.23171909  0.75623654  1
  O  O38  1  0.32484827  0.73171909  0.25623654  1
  O  O39  1  0.82484827  0.76828091  0.24376346  1
  O  O40  1  0.58539953  0.64496788  0.71814986  1
  O  O41  1  0.08539953  0.85503212  0.78185014  1
  O  O42  1  0.41460047  0.35503212  0.28185014  1
  O  O43  1  0.91460047  0.14496788  0.21814986  1
  O  O44  1  0.97432480  0.03473937  0.66581613  1
  O  O45  1  0.47432480  0.46526063  0.83418387  1
  O  O46  1  0.02567520  0.96526063  0.33418387  1
  O  O47  1  0.52567520  0.53473937  0.16581613  1
  O  O48  1  0.84131182  0.81146522  0.65569978  1
  O  O49  1  0.34131182  0.68853478  0.84430022  1
  O  O50  1  0.15868818  0.18853478  0.34430022  1
  O  O51  1  0.65868818  0.31146522  0.15569978  1
  O  O52  1  0.70976802  0.02597523  0.74421542  1
  O  O53  1  0.20976802  0.47402477  0.75578458  1
  O  O54  1  0.29023198  0.97402477  0.25578458  1
  O  O55  1  0.79023198  0.52597523  0.24421542  1
  O  O56  1  0.67109834  0.68343152  0.98041627  1
  O  O57  1  0.17109834  0.81656848  0.51958373  1
  O  O58  1  0.32890166  0.31656848  0.01958373  1
  O  O59  1  0.82890166  0.18343152  0.48041627  1
  O  O60  1  0.78479873  0.43358052  0.59880160  1
  O  O61  1  0.28479873  0.06641948  0.90119840  1
  O  O62  1  0.21520127  0.56641948  0.40119840  1
  O  O63  1  0.71520127  0.93358052  0.09880160  1
  O  O64  1  0.54654339  0.17195690  0.90323300  1
  O  O65  1  0.04654339  0.32804310  0.59676700  1
  O  O66  1  0.45345661  0.82804310  0.09676700  1
  O  O67  1  0.95345661  0.67195690  0.40323300  1
  O  O68  1  0.75816588  0.93781281  0.50587269  1
  O  O69  1  0.25816588  0.56218719  0.99412731  1
  O  O70  1  0.24183412  0.06218719  0.49412731  1
  O  O71  1  0.74183412  0.43781281  0.00587269  1
