# generated using pymatgen
data_Y6Ni20P13
_symmetry_space_group_name_H-M   'P 1'
_cell_length_a   12.64763645
_cell_length_b   12.64763641
_cell_length_c   3.75471311
_cell_angle_alpha   90.00000000
_cell_angle_beta   90.00000000
_cell_angle_gamma   120.00000010
_symmetry_Int_Tables_number   1
_chemical_formula_structural   Y6Ni20P13
_chemical_formula_sum   'Y6 Ni20 P13'
_cell_volume   520.14704560
_cell_formula_units_Z   1
loop_
 _symmetry_equiv_pos_site_id
 _symmetry_equiv_pos_as_xyz
  1  'x, y, z'
loop_
 _atom_site_type_symbol
 _atom_site_label
 _atom_site_symmetry_multiplicity
 _atom_site_fract_x
 _atom_site_fract_y
 _atom_site_fract_z
 _atom_site_occupancy
  Y  Y0  1  0.47032451  0.18812874  0.00000000  1
  Y  Y1  1  0.71780423  0.52967549  0.00000000  1
  Y  Y2  1  0.81187126  0.28219577  0.00000000  1
  Y  Y3  1  0.53065267  0.81216641  0.50000000  1
  Y  Y4  1  0.28151375  0.46934733  0.50000000  1
  Y  Y5  1  0.18783359  0.71848625  0.50000000  1
  Ni  Ni6  1  0.33333300  0.66666700  0.00000000  1
  Ni  Ni7  1  0.66666700  0.33333300  0.50000000  1
  Ni  Ni8  1  0.19556557  0.09051574  0.00000000  1
  Ni  Ni9  1  0.89495017  0.80443443  0.00000000  1
  Ni  Ni10  1  0.90948426  0.10504983  0.00000000  1
  Ni  Ni11  1  0.84814809  0.92750977  0.50000000  1
  Ni  Ni12  1  0.07936168  0.15185191  0.50000000  1
  Ni  Ni13  1  0.07249023  0.92063832  0.50000000  1
  Ni  Ni14  1  0.43779280  0.41630588  0.00000000  1
  Ni  Ni15  1  0.97851308  0.56220720  0.00000000  1
  Ni  Ni16  1  0.58369412  0.02148692  0.00000000  1
  Ni  Ni17  1  0.56483141  0.58680248  0.50000000  1
  Ni  Ni18  1  0.02197107  0.43516859  0.50000000  1
  Ni  Ni19  1  0.41319752  0.97802893  0.50000000  1
  Ni  Ni20  1  0.07802216  0.32019854  0.00000000  1
  Ni  Ni21  1  0.24217638  0.92197784  0.00000000  1
  Ni  Ni22  1  0.67980146  0.75782362  0.00000000  1
  Ni  Ni23  1  0.92911698  0.68303581  0.50000000  1
  Ni  Ni24  1  0.75391883  0.07088302  0.50000000  1
  Ni  Ni25  1  0.31696419  0.24608117  0.50000000  1
  P  P26  1  0.23429593  0.28194229  0.00000000  1
  P  P27  1  0.04764636  0.76570407  0.00000000  1
  P  P28  1  0.71805771  0.95235364  0.00000000  1
  P  P29  1  0.76741633  0.72149704  0.50000000  1
  P  P30  1  0.95408071  0.23258367  0.50000000  1
  P  P31  1  0.27850296  0.04591929  0.50000000  1
  P  P32  1  0.47675610  0.61425722  0.00000000  1
  P  P33  1  0.13750113  0.52324390  0.00000000  1
  P  P34  1  0.38574278  0.86249887  0.00000000  1
  P  P35  1  0.52347164  0.38651589  0.50000000  1
  P  P36  1  0.86304425  0.47652836  0.50000000  1
  P  P37  1  0.61348411  0.13695575  0.50000000  1
  P  P38  1  0.00000000  0.00000000  0.00000000  1
