# generated using pymatgen
data_Yb2GeSe4
_symmetry_space_group_name_H-M   'P 1'
_cell_length_a   6.79771636
_cell_length_b   7.05283473
_cell_length_c   8.02774795
_cell_angle_alpha   90.00000000
_cell_angle_beta   107.58374805
_cell_angle_gamma   90.00000000
_symmetry_Int_Tables_number   1
_chemical_formula_structural   Yb2GeSe4
_chemical_formula_sum   'Yb4 Ge2 Se8'
_cell_volume   366.89290597
_cell_formula_units_Z   2
loop_
 _symmetry_equiv_pos_site_id
 _symmetry_equiv_pos_as_xyz
  1  'x, y, z'
loop_
 _atom_site_type_symbol
 _atom_site_label
 _atom_site_symmetry_multiplicity
 _atom_site_fract_x
 _atom_site_fract_y
 _atom_site_fract_z
 _atom_site_occupancy
  Yb  Yb0  1  0.27368260  0.75000000  0.94536211  1
  Yb  Yb1  1  0.72631740  0.25000000  0.05463789  1
  Yb  Yb2  1  0.26642073  0.75000000  0.43899524  1
  Yb  Yb3  1  0.73357927  0.25000000  0.56100476  1
  Ge  Ge4  1  0.73754247  0.75000000  0.80541215  1
  Ge  Ge5  1  0.26245753  0.25000000  0.19458785  1
  Se  Se6  1  0.93107618  0.75000000  0.10274609  1
  Se  Se7  1  0.06892382  0.25000000  0.89725391  1
  Se  Se8  1  0.93677862  0.75000000  0.61231016  1
  Se  Se9  1  0.06322138  0.25000000  0.38768984  1
  Se  Se10  1  0.49614484  0.49588952  0.74381416  1
  Se  Se11  1  0.50385516  0.99588952  0.25618584  1
  Se  Se12  1  0.50385516  0.50411048  0.25618584  1
  Se  Se13  1  0.49614484  0.00411048  0.74381416  1
