# generated using pymatgen
data_CsV2P5O16
_symmetry_space_group_name_H-M   'P 1'
_cell_length_a   7.67878945
_cell_length_b   9.59337125
_cell_length_c   10.39035932
_cell_angle_alpha   90.00000000
_cell_angle_beta   111.37434152
_cell_angle_gamma   90.00000000
_symmetry_Int_Tables_number   1
_chemical_formula_structural   CsV2P5O16
_chemical_formula_sum   'Cs2 V4 P10 O32'
_cell_volume   712.76516011
_cell_formula_units_Z   2
loop_
 _symmetry_equiv_pos_site_id
 _symmetry_equiv_pos_as_xyz
  1  'x, y, z'
loop_
 _atom_site_type_symbol
 _atom_site_label
 _atom_site_symmetry_multiplicity
 _atom_site_fract_x
 _atom_site_fract_y
 _atom_site_fract_z
 _atom_site_occupancy
  Cs  Cs0  1  0.24861123  0.80560480  0.24652709  1
  Cs  Cs1  1  0.74861123  0.19439520  0.74652709  1
  V  V2  1  0.21181313  0.36883542  0.13763645  1
  V  V3  1  0.71181313  0.63116458  0.63763645  1
  V  V4  1  0.15466331  0.14327794  0.53335134  1
  V  V5  1  0.65466331  0.85672206  0.03335134  1
  P  P6  1  0.41876018  0.87334711  0.69732714  1
  P  P7  1  0.91876018  0.12665289  0.19732714  1
  P  P8  1  0.01502296  0.86048827  0.62703300  1
  P  P9  1  0.51502296  0.13951173  0.12703300  1
  P  P10  1  0.80263275  0.70617183  0.37306058  1
  P  P11  1  0.30263275  0.29382817  0.87306058  1
  P  P12  1  0.99172305  0.45960970  0.50715391  1
  P  P13  1  0.49172305  0.54039030  0.00715391  1
  P  P14  1  0.34881001  0.41757963  0.47524743  1
  P  P15  1  0.84881001  0.58242037  0.97524743  1
  O  O16  1  0.35875096  0.98927058  0.58908848  1
  O  O17  1  0.85875096  0.01072942  0.08908848  1
  O  O18  1  0.49829929  0.74706709  0.65090095  1
  O  O19  1  0.99829929  0.25293291  0.15090095  1
  O  O20  1  0.54074067  0.92946104  0.84044158  1
  O  O21  1  0.04074067  0.07053896  0.34044158  1
  O  O22  1  0.22373525  0.81867945  0.71470657  1
  O  O23  1  0.72373525  0.18132055  0.21470657  1
  O  O24  1  0.88804484  0.79992019  0.69392884  1
  O  O25  1  0.38804484  0.20007981  0.19392884  1
  O  O26  1  0.99368441  0.01690352  0.60339254  1
  O  O27  1  0.49368441  0.98309648  0.10339254  1
  O  O28  1  0.98306333  0.78727598  0.47868972  1
  O  O29  1  0.48306333  0.21272402  0.97868972  1
  O  O30  1  0.75261522  0.76948198  0.23345103  1
  O  O31  1  0.25261522  0.23051802  0.73345103  1
  O  O32  1  0.65384467  0.70210990  0.43623524  1
  O  O33  1  0.15384467  0.29789010  0.93623524  1
  O  O34  1  0.88471247  0.55183598  0.36820856  1
  O  O35  1  0.38471247  0.44816402  0.86820856  1
  O  O36  1  0.95890043  0.30680425  0.47469781  1
  O  O37  1  0.45890043  0.69319575  0.97469781  1
  O  O38  1  0.93548892  0.51807459  0.62069230  1
  O  O39  1  0.43548892  0.48192541  0.12069230  1
  O  O40  1  0.20712772  0.49564333  0.53922797  1
  O  O41  1  0.70712772  0.50435667  0.03922797  1
  O  O42  1  0.33986197  0.26012227  0.49618991  1
  O  O43  1  0.83986197  0.73987773  0.99618991  1
  O  O44  1  0.28157210  0.45884554  0.32362723  1
  O  O45  1  0.78157110  0.54115446  0.82362723  1
  O  O46  1  0.54162212  0.47020466  0.56088433  1
  O  O47  1  0.04162212  0.52979534  0.06088433  1
