# generated using pymatgen
data_Sc7CoI12
_symmetry_space_group_name_H-M   'P 1'
_cell_length_a   9.43376421
_cell_length_b   9.43376520
_cell_length_c   9.43376515
_cell_angle_alpha   107.28977076
_cell_angle_beta   107.28977256
_cell_angle_gamma   107.28977326
_symmetry_Int_Tables_number   1
_chemical_formula_structural   Sc7CoI12
_chemical_formula_sum   'Sc7 Co1 I12'
_cell_volume   693.59793061
_cell_formula_units_Z   1
loop_
 _symmetry_equiv_pos_site_id
 _symmetry_equiv_pos_as_xyz
  1  'x, y, z'
loop_
 _atom_site_type_symbol
 _atom_site_label
 _atom_site_symmetry_multiplicity
 _atom_site_fract_x
 _atom_site_fract_y
 _atom_site_fract_z
 _atom_site_occupancy
  Sc  Sc0  1  0.50000000  0.50000000  0.50000000  1
  Sc  Sc1  1  0.27895344  0.02260268  0.08805881  1
  Sc  Sc2  1  0.08805881  0.27895344  0.02260268  1
  Sc  Sc3  1  0.02260268  0.08805881  0.27895344  1
  Sc  Sc4  1  0.72104656  0.97739732  0.91194119  1
  Sc  Sc5  1  0.91194119  0.72104656  0.97739732  1
  Sc  Sc6  1  0.97739732  0.91194119  0.72104656  1
  I  I7  1  0.31279711  0.92840574  0.77857721  1
  I  I8  1  0.77857721  0.31279711  0.92840574  1
  I  I9  1  0.92840574  0.77857721  0.31279711  1
  I  I10  1  0.68720289  0.07159426  0.22142279  1
  I  I11  1  0.22142279  0.68720289  0.07159426  1
  I  I12  1  0.07159426  0.22142279  0.68720289  1
  I  I13  1  0.45499366  0.38265000  0.16043538  1
  I  I14  1  0.16043538  0.45499366  0.38265000  1
  I  I15  1  0.38265000  0.16043538  0.45499366  1
  I  I16  1  0.54500634  0.61735000  0.83956462  1
  I  I17  1  0.83956462  0.54500634  0.61735000  1
  I  I18  1  0.61735000  0.83956462  0.54500634  1
  Co  Co19  1  0.00000000  0.00000000  0.00000000  1
