# generated using pymatgen
data_TeAuBr8
_symmetry_space_group_name_H-M   'P 1'
_cell_length_a   8.28870520
_cell_length_b   9.33507324
_cell_length_c   10.88304281
_cell_angle_alpha   86.91121279
_cell_angle_beta   70.42531525
_cell_angle_gamma   82.15582501
_symmetry_Int_Tables_number   1
_chemical_formula_structural   TeAuBr8
_chemical_formula_sum   'Te2 Au2 Br16'
_cell_volume   785.96096502
_cell_formula_units_Z   2
loop_
 _symmetry_equiv_pos_site_id
 _symmetry_equiv_pos_as_xyz
  1  'x, y, z'
loop_
 _atom_site_type_symbol
 _atom_site_label
 _atom_site_symmetry_multiplicity
 _atom_site_fract_x
 _atom_site_fract_y
 _atom_site_fract_z
 _atom_site_occupancy
  Au  Au0  1  0.00592298  0.10804228  0.31399508  1
  Au  Au1  1  0.99407702  0.89195772  0.68600492  1
  Te  Te2  1  0.62326132  0.25099107  0.72478467  1
  Te  Te3  1  0.37673868  0.74900893  0.27521533  1
  Br  Br4  1  0.28810574  0.06950325  0.35477553  1
  Br  Br5  1  0.71189426  0.93049675  0.64522447  1
  Br  Br6  1  0.91596294  0.31758779  0.46424935  1
  Br  Br7  1  0.08403706  0.68241221  0.53575065  1
  Br  Br8  1  0.08509811  0.89160837  0.17298011  1
  Br  Br9  1  0.91490189  0.10839163  0.82701989  1
  Br  Br10  1  0.74192236  0.16493538  0.25569938  1
  Br  Br11  1  0.25807764  0.83506462  0.74430062  1
  Br  Br12  1  0.39405305  0.31065948  0.61656445  1
  Br  Br13  1  0.60594695  0.68934052  0.38343555  1
  Br  Br14  1  0.64784702  0.50730459  0.77908098  1
  Br  Br15  1  0.35215298  0.49269541  0.22091902  1
  Br  Br16  1  0.41123642  0.19331229  0.94480419  1
  Br  Br17  1  0.58876358  0.80668771  0.05519581  1
  Br  Br18  1  0.92641002  0.40791852  0.06655292  1
  Br  Br19  1  0.07358998  0.59208148  0.93344708  1
