# generated using pymatgen
data_K3IrCl6
_symmetry_space_group_name_H-M   'P 1'
_cell_length_a   7.59373911
_cell_length_b   12.12582798
_cell_length_c   12.74652170
_cell_angle_alpha   108.24561998
_cell_angle_beta   90.00000000
_cell_angle_gamma   90.00000000
_symmetry_Int_Tables_number   1
_chemical_formula_structural   K3IrCl6
_chemical_formula_sum   'K12 Ir4 Cl24'
_cell_volume   1114.69422207
_cell_formula_units_Z   4
loop_
 _symmetry_equiv_pos_site_id
 _symmetry_equiv_pos_as_xyz
  1  'x, y, z'
loop_
 _atom_site_type_symbol
 _atom_site_label
 _atom_site_symmetry_multiplicity
 _atom_site_fract_x
 _atom_site_fract_y
 _atom_site_fract_z
 _atom_site_occupancy
  Ir  Ir0  1  0.00000000  0.00000000  0.00000000  1
  Ir  Ir1  1  0.50000000  0.50000000  0.00000000  1
  Ir  Ir2  1  0.00000000  0.50000000  0.50000000  1
  Ir  Ir3  1  0.50000000  0.00000000  0.50000000  1
  Cl  Cl4  1  0.00186869  0.38038793  0.61606370  1
  Cl  Cl5  1  0.50186869  0.11961207  0.38393630  1
  Cl  Cl6  1  0.99813131  0.61961207  0.38393630  1
  Cl  Cl7  1  0.49813131  0.88038793  0.61606370  1
  Cl  Cl8  1  0.18599799  0.36083191  0.37726364  1
  Cl  Cl9  1  0.68599799  0.13916809  0.62273636  1
  Cl  Cl10  1  0.81400201  0.63916809  0.62273636  1
  Cl  Cl11  1  0.31400201  0.86083191  0.37726364  1
  Cl  Cl12  1  0.74400043  0.40080309  0.40816669  1
  Cl  Cl13  1  0.24400043  0.09919691  0.59183331  1
  Cl  Cl14  1  0.25599957  0.59919691  0.59183331  1
  Cl  Cl15  1  0.75599957  0.90080309  0.40816669  1
  Cl  Cl16  1  0.79653375  0.10146012  0.13891065  1
  Cl  Cl17  1  0.29653375  0.39853988  0.86108935  1
  Cl  Cl18  1  0.20346625  0.89853988  0.86108935  1
  Cl  Cl19  1  0.70346625  0.60146012  0.13891065  1
  Cl  Cl20  1  0.19109086  0.99467238  0.14624766  1
  Cl  Cl21  1  0.69109086  0.50532762  0.85375234  1
  Cl  Cl22  1  0.80890914  0.00532762  0.85375234  1
  Cl  Cl23  1  0.30890914  0.49467238  0.14624766  1
  Cl  Cl24  1  0.12917687  0.17854315  -0.00011825  1
  Cl  Cl25  1  0.62917687  0.32145685  1.00011825  1
  Cl  Cl26  1  0.87082313  0.82145685  1.00011825  1
  Cl  Cl27  1  0.37082313  0.67854315  -0.00011825  1
  K  K28  1  0.06567710  0.61352129  0.81825131  1
  K  K29  1  0.56567710  0.88647871  0.18174869  1
  K  K30  1  0.93432290  0.38647871  0.18174869  1
  K  K31  1  0.43432290  0.11352129  0.81825131  1
  K  K32  1  0.93082526  0.26522038  0.81731567  1
  K  K33  1  0.43082526  0.23477962  0.18268433  1
  K  K34  1  0.06917474  0.73477962  0.18268433  1
  K  K35  1  0.56917474  0.76522038  0.81731567  1
  K  K36  1  0.46017977  0.35833471  0.59774379  1
  K  K37  1  0.96017977  0.14166529  0.40225621  1
  K  K38  1  0.53982023  0.64166529  0.40225621  1
  K  K39  1  0.03982023  0.85833471  0.59774379  1
