# generated using pymatgen
data_Ce2Sn5
_symmetry_space_group_name_H-M   'P 1'
_cell_length_a   4.63623613
_cell_length_b   4.66437673
_cell_length_c   17.53071514
_cell_angle_alpha   90.00000000
_cell_angle_beta   97.59857803
_cell_angle_gamma   90.00000000
_symmetry_Int_Tables_number   1
_chemical_formula_structural   Ce2Sn5
_chemical_formula_sum   'Ce4 Sn10'
_cell_volume   375.77539501
_cell_formula_units_Z   2
loop_
 _symmetry_equiv_pos_site_id
 _symmetry_equiv_pos_as_xyz
  1  'x, y, z'
loop_
 _atom_site_type_symbol
 _atom_site_label
 _atom_site_symmetry_multiplicity
 _atom_site_fract_x
 _atom_site_fract_y
 _atom_site_fract_z
 _atom_site_occupancy
  Ce  Ce0  1  0.56837797  0.00000000  0.13675594  1
  Ce  Ce1  1  0.43162203  0.00000000  0.86324406  1
  Ce  Ce2  1  0.70278133  0.00000000  0.40556267  1
  Ce  Ce3  1  0.29721867  0.00000000  0.59443733  1
  Sn  Sn4  1  0.00000000  0.00000000  0.00000000  1
  Sn  Sn5  1  0.50000000  0.50000000  0.00000000  1
  Sn  Sn6  1  0.86252682  0.00000000  0.72505364  1
  Sn  Sn7  1  0.13747318  0.00000000  0.27494636  1
  Sn  Sn8  1  0.63785954  0.50000000  0.27571908  1
  Sn  Sn9  1  0.36214046  0.50000000  0.72428092  1
  Sn  Sn10  1  0.92957300  0.50000000  0.85914600  1
  Sn  Sn11  1  0.07042700  0.50000000  0.14085400  1
  Sn  Sn12  1  0.78014835  0.50000000  0.56029669  1
  Sn  Sn13  1  0.21985165  0.50000000  0.43970331  1
