# generated using pymatgen
data_TlCuPO4
_symmetry_space_group_name_H-M   'P 1'
_cell_length_a   4.93242744
_cell_length_b   4.93242679
_cell_length_c   18.26461081
_cell_angle_alpha   93.32271357
_cell_angle_beta   93.32271350
_cell_angle_gamma   90.07923874
_symmetry_Int_Tables_number   1
_chemical_formula_structural   TlCuPO4
_chemical_formula_sum   'Tl4 Cu4 P4 O16'
_cell_volume   442.85898546
_cell_formula_units_Z   4
loop_
 _symmetry_equiv_pos_site_id
 _symmetry_equiv_pos_as_xyz
  1  'x, y, z'
loop_
 _atom_site_type_symbol
 _atom_site_label
 _atom_site_symmetry_multiplicity
 _atom_site_fract_x
 _atom_site_fract_y
 _atom_site_fract_z
 _atom_site_occupancy
  Tl  Tl0  1  0.20590381  0.79193241  0.06205663  1
  Tl  Tl1  1  0.20806759  0.79409619  0.43794337  1
  Tl  Tl2  1  0.79409619  0.20806759  0.93794337  1
  Tl  Tl3  1  0.79193241  0.20590381  0.56205663  1
  Cu  Cu4  1  0.17004074  0.32616512  0.24917595  1
  Cu  Cu5  1  0.67383488  0.82995926  0.25082405  1
  Cu  Cu6  1  0.82995926  0.67383488  0.75082405  1
  Cu  Cu7  1  0.32616512  0.17004074  0.74917595  1
  P  P8  1  0.64050226  0.29703256  0.14685625  1
  P  P9  1  0.70296744  0.35949774  0.35314375  1
  P  P10  1  0.35949774  0.70296744  0.85314375  1
  P  P11  1  0.29703256  0.64050226  0.64685625  1
  O  O12  1  0.47756512  0.13268455  0.20367824  1
  O  O13  1  0.86731545  0.52243488  0.29632176  1
  O  O14  1  0.52243488  0.86731545  0.79632176  1
  O  O15  1  0.13268455  0.47756512  0.70367824  1
  O  O16  1  0.45894042  0.79031058  0.93157404  1
  O  O17  1  0.20968942  0.54105958  0.56842596  1
  O  O18  1  0.54105958  0.20968942  0.06842596  1
  O  O19  1  0.79031058  0.45894042  0.43157404  1
  O  O20  1  0.57668302  0.60492791  0.16247389  1
  O  O21  1  0.39507209  0.42331698  0.33752611  1
  O  O22  1  0.42331698  0.39507209  0.83752611  1
  O  O23  1  0.60492791  0.57668302  0.66247389  1
  O  O24  1  0.94693994  0.23158714  0.16070148  1
  O  O25  1  0.76841286  0.05306006  0.33929852  1
  O  O26  1  0.05306006  0.76841286  0.83929852  1
  O  O27  1  0.23158714  0.94693994  0.66070148  1
