# generated using pymatgen
data_BaHo2CoO5
_symmetry_space_group_name_H-M   'P 1'
_cell_length_a   5.74116334
_cell_length_b   7.10775587
_cell_length_c   12.32996078
_cell_angle_alpha   90.00000000
_cell_angle_beta   90.00000000
_cell_angle_gamma   90.00000000
_symmetry_Int_Tables_number   1
_chemical_formula_structural   BaHo2CoO5
_chemical_formula_sum   'Ba4 Ho8 Co4 O20'
_cell_volume   503.14608858
_cell_formula_units_Z   4
loop_
 _symmetry_equiv_pos_site_id
 _symmetry_equiv_pos_as_xyz
  1  'x, y, z'
loop_
 _atom_site_type_symbol
 _atom_site_label
 _atom_site_symmetry_multiplicity
 _atom_site_fract_x
 _atom_site_fract_y
 _atom_site_fract_z
 _atom_site_occupancy
  Ba  Ba0  1  0.25000000  0.92151157  0.89994709  1
  Ba  Ba1  1  0.75000000  0.07848843  0.10005291  1
  Ba  Ba2  1  0.75000000  0.42151157  0.60005291  1
  Ba  Ba3  1  0.25000000  0.57848843  0.39994709  1
  Ho  Ho4  1  0.25000000  0.11896063  0.29154539  1
  Ho  Ho5  1  0.75000000  0.88103937  0.70845461  1
  Ho  Ho6  1  0.75000000  0.61896063  0.20845461  1
  Ho  Ho7  1  0.25000000  0.38103937  0.79154539  1
  Ho  Ho8  1  0.25000000  0.40116080  0.07447424  1
  Ho  Ho9  1  0.75000000  0.59883920  0.92552576  1
  Ho  Ho10  1  0.75000000  0.90116080  0.42552576  1
  Ho  Ho11  1  0.25000000  0.09883920  0.57447424  1
  Co  Co12  1  0.25000000  0.69258642  0.65248090  1
  Co  Co13  1  0.75000000  0.30741358  0.34751910  1
  Co  Co14  1  0.75000000  0.19258642  0.84751910  1
  Co  Co15  1  0.25000000  0.80741358  0.15248090  1
  O  O16  1  0.99673203  0.16555865  0.43423124  1
  O  O17  1  0.49673203  0.83444135  0.56576876  1
  O  O18  1  0.00326797  0.66555865  0.06576876  1
  O  O19  1  0.50326797  0.33444135  0.93423124  1
  O  O20  1  0.00326797  0.83444135  0.56576876  1
  O  O21  1  0.50326797  0.16555865  0.43423124  1
  O  O22  1  0.99673203  0.33444135  0.93423124  1
  O  O23  1  0.49673203  0.66555865  0.06576876  1
  O  O24  1  0.50078625  0.36050068  0.22465690  1
  O  O25  1  0.00078625  0.63949932  0.77534310  1
  O  O26  1  0.49921375  0.86050068  0.27534310  1
  O  O27  1  0.99921375  0.13949932  0.72465690  1
  O  O28  1  0.49921375  0.63949932  0.77534310  1
  O  O29  1  0.99921375  0.36050068  0.22465690  1
  O  O30  1  0.50078625  0.13949932  0.72465690  1
  O  O31  1  0.00078625  0.86050068  0.27534310  1
  O  O32  1  0.25000000  0.07630831  0.10248694  1
  O  O33  1  0.75000000  0.92369169  0.89751306  1
  O  O34  1  0.75000000  0.57630831  0.39751306  1
  O  O35  1  0.25000000  0.42369169  0.60248694  1
