# generated using pymatgen
data_Te3Pt2
_symmetry_space_group_name_H-M   'P 1'
_cell_length_a   17.69118107
_cell_length_b   17.69118104
_cell_length_c   17.69118033
_cell_angle_alpha   13.18044738
_cell_angle_beta   13.18044784
_cell_angle_gamma   13.18044680
_symmetry_Int_Tables_number   1
_chemical_formula_structural   Te3Pt2
_chemical_formula_sum   'Te6 Pt4'
_cell_volume   250.41054378
_cell_formula_units_Z   2
loop_
 _symmetry_equiv_pos_site_id
 _symmetry_equiv_pos_as_xyz
  1  'x, y, z'
loop_
 _atom_site_type_symbol
 _atom_site_label
 _atom_site_symmetry_multiplicity
 _atom_site_fract_x
 _atom_site_fract_y
 _atom_site_fract_z
 _atom_site_occupancy
  Pt  Pt0  1  0.34744210  0.34744210  0.34744210  1
  Pt  Pt1  1  0.65255790  0.65255790  0.65255790  1
  Pt  Pt2  1  0.45014242  0.45014242  0.45014242  1
  Pt  Pt3  1  0.54985758  0.54985758  0.54985758  1
  Te  Te4  1  0.03701674  0.03701674  0.03701674  1
  Te  Te5  1  0.96298326  0.96298326  0.96298326  1
  Te  Te6  1  0.14256179  0.14256179  0.14256179  1
  Te  Te7  1  0.85743821  0.85743821  0.85743821  1
  Te  Te8  1  0.24289502  0.24289502  0.24289502  1
  Te  Te9  1  0.75710498  0.75710498  0.75710498  1
