# generated using pymatgen
data_Cs2K4Fe2O5
_symmetry_space_group_name_H-M   'P 1'
_cell_length_a   6.80353353
_cell_length_b   6.80353392
_cell_length_c   7.05681124
_cell_angle_alpha   90.03859184
_cell_angle_beta   90.03859198
_cell_angle_gamma   116.94196495
_symmetry_Int_Tables_number   1
_chemical_formula_structural   Cs2K4Fe2O5
_chemical_formula_sum   'Cs2 K4 Fe2 O5'
_cell_volume   291.19369512
_cell_formula_units_Z   1
loop_
 _symmetry_equiv_pos_site_id
 _symmetry_equiv_pos_as_xyz
  1  'x, y, z'
loop_
 _atom_site_type_symbol
 _atom_site_label
 _atom_site_symmetry_multiplicity
 _atom_site_fract_x
 _atom_site_fract_y
 _atom_site_fract_z
 _atom_site_occupancy
  Cs  Cs0  1  0.67042102  0.67042102  0.80114307  1
  Cs  Cs1  1  0.32957898  0.32957898  0.19885693  1
  K  K2  1  0.76141567  0.23858433  0.50000000  1
  K  K3  1  0.23858433  0.76141567  0.50000000  1
  K  K4  1  0.22246733  0.77753267  0.00000000  1
  K  K5  1  0.77753267  0.22246733  1.00000000  1
  Fe  Fe6  1  0.80198991  0.80198991  0.30867829  1
  Fe  Fe7  1  0.19801009  0.19801009  0.69132171  1
  O  O8  1  0.43672535  0.14622797  0.77192347  1
  O  O9  1  0.85377203  0.56327465  0.22807653  1
  O  O10  1  0.56327465  0.85377203  0.22807653  1
  O  O11  1  0.14622797  0.43672535  0.77192347  1
  O  O12  1  0.00000000  0.00000000  0.50000000  1
