# generated using pymatgen
data_LiZnIO4
_symmetry_space_group_name_H-M   'P 1'
_cell_length_a   6.29003825
_cell_length_b   6.34002740
_cell_length_c   5.88630882
_cell_angle_alpha   90.00000000
_cell_angle_beta   90.00000000
_cell_angle_gamma   119.73951747
_symmetry_Int_Tables_number   1
_chemical_formula_structural   LiZnIO4
_chemical_formula_sum   'Li2 Zn2 I2 O8'
_cell_volume   203.82246811
_cell_formula_units_Z   2
loop_
 _symmetry_equiv_pos_site_id
 _symmetry_equiv_pos_as_xyz
  1  'x, y, z'
loop_
 _atom_site_type_symbol
 _atom_site_label
 _atom_site_symmetry_multiplicity
 _atom_site_fract_x
 _atom_site_fract_y
 _atom_site_fract_z
 _atom_site_occupancy
  Li  Li0  1  0.99921732  0.87099899  0.25000000  1
  Li  Li1  1  0.12821833  0.12900101  0.75000000  1
  Zn  Zn2  1  0.56260206  0.00000000  0.50000000  1
  Zn  Zn3  1  0.56260206  -0.00000000  0.00000000  1
  I  I4  1  0.09191726  0.43693462  0.25000000  1
  I  I5  1  0.65498264  0.56306538  0.75000000  1
  O  O6  1  0.82078306  0.08713728  0.25000000  1
  O  O7  1  0.73364578  0.91286272  0.75000000  1
  O  O8  1  0.32496818  0.83544289  0.25000000  1
  O  O9  1  0.48952529  0.16455711  0.75000000  1
  O  O10  1  0.24300260  0.37503621  0.48617176  1
  O  O11  1  0.86796640  0.62496379  0.51382824  1
  O  O12  1  0.24300260  0.37503621  0.01382824  1
  O  O13  1  0.86796640  0.62496379  0.98617176  1
