# generated using pymatgen
data_GdVO3
_symmetry_space_group_name_H-M   'P 1'
_cell_length_a   5.41084948
_cell_length_b   5.69855337
_cell_length_c   7.72752236
_cell_angle_alpha   90.00000000
_cell_angle_beta   90.00000000
_cell_angle_gamma   90.00000000
_symmetry_Int_Tables_number   1
_chemical_formula_structural   GdVO3
_chemical_formula_sum   'Gd4 V4 O12'
_cell_volume   238.27053680
_cell_formula_units_Z   4
loop_
 _symmetry_equiv_pos_site_id
 _symmetry_equiv_pos_as_xyz
  1  'x, y, z'
loop_
 _atom_site_type_symbol
 _atom_site_label
 _atom_site_symmetry_multiplicity
 _atom_site_fract_x
 _atom_site_fract_y
 _atom_site_fract_z
 _atom_site_occupancy
  Gd  Gd0  1  0.97881485  0.93279345  0.25000000  1
  Gd  Gd1  1  0.47881485  0.56720655  0.75000000  1
  Gd  Gd2  1  0.52118515  0.43279345  0.25000000  1
  Gd  Gd3  1  0.02118515  0.06720655  0.75000000  1
  V  V4  1  0.50000000  0.00000000  0.00000000  1
  V  V5  1  0.00000000  0.50000000  0.00000000  1
  V  V6  1  0.00000000  0.50000000  0.50000000  1
  V  V7  1  0.50000000  0.00000000  0.50000000  1
  O  O8  1  0.11097907  0.53587727  0.25000000  1
  O  O9  1  0.61097907  0.96412273  0.75000000  1
  O  O10  1  0.38902093  0.03587727  0.25000000  1
  O  O11  1  0.88902093  0.46412273  0.75000000  1
  O  O12  1  0.68972903  0.70171215  0.05647456  1
  O  O13  1  0.18972903  0.79828785  0.94352544  1
  O  O14  1  0.81027097  0.20171215  0.44352544  1
  O  O15  1  0.31027097  0.29828785  0.55647456  1
  O  O16  1  0.31027097  0.29828785  0.94352544  1
  O  O17  1  0.81027097  0.20171215  0.05647456  1
  O  O18  1  0.18972903  0.79828785  0.55647456  1
  O  O19  1  0.68972903  0.70171215  0.44352544  1
