# generated using pymatgen
data_TlCuAsO4
_symmetry_space_group_name_H-M   'P 1'
_cell_length_a   5.07869850
_cell_length_b   5.07869791
_cell_length_c   18.53195308
_cell_angle_alpha   92.79538461
_cell_angle_beta   92.79538448
_cell_angle_gamma   91.46750429
_symmetry_Int_Tables_number   1
_chemical_formula_structural   TlCuAsO4
_chemical_formula_sum   'Tl4 Cu4 As4 O16'
_cell_volume   476.67332156
_cell_formula_units_Z   4
loop_
 _symmetry_equiv_pos_site_id
 _symmetry_equiv_pos_as_xyz
  1  'x, y, z'
loop_
 _atom_site_type_symbol
 _atom_site_label
 _atom_site_symmetry_multiplicity
 _atom_site_fract_x
 _atom_site_fract_y
 _atom_site_fract_z
 _atom_site_occupancy
  Tl  Tl0  1  0.20790817  0.79939196  0.06140198  1
  Tl  Tl1  1  0.20060804  0.79209183  0.43859802  1
  Tl  Tl2  1  0.79209183  0.20060804  0.93859802  1
  Tl  Tl3  1  0.79939196  0.20790817  0.56140198  1
  Cu  Cu4  1  0.16587176  0.33166334  0.24944832  1
  Cu  Cu5  1  0.66833666  0.83412824  0.25055168  1
  Cu  Cu6  1  0.83412824  0.66833666  0.75055168  1
  Cu  Cu7  1  0.33166334  0.16587176  0.74944832  1
  As  As8  1  0.64418972  0.30945225  0.14739659  1
  As  As9  1  0.69054775  0.35581028  0.35260341  1
  As  As10  1  0.35581028  0.69054775  0.85260341  1
  As  As11  1  0.30945225  0.64418972  0.64739659  1
  O  O12  1  0.47195126  0.13725385  0.21369032  1
  O  O13  1  0.86274615  0.52804874  0.28630968  1
  O  O14  1  0.52804874  0.86274615  0.78630968  1
  O  O15  1  0.13725385  0.47195126  0.71369032  1
  O  O16  1  0.47077625  0.79269068  0.93696585  1
  O  O17  1  0.20730932  0.52922375  0.56303415  1
  O  O18  1  0.52922375  0.20730932  0.06303415  1
  O  O19  1  0.79269068  0.47077625  0.43696585  1
  O  O20  1  0.57376476  0.64129547  0.16097452  1
  O  O21  1  0.35870453  0.42623524  0.33902548  1
  O  O22  1  0.42623524  0.35870453  0.83902548  1
  O  O23  1  0.64129547  0.57376476  0.66097452  1
  O  O24  1  0.97491323  0.23992423  0.15968328  1
  O  O25  1  0.76007577  0.02508677  0.34031672  1
  O  O26  1  0.02508677  0.76007577  0.84031672  1
  O  O27  1  0.23992423  0.97491323  0.65968328  1
