# generated using pymatgen
data_Cs2LiVO4
_symmetry_space_group_name_H-M   'P 1'
_cell_length_a   6.13198658
_cell_length_b   6.97662715
_cell_length_c   8.33379701
_cell_angle_alpha   90.00000000
_cell_angle_beta   90.00000000
_cell_angle_gamma   116.06984099
_symmetry_Int_Tables_number   1
_chemical_formula_structural   Cs2LiVO4
_chemical_formula_sum   'Cs4 Li2 V2 O8'
_cell_volume   320.25153197
_cell_formula_units_Z   2
loop_
 _symmetry_equiv_pos_site_id
 _symmetry_equiv_pos_as_xyz
  1  'x, y, z'
loop_
 _atom_site_type_symbol
 _atom_site_label
 _atom_site_symmetry_multiplicity
 _atom_site_fract_x
 _atom_site_fract_y
 _atom_site_fract_z
 _atom_site_occupancy
  Li  Li0  1  0.79579815  0.59159630  0.82326111  1
  Li  Li1  1  0.20420185  0.40840370  0.32326111  1
  O  O2  1  0.42922023  0.32819011  0.21039354  1
  O  O3  1  0.57077977  0.67180989  0.71039354  1
  O  O4  1  0.63952851  0.27905703  0.91560705  1
  O  O5  1  0.36047149  0.72094297  0.41560705  1
  O  O6  1  0.89896988  0.32819011  0.21039354  1
  O  O7  1  0.10103012  0.67180989  0.71039354  1
  O  O8  1  0.16295149  0.32590299  0.56051810  1
  O  O9  1  0.83704851  0.67409701  0.06051810  1
  V  V10  1  0.29988032  0.59976065  0.60452040  1
  V  V11  1  0.70011968  0.40023935  0.10452040  1
  Cs  Cs12  1  0.60689942  0.21379885  0.54247445  1
  Cs  Cs13  1  0.39310058  0.78620115  0.04247445  1
  Cs  Cs14  1  0.92782037  0.85564074  0.41183179  1
  Cs  Cs15  1  0.07217963  0.14435926  0.91183179  1
