# generated using pymatgen
data_Hg7Cl2O3
_symmetry_space_group_name_H-M   'P 1'
_cell_length_a   6.63681093
_cell_length_b   11.97066231
_cell_length_c   14.86016625
_cell_angle_alpha   90.00000000
_cell_angle_beta   90.00000000
_cell_angle_gamma   90.00000000
_symmetry_Int_Tables_number   1
_chemical_formula_structural   Hg7Cl2O3
_chemical_formula_sum   'Hg28 Cl8 O12'
_cell_volume   1180.59596180
_cell_formula_units_Z   4
loop_
 _symmetry_equiv_pos_site_id
 _symmetry_equiv_pos_as_xyz
  1  'x, y, z'
loop_
 _atom_site_type_symbol
 _atom_site_label
 _atom_site_symmetry_multiplicity
 _atom_site_fract_x
 _atom_site_fract_y
 _atom_site_fract_z
 _atom_site_occupancy
  Hg  Hg0  1  0.46777278  0.11637206  0.57928318  1
  Hg  Hg1  1  0.46777278  0.38362794  0.42071682  1
  Hg  Hg2  1  0.53222722  0.61637206  0.92071682  1
  Hg  Hg3  1  0.53222722  0.88362794  0.07928318  1
  Hg  Hg4  1  0.53222722  0.88362794  0.42071682  1
  Hg  Hg5  1  0.53222722  0.61637206  0.57928318  1
  Hg  Hg6  1  0.46777278  0.38362794  0.07928318  1
  Hg  Hg7  1  0.46777278  0.11637206  0.92071682  1
  Hg  Hg8  1  0.68093922  0.29012233  0.62979733  1
  Hg  Hg9  1  0.68093922  0.20987767  0.37020267  1
  Hg  Hg10  1  0.31906078  0.79012233  0.87020267  1
  Hg  Hg11  1  0.31906078  0.70987767  0.12979733  1
  Hg  Hg12  1  0.31906078  0.70987767  0.37020267  1
  Hg  Hg13  1  0.31906078  0.79012233  0.62979733  1
  Hg  Hg14  1  0.68093922  0.20987767  0.12979733  1
  Hg  Hg15  1  0.68093922  0.29012233  0.87020267  1
  Hg  Hg16  1  0.13399356  0.03619972  0.75000000  1
  Hg  Hg17  1  0.13399356  0.46380028  0.25000000  1
  Hg  Hg18  1  0.86600644  0.53619972  0.75000000  1
  Hg  Hg19  1  0.86600644  0.96380028  0.25000000  1
  Hg  Hg20  1  0.16189640  0.24536957  0.25000000  1
  Hg  Hg21  1  0.16189640  0.25463043  0.75000000  1
  Hg  Hg22  1  0.83810360  0.74536957  0.25000000  1
  Hg  Hg23  1  0.83810360  0.75463043  0.75000000  1
  Hg  Hg24  1  0.00000000  0.00000000  0.50000000  1
  Hg  Hg25  1  0.00000000  0.50000000  0.50000000  1
  Hg  Hg26  1  0.00000000  0.50000000  0.00000000  1
  Hg  Hg27  1  0.00000000  0.00000000  0.00000000  1
  Cl  Cl28  1  0.07515740  0.25000000  0.50000000  1
  Cl  Cl29  1  0.92484260  0.75000000  0.00000000  1
  Cl  Cl30  1  0.92484260  0.75000000  0.50000000  1
  Cl  Cl31  1  0.07515740  0.25000000  0.00000000  1
  Cl  Cl32  1  0.33323438  0.44284785  0.75000000  1
  Cl  Cl33  1  0.33323438  0.05715215  0.25000000  1
  Cl  Cl34  1  0.66676562  0.94284785  0.75000000  1
  Cl  Cl35  1  0.66676562  0.55715215  0.25000000  1
  O  O36  1  0.85565534  0.35843030  0.75000000  1
  O  O37  1  0.85565534  0.14156970  0.25000000  1
  O  O38  1  0.14434466  0.85843030  0.75000000  1
  O  O39  1  0.14434466  0.64156970  0.25000000  1
  O  O40  1  0.28373225  0.96960528  0.55270225  1
  O  O41  1  0.28373225  0.53039472  0.44729775  1
  O  O42  1  0.71626775  0.46960528  0.94729775  1
  O  O43  1  0.71626775  0.03039472  0.05270225  1
  O  O44  1  0.71626775  0.03039472  0.44729775  1
  O  O45  1  0.71626775  0.46960528  0.55270225  1
  O  O46  1  0.28373225  0.53039472  0.05270225  1
  O  O47  1  0.28373225  0.96960528  0.94729775  1
