# generated using pymatgen
data_Na5HfAs3
_symmetry_space_group_name_H-M   'P 1'
_cell_length_a   7.56578262
_cell_length_b   8.51211908
_cell_length_c   13.93078332
_cell_angle_alpha   90.44041084
_cell_angle_beta   90.00000000
_cell_angle_gamma   90.00000000
_symmetry_Int_Tables_number   1
_chemical_formula_structural   Na5HfAs3
_chemical_formula_sum   'Na20 Hf4 As12'
_cell_volume   897.12767976
_cell_formula_units_Z   4
loop_
 _symmetry_equiv_pos_site_id
 _symmetry_equiv_pos_as_xyz
  1  'x, y, z'
loop_
 _atom_site_type_symbol
 _atom_site_label
 _atom_site_symmetry_multiplicity
 _atom_site_fract_x
 _atom_site_fract_y
 _atom_site_fract_z
 _atom_site_occupancy
  Hf  Hf0  1  0.85790011  0.92538670  0.58605894  1
  Hf  Hf1  1  0.35790011  0.57461330  0.91394106  1
  Hf  Hf2  1  0.14209989  0.07461330  0.41394106  1
  Hf  Hf3  1  0.64209989  0.42538670  0.08605894  1
  As  As4  1  0.20664811  0.91217382  0.57001097  1
  As  As5  1  0.70664811  0.58782618  0.92998903  1
  As  As6  1  0.79335189  0.08782618  0.42998903  1
  As  As7  1  0.29335189  0.41217382  0.07001097  1
  As  As8  1  0.74255954  0.63887884  0.58267061  1
  As  As9  1  0.24255954  0.86112116  0.91732939  1
  As  As10  1  0.25744046  0.36112116  0.41732939  1
  As  As11  1  0.75744046  0.13887884  0.08267061  1
  As  As12  1  0.76276900  0.08832921  0.73476354  1
  As  As13  1  0.26276900  0.41167079  0.76523646  1
  As  As14  1  0.23723100  0.91167079  0.26523646  1
  As  As15  1  0.73723100  0.58832921  0.23476354  1
  Na  Na16  1  0.50853679  0.82048337  0.73749339  1
  Na  Na17  1  0.00853679  0.67951663  0.76250661  1
  Na  Na18  1  0.49146321  0.17951663  0.26250661  1
  Na  Na19  1  0.99146321  0.32048337  0.23749339  1
  Na  Na20  1  0.98858774  0.33203409  0.59279428  1
  Na  Na21  1  0.48858774  0.16796591  0.90720572  1
  Na  Na22  1  0.01141226  0.66796591  0.40720572  1
  Na  Na23  1  0.51141226  0.83203409  0.09279428  1
  Na  Na24  1  0.52801774  0.81986919  0.41519225  1
  Na  Na25  1  0.02801774  0.68013081  0.08480775  1
  Na  Na26  1  0.47198226  0.18013081  0.58480775  1
  Na  Na27  1  0.97198226  0.31986919  0.91519225  1
  Na  Na28  1  0.15544228  0.07758052  0.75722742  1
  Na  Na29  1  0.65544228  0.42241948  0.74277258  1
  Na  Na30  1  0.84455772  0.92241948  0.24277258  1
  Na  Na31  1  0.34455772  0.57758052  0.25722742  1
  Na  Na32  1  0.33568917  0.57868364  0.58076286  1
  Na  Na33  1  0.83568917  0.92131636  0.91923714  1
  Na  Na34  1  0.66431083  0.42131636  0.41923714  1
  Na  Na35  1  0.16431083  0.07868364  0.08076286  1
