# generated using pymatgen
data_SrNb5Se8
_symmetry_space_group_name_H-M   'P 1'
_cell_length_a   3.55098348
_cell_length_b   9.38094235
_cell_length_c   9.39765841
_cell_angle_alpha   104.16323703
_cell_angle_beta   90.00000000
_cell_angle_gamma   100.90994136
_symmetry_Int_Tables_number   1
_chemical_formula_structural   SrNb5Se8
_chemical_formula_sum   'Sr1 Nb5 Se8'
_cell_volume   297.69589944
_cell_formula_units_Z   1
loop_
 _symmetry_equiv_pos_site_id
 _symmetry_equiv_pos_as_xyz
  1  'x, y, z'
loop_
 _atom_site_type_symbol
 _atom_site_label
 _atom_site_symmetry_multiplicity
 _atom_site_fract_x
 _atom_site_fract_y
 _atom_site_fract_z
 _atom_site_occupancy
  Sr  Sr0  1  0.50000000  0.00000000  0.50000000  1
  Nb  Nb1  1  0.00000000  0.00000000  -0.00000000  1
  Nb  Nb2  1  0.35967021  0.71934041  0.01208915  1
  Nb  Nb3  1  0.64032979  0.28065959  0.98791085  1
  Nb  Nb4  1  0.28776207  0.57552415  0.62559343  1
  Nb  Nb5  1  0.71223793  0.42447585  0.37440657  1
  Se  Se6  1  0.57346128  0.14692257  0.19265183  1
  Se  Se7  1  0.42653872  0.85307743  0.80734817  1
  Se  Se8  1  0.07875853  0.15751705  0.79602803  1
  Se  Se9  1  0.92124147  0.84248295  0.20397197  1
  Se  Se10  1  0.14607135  0.29214271  0.50209804  1
  Se  Se11  1  0.85392865  0.70785729  0.49790196  1
  Se  Se12  1  0.24046856  0.48093713  0.15898295  1
  Se  Se13  1  0.75953144  0.51906287  0.84101705  1
