# generated using pymatgen
data_SbBr5F6
_symmetry_space_group_name_H-M   'P 1'
_cell_length_a   7.47793456
_cell_length_b   7.47358229
_cell_length_c   13.23539772
_cell_angle_alpha   95.13796794
_cell_angle_beta   111.33246565
_cell_angle_gamma   101.32833090
_symmetry_Int_Tables_number   1
_chemical_formula_structural   SbBr5F6
_chemical_formula_sum   'Sb2 Br10 F12'
_cell_volume   665.00251642
_cell_formula_units_Z   2
loop_
 _symmetry_equiv_pos_site_id
 _symmetry_equiv_pos_as_xyz
  1  'x, y, z'
loop_
 _atom_site_type_symbol
 _atom_site_label
 _atom_site_symmetry_multiplicity
 _atom_site_fract_x
 _atom_site_fract_y
 _atom_site_fract_z
 _atom_site_occupancy
  Br  Br0  1  0.50000000  0.00000000  0.50000000  1
  Br  Br1  1  0.00000000  0.00000000  0.00000000  1
  Br  Br2  1  0.87303539  0.13954658  0.57284996  1
  Br  Br3  1  0.06634942  0.30043642  0.92694207  1
  Br  Br4  1  0.12696461  0.86045342  0.42715004  1
  Br  Br5  1  0.93365058  0.69956358  0.07305793  1
  Br  Br6  1  0.98742229  0.92451445  0.67769677  1
  Br  Br7  1  0.74648811  0.30906561  0.82186534  1
  Br  Br8  1  0.01257771  0.07548555  0.32230323  1
  Br  Br9  1  0.25351189  0.69093439  0.17813466  1
  Sb  Sb10  1  0.60873299  0.35865111  0.24998556  1
  Sb  Sb11  1  0.39126701  0.64134889  0.75001444  1
  F  F12  1  0.65262379  0.62575425  0.27345353  1
  F  F13  1  0.85221882  0.37866196  0.22639651  1
  F  F14  1  0.34737621  0.37424575  0.72654647  1
  F  F15  1  0.14778118  0.62133804  0.77360349  1
  F  F16  1  0.37183920  0.33951123  0.27675432  1
  F  F17  1  0.56346532  0.09481785  0.22364135  1
  F  F18  1  0.62816080  0.66048877  0.72324568  1
  F  F19  1  0.43653468  0.90518215  0.77635865  1
  F  F20  1  0.75967889  0.37164218  0.40496076  1
  F  F21  1  0.46662704  0.35423938  0.09514279  1
  F  F22  1  0.24032111  0.62835782  0.59503924  1
  F  F23  1  0.53337296  0.64576062  0.90485721  1
