# generated using pymatgen
data_InGaBr4
_symmetry_space_group_name_H-M   'P 1'
_cell_length_a   7.62052543
_cell_length_b   9.28953157
_cell_length_c   13.33604478
_cell_angle_alpha   105.09501563
_cell_angle_beta   90.00000000
_cell_angle_gamma   90.00000000
_symmetry_Int_Tables_number   1
_chemical_formula_structural   InGaBr4
_chemical_formula_sum   'In4 Ga4 Br16'
_cell_volume   911.49845306
_cell_formula_units_Z   4
loop_
 _symmetry_equiv_pos_site_id
 _symmetry_equiv_pos_as_xyz
  1  'x, y, z'
loop_
 _atom_site_type_symbol
 _atom_site_label
 _atom_site_symmetry_multiplicity
 _atom_site_fract_x
 _atom_site_fract_y
 _atom_site_fract_z
 _atom_site_occupancy
  In  In0  1  0.87961610  0.00000000  0.25000000  1
  In  In1  1  0.12038390  0.00000000  0.75000000  1
  In  In2  1  0.40854366  0.50000000  0.25000000  1
  In  In3  1  0.59145634  0.50000000  0.75000000  1
  Ga  Ga4  1  0.71485565  0.78433367  0.54669595  1
  Ga  Ga5  1  0.71485565  0.21566633  0.95330405  1
  Ga  Ga6  1  0.28514435  0.21566633  0.45330405  1
  Ga  Ga7  1  0.28514435  0.78433367  0.04669595  1
  Br  Br8  1  0.07635638  0.33568504  0.37035934  1
  Br  Br9  1  0.07635638  0.66431496  0.12964066  1
  Br  Br10  1  0.92364362  0.66431496  0.62964066  1
  Br  Br11  1  0.92364362  0.33568504  0.87035934  1
  Br  Br12  1  0.43144899  0.28533770  0.91093049  1
  Br  Br13  1  0.43144899  0.71466230  0.58906951  1
  Br  Br14  1  0.56855101  0.71466230  0.08906951  1
  Br  Br15  1  0.56855101  0.28533770  0.41093049  1
  Br  Br16  1  0.75163746  0.70261636  0.36324619  1
  Br  Br17  1  0.75163746  0.29738364  0.13675381  1
  Br  Br18  1  0.24836254  0.29738364  0.63675381  1
  Br  Br19  1  0.24836254  0.70261636  0.86324619  1
  Br  Br20  1  0.23301820  0.95720258  0.39760244  1
  Br  Br21  1  0.23301820  0.04279742  0.10239756  1
  Br  Br22  1  0.76698180  0.04279742  0.60239756  1
  Br  Br23  1  0.76698180  0.95720258  0.89760244  1
