# generated using pymatgen
data_GaNi2BO5
_symmetry_space_group_name_H-M   'P 1'
_cell_length_a   3.00063171
_cell_length_b   9.32574262
_cell_length_c   12.28843356
_cell_angle_alpha   90.00000000
_cell_angle_beta   90.00000000
_cell_angle_gamma   90.00000000
_symmetry_Int_Tables_number   1
_chemical_formula_structural   GaNi2BO5
_chemical_formula_sum   'Ga4 Ni8 B4 O20'
_cell_volume   343.86869894
_cell_formula_units_Z   4
loop_
 _symmetry_equiv_pos_site_id
 _symmetry_equiv_pos_as_xyz
  1  'x, y, z'
loop_
 _atom_site_type_symbol
 _atom_site_label
 _atom_site_symmetry_multiplicity
 _atom_site_fract_x
 _atom_site_fract_y
 _atom_site_fract_z
 _atom_site_occupancy
  Ni  Ni0  1  0.50000000  0.00006866  0.28145821  1
  Ni  Ni1  1  0.50000000  0.99993134  0.71854179  1
  Ni  Ni2  1  0.50000000  0.50006866  0.21854179  1
  Ni  Ni3  1  0.50000000  0.49993134  0.78145821  1
  Ni  Ni4  1  0.50000000  0.00000000  0.00000000  1
  Ni  Ni5  1  0.50000000  0.50000000  0.50000000  1
  Ni  Ni6  1  0.00000000  0.50000000  0.00000000  1
  Ni  Ni7  1  0.00000000  0.00000000  0.50000000  1
  Ga  Ga8  1  0.00000000  0.23887210  0.11615730  1
  Ga  Ga9  1  0.00000000  0.76112790  0.88384270  1
  Ga  Ga10  1  0.00000000  0.73887210  0.38384270  1
  Ga  Ga11  1  0.00000000  0.26112790  0.61615730  1
  B  B12  1  0.00000000  0.27209784  0.36110239  1
  B  B13  1  0.00000000  0.72790216  0.63889761  1
  B  B14  1  0.00000000  0.77209784  0.13889761  1
  B  B15  1  0.00000000  0.22790216  0.86110239  1
  O  O16  1  0.00000000  0.15141617  0.95856342  1
  O  O17  1  0.00000000  0.84858383  0.04143658  1
  O  O18  1  0.00000000  0.65141617  0.54143658  1
  O  O19  1  0.00000000  0.34858383  0.45856342  1
  O  O20  1  0.50000000  0.11003590  0.14300770  1
  O  O21  1  0.50000000  0.88996410  0.85699230  1
  O  O22  1  0.50000000  0.61003590  0.35699230  1
  O  O23  1  0.50000000  0.38996410  0.64300770  1
  O  O24  1  0.00000000  0.12414456  0.35962346  1
  O  O25  1  0.00000000  0.87585544  0.64037654  1
  O  O26  1  0.00000000  0.62414456  0.14037654  1
  O  O27  1  0.00000000  0.37585544  0.85962346  1
  O  O28  1  0.50000000  0.38138682  0.07900217  1
  O  O29  1  0.50000000  0.61861318  0.92099783  1
  O  O30  1  0.50000000  0.88138682  0.42099783  1
  O  O31  1  0.50000000  0.11861318  0.57900217  1
  O  O32  1  0.00000000  0.34721786  0.26292831  1
  O  O33  1  0.00000000  0.65278214  0.73707169  1
  O  O34  1  0.00000000  0.84721786  0.23707169  1
  O  O35  1  0.00000000  0.15278214  0.76292831  1
