# generated using pymatgen
data_KTi2(PO4)3
_symmetry_space_group_name_H-M   'P 1'
_cell_length_a   9.20171052
_cell_length_b   9.20171065
_cell_length_c   9.20171032
_cell_angle_alpha   54.97645362
_cell_angle_beta   54.97645299
_cell_angle_gamma   54.97645447
_symmetry_Int_Tables_number   1
_chemical_formula_structural   KTi2(PO4)3
_chemical_formula_sum   'K2 Ti4 P6 O24'
_cell_volume   486.52314530
_cell_formula_units_Z   2
loop_
 _symmetry_equiv_pos_site_id
 _symmetry_equiv_pos_as_xyz
  1  'x, y, z'
loop_
 _atom_site_type_symbol
 _atom_site_label
 _atom_site_symmetry_multiplicity
 _atom_site_fract_x
 _atom_site_fract_y
 _atom_site_fract_z
 _atom_site_occupancy
  Ti  Ti0  1  0.14949966  0.14949966  0.14949966  1
  Ti  Ti1  1  0.35050034  0.35050034  0.35050034  1
  Ti  Ti2  1  0.85050034  0.85050034  0.85050034  1
  Ti  Ti3  1  0.64949966  0.64949966  0.64949966  1
  K  K4  1  0.00000000  0.00000000  0.00000000  1
  K  K5  1  0.50000000  0.50000000  0.50000000  1
  P  P6  1  0.96813828  0.53186172  0.25000000  1
  P  P7  1  0.25000000  0.96813828  0.53186172  1
  P  P8  1  0.53186172  0.25000000  0.96813828  1
  P  P9  1  0.03186172  0.46813828  0.75000000  1
  P  P10  1  0.75000000  0.03186172  0.46813828  1
  P  P11  1  0.46813828  0.75000000  0.03186172  1
  O  O12  1  0.51069245  0.24913697  0.14771116  1
  O  O13  1  0.14771116  0.51069245  0.24913697  1
  O  O14  1  0.24913697  0.14771116  0.51069245  1
  O  O15  1  0.25086303  0.98930755  0.35228884  1
  O  O16  1  0.35228884  0.25086303  0.98930755  1
  O  O17  1  0.98930755  0.35228884  0.25086303  1
  O  O18  1  0.48930755  0.75086303  0.85228884  1
  O  O19  1  0.85228884  0.48930755  0.75086303  1
  O  O20  1  0.75086303  0.85228884  0.48930755  1
  O  O21  1  0.74913697  0.01069245  0.64771116  1
  O  O22  1  0.64771116  0.74913697  0.01069245  1
  O  O23  1  0.01069245  0.64771116  0.74913697  1
  O  O24  1  0.70331892  0.06957122  0.93196855  1
  O  O25  1  0.93196855  0.70331892  0.06957122  1
  O  O26  1  0.06957122  0.93196855  0.70331892  1
  O  O27  1  0.43042878  0.79668108  0.56803145  1
  O  O28  1  0.56803145  0.43042878  0.79668108  1
  O  O29  1  0.79668108  0.56803145  0.43042878  1
  O  O30  1  0.29668108  0.93042878  0.06803145  1
  O  O31  1  0.06803145  0.29668108  0.93042878  1
  O  O32  1  0.93042878  0.06803145  0.29668108  1
  O  O33  1  0.56957122  0.20331892  0.43196855  1
  O  O34  1  0.43196855  0.56957122  0.20331892  1
  O  O35  1  0.20331892  0.43196855  0.56957122  1
