# generated using pymatgen
data_Sb3O2F5
_symmetry_space_group_name_H-M   'P 1'
_cell_length_a   6.08715915
_cell_length_b   9.35513466
_cell_length_c   13.46085028
_cell_angle_alpha   108.91552965
_cell_angle_beta   90.00000000
_cell_angle_gamma   90.00000000
_symmetry_Int_Tables_number   1
_chemical_formula_structural   Sb3O2F5
_chemical_formula_sum   'Sb12 O8 F20'
_cell_volume   725.14890499
_cell_formula_units_Z   4
loop_
 _symmetry_equiv_pos_site_id
 _symmetry_equiv_pos_as_xyz
  1  'x, y, z'
loop_
 _atom_site_type_symbol
 _atom_site_label
 _atom_site_symmetry_multiplicity
 _atom_site_fract_x
 _atom_site_fract_y
 _atom_site_fract_z
 _atom_site_occupancy
  Sb  Sb0  1  0.05590293  0.25000000  0.00000000  1
  Sb  Sb1  1  0.94409707  0.75000000  0.00000000  1
  Sb  Sb2  1  0.43336786  0.11528947  0.20876818  1
  Sb  Sb3  1  0.43336786  0.38471053  0.79123182  1
  Sb  Sb4  1  0.56663214  0.88471053  0.79123182  1
  Sb  Sb5  1  0.56663214  0.61528947  0.20876818  1
  Sb  Sb6  1  0.37577011  0.25000000  0.50000000  1
  Sb  Sb7  1  0.62422989  0.75000000  0.50000000  1
  Sb  Sb8  1  0.04324573  0.41162557  0.36247871  1
  Sb  Sb9  1  0.04324573  0.08837443  0.63752129  1
  Sb  Sb10  1  0.95675427  0.58837443  0.63752129  1
  Sb  Sb11  1  0.95675427  0.91162557  0.36247871  1
  O  O12  1  0.26045026  0.21901092  0.33900212  1
  O  O13  1  0.26045026  0.28098908  0.66099788  1
  O  O14  1  0.73954974  0.78098908  0.66099788  1
  O  O15  1  0.73954974  0.71901092  0.33900212  1
  O  O16  1  0.16099475  0.07874990  0.49204628  1
  O  O17  1  0.16099475  0.42125010  0.50795372  1
  O  O18  1  0.83900525  0.92125010  0.50795372  1
  O  O19  1  0.83900525  0.57874990  0.49204628  1
  F  F20  1  0.80277827  0.26688516  0.35999058  1
  F  F21  1  0.80277827  0.23311484  0.64000942  1
  F  F22  1  0.19722173  0.73311484  0.64000942  1
  F  F23  1  0.19722173  0.76688516  0.35999058  1
  F  F24  1  0.27273145  0.08518591  0.95718158  1
  F  F25  1  0.27273145  0.41481409  0.04281842  1
  F  F26  1  0.72726855  0.91481409  0.04281842  1
  F  F27  1  0.72726855  0.58518591  0.95718158  1
  F  F28  1  0.45080177  0.49110592  0.29575616  1
  F  F29  1  0.45080177  0.00889408  0.70424384  1
  F  F30  1  0.54919823  0.50889408  0.70424384  1
  F  F31  1  0.54919823  0.99110592  0.29575616  1
  F  F32  1  0.13770999  0.23107756  0.14971897  1
  F  F33  1  0.13770999  0.26892244  0.85028103  1
  F  F34  1  0.86229001  0.76892244  0.85028103  1
  F  F35  1  0.86229001  0.73107756  0.14971897  1
  F  F36  1  0.77446943  0.05478609  0.84383112  1
  F  F37  1  0.77446943  0.44521391  0.15616888  1
  F  F38  1  0.22553057  0.94521391  0.15616888  1
  F  F39  1  0.22553057  0.55478609  0.84383112  1
