# generated using pymatgen
data_Th(TeO3)2
_symmetry_space_group_name_H-M   'P 1'
_cell_length_a   7.27245296
_cell_length_b   7.65416208
_cell_length_c   11.42985015
_cell_angle_alpha   90.00000000
_cell_angle_beta   90.00000000
_cell_angle_gamma   107.41835561
_symmetry_Int_Tables_number   1
_chemical_formula_structural   Th(TeO3)2
_chemical_formula_sum   'Th4 Te8 O24'
_cell_volume   607.06228551
_cell_formula_units_Z   4
loop_
 _symmetry_equiv_pos_site_id
 _symmetry_equiv_pos_as_xyz
  1  'x, y, z'
loop_
 _atom_site_type_symbol
 _atom_site_label
 _atom_site_symmetry_multiplicity
 _atom_site_fract_x
 _atom_site_fract_y
 _atom_site_fract_z
 _atom_site_occupancy
  Th  Th0  1  0.74284629  0.99635104  0.90860299  1
  Th  Th1  1  0.75715371  0.50364896  0.40860299  1
  Th  Th2  1  0.25715371  0.00364896  0.09139701  1
  Th  Th3  1  0.24284629  0.49635104  0.59139701  1
  Te  Te4  1  0.76622012  0.57518965  0.72140676  1
  Te  Te5  1  0.73377988  0.92481035  0.22140676  1
  Te  Te6  1  0.23377988  0.42481035  0.27859324  1
  Te  Te7  1  0.26622012  0.07518965  0.77859324  1
  Te  Te8  1  0.72496025  0.45062798  0.07843111  1
  Te  Te9  1  0.77503975  0.04937202  0.57843111  1
  Te  Te10  1  0.27503975  0.54937202  0.92156889  1
  Te  Te11  1  0.22496025  0.95062798  0.42156889  1
  O  O12  1  0.86413200  0.82964182  0.75022757  1
  O  O13  1  0.63586800  0.67035818  0.25022757  1
  O  O14  1  0.13586800  0.17035818  0.24977243  1
  O  O15  1  0.36413200  0.32964182  0.74977243  1
  O  O16  1  0.59267302  0.59120309  0.59752267  1
  O  O17  1  0.90732698  0.90879691  0.09752267  1
  O  O18  1  0.40732698  0.40879691  0.40247733  1
  O  O19  1  0.09267302  0.09120309  0.90247733  1
  O  O20  1  0.93314784  0.54659554  0.59782050  1
  O  O21  1  0.56685216  0.95340446  0.09782050  1
  O  O22  1  0.06685216  0.45340446  0.40217950  1
  O  O23  1  0.43314784  0.04659554  0.90217950  1
  O  O24  1  0.81814587  0.29027832  0.98327029  1
  O  O25  1  0.68185413  0.20972168  0.48327029  1
  O  O26  1  0.18185413  0.70972168  0.01672971  1
  O  O27  1  0.31814587  0.79027832  0.51672971  1
  O  O28  1  0.45909267  0.31280206  0.09824561  1
  O  O29  1  0.04090733  0.18719794  0.59824561  1
  O  O30  1  0.54090733  0.68719794  0.90175439  1
  O  O31  1  0.95909267  0.81280206  0.40175439  1
  O  O32  1  0.81256512  0.38621610  0.22380613  1
  O  O33  1  0.68743488  0.11378390  0.72380613  1
  O  O34  1  0.18743488  0.61378390  0.77619387  1
  O  O35  1  0.31256512  0.88621610  0.27619387  1
