# generated using pymatgen
data_KZr2(AsO4)3
_symmetry_space_group_name_H-M   'P 1'
_cell_length_a   9.87988582
_cell_length_b   9.87988579
_cell_length_c   9.87988605
_cell_angle_alpha   55.84946580
_cell_angle_beta   55.84946595
_cell_angle_gamma   55.84946726
_symmetry_Int_Tables_number   1
_chemical_formula_structural   KZr2(AsO4)3
_chemical_formula_sum   'K2 Zr4 As6 O24'
_cell_volume   616.31568414
_cell_formula_units_Z   2
loop_
 _symmetry_equiv_pos_site_id
 _symmetry_equiv_pos_as_xyz
  1  'x, y, z'
loop_
 _atom_site_type_symbol
 _atom_site_label
 _atom_site_symmetry_multiplicity
 _atom_site_fract_x
 _atom_site_fract_y
 _atom_site_fract_z
 _atom_site_occupancy
  Zr  Zr0  1  0.14765929  0.14765929  0.14765929  1
  Zr  Zr1  1  0.35234071  0.35234071  0.35234071  1
  Zr  Zr2  1  0.85234071  0.85234071  0.85234071  1
  Zr  Zr3  1  0.64765929  0.64765929  0.64765929  1
  As  As4  1  0.53441943  0.96558057  0.25000000  1
  As  As5  1  0.25000000  0.53441943  0.96558057  1
  As  As6  1  0.96558057  0.25000000  0.53441943  1
  As  As7  1  0.46558057  0.03441943  0.75000000  1
  As  As8  1  0.75000000  0.46558057  0.03441943  1
  As  As9  1  0.03441943  0.75000000  0.46558057  1
  K  K10  1  0.00000000  0.00000000  0.00000000  1
  K  K11  1  0.50000000  0.50000000  0.50000000  1
  O  O12  1  0.35531722  0.98946599  0.23892288  1
  O  O13  1  0.23892288  0.35531722  0.98946599  1
  O  O14  1  0.98946599  0.23892288  0.35531722  1
  O  O15  1  0.51053401  0.14468278  0.26107712  1
  O  O16  1  0.26107712  0.51053401  0.14468278  1
  O  O17  1  0.14468278  0.26107712  0.51053401  1
  O  O18  1  0.64468278  0.01053401  0.76107712  1
  O  O19  1  0.76107712  0.64468278  0.01053401  1
  O  O20  1  0.01053401  0.76107712  0.64468278  1
  O  O21  1  0.48946599  0.85531722  0.73892288  1
  O  O22  1  0.73892288  0.48946599  0.85531722  1
  O  O23  1  0.85531722  0.73892288  0.48946599  1
  O  O24  1  0.28452906  0.06663345  0.93160249  1
  O  O25  1  0.93160249  0.28452906  0.06663345  1
  O  O26  1  0.06663345  0.93160249  0.28452906  1
  O  O27  1  0.43336655  0.21547094  0.56839751  1
  O  O28  1  0.56839751  0.43336655  0.21547094  1
  O  O29  1  0.21547094  0.56839751  0.43336655  1
  O  O30  1  0.71547094  0.93336655  0.06839751  1
  O  O31  1  0.06839751  0.71547094  0.93336655  1
  O  O32  1  0.93336655  0.06839751  0.71547094  1
  O  O33  1  0.56663345  0.78452906  0.43160249  1
  O  O34  1  0.43160249  0.56663345  0.78452906  1
  O  O35  1  0.78452906  0.43160249  0.56663345  1
