# generated using pymatgen
data_NaMo3P3O16
_symmetry_space_group_name_H-M   'P 1'
_cell_length_a   6.50186094
_cell_length_b   7.78467378
_cell_length_c   13.00519822
_cell_angle_alpha   80.00681216
_cell_angle_beta   79.19740797
_cell_angle_gamma   82.98117593
_symmetry_Int_Tables_number   1
_chemical_formula_structural   NaMo3P3O16
_chemical_formula_sum   'Na2 Mo6 P6 O32'
_cell_volume   634.03978047
_cell_formula_units_Z   2
loop_
 _symmetry_equiv_pos_site_id
 _symmetry_equiv_pos_as_xyz
  1  'x, y, z'
loop_
 _atom_site_type_symbol
 _atom_site_label
 _atom_site_symmetry_multiplicity
 _atom_site_fract_x
 _atom_site_fract_y
 _atom_site_fract_z
 _atom_site_occupancy
  Mo  Mo0  1  0.20305894  0.21628383  0.53994253  1
  Mo  Mo1  1  0.79694106  0.78371617  0.46005747  1
  Mo  Mo2  1  0.40371821  0.75698077  0.16340025  1
  Mo  Mo3  1  0.59628179  0.24301923  0.83659975  1
  Mo  Mo4  1  0.05871316  0.20647931  0.14423789  1
  Mo  Mo5  1  0.94128684  0.79352069  0.85576211  1
  P  P6  1  0.57310908  0.16456094  0.10178318  1
  P  P7  1  0.42689092  0.83543906  0.89821682  1
  P  P8  1  0.30781153  0.85490788  0.42196503  1
  P  P9  1  0.69218847  0.14509212  0.57803497  1
  P  P10  1  0.06433396  0.48364628  0.31612998  1
  P  P11  1  0.93566604  0.51635372  0.68387002  1
  Na  Na12  1  0.59906736  0.33772143  0.32897021  1
  Na  Na13  1  0.40093264  0.66227857  0.67102979  1
  O  O14  1  0.19580134  0.04900142  0.64425998  1
  O  O15  1  0.80419866  0.95099858  0.35574002  1
  O  O16  1  0.89793455  0.22327860  0.52187836  1
  O  O17  1  0.10206545  0.77672140  0.47812164  1
  O  O18  1  0.51860435  0.25498458  0.52050455  1
  O  O19  1  0.48139565  0.74501542  0.47949545  1
  O  O20  1  0.29961962  0.05145255  0.42815877  1
  O  O21  1  0.70038038  0.94854745  0.57184123  1
  O  O22  1  0.13545730  0.42502639  0.62268855  1
  O  O23  1  0.86454270  0.57497361  0.37731145  1
  O  O24  1  0.22518951  0.40637082  0.38851642  1
  O  O25  1  0.77481049  0.59362918  0.61148358  1
  O  O26  1  0.08636076  0.31084537  0.01706956  1
  O  O27  1  0.91363924  0.68915463  0.98293044  1
  O  O28  1  0.98072573  0.33376637  0.27174210  1
  O  O29  1  0.01927427  0.66623363  0.72825790  1
  O  O30  1  0.74163944  0.20068654  0.16504563  1
  O  O31  1  0.25836056  0.79931346  0.83495437  1
  O  O32  1  0.13112957  0.98301784  0.13782450  1
  O  O33  1  0.86887043  0.01698216  0.86217550  1
  O  O34  1  0.35785957  0.23836193  0.16128815  1
  O  O35  1  0.64214043  0.76163807  0.83871185  1
  O  O36  1  0.60013015  0.59523215  0.18428232  1
  O  O37  1  0.39986985  0.40476785  0.81571768  1
  O  O38  1  0.37740724  0.73637861  0.01166371  1
  O  O39  1  0.62259276  0.26362139  0.98833629  1
  O  O40  1  0.15944479  0.60844922  0.21758947  1
  O  O41  1  0.84055521  0.39155078  0.78241053  1
  O  O42  1  0.35662022  0.84122685  0.30372423  1
  O  O43  1  0.64337978  0.15877315  0.69627577  1
  O  O44  1  0.57590129  0.96672451  0.10258087  1
  O  O45  1  0.42409871  0.03327549  0.89741913  1
