# generated using pymatgen
data_Tb2Au5F21
_symmetry_space_group_name_H-M   'P 1'
_cell_length_a   8.10804249
_cell_length_b   9.19516242
_cell_length_c   12.14294984
_cell_angle_alpha   89.00942223
_cell_angle_beta   89.22965998
_cell_angle_gamma   89.21856911
_symmetry_Int_Tables_number   1
_chemical_formula_structural   Tb2Au5F21
_chemical_formula_sum   'Tb4 Au10 F42'
_cell_volume   905.01632155
_cell_formula_units_Z   2
loop_
 _symmetry_equiv_pos_site_id
 _symmetry_equiv_pos_as_xyz
  1  'x, y, z'
loop_
 _atom_site_type_symbol
 _atom_site_label
 _atom_site_symmetry_multiplicity
 _atom_site_fract_x
 _atom_site_fract_y
 _atom_site_fract_z
 _atom_site_occupancy
  Au  Au0  1  0.17332417  0.27611637  0.59592417  1
  Au  Au1  1  0.82667583  0.72388363  0.40407583  1
  Tb  Tb2  1  0.67145872  0.31652145  0.49680704  1
  Tb  Tb3  1  0.32854128  0.68347855  0.50319296  1
  Au  Au4  1  0.55848160  0.51036802  0.79100589  1
  Au  Au5  1  0.44151840  0.48963198  0.20899411  1
  Au  Au6  1  0.83410565  0.77572197  0.09430335  1
  Au  Au7  1  0.16589435  0.22427803  0.90569665  1
  Au  Au8  1  0.44016797  0.01466214  0.29469208  1
  Au  Au9  1  0.55983203  0.98533786  0.70530792  1
  Au  Au10  1  0.02269912  0.25033413  0.24650053  1
  Au  Au11  1  0.97730088  0.74966587  0.75349947  1
  Tb  Tb12  1  0.66659077  0.18321252  0.00115057  1
  Tb  Tb13  1  0.33340923  0.81678748  0.99884943  1
  F  F14  1  0.68444034  0.40888986  0.67519134  1
  F  F15  1  0.31555966  0.59111014  0.32480866  1
  F  F16  1  0.86012183  0.25783457  0.12524557  1
  F  F17  1  0.13987817  0.74216543  0.87475443  1
  F  F18  1  0.69987365  0.40279145  0.89601321  1
  F  F19  1  0.30012635  0.59720855  0.10398679  1
  F  F20  1  0.14800209  0.41381556  0.83416848  1
  F  F21  1  0.85199791  0.58618444  0.16583152  1
  F  F22  1  0.66677129  0.09974053  0.81861465  1
  F  F23  1  0.33322871  0.90025947  0.18138535  1
  F  F24  1  0.50000000  0.00000000  0.00000000  1
  F  F25  1  0.52970447  0.12751958  0.41616325  1
  F  F26  1  0.47029553  0.87248042  0.58383675  1
  F  F27  1  0.93152366  0.28113676  0.58291595  1
  F  F28  1  0.06847634  0.71886324  0.41708405  1
  F  F29  1  0.50000000  0.50000000  0.50000000  1
  F  F30  1  0.18996900  0.24434827  0.35944113  1
  F  F31  1  0.81003100  0.75565173  0.64055887  1
  F  F32  1  0.85063864  0.23015739  0.36344628  1
  F  F33  1  0.14936136  0.76984261  0.63655372  1
  F  F34  1  0.82688089  0.51826121  0.45970955  1
  F  F35  1  0.17311911  0.48173879  0.54029045  1
  F  F36  1  0.70012161  0.09131329  0.59822648  1
  F  F37  1  0.29987839  0.90868671  0.40177352  1
  F  F38  1  0.16564183  0.08181076  0.65982488  1
  F  F39  1  0.83435817  0.91818924  0.34017512  1
  F  F40  1  0.58411721  0.73903168  0.39012727  1
  F  F41  1  0.41588279  0.26096832  0.60987273  1
  F  F42  1  0.58770825  0.38450377  0.31147686  1
  F  F43  1  0.41229175  0.61549623  0.68852314  1
  F  F44  1  0.44798530  0.61255097  0.91302096  1
  F  F45  1  0.55201470  0.38744903  0.08697904  1
  F  F46  1  0.17629875  0.02365131  0.97043332  1
  F  F47  1  0.82370125  0.97634869  0.02956668  1
  F  F48  1  0.41733188  0.88054660  0.81159963  1
  F  F49  1  0.58266812  0.11945340  0.18840037  1
  F  F50  1  0.92508287  0.20346787  0.90265953  1
  F  F51  1  0.07491713  0.79653213  0.09734047  1
  F  F52  1  0.40752016  0.25278272  0.90650596  1
  F  F53  1  0.59247984  0.74721728  0.09349404  1
  F  F54  1  0.80095159  0.73316928  0.86270347  1
  F  F55  1  0.19904841  0.26683072  0.13729653  1
