# generated using pymatgen
data_KHfH2OF5
_symmetry_space_group_name_H-M   'P 1'
_cell_length_a   7.63751087
_cell_length_b   11.16068558
_cell_length_c   12.33447228
_cell_angle_alpha   90.00000000
_cell_angle_beta   90.00000000
_cell_angle_gamma   98.80325356
_symmetry_Int_Tables_number   1
_chemical_formula_structural   KHfH2OF5
_chemical_formula_sum   'K8 Hf8 H16 O8 F40'
_cell_volume   1039.00297781
_cell_formula_units_Z   8
loop_
 _symmetry_equiv_pos_site_id
 _symmetry_equiv_pos_as_xyz
  1  'x, y, z'
loop_
 _atom_site_type_symbol
 _atom_site_label
 _atom_site_symmetry_multiplicity
 _atom_site_fract_x
 _atom_site_fract_y
 _atom_site_fract_z
 _atom_site_occupancy
  Hf  Hf0  1  0.02329202  0.87686898  0.73765798  1
  Hf  Hf1  1  0.97670798  0.62313102  0.23765798  1
  Hf  Hf2  1  0.97670798  0.12313102  0.26234202  1
  Hf  Hf3  1  0.02329202  0.37686898  0.76234202  1
  Hf  Hf4  1  0.47091517  0.89269773  0.74568500  1
  Hf  Hf5  1  0.52908483  0.60730227  0.24568500  1
  Hf  Hf6  1  0.52908483  0.10730227  0.25431500  1
  Hf  Hf7  1  0.47091517  0.39269773  0.75431500  1
  K  K8  1  0.70373975  0.88039324  0.47634171  1
  K  K9  1  0.29626025  0.61960676  0.97634171  1
  K  K10  1  0.29626025  0.11960676  0.52365829  1
  K  K11  1  0.70373975  0.38039324  0.02365829  1
  K  K12  1  0.20238256  0.64827292  0.53842842  1
  K  K13  1  0.79761744  0.85172708  0.03842842  1
  K  K14  1  0.79761744  0.35172708  0.46157158  1
  K  K15  1  0.20238256  0.14827292  0.96157158  1
  F  F16  1  0.52503670  0.80210945  0.87985438  1
  F  F17  1  0.47496330  0.69789055  0.37985438  1
  F  F18  1  0.47496330  0.19789055  0.12014562  1
  F  F19  1  0.52503670  0.30210945  0.62014562  1
  F  F20  1  0.74716626  0.88551333  0.72748844  1
  F  F21  1  0.25283374  0.61448667  0.22748844  1
  F  F22  1  0.25283374  0.11448667  0.27251156  1
  F  F23  1  0.74716626  0.38551333  0.77251156  1
  F  F24  1  0.79009600  0.72557127  0.29863248  1
  F  F25  1  0.20990400  0.77442873  0.79863248  1
  F  F26  1  0.20990400  0.27442873  0.70136752  1
  F  F27  1  0.79009600  0.22557127  0.20136752  1
  F  F28  1  0.48894438  0.74756528  0.64878122  1
  F  F29  1  0.51105562  0.75243472  0.14878122  1
  F  F30  1  0.51105562  0.25243472  0.35121878  1
  F  F31  1  0.48894438  0.24756528  0.85121878  1
  F  F32  1  0.28342895  0.99578096  0.79975262  1
  F  F33  1  0.71657105  0.50421904  0.29975262  1
  F  F34  1  0.71657105  0.00421904  0.20024738  1
  F  F35  1  0.28342895  0.49578096  0.70024738  1
  F  F36  1  0.98693193  0.97653873  0.35752822  1
  F  F37  1  0.01306807  0.52346127  0.85752822  1
  F  F38  1  0.01306807  0.02346127  0.64247178  1
  F  F39  1  0.98693193  0.47653873  0.14247178  1
  F  F40  1  0.93776640  0.75843603  0.62003412  1
  F  F41  1  0.06223360  0.74156397  0.12003412  1
  F  F42  1  0.06223360  0.24156397  0.37996588  1
  F  F43  1  0.93776640  0.25843603  0.87996588  1
  F  F44  1  0.96620935  0.97160824  0.87096526  1
  F  F45  1  0.03379065  0.52839176  0.37096526  1
  F  F46  1  0.03379065  0.02839176  0.12903474  1
  F  F47  1  0.96620935  0.47160824  0.62903474  1
  F  F48  1  0.74945066  0.61571453  0.12926818  1
  F  F49  1  0.25054934  0.88428547  0.62926818  1
  F  F50  1  0.25054934  0.38428547  0.87073182  1
  F  F51  1  0.74945066  0.11571453  0.37073182  1
  F  F52  1  0.55379176  0.02088123  0.63383526  1
  F  F53  1  0.44620824  0.47911877  0.13383526  1
  F  F54  1  0.44620824  0.97911877  0.36616474  1
  F  F55  1  0.55379176  0.52088123  0.86616474  1
  O  O56  1  0.87966832  0.72283449  0.84384354  1
  O  O57  1  0.12033168  0.77716551  0.34384354  1
  O  O58  1  0.12033168  0.27716551  0.15615646  1
  O  O59  1  0.87966832  0.22283449  0.65615646  1
  O  O60  1  0.61882724  0.04309929  0.85384475  1
  O  O61  1  0.38117276  0.45690071  0.35384475  1
  O  O62  1  0.38117276  0.95690071  0.14615525  1
  O  O63  1  0.61882724  0.54309929  0.64615525  1
  H  H64  1  0.75134184  0.69960372  0.83632780  1
  H  H65  1  0.24865816  0.80039628  0.33632780  1
  H  H66  1  0.24865816  0.30039628  0.16367220  1
  H  H67  1  0.75134184  0.19960372  0.66367220  1
  H  H68  1  0.93132850  0.64579539  0.84726998  1
  H  H69  1  0.06867150  0.85420461  0.34726998  1
  H  H70  1  0.06867150  0.35420461  0.15273002  1
  H  H71  1  0.93132850  0.14579539  0.65273002  1
  H  H72  1  0.74873692  0.05077309  0.85526679  1
  H  H73  1  0.25126308  0.44922691  0.35526679  1
  H  H74  1  0.25126308  0.94922691  0.14473321  1
  H  H75  1  0.74873692  0.55077309  0.64473321  1
  H  H76  1  0.58327300  0.12539208  0.85129146  1
  H  H77  1  0.41672700  0.37460792  0.35129146  1
  H  H78  1  0.41672700  0.87460792  0.14870854  1
  H  H79  1  0.58327300  0.62539208  0.64870854  1
