# generated using pymatgen
data_Co3H2Se3O10
_symmetry_space_group_name_H-M   'P 1'
_cell_length_a   8.23072846
_cell_length_b   8.35265970
_cell_length_c   8.67994139
_cell_angle_alpha   69.00577051
_cell_angle_beta   63.09934600
_cell_angle_gamma   67.55651024
_symmetry_Int_Tables_number   1
_chemical_formula_structural   Co3H2Se3O10
_chemical_formula_sum   'Co6 H4 Se6 O20'
_cell_volume   479.23003549
_cell_formula_units_Z   2
loop_
 _symmetry_equiv_pos_site_id
 _symmetry_equiv_pos_as_xyz
  1  'x, y, z'
loop_
 _atom_site_type_symbol
 _atom_site_label
 _atom_site_symmetry_multiplicity
 _atom_site_fract_x
 _atom_site_fract_y
 _atom_site_fract_z
 _atom_site_occupancy
  Co  Co0  1  0.00000000  0.00000000  0.00000000  1
  Co  Co1  1  0.50000000  0.50000000  0.50000000  1
  Co  Co2  1  0.65412141  0.03460775  0.80099550  1
  Co  Co3  1  0.34587859  0.96539225  0.19900450  1
  Co  Co4  1  0.71658642  0.85683766  0.39118235  1
  Co  Co5  1  0.28341358  0.14316234  0.60881765  1
  Se  Se6  1  0.56996183  0.23306716  0.23953043  1
  Se  Se7  1  0.43003817  0.76693284  0.76046957  1
  Se  Se8  1  0.79495133  0.66907653  0.06856045  1
  Se  Se9  1  0.20504867  0.33092347  0.93143955  1
  Se  Se10  1  0.17187023  0.67438128  0.29989582  1
  Se  Se11  1  0.82812977  0.32561872  0.70010418  1
  O  O12  1  0.30574873  0.71599611  0.38133895  1
  O  O13  1  0.69425127  0.28400389  0.61866105  1
  O  O14  1  0.54754576  0.69495038  0.56201594  1
  O  O15  1  0.45245424  0.30504962  0.43798406  1
  O  O16  1  0.20818256  0.89849901  0.75551538  1
  O  O17  1  0.79181744  0.10150099  0.24448462  1
  O  O18  1  0.53278969  0.94574274  0.67381134  1
  O  O19  1  0.46721031  0.05425726  0.32618866  1
  O  O20  1  0.94685827  0.73231969  0.45580735  1
  O  O21  1  0.05314173  0.26768031  0.54419265  1
  O  O22  1  0.70615908  0.51614178  0.25076280  1
  O  O23  1  0.29384092  0.48385822  0.74923720  1
  O  O24  1  0.59709965  0.82906764  0.02996781  1
  O  O25  1  0.40290035  0.17093236  0.97003219  1
  O  O26  1  0.86775978  0.78510120  0.14920649  1
  O  O27  1  0.13224022  0.21489880  0.85079351  1
  O  O28  1  0.19083290  0.86094688  0.12200156  1
  O  O29  1  0.80916710  0.13905312  0.87799844  1
  O  O30  1  0.91343904  0.87025193  0.69597722  1
  O  O31  1  0.08656096  0.12974807  0.30402278  1
  H  H32  1  0.03260840  0.87364582  0.69441811  1
  H  H33  1  0.96739160  0.12635418  0.30558189  1
  H  H34  1  0.94159352  0.81282783  0.59936864  1
  H  H35  1  0.05840648  0.18717217  0.40063136  1
