# generated using pymatgen
data_Fe2(SeO4)3
_symmetry_space_group_name_H-M   'P 1'
_cell_length_a   8.70214821
_cell_length_b   9.04765459
_cell_length_c   12.24130441
_cell_angle_alpha   90.00000000
_cell_angle_beta   91.13620335
_cell_angle_gamma   90.00000000
_symmetry_Int_Tables_number   1
_chemical_formula_structural   Fe2(SeO4)3
_chemical_formula_sum   'Fe8 Se12 O48'
_cell_volume   963.61774164
_cell_formula_units_Z   4
loop_
 _symmetry_equiv_pos_site_id
 _symmetry_equiv_pos_as_xyz
  1  'x, y, z'
loop_
 _atom_site_type_symbol
 _atom_site_label
 _atom_site_symmetry_multiplicity
 _atom_site_fract_x
 _atom_site_fract_y
 _atom_site_fract_z
 _atom_site_occupancy
  Fe  Fe0  1  0.74878689  0.46880115  0.61625314  1
  Fe  Fe1  1  0.75121311  0.96880115  0.88374686  1
  Fe  Fe2  1  0.25121311  0.53119885  0.38374686  1
  Fe  Fe3  1  0.24878689  0.03119885  0.11625314  1
  Fe  Fe4  1  0.75145613  0.03110494  0.38541907  1
  Fe  Fe5  1  0.74854387  0.53110494  0.11458093  1
  Fe  Fe6  1  0.24854387  0.96889506  0.61458093  1
  Fe  Fe7  1  0.25145613  0.46889506  0.88541907  1
  Se  Se8  1  0.03655946  0.25254879  0.49362098  1
  Se  Se9  1  0.46344054  0.75254879  0.00637902  1
  Se  Se10  1  0.96344054  0.74745121  0.50637902  1
  Se  Se11  1  0.53655946  0.24745121  0.99362098  1
  Se  Se12  1  0.60411419  0.37639681  0.34864796  1
  Se  Se13  1  0.89588581  0.87639681  0.15135204  1
  Se  Se14  1  0.39588581  0.62360319  0.65135204  1
  Se  Se15  1  0.10411419  0.12360319  0.84864796  1
  Se  Se16  1  0.61170274  0.11823631  0.64382237  1
  Se  Se17  1  0.88829726  0.61823631  0.85617763  1
  Se  Se18  1  0.38829726  0.88176369  0.35617763  1
  Se  Se19  1  0.11170274  0.38176369  0.14382237  1
  O  O20  1  0.08906792  0.12237376  0.58385061  1
  O  O21  1  0.41093208  0.62237376  0.91614939  1
  O  O22  1  0.91093208  0.87762624  0.41614939  1
  O  O23  1  0.58906792  0.37762624  0.08385061  1
  O  O24  1  0.92954827  0.18650050  0.38902779  1
  O  O25  1  0.57045173  0.68650050  0.11097221  1
  O  O26  1  0.07045173  0.81349950  0.61097221  1
  O  O27  1  0.42954827  0.31349950  0.88902779  1
  O  O28  1  0.19567479  0.32907497  0.44487036  1
  O  O29  1  0.30432521  0.82907497  0.05512964  1
  O  O30  1  0.80432521  0.67092503  0.55512964  1
  O  O31  1  0.69567479  0.17092503  0.94487036  1
  O  O32  1  0.94258017  0.37843038  0.56544568  1
  O  O33  1  0.55741983  0.87843038  0.93455432  1
  O  O34  1  0.05741983  0.62156962  0.43455432  1
  O  O35  1  0.44258017  0.12156962  0.06544568  1
  O  O36  1  0.72934503  0.47673311  0.27764443  1
  O  O37  1  0.77065497  0.97673311  0.22235557  1
  O  O38  1  0.27065497  0.52326689  0.72235557  1
  O  O39  1  0.22934503  0.02326689  0.77764443  1
  O  O40  1  0.42448308  0.42054731  0.31210563  1
  O  O41  1  0.07551692  0.92054731  0.18789437  1
  O  O42  1  0.57551692  0.57945269  0.68789437  1
  O  O43  1  0.92448308  0.07945269  0.81210563  1
  O  O44  1  0.63036847  0.40595664  0.48199051  1
  O  O45  1  0.86963153  0.90595664  0.01800949  1
  O  O46  1  0.36963153  0.59404336  0.51800949  1
  O  O47  1  0.13036847  0.09404336  0.98199051  1
  O  O48  1  0.61873497  0.19426482  0.32552638  1
  O  O49  1  0.88126503  0.69426482  0.17447362  1
  O  O50  1  0.38126503  0.80573518  0.67447362  1
  O  O51  1  0.11873497  0.30573518  0.82552638  1
  O  O52  1  0.62625637  -0.00242733  0.74597238  1
  O  O53  1  0.87374363  0.49757267  0.75402762  1
  O  O54  1  0.37374363  1.00242733  0.25402762  1
  O  O55  1  0.12625637  0.50242733  0.24597238  1
  O  O56  1  0.73597676  0.07193970  0.54654956  1
  O  O57  1  0.76402324  0.57193970  0.95345044  1
  O  O58  1  0.26402324  0.92806030  0.45345044  1
  O  O59  1  0.23597676  0.42806030  0.04654956  1
  O  O60  1  0.42953215  0.11313086  0.59639362  1
  O  O61  1  0.07046785  0.61313086  0.90360638  1
  O  O62  1  0.57046785  0.88686914  0.40360638  1
  O  O63  1  0.92953215  0.38686914  0.09639362  1
  O  O64  1  0.65751244  0.28645027  0.68964565  1
  O  O65  1  0.84248756  0.78645027  0.81035435  1
  O  O66  1  0.34248756  0.71354973  0.31035435  1
  O  O67  1  0.15751244  0.21354973  0.18964565  1
