# generated using pymatgen
data_CsTi3Si2P6O25
_symmetry_space_group_name_H-M   'P 1'
_cell_length_a   8.36275501
_cell_length_b   8.36275530
_cell_length_c   17.52852066
_cell_angle_alpha   90.00000000
_cell_angle_beta   90.00000000
_cell_angle_gamma   119.99999882
_symmetry_Int_Tables_number   1
_chemical_formula_structural   CsTi3Si2P6O25
_chemical_formula_sum   'Cs2 Ti6 Si4 P12 O50'
_cell_volume   1061.63362390
_cell_formula_units_Z   2
loop_
 _symmetry_equiv_pos_site_id
 _symmetry_equiv_pos_as_xyz
  1  'x, y, z'
loop_
 _atom_site_type_symbol
 _atom_site_label
 _atom_site_symmetry_multiplicity
 _atom_site_fract_x
 _atom_site_fract_y
 _atom_site_fract_z
 _atom_site_occupancy
  Cs  Cs0  1  0.33333300  0.66666700  0.25000000  1
  Cs  Cs1  1  0.66666700  0.33333300  0.75000000  1
  Ti  Ti2  1  0.33333300  0.66666700  0.02232382  1
  Ti  Ti3  1  0.33333300  0.66666700  0.47767618  1
  Ti  Ti4  1  0.66666700  0.33333300  0.97767618  1
  Ti  Ti5  1  0.66666700  0.33333300  0.52232382  1
  Ti  Ti6  1  0.66666700  0.33333300  0.25000000  1
  Ti  Ti7  1  0.33333300  0.66666700  0.75000000  1
  P  P8  1  0.38406552  0.33223753  0.10915235  1
  P  P9  1  0.66776247  0.05182799  0.10915235  1
  P  P10  1  0.94817201  0.61593448  0.10915235  1
  P  P11  1  0.66776247  0.61593448  0.39084765  1
  P  P12  1  0.94817201  0.33223753  0.39084765  1
  P  P13  1  0.38406552  0.05182799  0.39084765  1
  P  P14  1  0.61593448  0.66776247  0.89084765  1
  P  P15  1  0.33223753  0.94817201  0.89084765  1
  P  P16  1  0.05182799  0.38406552  0.89084765  1
  P  P17  1  0.33223753  0.38406552  0.60915235  1
  P  P18  1  0.05182799  0.66776247  0.60915235  1
  P  P19  1  0.61593448  0.94817201  0.60915235  1
  Si  Si20  1  0.00000000  0.00000000  0.09133351  1
  Si  Si21  1  0.00000000  0.00000000  0.40866649  1
  Si  Si22  1  0.00000000  0.00000000  0.90866649  1
  Si  Si23  1  0.00000000  0.00000000  0.59133351  1
  O  O24  1  0.11797510  0.59977999  0.08955688  1
  O  O25  1  0.40022001  0.51819511  0.08955688  1
  O  O26  1  0.48180489  0.88202490  0.08955688  1
  O  O27  1  0.40022001  0.88202490  0.41044312  1
  O  O28  1  0.48180489  0.59977999  0.41044312  1
  O  O29  1  0.11797510  0.51819511  0.41044312  1
  O  O30  1  0.88202490  0.40022001  0.91044312  1
  O  O31  1  0.59977999  0.48180489  0.91044312  1
  O  O32  1  0.51819511  0.11797510  0.91044312  1
  O  O33  1  0.59977999  0.11797510  0.58955688  1
  O  O34  1  0.51819511  0.40022001  0.58955688  1
  O  O35  1  0.88202490  0.48180489  0.58955688  1
  O  O36  1  0.80764951  0.25340501  0.45607291  1
  O  O37  1  0.74659499  0.55424450  0.45607291  1
  O  O38  1  0.44575550  0.19235049  0.45607291  1
  O  O39  1  0.74659499  0.19235049  0.04392709  1
  O  O40  1  0.44575550  0.25340501  0.04392709  1
  O  O41  1  0.80764951  0.55424450  0.04392709  1
  O  O42  1  0.19235049  0.74659499  0.54392709  1
  O  O43  1  0.25340501  0.44575550  0.54392709  1
  O  O44  1  0.55424450  0.80764951  0.54392709  1
  O  O45  1  0.25340501  0.80764951  0.95607291  1
  O  O46  1  0.55424450  0.74659499  0.95607291  1
  O  O47  1  0.19235049  0.44575550  0.95607291  1
  O  O48  1  0.47883612  0.34578406  0.18526097  1
  O  O49  1  0.65421594  0.13305206  0.18526097  1
  O  O50  1  0.86694794  0.52116388  0.18526097  1
  O  O51  1  0.65421594  0.52116388  0.31473903  1
  O  O52  1  0.86694794  0.34578406  0.31473903  1
  O  O53  1  0.47883612  0.13305206  0.31473903  1
  O  O54  1  0.52116388  0.65421594  0.81473903  1
  O  O55  1  0.34578406  0.86694794  0.81473903  1
  O  O56  1  0.13305206  0.47883612  0.81473903  1
  O  O57  1  0.34578406  0.47883612  0.68526097  1
  O  O58  1  0.13305206  0.65421594  0.68526097  1
  O  O59  1  0.52116388  0.86694794  0.68526097  1
  O  O60  1  0.00000000  0.00000000  0.00000000  1
  O  O61  1  0.00000000  0.00000000  0.50000000  1
  O  O62  1  0.02219373  0.82997168  0.12472024  1
  O  O63  1  0.17002832  0.19222204  0.12472024  1
  O  O64  1  0.80777796  0.97780627  0.12472024  1
  O  O65  1  0.17002832  0.97780627  0.37527976  1
  O  O66  1  0.80777796  0.82997168  0.37527976  1
  O  O67  1  0.02219373  0.19222204  0.37527976  1
  O  O68  1  0.97780627  0.17002832  0.87527976  1
  O  O69  1  0.82997168  0.80777796  0.87527976  1
  O  O70  1  0.19222204  0.02219373  0.87527976  1
  O  O71  1  0.82997168  0.02219373  0.62472024  1
  O  O72  1  0.19222204  0.17002832  0.62472024  1
  O  O73  1  0.97780627  0.80777796  0.62472024  1
