# generated using pymatgen
data_Zr4Cd(PO4)6
_symmetry_space_group_name_H-M   'P 1'
_cell_length_a   9.11932701
_cell_length_b   9.11932714
_cell_length_c   9.11932708
_cell_angle_alpha   59.06186969
_cell_angle_beta   59.06186923
_cell_angle_gamma   59.06187262
_symmetry_Int_Tables_number   1
_chemical_formula_structural   Zr4Cd(PO4)6
_chemical_formula_sum   'Zr4 Cd1 P6 O24'
_cell_volume   524.78618747
_cell_formula_units_Z   1
loop_
 _symmetry_equiv_pos_site_id
 _symmetry_equiv_pos_as_xyz
  1  'x, y, z'
loop_
 _atom_site_type_symbol
 _atom_site_label
 _atom_site_symmetry_multiplicity
 _atom_site_fract_x
 _atom_site_fract_y
 _atom_site_fract_z
 _atom_site_occupancy
  Cd  Cd0  1  0.50000000  0.50000000  0.50000000  1
  Zr  Zr1  1  0.13647479  0.13647479  0.13647479  1
  Zr  Zr2  1  0.86352521  0.86352521  0.86352521  1
  Zr  Zr3  1  0.64817934  0.64817934  0.64817934  1
  Zr  Zr4  1  0.35182066  0.35182066  0.35182066  1
  P  P5  1  0.52982577  0.95317660  0.25655778  1
  P  P6  1  0.25655778  0.52982577  0.95317660  1
  P  P7  1  0.95317660  0.25655778  0.52982577  1
  P  P8  1  0.47017423  0.04682340  0.74344222  1
  P  P9  1  0.74344222  0.47017423  0.04682340  1
  P  P10  1  0.04682340  0.74344222  0.47017423  1
  O  O11  1  0.36951127  0.99100499  0.21403431  1
  O  O12  1  0.21403431  0.36951127  0.99100499  1
  O  O13  1  0.99100499  0.21403431  0.36951127  1
  O  O14  1  0.63048873  0.00899501  0.78596569  1
  O  O15  1  0.78596569  0.63048873  0.00899501  1
  O  O16  1  0.00899501  0.78596569  0.63048873  1
  O  O17  1  0.68768561  0.50836710  0.89251574  1
  O  O18  1  0.89251574  0.68768561  0.50836710  1
  O  O19  1  0.50836710  0.89251574  0.68768561  1
  O  O20  1  0.31231439  0.49163290  0.10748426  1
  O  O21  1  0.10748426  0.31231439  0.49163290  1
  O  O22  1  0.49163290  0.10748426  0.31231439  1
  O  O23  1  0.29238113  0.06245076  0.90551635  1
  O  O24  1  0.90551635  0.29238113  0.06245076  1
  O  O25  1  0.06245076  0.90551635  0.29238113  1
  O  O26  1  0.70761887  0.93754924  0.09448365  1
  O  O27  1  0.09448365  0.70761887  0.93754924  1
  O  O28  1  0.93754924  0.09448365  0.70761887  1
  O  O29  1  0.41947168  0.55384132  0.76922552  1
  O  O30  1  0.76922552  0.41947168  0.55384132  1
  O  O31  1  0.55384132  0.76922552  0.41947168  1
  O  O32  1  0.58052832  0.44615868  0.23077448  1
  O  O33  1  0.23077448  0.58052832  0.44615868  1
  O  O34  1  0.44615868  0.23077448  0.58052832  1
