# generated using pymatgen
data_PtF5
_symmetry_space_group_name_H-M   'P 1'
_cell_length_a   5.69091400
_cell_length_b   10.13545276
_cell_length_c   12.77250037
_cell_angle_alpha   90.00000000
_cell_angle_beta   101.28195778
_cell_angle_gamma   90.00000000
_symmetry_Int_Tables_number   1
_chemical_formula_structural   PtF5
_chemical_formula_sum   'Pt8 F40'
_cell_volume   722.48159147
_cell_formula_units_Z   8
loop_
 _symmetry_equiv_pos_site_id
 _symmetry_equiv_pos_as_xyz
  1  'x, y, z'
loop_
 _atom_site_type_symbol
 _atom_site_label
 _atom_site_symmetry_multiplicity
 _atom_site_fract_x
 _atom_site_fract_y
 _atom_site_fract_z
 _atom_site_occupancy
  Pt  Pt0  1  0.99917393  0.24902644  0.00232193  1
  Pt  Pt1  1  0.00082607  0.74902644  0.49767807  1
  Pt  Pt2  1  0.00082607  0.75097356  0.99767807  1
  Pt  Pt3  1  0.99917393  0.25097356  0.50232193  1
  Pt  Pt4  1  0.29871069  0.99802737  0.19771914  1
  Pt  Pt5  1  0.70128931  0.49802737  0.30228086  1
  Pt  Pt6  1  0.70128931  0.00197263  0.80228086  1
  Pt  Pt7  1  0.29871069  0.50197263  0.69771914  1
  F  F8  1  0.09693395  0.83441922  0.14648817  1
  F  F9  1  0.90306605  0.33441922  0.35351183  1
  F  F10  1  0.90306605  0.16558078  0.85351183  1
  F  F11  1  0.09693395  0.66558078  0.64648817  1
  F  F12  1  0.48415898  0.14759189  0.24900205  1
  F  F13  1  0.51584102  0.64759189  0.25099795  1
  F  F14  1  0.51584102  0.85240811  0.75099795  1
  F  F15  1  0.48415898  0.35240811  0.74900205  1
  F  F16  1  0.81109429  0.39747881  0.95085873  1
  F  F17  1  0.18890571  0.89747881  0.54914127  1
  F  F18  1  0.18890571  0.60252119  0.04914127  1
  F  F19  1  0.81109429  0.10252119  0.45085873  1
  F  F20  1  0.09226842  0.32946520  0.13802656  1
  F  F21  1  0.90773158  0.82946520  0.36197344  1
  F  F22  1  0.90773158  0.67053480  0.86197344  1
  F  F23  1  0.09226842  0.17053480  0.63802656  1
  F  F24  1  0.73228858  0.33437876  0.54444022  1
  F  F25  1  0.26771142  0.83437876  0.95555978  1
  F  F26  1  0.26771142  0.66562124  0.45555978  1
  F  F27  1  0.73228858  0.16562124  0.04444022  1
  F  F28  1  0.19983517  0.08482453  0.05055337  1
  F  F29  1  0.80016483  0.58482453  0.44944663  1
  F  F30  1  0.80016483  0.91517547  0.94944663  1
  F  F31  1  0.19983517  0.41517547  0.55055337  1
  F  F32  1  0.43610317  0.42202131  0.35097433  1
  F  F33  1  0.56389683  0.92202131  0.14902567  1
  F  F34  1  0.56389683  0.57797869  0.64902567  1
  F  F35  1  0.43610317  0.07797869  0.85097433  1
  F  F36  1  0.60818040  0.08745578  0.66881994  1
  F  F37  1  0.39181960  0.58745578  0.83118006  1
  F  F38  1  0.39181960  0.91254422  0.33118006  1
  F  F39  1  0.60818040  0.41254422  0.16881994  1
  F  F40  1  0.02405935  0.07157638  0.23988977  1
  F  F41  1  0.97594065  0.57157638  0.26011023  1
  F  F42  1  0.97594065  0.92842362  0.76011023  1
  F  F43  1  0.02405935  0.42842362  0.73988977  1
  F  F44  1  0.27056248  0.32208799  0.95714122  1
  F  F45  1  0.72943752  0.82208799  0.54285878  1
  F  F46  1  0.72943752  0.67791201  0.04285878  1
  F  F47  1  0.27056248  0.17791201  0.45714122  1
