# generated using pymatgen
data_Rb2NaMoI6
_symmetry_space_group_name_H-M   'P 1'
_cell_length_a   8.45155243
_cell_length_b   8.45155288
_cell_length_c   8.45155287
_cell_angle_alpha   59.99999856
_cell_angle_beta   59.99999793
_cell_angle_gamma   59.99999805
_symmetry_Int_Tables_number   1
_chemical_formula_structural   Rb2NaMoI6
_chemical_formula_sum   'Rb2 Na1 Mo1 I6'
_cell_volume   426.86888530
_cell_formula_units_Z   1
loop_
 _symmetry_equiv_pos_site_id
 _symmetry_equiv_pos_as_xyz
  1  'x, y, z'
loop_
 _atom_site_type_symbol
 _atom_site_label
 _atom_site_symmetry_multiplicity
 _atom_site_fract_x
 _atom_site_fract_y
 _atom_site_fract_z
 _atom_site_occupancy
  Rb  Rb0  1  0.25000000  0.25000000  0.25000000  1
  Rb  Rb1  1  0.75000000  0.75000000  0.75000000  1
  Na  Na2  1  0.50000000  0.50000000  0.50000000  1
  Mo  Mo3  1  -0.00000000  0.00000000  -0.00000000  1
  I  I4  1  0.23576571  0.76423429  0.23576571  1
  I  I5  1  0.76423429  0.76423429  0.23576571  1
  I  I6  1  0.76423429  0.23576571  0.76423429  1
  I  I7  1  0.76423429  0.23576571  0.23576571  1
  I  I8  1  0.23576571  0.76423429  0.76423429  1
  I  I9  1  0.23576571  0.23576571  0.76423429  1
