# generated using pymatgen
data_Rb2(TcSe2)3
_symmetry_space_group_name_H-M   'P 1'
_cell_length_a   10.28166653
_cell_length_b   10.33360772
_cell_length_c   12.70026014
_cell_angle_alpha   91.21632872
_cell_angle_beta   90.00000000
_cell_angle_gamma   119.83386572
_symmetry_Int_Tables_number   1
_chemical_formula_structural   Rb2(TcSe2)3
_chemical_formula_sum   'Rb8 Tc12 Se24'
_cell_volume   1170.18163773
_cell_formula_units_Z   4
loop_
 _symmetry_equiv_pos_site_id
 _symmetry_equiv_pos_as_xyz
  1  'x, y, z'
loop_
 _atom_site_type_symbol
 _atom_site_label
 _atom_site_symmetry_multiplicity
 _atom_site_fract_x
 _atom_site_fract_y
 _atom_site_fract_z
 _atom_site_occupancy
  Rb  Rb0  1  0.61928598  0.00000000  0.25000000  1
  Rb  Rb1  1  0.38071402  0.00000000  0.75000000  1
  Rb  Rb2  1  0.21951836  0.00000000  0.25000000  1
  Rb  Rb3  1  0.78048164  0.00000000  0.75000000  1
  Rb  Rb4  1  0.13722842  0.77454556  0.98119548  1
  Rb  Rb5  1  0.36268286  0.22545444  0.51880452  1
  Rb  Rb6  1  0.86277158  0.22545444  0.01880452  1
  Rb  Rb7  1  0.63731714  0.77454556  0.48119548  1
  Tc  Tc8  1  0.00327768  0.32195769  0.47679473  1
  Tc  Tc9  1  0.68131999  0.67804231  0.02320527  1
  Tc  Tc10  1  0.99672232  0.67804231  0.52320527  1
  Tc  Tc11  1  0.31868001  0.32195769  0.97679473  1
  Tc  Tc12  1  0.11445145  0.57942767  0.37751576  1
  Tc  Tc13  1  0.53502378  0.42057233  0.12248424  1
  Tc  Tc14  1  0.88554855  0.42057233  0.62248424  1
  Tc  Tc15  1  0.46497622  0.57942767  0.87751576  1
  Tc  Tc16  1  0.82284296  0.42289964  0.41779875  1
  Tc  Tc17  1  0.39994332  0.57710036  0.08220125  1
  Tc  Tc18  1  0.17715704  0.57710036  0.58220125  1
  Tc  Tc19  1  0.60005668  0.42289964  0.91779875  1
  Se  Se20  1  0.06768842  0.33067412  0.66889911  1
  Se  Se21  1  0.73701430  0.66932588  0.83110089  1
  Se  Se22  1  0.93231158  0.66932588  0.33110089  1
  Se  Se23  1  0.26298570  0.33067412  0.16889911  1
  Se  Se24  1  0.79892528  0.51938802  0.06327086  1
  Se  Se25  1  0.27953726  0.48061198  0.43672914  1
  Se  Se26  1  0.20107472  0.48061198  0.93672914  1
  Se  Se27  1  0.72046274  0.51938802  0.56327086  1
  Se  Se28  1  0.05179018  0.66483362  0.71501098  1
  Se  Se29  1  0.38695656  0.33516638  0.78498902  1
  Se  Se30  1  0.94820982  0.33516638  0.28498902  1
  Se  Se31  1  0.61304344  0.66483362  0.21501098  1
  Se  Se32  1  0.27708505  0.82008213  0.48273776  1
  Se  Se33  1  0.45700292  0.17991787  0.01726224  1
  Se  Se34  1  0.72291495  0.17991787  0.51726224  1
  Se  Se35  1  0.54299708  0.82008213  0.98273776  1
  Se  Se36  1  0.07206314  0.06856603  0.92263033  1
  Se  Se37  1  0.00349711  0.93143397  0.57736967  1
  Se  Se38  1  0.92793686  0.93143397  0.07736967  1
  Se  Se39  1  0.99650289  0.06856603  0.42263033  1
  Se  Se40  1  0.26943918  0.69646126  0.20163705  1
  Se  Se41  1  0.57297793  0.30353874  0.29836295  1
  Se  Se42  1  0.73056082  0.30353874  0.79836295  1
  Se  Se43  1  0.42702207  0.69646126  0.70163705  1
