# generated using pymatgen
data_KSnS4
_symmetry_space_group_name_H-M   'P 1'
_cell_length_a   9.79231084
_cell_length_b   10.14595276
_cell_length_c   14.44525171
_cell_angle_alpha   90.00000000
_cell_angle_beta   107.61554478
_cell_angle_gamma   90.00000000
_symmetry_Int_Tables_number   1
_chemical_formula_structural   KSnS4
_chemical_formula_sum   'K8 Sn8 S32'
_cell_volume   1367.87221488
_cell_formula_units_Z   8
loop_
 _symmetry_equiv_pos_site_id
 _symmetry_equiv_pos_as_xyz
  1  'x, y, z'
loop_
 _atom_site_type_symbol
 _atom_site_label
 _atom_site_symmetry_multiplicity
 _atom_site_fract_x
 _atom_site_fract_y
 _atom_site_fract_z
 _atom_site_occupancy
  Sn  Sn0  1  0.03039483  0.17271880  0.01663463  1
  Sn  Sn1  1  0.46960517  0.67271880  0.48336537  1
  Sn  Sn2  1  0.96960517  0.82728120  0.98336537  1
  Sn  Sn3  1  0.53039483  0.32728120  0.51663463  1
  Sn  Sn4  1  0.59390279  0.00004853  0.40555029  1
  Sn  Sn5  1  0.90609721  0.50004853  0.09444971  1
  Sn  Sn6  1  0.40609721  0.99995147  0.59444971  1
  Sn  Sn7  1  0.09390279  0.49995147  0.90555029  1
  K  K8  1  0.34672212  0.36251884  0.20304962  1
  K  K9  1  0.15327788  0.86251884  0.29695038  1
  K  K10  1  0.65327788  0.63748116  0.79695038  1
  K  K11  1  0.84672212  0.13748116  0.70304962  1
  K  K12  1  0.03148374  0.27383312  0.40589947  1
  K  K13  1  0.46851626  0.77383312  0.09410053  1
  K  K14  1  0.96851626  0.72616688  0.59410053  1
  K  K15  1  0.53148374  0.22616688  0.90589947  1
  S  S16  1  0.21873273  0.27503050  0.96375906  1
  S  S17  1  0.28126727  0.77503050  0.53624094  1
  S  S18  1  0.78126727  0.72496950  0.03624094  1
  S  S19  1  0.71873273  0.22496950  0.46375906  1
  S  S20  1  0.83456965  0.04136002  0.91443398  1
  S  S21  1  0.66543035  0.54136002  0.58556602  1
  S  S22  1  0.16543035  0.95863998  0.08556602  1
  S  S23  1  0.33456965  0.45863998  0.41443398  1
  S  S24  1  0.64108067  0.89923601  0.57644151  1
  S  S25  1  0.85891933  0.39923601  0.92355849  1
  S  S26  1  0.35891933  0.10076399  0.42355849  1
  S  S27  1  0.14108067  0.60076399  0.07644151  1
  S  S28  1  0.50981529  0.06607979  0.21987806  1
  S  S29  1  0.99018471  0.56607979  0.28012194  1
  S  S30  1  0.49018471  0.93392021  0.78012194  1
  S  S31  1  0.00981529  0.43392021  0.71987806  1
  S  S32  1  0.01330085  0.27173713  0.16587718  1
  S  S33  1  0.48669915  0.77173713  0.33412282  1
  S  S34  1  0.98669915  0.72826287  0.83412282  1
  S  S35  1  0.51330085  0.22826287  0.66587718  1
  S  S36  1  0.68880408  0.14280630  0.19528259  1
  S  S37  1  0.81119592  0.64280630  0.30471741  1
  S  S38  1  0.31119592  0.85719370  0.80471741  1
  S  S39  1  0.18880408  0.35719370  0.69528259  1
  S  S40  1  0.68815413  0.34377175  0.22689528  1
  S  S41  1  0.81184587  0.84377175  0.27310472  1
  S  S42  1  0.31184587  0.65622825  0.77310472  1
  S  S43  1  0.18815413  0.15622825  0.72689528  1
  S  S44  1  0.64558080  0.44080746  0.09677873  1
  S  S45  1  0.85441920  0.94080746  0.40322127  1
  S  S46  1  0.35441920  0.55919254  0.90322127  1
  S  S47  1  0.14558080  0.05919254  0.59677873  1
