# generated using pymatgen
data_RbCuSnS3
_symmetry_space_group_name_H-M   'P 1'
_cell_length_a   7.91273299
_cell_length_b   7.91273227
_cell_length_c   20.48957444
_cell_angle_alpha   84.44869987
_cell_angle_beta   84.44870038
_cell_angle_gamma   90.01099983
_symmetry_Int_Tables_number   1
_chemical_formula_structural   RbCuSnS3
_chemical_formula_sum   'Rb8 Cu8 Sn8 S24'
_cell_volume   1270.81537380
_cell_formula_units_Z   8
loop_
 _symmetry_equiv_pos_site_id
 _symmetry_equiv_pos_as_xyz
  1  'x, y, z'
loop_
 _atom_site_type_symbol
 _atom_site_label
 _atom_site_symmetry_multiplicity
 _atom_site_fract_x
 _atom_site_fract_y
 _atom_site_fract_z
 _atom_site_occupancy
  Sn  Sn0  1  0.15715292  0.78262060  0.37125832  1
  Sn  Sn1  1  0.21737940  0.84284708  0.12874168  1
  Sn  Sn2  1  0.84284708  0.21737940  0.62874168  1
  Sn  Sn3  1  0.78262060  0.15715292  0.87125832  1
  Sn  Sn4  1  0.65733201  0.78192742  0.37062218  1
  Sn  Sn5  1  0.21807258  0.34266799  0.12937782  1
  Sn  Sn6  1  0.34266799  0.21807258  0.62937782  1
  Sn  Sn7  1  0.78192742  0.65733201  0.87062218  1
  Rb  Rb8  1  0.39801222  0.27234761  0.41000640  1
  Rb  Rb9  1  0.72765239  0.60198778  0.08999360  1
  Rb  Rb10  1  0.60198778  0.72765239  0.58999360  1
  Rb  Rb11  1  0.27234761  0.39801222  0.91000640  1
  Rb  Rb12  1  0.10312559  0.72740337  0.58975342  1
  Rb  Rb13  1  0.27259663  0.89687441  0.91024658  1
  Rb  Rb14  1  0.89687441  0.27259663  0.41024658  1
  Rb  Rb15  1  0.72740337  0.10312559  0.08975342  1
  Cu  Cu16  1  0.43621353  0.56378647  0.25000000  1
  Cu  Cu17  1  0.56378647  0.43621353  0.75000000  1
  Cu  Cu18  1  0.43785011  0.05993272  0.24992972  1
  Cu  Cu19  1  0.94006728  0.56214989  0.25007028  1
  Cu  Cu20  1  0.56214989  0.94006728  0.75007028  1
  Cu  Cu21  1  0.05993272  0.43785011  0.74992972  1
  Cu  Cu22  1  0.93747901  0.06252099  0.25000000  1
  Cu  Cu23  1  0.06252099  0.93747901  0.75000000  1
  S  S24  1  0.67234305  0.05847431  0.31074883  1
  S  S25  1  0.94152569  0.32765695  0.18925117  1
  S  S26  1  0.32765695  0.94152569  0.68925117  1
  S  S27  1  0.05847431  0.67234305  0.81074883  1
  S  S28  1  0.67274233  0.53653860  0.31019668  1
  S  S29  1  0.46346140  0.32725767  0.18980332  1
  S  S30  1  0.32725767  0.46346140  0.68980332  1
  S  S31  1  0.53653860  0.67274233  0.81019668  1
  S  S32  1  0.17204277  0.05869048  0.31243440  1
  S  S33  1  0.94130952  0.82795723  0.18756560  1
  S  S34  1  0.82795723  0.94130952  0.68756560  1
  S  S35  1  0.05869048  0.17204277  0.81243440  1
  S  S36  1  0.17216402  0.53466571  0.31306894  1
  S  S37  1  0.46533429  0.82783598  0.18693106  1
  S  S38  1  0.82783598  0.46533429  0.68693106  1
  S  S39  1  0.53466571  0.17216402  0.81306894  1
  S  S40  1  0.38921101  0.76311697  0.44807822  1
  S  S41  1  0.23688303  0.61078899  0.05192178  1
  S  S42  1  0.61078899  0.23688303  0.55192178  1
  S  S43  1  0.76311697  0.38921101  0.94807822  1
  S  S44  1  0.88658964  0.76278127  0.44811251  1
  S  S45  1  0.23721873  0.11341036  0.05188749  1
  S  S46  1  0.11341036  0.23721873  0.55188749  1
  S  S47  1  0.76278127  0.88658964  0.94811251  1
