# generated using pymatgen
data_CsBiS2
_symmetry_space_group_name_H-M   'P 1'
_cell_length_a   7.51693052
_cell_length_b   8.19266453
_cell_length_c   9.59480778
_cell_angle_alpha   90.00000000
_cell_angle_beta   90.00000000
_cell_angle_gamma   103.28768196
_symmetry_Int_Tables_number   1
_chemical_formula_structural   CsBiS2
_chemical_formula_sum   'Cs4 Bi4 S8'
_cell_volume   575.06471373
_cell_formula_units_Z   4
loop_
 _symmetry_equiv_pos_site_id
 _symmetry_equiv_pos_as_xyz
  1  'x, y, z'
loop_
 _atom_site_type_symbol
 _atom_site_label
 _atom_site_symmetry_multiplicity
 _atom_site_fract_x
 _atom_site_fract_y
 _atom_site_fract_z
 _atom_site_occupancy
  Cs  Cs0  1  0.21102766  0.86747075  0.56851884  1
  Cs  Cs1  1  0.28897234  0.13252925  0.06851884  1
  Cs  Cs2  1  0.78897234  0.13252925  0.43148116  1
  Cs  Cs3  1  0.71102766  0.86747075  0.93148116  1
  Bi  Bi4  1  0.86274929  0.41114450  0.83356706  1
  Bi  Bi5  1  0.63725071  0.58885550  0.33356706  1
  Bi  Bi6  1  0.13725071  0.58885550  0.16643294  1
  Bi  Bi7  1  0.36274929  0.41114450  0.66643294  1
  S  S8  1  0.53976421  0.19273027  0.74563022  1
  S  S9  1  0.96023579  0.80726973  0.24563022  1
  S  S10  1  0.46023579  0.80726973  0.25436978  1
  S  S11  1  0.03976421  0.19273027  0.75436978  1
  S  S12  1  0.80620243  0.32963402  0.09128853  1
  S  S13  1  0.69379757  0.67036598  0.59128853  1
  S  S14  1  0.19379757  0.67036598  0.90871147  1
  S  S15  1  0.30620243  0.32963402  0.40871147  1
