# generated using pymatgen
data_K2(TcSe2)3
_symmetry_space_group_name_H-M   'P 1'
_cell_length_a   10.11503941
_cell_length_b   10.11503976
_cell_length_c   12.53604729
_cell_angle_alpha   88.70397048
_cell_angle_beta   88.70397045
_cell_angle_gamma   60.58502365
_symmetry_Int_Tables_number   1
_chemical_formula_structural   K2(TcSe2)3
_chemical_formula_sum   'K8 Tc12 Se24'
_cell_volume   1116.88257080
_cell_formula_units_Z   4
loop_
 _symmetry_equiv_pos_site_id
 _symmetry_equiv_pos_as_xyz
  1  'x, y, z'
loop_
 _atom_site_type_symbol
 _atom_site_label
 _atom_site_symmetry_multiplicity
 _atom_site_fract_x
 _atom_site_fract_y
 _atom_site_fract_z
 _atom_site_occupancy
  K  K0  1  0.39727926  0.60272074  0.75000000  1
  K  K1  1  0.60272074  0.39727926  0.25000000  1
  K  K2  1  0.78327256  0.21672744  0.75000000  1
  K  K3  1  0.21672744  0.78327256  0.25000000  1
  K  K4  1  0.64814613  0.12225313  0.01888462  1
  K  K5  1  0.87774687  0.35185387  0.48111538  1
  K  K6  1  0.35185387  0.87774687  0.98111538  1
  K  K7  1  0.12225313  0.64814613  0.51888462  1
  Tc  Tc8  1  0.31591686  0.00369799  0.52666395  1
  Tc  Tc9  1  0.99630201  0.68408314  0.97333605  1
  Tc  Tc10  1  0.68408314  0.99630201  0.47333605  1
  Tc  Tc11  1  0.00369799  0.31591686  0.02666395  1
  Tc  Tc12  1  0.47201576  0.11120255  0.62566590  1
  Tc  Tc13  1  0.88879745  0.52798424  0.87433410  1
  Tc  Tc14  1  0.52798424  0.88879745  0.37433410  1
  Tc  Tc15  1  0.11120255  0.47201576  0.12566590  1
  Tc  Tc16  1  0.60165327  0.81755709  0.57977008  1
  Tc  Tc17  1  0.18244291  0.39834673  0.92022992  1
  Tc  Tc18  1  0.39834673  0.18244291  0.42022992  1
  Tc  Tc19  1  0.81755709  0.60165327  0.07977008  1
  Se  Se20  1  0.25212150  0.07479929  0.33366741  1
  Se  Se21  1  0.92520071  0.74787850  0.16633259  1
  Se  Se22  1  0.74787850  0.92520071  0.66633259  1
  Se  Se23  1  0.07479929  0.25212150  0.83366741  1
  Se  Se24  1  0.71707249  0.79656572  0.92861619  1
  Se  Se25  1  0.20343428  0.28292751  0.57138381  1
  Se  Se26  1  0.28292751  0.20343428  0.07138381  1
  Se  Se27  1  0.79656572  0.71707249  0.42861619  1
  Se  Se28  1  0.60743328  0.06130675  0.28083118  1
  Se  Se29  1  0.93869325  0.39256672  0.21916882  1
  Se  Se30  1  0.39256672  0.93869325  0.71916882  1
  Se  Se31  1  0.06130675  0.60743328  0.78083118  1
  Se  Se32  1  0.55223472  0.27815561  0.51916466  1
  Se  Se33  1  0.72184439  0.44776528  0.98083534  1
  Se  Se34  1  0.44776528  0.72184439  0.48083534  1
  Se  Se35  1  0.27815561  0.55223472  0.01916466  1
  Se  Se36  1  0.99687772  0.06684408  0.08130596  1
  Se  Se37  1  0.93315592  0.00312228  0.41869404  1
  Se  Se38  1  0.00312228  0.93315592  0.91869404  1
  Se  Se39  1  0.06684408  0.99687772  0.58130596  1
  Se  Se40  1  0.44121278  0.26275703  0.80552999  1
  Se  Se41  1  0.73724297  0.55878722  0.69447001  1
  Se  Se42  1  0.55878722  0.73724297  0.19447001  1
  Se  Se43  1  0.26275703  0.44121278  0.30552999  1
