# generated using pymatgen
data_CsYP2O7
_symmetry_space_group_name_H-M   'P 1'
_cell_length_a   8.02774141
_cell_length_b   8.89866113
_cell_length_c   11.05068588
_cell_angle_alpha   90.00000000
_cell_angle_beta   90.00000000
_cell_angle_gamma   104.31599208
_symmetry_Int_Tables_number   1
_chemical_formula_structural   CsYP2O7
_chemical_formula_sum   'Cs4 Y4 P8 O28'
_cell_volume   764.90445270
_cell_formula_units_Z   4
loop_
 _symmetry_equiv_pos_site_id
 _symmetry_equiv_pos_as_xyz
  1  'x, y, z'
loop_
 _atom_site_type_symbol
 _atom_site_label
 _atom_site_symmetry_multiplicity
 _atom_site_fract_x
 _atom_site_fract_y
 _atom_site_fract_z
 _atom_site_occupancy
  Cs  Cs0  1  0.80008044  0.94777208  0.69084489  1
  Cs  Cs1  1  0.19991956  0.55222792  0.19084489  1
  Cs  Cs2  1  0.19991956  0.05222792  0.30915511  1
  Cs  Cs3  1  0.80008044  0.44777208  0.80915511  1
  Y  Y4  1  0.76333050  0.24739994  0.40053027  1
  Y  Y5  1  0.23666950  0.25260006  0.90053027  1
  Y  Y6  1  0.23666950  0.75260006  0.59946973  1
  Y  Y7  1  0.76333050  0.74739994  0.09946973  1
  P  P8  1  0.57265945  0.81729888  0.37033647  1
  P  P9  1  0.42734055  0.68270112  0.87033647  1
  P  P10  1  0.42734055  0.18270112  0.62966353  1
  P  P11  1  0.57265945  0.31729888  0.12966353  1
  P  P12  1  0.86879027  0.17841116  0.09638738  1
  P  P13  1  0.13120973  0.32158884  0.59638738  1
  P  P14  1  0.13120973  0.82158884  0.90361262  1
  P  P15  1  0.86879027  0.67841116  0.40361262  1
  O  O16  1  0.68275944  0.21000072  0.06134127  1
  O  O17  1  0.31724056  0.28999928  0.56134127  1
  O  O18  1  0.31724056  0.78999928  0.93865873  1
  O  O19  1  0.68275944  0.71000072  0.43865873  1
  O  O20  1  0.91508724  0.73862478  0.27434930  1
  O  O21  1  0.08491276  0.76137522  0.77434930  1
  O  O22  1  0.08491276  0.26137522  0.72565070  1
  O  O23  1  0.91508724  0.23862478  0.22565070  1
  O  O24  1  0.39437925  0.76867432  0.42850666  1
  O  O25  1  0.60562075  0.73132568  0.92850666  1
  O  O26  1  0.60562075  0.23132568  0.57149334  1
  O  O27  1  0.39437925  0.26867432  0.07149334  1
  O  O28  1  0.84638383  0.50450168  0.41473948  1
  O  O29  1  0.15361617  0.99549832  0.91473948  1
  O  O30  1  0.15361617  0.49549832  0.58526052  1
  O  O31  1  0.84638383  0.00450168  0.08526052  1
  O  O32  1  0.66588881  0.98552961  0.39630482  1
  O  O33  1  0.33411119  0.51447039  0.89630482  1
  O  O34  1  0.33411119  0.01447039  0.60369518  1
  O  O35  1  0.66588881  0.48552961  0.10369518  1
  O  O36  1  0.99650499  0.77121286  0.49621547  1
  O  O37  1  0.00349501  0.72878714  0.99621547  1
  O  O38  1  0.00349501  0.22878714  0.50378453  1
  O  O39  1  0.99650499  0.27121286  0.00378453  1
  O  O40  1  0.56247912  0.77484469  0.23575201  1
  O  O41  1  0.43752088  0.72515531  0.73575201  1
  O  O42  1  0.43752088  0.22515531  0.76424799  1
  O  O43  1  0.56247912  0.27484469  0.26424799  1
