# generated using pymatgen
data_P4S3I2
_symmetry_space_group_name_H-M   'P 1'
_cell_length_a   7.76392575
_cell_length_b   7.81320177
_cell_length_c   21.77082446
_cell_angle_alpha   94.62115186
_cell_angle_beta   87.94264794
_cell_angle_gamma   90.70505781
_symmetry_Int_Tables_number   1
_chemical_formula_structural   P4S3I2
_chemical_formula_sum   'P16 S12 I8'
_cell_volume   1315.44215487
_cell_formula_units_Z   4
loop_
 _symmetry_equiv_pos_site_id
 _symmetry_equiv_pos_as_xyz
  1  'x, y, z'
loop_
 _atom_site_type_symbol
 _atom_site_label
 _atom_site_symmetry_multiplicity
 _atom_site_fract_x
 _atom_site_fract_y
 _atom_site_fract_z
 _atom_site_occupancy
  I  I0  1  0.59233447  0.94025981  0.59767629  1
  I  I1  1  0.40766553  0.05974019  0.40232371  1
  I  I2  1  0.89762940  0.29431385  0.69845848  1
  I  I3  1  0.10237060  0.70568615  0.30154152  1
  P  P4  1  0.38839829  0.72191676  0.54963529  1
  P  P5  1  0.61160171  0.27808324  0.45036471  1
  P  P6  1  0.98142844  0.45810036  0.60751211  1
  P  P7  1  0.01857156  0.54189964  0.39248789  1
  P  P8  1  0.41969205  0.52655708  0.61741804  1
  P  P9  1  0.58030795  0.47344292  0.38258196  1
  P  P10  1  0.05595789  0.70560403  0.65820410  1
  P  P11  1  0.94404211  0.29439597  0.34179590  1
  S  S12  1  0.13814451  0.81645058  0.57458139  1
  S  S13  1  0.86185549  0.18354942  0.42541861  1
  S  S14  1  0.22676975  0.35768851  0.57788665  1
  S  S15  1  0.77323025  0.64231149  0.42211335  1
  S  S16  1  0.29032599  0.64386992  0.69624621  1
  S  S17  1  0.70967401  0.35613008  0.30375379  1
  I  I18  1  0.91669828  0.43460412  0.09863793  1
  I  I19  1  0.08330172  0.56539588  0.90136207  1
  I  I20  1  0.25597579  0.14595923  0.19482222  1
  I  I21  1  0.74402421  0.85404077  0.80517778  1
  P  P22  1  0.71520675  0.62815427  0.05016051  1
  P  P23  1  0.28479325  0.37184573  0.94983949  1
  P  P24  1  0.44631166  0.04445203  0.10367311  1
  P  P25  1  0.55368834  0.95554797  0.89632689  1
  P  P26  1  0.49838020  0.61279200  0.11924571  1
  P  P27  1  0.50161980  0.38720800  0.88075429  1
  P  P28  1  0.67745847  0.98141744  0.15507287  1
  P  P29  1  0.32254153  0.01858256  0.84492713  1
  S  S30  1  0.81246681  0.88021431  0.07245882  1
  S  S31  1  0.18753319  0.11978569  0.92754118  1
  S  S32  1  0.34791708  0.79588480  0.07670253  1
  S  S33  1  0.65208292  0.20411520  0.92329747  1
  S  S34  1  0.59568755  0.75829888  0.19621207  1
  S  S35  1  0.40431245  0.24170112  0.80378793  1
