# generated using pymatgen
data_Ca2GeO4
_symmetry_space_group_name_H-M   'P 1'
_cell_length_a   3.79100444
_cell_length_b   3.79100445
_cell_length_c   6.47344694
_cell_angle_alpha   107.02637490
_cell_angle_beta   107.02637493
_cell_angle_gamma   89.99999995
_symmetry_Int_Tables_number   1
_chemical_formula_structural   Ca2GeO4
_chemical_formula_sum   'Ca2 Ge1 O4'
_cell_volume   84.68301392
_cell_formula_units_Z   1
loop_
 _symmetry_equiv_pos_site_id
 _symmetry_equiv_pos_as_xyz
  1  'x, y, z'
loop_
 _atom_site_type_symbol
 _atom_site_label
 _atom_site_symmetry_multiplicity
 _atom_site_fract_x
 _atom_site_fract_y
 _atom_site_fract_z
 _atom_site_occupancy
  O  O0  1  0.83800565  0.83800565  0.67601130  1
  O  O1  1  0.16199435  0.16199435  0.32398870  1
  O  O2  1  0.50000000  0.00000000  0.00000000  1
  O  O3  1  0.00000000  0.50000000  0.00000000  1
  Ca  Ca4  1  0.64563608  0.64563608  0.29127216  1
  Ca  Ca5  1  0.35436392  0.35436392  0.70872784  1
  Ge  Ge6  1  0.00000000  0.00000000  0.00000000  1
