# generated using pymatgen
data_Sb2WO6
_symmetry_space_group_name_H-M   'P 1'
_cell_length_a   5.06106138
_cell_length_b   5.62345025
_cell_length_c   9.37754220
_cell_angle_alpha   95.70104719
_cell_angle_beta   90.02168417
_cell_angle_gamma   89.99244733
_symmetry_Int_Tables_number   1
_chemical_formula_structural   Sb2WO6
_chemical_formula_sum   'Sb4 W2 O12'
_cell_volume   265.57060192
_cell_formula_units_Z   2
loop_
 _symmetry_equiv_pos_site_id
 _symmetry_equiv_pos_as_xyz
  1  'x, y, z'
loop_
 _atom_site_type_symbol
 _atom_site_label
 _atom_site_symmetry_multiplicity
 _atom_site_fract_x
 _atom_site_fract_y
 _atom_site_fract_z
 _atom_site_occupancy
  W  W0  1  0.02100582  0.99270301  0.00292340  1
  W  W1  1  0.52093259  0.48807555  0.99509939  1
  Sb  Sb2  1  0.44555077  0.85162112  0.66534413  1
  Sb  Sb3  1  0.05528468  0.35272001  0.66510884  1
  Sb  Sb4  1  0.94542423  0.63175968  0.33274281  1
  Sb  Sb5  1  0.55584306  0.13078036  0.33263907  1
  O  O6  1  0.77785972  0.71161395  0.94432821  1
  O  O7  1  0.73547050  0.21301918  0.94334452  1
  O  O8  1  0.23568192  0.26804864  0.05457644  1
  O  O9  1  0.27782808  0.76958981  0.05419063  1
  O  O10  1  0.86056249  0.00472607  0.18963627  1
  O  O11  1  0.13947678  0.97506439  0.80744628  1
  O  O12  1  0.63991509  0.50573957  0.19076005  1
  O  O13  1  0.36061676  0.47732838  0.80855996  1
  O  O14  1  0.18553434  0.62973819  0.55774956  1
  O  O15  1  0.31816548  0.13140880  0.55997493  1
  O  O16  1  0.68518513  0.85334211  0.44029860  1
  O  O17  1  0.81866255  0.35172218  0.43837893  1
