# generated using pymatgen
data_K3(FeS2)2
_symmetry_space_group_name_H-M   'P 1'
_cell_length_a   7.21526251
_cell_length_b   10.79759524
_cell_length_c   11.72171782
_cell_angle_alpha   90.00000000
_cell_angle_beta   90.00000000
_cell_angle_gamma   90.00000000
_symmetry_Int_Tables_number   1
_chemical_formula_structural   K3(FeS2)2
_chemical_formula_sum   'K12 Fe8 S16'
_cell_volume   913.20954508
_cell_formula_units_Z   4
loop_
 _symmetry_equiv_pos_site_id
 _symmetry_equiv_pos_as_xyz
  1  'x, y, z'
loop_
 _atom_site_type_symbol
 _atom_site_label
 _atom_site_symmetry_multiplicity
 _atom_site_fract_x
 _atom_site_fract_y
 _atom_site_fract_z
 _atom_site_occupancy
  K  K0  1  0.06353640  0.42453063  0.13930944  1
  K  K1  1  0.56353640  0.07546937  0.36069056  1
  K  K2  1  0.93646360  0.92453063  0.86069056  1
  K  K3  1  0.43646360  0.57546937  0.63930944  1
  K  K4  1  0.93646360  0.57546937  0.86069056  1
  K  K5  1  0.43646360  0.92453063  0.63930944  1
  K  K6  1  0.06353640  0.07546937  0.13930944  1
  K  K7  1  0.56353640  0.42453063  0.36069056  1
  K  K8  1  0.08803437  0.25000000  0.76844287  1
  K  K9  1  0.58803437  0.25000000  0.73155713  1
  K  K10  1  0.91196563  0.75000000  0.23155713  1
  K  K11  1  0.41196563  0.75000000  0.26844287  1
  Fe  Fe12  1  0.04936262  0.37091738  0.47177564  1
  Fe  Fe13  1  0.54936262  0.12908262  0.02822436  1
  Fe  Fe14  1  0.95063738  0.87091738  0.52822436  1
  Fe  Fe15  1  0.45063738  0.62908262  0.97177564  1
  Fe  Fe16  1  0.95063738  0.62908262  0.52822436  1
  Fe  Fe17  1  0.45063738  0.87091738  0.97177564  1
  Fe  Fe18  1  0.04936262  0.12908262  0.47177564  1
  Fe  Fe19  1  0.54936262  0.37091738  0.02822436  1
  S  S20  1  0.14827304  0.55073251  0.39108248  1
  S  S21  1  0.64827304  0.94926749  0.10891752  1
  S  S22  1  0.85172696  0.05073251  0.60891752  1
  S  S23  1  0.35172696  0.44926749  0.89108248  1
  S  S24  1  0.85172696  0.44926749  0.60891752  1
  S  S25  1  0.35172696  0.05073251  0.89108248  1
  S  S26  1  0.14827304  0.94926749  0.39108248  1
  S  S27  1  0.64827304  0.55073251  0.10891752  1
  S  S28  1  0.29182712  0.25000000  0.53321659  1
  S  S29  1  0.79182712  0.25000000  0.96678341  1
  S  S30  1  0.70817288  0.75000000  0.46678341  1
  S  S31  1  0.20817288  0.75000000  0.03321659  1
  S  S32  1  0.40892377  0.25000000  0.15947078  1
  S  S33  1  0.90892377  0.25000000  0.34052922  1
  S  S34  1  0.59107623  0.75000000  0.84052922  1
  S  S35  1  0.09107623  0.75000000  0.65947078  1
