# generated using pymatgen
data_KSnPO5
_symmetry_space_group_name_H-M   'P 1'
_cell_length_a   6.63629594
_cell_length_b   10.90101097
_cell_length_c   13.37912846
_cell_angle_alpha   90.00000000
_cell_angle_beta   90.00000000
_cell_angle_gamma   90.00000000
_symmetry_Int_Tables_number   1
_chemical_formula_structural   KSnPO5
_chemical_formula_sum   'K8 Sn8 P8 O40'
_cell_volume   967.87739095
_cell_formula_units_Z   8
loop_
 _symmetry_equiv_pos_site_id
 _symmetry_equiv_pos_as_xyz
  1  'x, y, z'
loop_
 _atom_site_type_symbol
 _atom_site_label
 _atom_site_symmetry_multiplicity
 _atom_site_fract_x
 _atom_site_fract_y
 _atom_site_fract_z
 _atom_site_occupancy
  K  K0  1  0.30618941  0.43995701  0.89080286  1
  K  K1  1  0.22405034  0.19943591  0.62533668  1
  K  K2  1  0.19381059  0.43995701  0.39080286  1
  K  K3  1  0.69381059  0.93995701  0.10919714  1
  K  K4  1  0.77594966  0.69943591  0.37466332  1
  K  K5  1  0.80618941  0.93995701  0.60919714  1
  K  K6  1  0.72405034  0.69943591  0.87466332  1
  K  K7  1  0.27594966  0.19943591  0.12533668  1
  Sn  Sn8  1  0.74512874  0.25046611  0.75157321  1
  Sn  Sn9  1  0.75487126  0.25046611  0.25157321  1
  Sn  Sn10  1  0.99771726  0.50150474  0.12755423  1
  Sn  Sn11  1  0.49771726  0.00150474  0.37244577  1
  Sn  Sn12  1  0.00228274  0.00150474  0.87244577  1
  Sn  Sn13  1  0.50228274  0.50150474  0.62755423  1
  Sn  Sn14  1  0.25487126  0.75046611  0.24842679  1
  Sn  Sn15  1  0.24512874  0.75046611  0.74842679  1
  P  P16  1  0.34166409  0.75171941  0.50123123  1
  P  P17  1  0.49849678  0.99856156  0.82431985  1
  P  P18  1  0.15833591  0.75171941  0.00123123  1
  P  P19  1  0.50150322  0.49856156  0.17568015  1
  P  P20  1  0.99849678  0.49856156  0.67568015  1
  P  P21  1  0.00150322  0.99856156  0.32431985  1
  P  P22  1  0.65833591  0.25171941  0.49876877  1
  P  P23  1  0.84166409  0.25171941  0.99876877  1
  O  O24  1  0.79404120  0.22954260  0.59134217  1
  O  O25  1  0.03427079  0.62576851  0.23693389  1
  O  O26  1  0.47155248  0.88483340  0.75536856  1
  O  O27  1  0.70595880  0.22954260  0.09134217  1
  O  O28  1  0.01395182  0.86395081  0.77145568  1
  O  O29  1  0.20595880  0.72954260  0.40865783  1
  O  O30  1  0.68241576  0.97608456  0.89425983  1
  O  O31  1  0.48739814  0.86325188  0.48695559  1
  O  O32  1  0.46572921  0.62576851  0.73693389  1
  O  O33  1  0.18241576  0.47608456  0.60574017  1
  O  O34  1  0.01260186  0.86325188  0.98695559  1
  O  O35  1  0.81758424  0.97608456  0.39425983  1
  O  O36  1  0.52054453  0.13602565  0.48547047  1
  O  O37  1  0.53427079  0.12576851  0.26306611  1
  O  O38  1  0.96942902  0.10740328  0.25132224  1
  O  O39  1  0.51395182  0.36395081  0.72854432  1
  O  O40  1  0.29404120  0.72954260  0.90865783  1
  O  O41  1  0.03057098  0.60740328  0.74867776  1
  O  O42  1  0.20210545  0.77413758  0.59205707  1
  O  O43  1  0.02844752  0.88483340  0.25536856  1
  O  O44  1  0.31758424  0.47608456  0.10574017  1
  O  O45  1  0.31500505  0.02235700  0.89320833  1
  O  O46  1  0.70210545  0.27413758  0.90794293  1
  O  O47  1  0.96572921  0.12576851  0.76306611  1
  O  O48  1  0.53057098  0.10740328  0.75132224  1
  O  O49  1  0.98739814  0.36325188  0.01304441  1
  O  O50  1  0.02054453  0.63602565  0.01452953  1
  O  O51  1  0.18499495  0.02235700  0.39320833  1
  O  O52  1  0.98604818  0.36395081  0.22854432  1
  O  O53  1  0.68499495  0.52235700  0.10679167  1
  O  O54  1  0.79789455  0.27413758  0.40794293  1
  O  O55  1  0.97945547  0.13602565  0.98547047  1
  O  O56  1  0.46942902  0.60740328  0.24867776  1
  O  O57  1  0.97155248  0.38483340  0.74463144  1
  O  O58  1  0.81500505  0.52235700  0.60679167  1
  O  O59  1  0.52844752  0.38483340  0.24463144  1
  O  O60  1  0.47945547  0.63602565  0.51452953  1
  O  O61  1  0.29789455  0.77413758  0.09205707  1
  O  O62  1  0.51260186  0.36325188  0.51304441  1
  O  O63  1  0.48604818  0.86395081  0.27145568  1
