# generated using pymatgen
data_Ga2(SO4)3
_symmetry_space_group_name_H-M   'P 1'
_cell_length_a   8.78369881
_cell_length_b   8.78369882
_cell_length_c   8.78369891
_cell_angle_alpha   55.59406285
_cell_angle_beta   55.59406280
_cell_angle_gamma   55.59406685
_symmetry_Int_Tables_number   1
_chemical_formula_structural   Ga2(SO4)3
_chemical_formula_sum   'Ga4 S6 O24'
_cell_volume   430.19927174
_cell_formula_units_Z   2
loop_
 _symmetry_equiv_pos_site_id
 _symmetry_equiv_pos_as_xyz
  1  'x, y, z'
loop_
 _atom_site_type_symbol
 _atom_site_label
 _atom_site_symmetry_multiplicity
 _atom_site_fract_x
 _atom_site_fract_y
 _atom_site_fract_z
 _atom_site_occupancy
  Ga  Ga0  1  0.14383380  0.14383380  0.14383380  1
  Ga  Ga1  1  0.85616620  0.85616620  0.85616620  1
  Ga  Ga2  1  0.34940090  0.34940090  0.34940090  1
  Ga  Ga3  1  0.65059910  0.65059910  0.65059910  1
  S  S4  1  0.45803164  0.03927532  0.75116417  1
  S  S5  1  0.75116417  0.45803164  0.03927532  1
  S  S6  1  0.03927532  0.75116417  0.45803164  1
  S  S7  1  0.54196836  0.96072468  0.24883583  1
  S  S8  1  0.24883583  0.54196836  0.96072468  1
  S  S9  1  0.96072468  0.24883583  0.54196836  1
  O  O10  1  0.61043560  0.01406068  0.79739097  1
  O  O11  1  0.79739097  0.61043560  0.01406068  1
  O  O12  1  0.01406068  0.79739097  0.61043560  1
  O  O13  1  0.38956440  0.98593932  0.20260903  1
  O  O14  1  0.20260903  0.38956440  0.98593932  1
  O  O15  1  0.98593932  0.20260903  0.38956440  1
  O  O16  1  0.47347243  0.84563583  0.78466513  1
  O  O17  1  0.78466513  0.47347243  0.84563583  1
  O  O18  1  0.84563583  0.78466513  0.47347243  1
  O  O19  1  0.52652757  0.15436417  0.21533487  1
  O  O20  1  0.21533487  0.52652757  0.15436417  1
  O  O21  1  0.15436417  0.21533487  0.52652757  1
  O  O22  1  0.48550332  0.17506578  0.54205995  1
  O  O23  1  0.54205995  0.48550332  0.17506578  1
  O  O24  1  0.17506578  0.54205995  0.48550332  1
  O  O25  1  0.51449668  0.82493422  0.45794005  1
  O  O26  1  0.45794005  0.51449668  0.82493422  1
  O  O27  1  0.82493422  0.45794005  0.51449668  1
  O  O28  1  0.25839893  0.12751525  0.88221162  1
  O  O29  1  0.88221162  0.25839893  0.12751525  1
  O  O30  1  0.12751525  0.88221162  0.25839893  1
  O  O31  1  0.74160107  0.87248475  0.11778838  1
  O  O32  1  0.11778838  0.74160107  0.87248475  1
  O  O33  1  0.87248475  0.11778838  0.74160107  1
