# generated using pymatgen
data_KH5S2O9
_symmetry_space_group_name_H-M   'P 1'
_cell_length_a   7.49136829
_cell_length_b   8.59882600
_cell_length_c   13.70490176
_cell_angle_alpha   90.00000000
_cell_angle_beta   90.00000000
_cell_angle_gamma   107.30374382
_symmetry_Int_Tables_number   1
_chemical_formula_structural   KH5S2O9
_chemical_formula_sum   'K4 H20 S8 O36'
_cell_volume   842.87267783
_cell_formula_units_Z   4
loop_
 _symmetry_equiv_pos_site_id
 _symmetry_equiv_pos_as_xyz
  1  'x, y, z'
loop_
 _atom_site_type_symbol
 _atom_site_label
 _atom_site_symmetry_multiplicity
 _atom_site_fract_x
 _atom_site_fract_y
 _atom_site_fract_z
 _atom_site_occupancy
  K  K0  1  0.09534408  0.77535934  0.46829306  1
  K  K1  1  0.90465592  0.72464066  0.96829306  1
  K  K2  1  0.90465592  0.22464066  0.53170694  1
  K  K3  1  0.09534408  0.27535934  0.03170694  1
  S  S4  1  0.59661643  0.75412697  0.47522221  1
  S  S5  1  0.40338357  0.74587303  0.97522221  1
  S  S6  1  0.40338357  0.24587303  0.52477779  1
  S  S7  1  0.59661643  0.25412697  0.02477779  1
  S  S8  1  0.00899054  0.12217673  0.79825347  1
  S  S9  1  0.99100946  0.37782327  0.29825347  1
  S  S10  1  0.99100946  0.87782327  0.20174653  1
  S  S11  1  0.00899054  0.62217673  0.70174653  1
  O  O12  1  0.74506374  0.90190321  0.49559020  1
  O  O13  1  0.25493626  0.59809679  0.99559020  1
  O  O14  1  0.25493626  0.09809679  0.50440980  1
  O  O15  1  0.74506374  0.40190321  0.00440980  1
  O  O16  1  0.49668734  0.67771590  0.56611201  1
  O  O17  1  0.50331266  0.82228410  0.06611201  1
  O  O18  1  0.50331266  0.32228410  0.43388799  1
  O  O19  1  0.49668734  0.17771590  0.93388799  1
  O  O20  1  0.46017581  0.76929955  0.40114663  1
  O  O21  1  0.53982419  0.73070045  0.90114663  1
  O  O22  1  0.53982419  0.23070045  0.59885337  1
  O  O23  1  0.46017581  0.26929955  0.09885337  1
  O  O24  1  0.70149101  0.63313339  0.43368269  1
  O  O25  1  0.29850899  0.86686661  0.93368269  1
  O  O26  1  0.29850899  0.36686661  0.56631731  1
  O  O27  1  0.70149101  0.13313339  0.06631731  1
  O  O28  1  0.08194953  0.29444480  0.82572529  1
  O  O29  1  0.91805047  0.20555520  0.32572529  1
  O  O30  1  0.91805047  0.70555520  0.17427471  1
  O  O31  1  0.08194953  0.79444480  0.67427471  1
  O  O32  1  0.94379838  0.01777911  0.88266322  1
  O  O33  1  0.05620162  0.48222089  0.38266322  1
  O  O34  1  0.05620162  0.98222089  0.11733678  1
  O  O35  1  0.94379838  0.51777911  0.61733678  1
  O  O36  1  0.86437193  0.09453547  0.72042913  1
  O  O37  1  0.13562807  0.40546453  0.22042913  1
  O  O38  1  0.13562807  0.90546453  0.27957087  1
  O  O39  1  0.86437193  0.59453547  0.77957087  1
  O  O40  1  0.18428270  0.08338949  0.75250608  1
  O  O41  1  0.81571730  0.41661051  0.25250608  1
  O  O42  1  0.81571730  0.91661051  0.24749392  1
  O  O43  1  0.18428270  0.58338949  0.74749392  1
  O  O44  1  0.56646775  0.85778385  0.72853630  1
  O  O45  1  0.43353225  0.64221615  0.22853630  1
  O  O46  1  0.43353225  0.14221615  0.27146370  1
  O  O47  1  0.56646775  0.35778385  0.77146370  1
  H  H48  1  0.62176583  0.51443477  0.43269855  1
  H  H49  1  0.37823417  0.98556523  0.93269855  1
  H  H50  1  0.37823417  0.48556523  0.56730145  1
  H  H51  1  0.62176583  0.01443477  0.06730145  1
  H  H52  1  0.14723653  0.96794942  0.72555733  1
  H  H53  1  0.85276347  0.53205058  0.22555733  1
  H  H54  1  0.85276347  0.03205058  0.27444267  1
  H  H55  1  0.14723653  0.46794942  0.77444267  1
  H  H56  1  0.54910495  0.79697263  0.79375496  1
  H  H57  1  0.45089505  0.70302737  0.29375496  1
  H  H58  1  0.45089505  0.20302737  0.20624504  1
  H  H59  1  0.54910495  0.29697263  0.70624504  1
  H  H60  1  0.54258501  0.78419293  0.66930088  1
  H  H61  1  0.45741499  0.71580707  0.16930088  1
  H  H62  1  0.45741499  0.21580707  0.33069912  1
  H  H63  1  0.54258501  0.28419293  0.83069912  1
  H  H64  1  0.69368187  0.95013623  0.72550646  1
  H  H65  1  0.30631813  0.54986377  0.22550646  1
  H  H66  1  0.30631813  0.04986377  0.27449354  1
  H  H67  1  0.69368187  0.45013623  0.77449354  1
