# generated using pymatgen
data_In2(SO4)3
_symmetry_space_group_name_H-M   'P 1'
_cell_length_a   9.26271208
_cell_length_b   9.26271189
_cell_length_c   9.26271164
_cell_angle_alpha   55.18624905
_cell_angle_beta   55.18624989
_cell_angle_gamma   55.18624742
_symmetry_Int_Tables_number   1
_chemical_formula_structural   In2(SO4)3
_chemical_formula_sum   'In4 S6 O24'
_cell_volume   499.06123046
_cell_formula_units_Z   2
loop_
 _symmetry_equiv_pos_site_id
 _symmetry_equiv_pos_as_xyz
  1  'x, y, z'
loop_
 _atom_site_type_symbol
 _atom_site_label
 _atom_site_symmetry_multiplicity
 _atom_site_fract_x
 _atom_site_fract_y
 _atom_site_fract_z
 _atom_site_occupancy
  In  In0  1  0.14455823  0.14455823  0.14455823  1
  In  In1  1  0.85544177  0.85544177  0.85544177  1
  In  In2  1  0.34869297  0.34869297  0.34869297  1
  In  In3  1  0.65130703  0.65130703  0.65130703  1
  S  S4  1  0.04148372  0.45631254  0.75120026  1
  S  S5  1  0.75120026  0.04148372  0.45631254  1
  S  S6  1  0.45631254  0.75120026  0.04148372  1
  S  S7  1  0.95851628  0.54368746  0.24879974  1
  S  S8  1  0.24879974  0.95851628  0.54368746  1
  S  S9  1  0.54368746  0.24879974  0.95851628  1
  O  O10  1  0.01943409  0.59817019  0.79770062  1
  O  O11  1  0.79770062  0.01943409  0.59817019  1
  O  O12  1  0.59817019  0.79770062  0.01943409  1
  O  O13  1  0.98056591  0.40182981  0.20229938  1
  O  O14  1  0.20229938  0.98056591  0.40182981  1
  O  O15  1  0.40182981  0.20229938  0.98056591  1
  O  O16  1  0.85497406  0.47098757  0.78965790  1
  O  O17  1  0.78965790  0.85497406  0.47098757  1
  O  O18  1  0.47098757  0.78965790  0.85497406  1
  O  O19  1  0.14502594  0.52901243  0.21034210  1
  O  O20  1  0.21034210  0.14502594  0.52901243  1
  O  O21  1  0.52901243  0.21034210  0.14502594  1
  O  O22  1  0.13302497  0.26358704  0.86961216  1
  O  O23  1  0.86961216  0.13302497  0.26358704  1
  O  O24  1  0.26358704  0.86961216  0.13302497  1
  O  O25  1  0.86697503  0.73641296  0.13038784  1
  O  O26  1  0.13038784  0.86697503  0.73641296  1
  O  O27  1  0.73641296  0.13038784  0.86697503  1
  O  O28  1  0.16370955  0.48877041  0.54889036  1
  O  O29  1  0.54889036  0.16370955  0.48877041  1
  O  O30  1  0.48877041  0.54889036  0.16370955  1
  O  O31  1  0.83629045  0.51122959  0.45110964  1
  O  O32  1  0.45110964  0.83629045  0.51122959  1
  O  O33  1  0.51122959  0.45110964  0.83629045  1
