# generated using pymatgen
data_Co2PHO5
_symmetry_space_group_name_H-M   'P 1'
_cell_length_a   6.03704922
_cell_length_b   8.16475788
_cell_length_c   8.40594351
_cell_angle_alpha   90.00000000
_cell_angle_beta   90.00000000
_cell_angle_gamma   90.00000000
_symmetry_Int_Tables_number   1
_chemical_formula_structural   Co2PHO5
_chemical_formula_sum   'Co8 P4 H4 O20'
_cell_volume   414.33774142
_cell_formula_units_Z   4
loop_
 _symmetry_equiv_pos_site_id
 _symmetry_equiv_pos_as_xyz
  1  'x, y, z'
loop_
 _atom_site_type_symbol
 _atom_site_label
 _atom_site_symmetry_multiplicity
 _atom_site_fract_x
 _atom_site_fract_y
 _atom_site_fract_z
 _atom_site_occupancy
  Co  Co0  1  0.50000000  0.36116662  0.36961863  1
  Co  Co1  1  0.50000000  0.63883338  0.63038137  1
  Co  Co2  1  0.00000000  0.86116662  0.13038137  1
  Co  Co3  1  0.00000000  0.13883338  0.86961863  1
  Co  Co4  1  0.25487024  0.50000000  0.00000000  1
  Co  Co5  1  0.24512976  0.00000000  0.50000000  1
  Co  Co6  1  0.74512976  0.50000000  0.00000000  1
  Co  Co7  1  0.75487024  0.00000000  0.50000000  1
  P  P8  1  0.00000000  0.24849960  0.24076596  1
  P  P9  1  0.00000000  0.75150040  0.75923404  1
  P  P10  1  0.50000000  0.74849960  0.25923404  1
  P  P11  1  0.50000000  0.25150040  0.74076596  1
  O  O12  1  0.00000000  0.10950932  0.11299132  1
  O  O13  1  0.00000000  0.89049068  0.88700868  1
  O  O14  1  0.50000000  0.60950932  0.38700868  1
  O  O15  1  0.50000000  0.39049068  0.61299132  1
  O  O16  1  0.00000000  0.41353515  0.14680218  1
  O  O17  1  0.00000000  0.58646485  0.85319782  1
  O  O18  1  0.50000000  0.91353515  0.35319782  1
  O  O19  1  0.50000000  0.08646485  0.64680218  1
  O  O20  1  0.20874147  0.23336769  0.34846644  1
  O  O21  1  0.20874147  0.76663231  0.65153356  1
  O  O22  1  0.29125853  0.73336769  0.15153356  1
  O  O23  1  0.29125853  0.26663231  0.84846644  1
  O  O24  1  0.79125853  0.76663231  0.65153356  1
  O  O25  1  0.79125853  0.23336769  0.34846644  1
  O  O26  1  0.70874147  0.26663231  0.84846644  1
  O  O27  1  0.70874147  0.73336769  0.15153356  1
  O  O28  1  0.50000000  0.38469048  0.12443934  1
  O  O29  1  0.50000000  0.61530952  0.87556066  1
  O  O30  1  0.00000000  0.88469048  0.37556066  1
  O  O31  1  0.00000000  0.11530952  0.62443934  1
  H  H32  1  0.50000000  0.27354938  0.08168369  1
  H  H33  1  0.50000000  0.72645062  0.91831631  1
  H  H34  1  0.00000000  0.77354938  0.41831631  1
  H  H35  1  0.00000000  0.22645062  0.58168369  1
