# generated using pymatgen
data_BaTm2CoO5
_symmetry_space_group_name_H-M   'P 1'
_cell_length_a   5.69863855
_cell_length_b   7.04738202
_cell_length_c   12.22877891
_cell_angle_alpha   90.00000000
_cell_angle_beta   90.00000000
_cell_angle_gamma   90.00000000
_symmetry_Int_Tables_number   1
_chemical_formula_structural   BaTm2CoO5
_chemical_formula_sum   'Ba4 Tm8 Co4 O20'
_cell_volume   491.11366576
_cell_formula_units_Z   4
loop_
 _symmetry_equiv_pos_site_id
 _symmetry_equiv_pos_as_xyz
  1  'x, y, z'
loop_
 _atom_site_type_symbol
 _atom_site_label
 _atom_site_symmetry_multiplicity
 _atom_site_fract_x
 _atom_site_fract_y
 _atom_site_fract_z
 _atom_site_occupancy
  Ba  Ba0  1  0.25000000  0.92079905  0.89938488  1
  Ba  Ba1  1  0.75000000  0.07920095  0.10061512  1
  Ba  Ba2  1  0.75000000  0.42079905  0.60061512  1
  Ba  Ba3  1  0.25000000  0.57920095  0.39938488  1
  Tm  Tm4  1  0.25000000  0.11953158  0.29153298  1
  Tm  Tm5  1  0.75000000  0.88046842  0.70846702  1
  Tm  Tm6  1  0.75000000  0.61953158  0.20846702  1
  Tm  Tm7  1  0.25000000  0.38046842  0.79153298  1
  Tm  Tm8  1  0.25000000  0.40183044  0.07445792  1
  Tm  Tm9  1  0.75000000  0.59816956  0.92554208  1
  Tm  Tm10  1  0.75000000  0.90183044  0.42554208  1
  Tm  Tm11  1  0.25000000  0.09816956  0.57445792  1
  Co  Co12  1  0.25000000  0.69230089  0.65235831  1
  Co  Co13  1  0.75000000  0.30769911  0.34764169  1
  Co  Co14  1  0.75000000  0.19230089  0.84764169  1
  Co  Co15  1  0.25000000  0.80769911  0.15235831  1
  O  O16  1  0.99821843  0.16429849  0.43420230  1
  O  O17  1  0.49821843  0.83570151  0.56579770  1
  O  O18  1  0.00178157  0.66429849  0.06579770  1
  O  O19  1  0.50178157  0.33570151  0.93420230  1
  O  O20  1  0.00178157  0.83570151  0.56579770  1
  O  O21  1  0.50178157  0.16429849  0.43420230  1
  O  O22  1  0.99821843  0.33570151  0.93420230  1
  O  O23  1  0.49821843  0.66429849  0.06579770  1
  O  O24  1  0.49962646  0.36260470  0.22460617  1
  O  O25  1  0.99962646  0.63739530  0.77539383  1
  O  O26  1  0.50037354  0.86260470  0.27539383  1
  O  O27  1  0.00037354  0.13739530  0.72460617  1
  O  O28  1  0.50037354  0.63739530  0.77539383  1
  O  O29  1  0.00037354  0.36260470  0.22460617  1
  O  O30  1  0.49962646  0.13739530  0.72460617  1
  O  O31  1  0.99962646  0.86260470  0.27539383  1
  O  O32  1  0.25000000  0.07912298  0.10331662  1
  O  O33  1  0.75000000  0.92087702  0.89668338  1
  O  O34  1  0.75000000  0.57912298  0.39668338  1
  O  O35  1  0.25000000  0.42087702  0.60331662  1
