# generated using pymatgen
data_GdNi(BO2)5
_symmetry_space_group_name_H-M   'P 1'
_cell_length_a   7.62522037
_cell_length_b   8.64316214
_cell_length_c   9.50416723
_cell_angle_alpha   93.57244961
_cell_angle_beta   90.00000000
_cell_angle_gamma   90.00000000
_symmetry_Int_Tables_number   1
_chemical_formula_structural   GdNi(BO2)5
_chemical_formula_sum   'Gd4 Ni4 B20 O40'
_cell_volume   625.16461579
_cell_formula_units_Z   4
loop_
 _symmetry_equiv_pos_site_id
 _symmetry_equiv_pos_as_xyz
  1  'x, y, z'
loop_
 _atom_site_type_symbol
 _atom_site_label
 _atom_site_symmetry_multiplicity
 _atom_site_fract_x
 _atom_site_fract_y
 _atom_site_fract_z
 _atom_site_occupancy
  Gd  Gd0  1  0.81923366  0.81679247  0.76170748  1
  Gd  Gd1  1  0.31923366  0.68320753  0.73829252  1
  Gd  Gd2  1  0.18076634  0.18320753  0.23829252  1
  Gd  Gd3  1  0.68076634  0.31679247  0.26170748  1
  Ni  Ni4  1  0.58973357  0.39867319  0.87169470  1
  Ni  Ni5  1  0.08973357  0.10132681  0.62830530  1
  Ni  Ni6  1  0.41026643  0.60132681  0.12830530  1
  Ni  Ni7  1  0.91026643  0.89867319  0.37169470  1
  O  O8  1  0.29489153  0.96462570  0.77238649  1
  O  O9  1  0.79489153  0.53537430  0.72761351  1
  O  O10  1  0.70510847  0.03537430  0.22761351  1
  O  O11  1  0.20510847  0.46462570  0.27238649  1
  O  O12  1  0.46565926  0.18794540  0.87561811  1
  O  O13  1  0.96565926  0.31205460  0.62438189  1
  O  O14  1  0.53434074  0.81205460  0.12438189  1
  O  O15  1  0.03434074  0.68794540  0.37561811  1
  O  O16  1  0.59229139  0.01467129  0.69957062  1
  O  O17  1  0.09229139  0.48532871  0.80042938  1
  O  O18  1  0.40770861  0.98532871  0.30042938  1
  O  O19  1  0.90770861  0.51467129  0.19957062  1
  O  O20  1  0.34876585  0.18261921  0.63794891  1
  O  O21  1  0.84876585  0.31738079  0.86205109  1
  O  O22  1  0.65123415  0.81738079  0.36205109  1
  O  O23  1  0.15123415  0.68261921  0.13794891  1
  O  O24  1  0.52916125  0.41417655  0.65008578  1
  O  O25  1  0.02916125  0.08582345  0.84991422  1
  O  O26  1  0.47083875  0.58582345  0.34991422  1
  O  O27  1  0.97083875  0.91417655  0.15008578  1
  O  O28  1  0.60714873  0.67373015  0.57942259  1
  O  O29  1  0.10714873  0.82626985  0.92057741  1
  O  O30  1  0.39285127  0.32626985  0.42057741  1
  O  O31  1  0.89285127  0.17373015  0.07942259  1
  O  O32  1  0.77070144  0.45358254  0.48092385  1
  O  O33  1  0.27070144  0.04641746  0.01907615  1
  O  O34  1  0.22929856  0.54641746  0.51907615  1
  O  O35  1  0.72929856  0.95358254  0.98092385  1
  O  O36  1  0.62424458  0.18127117  0.51011739  1
  O  O37  1  0.12424458  0.31872883  0.98988261  1
  O  O38  1  0.37575542  0.81872883  0.48988261  1
  O  O39  1  0.87575542  0.68127117  0.01011739  1
  O  O40  1  0.34885826  0.50664430  0.92915068  1
  O  O41  1  0.84885826  0.99335570  0.57084932  1
  O  O42  1  0.65114174  0.49335570  0.07084932  1
  O  O43  1  0.15114174  0.00664430  0.42915068  1
  O  O44  1  0.55482233  0.75806163  0.87427984  1
  O  O45  1  0.05482233  0.74193837  0.62572016  1
  O  O46  1  0.44517767  0.24193837  0.12572016  1
  O  O47  1  0.94517767  0.25806163  0.37427984  1
  B  B48  1  0.42492733  0.08627792  0.74472922  1
  B  B49  1  0.92492733  0.41372208  0.75527078  1
  B  B50  1  0.57507267  0.91372208  0.25527078  1
  B  B51  1  0.07507267  0.58627792  0.24472922  1
  B  B52  1  0.67515169  0.51717625  0.60468308  1
  B  B53  1  0.17515169  0.98282375  0.89531692  1
  B  B54  1  0.32484831  0.48282375  0.39531692  1
  B  B55  1  0.82484831  0.01717625  0.10468308  1
  B  B56  1  0.46696718  0.27762062  0.55679037  1
  B  B57  1  0.96696718  0.22237938  0.94320963  1
  B  B58  1  0.53303282  0.72237938  0.44320963  1
  B  B59  1  0.03303282  0.77762062  0.05679037  1
  B  B60  1  0.39806672  0.16059015  0.00586400  1
  B  B61  1  0.89806672  0.33940985  0.49413600  1
  B  B62  1  0.60193328  0.83940985  0.99413600  1
  B  B63  1  0.10193328  0.66059015  0.50586400  1
  B  B64  1  0.68804634  0.06683094  0.58907787  1
  B  B65  1  0.18804634  0.43316906  0.91092213  1
  B  B66  1  0.31195366  0.93316906  0.41092213  1
  B  B67  1  0.81195366  0.56683094  0.08907787  1
