# generated using pymatgen
data_Rb2MnO4
_symmetry_space_group_name_H-M   'P 1'
_cell_length_a   6.16170412
_cell_length_b   8.14347199
_cell_length_c   10.93601020
_cell_angle_alpha   90.00000000
_cell_angle_beta   90.00000000
_cell_angle_gamma   90.00000000
_symmetry_Int_Tables_number   1
_chemical_formula_structural   Rb2MnO4
_chemical_formula_sum   'Rb8 Mn4 O16'
_cell_volume   548.74345529
_cell_formula_units_Z   4
loop_
 _symmetry_equiv_pos_site_id
 _symmetry_equiv_pos_as_xyz
  1  'x, y, z'
loop_
 _atom_site_type_symbol
 _atom_site_label
 _atom_site_symmetry_multiplicity
 _atom_site_fract_x
 _atom_site_fract_y
 _atom_site_fract_z
 _atom_site_occupancy
  Mn  Mn0  1  0.75000000  0.76748111  0.92055651  1
  Mn  Mn1  1  0.25000000  0.23251889  0.07944349  1
  Mn  Mn2  1  0.75000000  0.26748111  0.57944349  1
  Mn  Mn3  1  0.25000000  0.73251889  0.42055651  1
  Rb  Rb4  1  0.75000000  0.83249939  0.58805480  1
  Rb  Rb5  1  0.25000000  0.16750061  0.41194520  1
  Rb  Rb6  1  0.75000000  0.33249939  0.91194520  1
  Rb  Rb7  1  0.25000000  0.66750061  0.08805480  1
  Rb  Rb8  1  0.75000000  0.51316842  0.30391850  1
  Rb  Rb9  1  0.25000000  0.48683158  0.69608150  1
  Rb  Rb10  1  0.75000000  0.01316842  0.19608150  1
  Rb  Rb11  1  0.25000000  0.98683158  0.80391850  1
  O  O12  1  0.75000000  0.20588251  0.43366661  1
  O  O13  1  0.25000000  0.79411749  0.56633339  1
  O  O14  1  0.75000000  0.70588251  0.06633339  1
  O  O15  1  0.25000000  0.29411749  0.93366661  1
  O  O16  1  0.75000000  0.97113287  0.91700396  1
  O  O17  1  0.25000000  0.02886713  0.08299604  1
  O  O18  1  0.75000000  0.47113287  0.58299604  1
  O  O19  1  0.25000000  0.52886713  0.41700396  1
  O  O20  1  0.96923091  0.69323319  0.85060168  1
  O  O21  1  0.46923091  0.30676681  0.14939832  1
  O  O22  1  0.53076909  0.19323319  0.64939832  1
  O  O23  1  0.03076909  0.80676681  0.35060168  1
  O  O24  1  0.03076909  0.30676681  0.14939832  1
  O  O25  1  0.53076909  0.69323319  0.85060168  1
  O  O26  1  0.46923091  0.80676681  0.35060168  1
  O  O27  1  0.96923091  0.19323319  0.64939832  1
