# generated using pymatgen
data_Ta2Ni3Se8
_symmetry_space_group_name_H-M   'P 1'
_cell_length_a   3.49392131
_cell_length_b   10.63403073
_cell_length_c   14.95452935
_cell_angle_alpha   90.00000000
_cell_angle_beta   90.00000000
_cell_angle_gamma   90.00000000
_symmetry_Int_Tables_number   1
_chemical_formula_structural   Ta2Ni3Se8
_chemical_formula_sum   'Ta4 Ni6 Se16'
_cell_volume   555.62756094
_cell_formula_units_Z   2
loop_
 _symmetry_equiv_pos_site_id
 _symmetry_equiv_pos_as_xyz
  1  'x, y, z'
loop_
 _atom_site_type_symbol
 _atom_site_label
 _atom_site_symmetry_multiplicity
 _atom_site_fract_x
 _atom_site_fract_y
 _atom_site_fract_z
 _atom_site_occupancy
  Ta  Ta0  1  0.50000000  0.79877036  0.88025150  1
  Ta  Ta1  1  0.50000000  0.20122964  0.11974850  1
  Ta  Ta2  1  0.50000000  0.29877036  0.61974850  1
  Ta  Ta3  1  0.50000000  0.70122964  0.38025150  1
  Ni  Ni4  1  0.00000000  0.00000000  0.00000000  1
  Ni  Ni5  1  0.00000000  0.50000000  0.50000000  1
  Ni  Ni6  1  0.00000000  0.63440930  0.77794880  1
  Ni  Ni7  1  0.00000000  0.36559070  0.22205120  1
  Ni  Ni8  1  0.00000000  0.13440930  0.72205120  1
  Ni  Ni9  1  0.00000000  0.86559070  0.27794880  1
  Se  Se10  1  0.00000000  0.77969546  0.00859591  1
  Se  Se11  1  0.00000000  0.22030454  0.99140409  1
  Se  Se12  1  0.00000000  0.27969546  0.49140409  1
  Se  Se13  1  0.00000000  0.72030454  0.50859591  1
  Se  Se14  1  0.00000000  0.97512566  0.84385910  1
  Se  Se15  1  0.00000000  0.02487434  0.15614090  1
  Se  Se16  1  0.00000000  0.47512566  0.65614090  1
  Se  Se17  1  0.00000000  0.52487434  0.34385910  1
  Se  Se18  1  0.50000000  0.75550088  0.71305688  1
  Se  Se19  1  0.50000000  0.24449912  0.28694312  1
  Se  Se20  1  0.50000000  0.25550088  0.78694312  1
  Se  Se21  1  0.50000000  0.74449912  0.21305688  1
  Se  Se22  1  0.50000000  0.55733880  0.87068275  1
  Se  Se23  1  0.50000000  0.44266120  0.12931725  1
  Se  Se24  1  0.50000000  0.05733880  0.62931725  1
  Se  Se25  1  0.50000000  0.94266120  0.37068275  1
