# generated using pymatgen
data_BaVAsO6
_symmetry_space_group_name_H-M   'P 1'
_cell_length_a   5.90133794
_cell_length_b   9.03247714
_cell_length_c   10.35476618
_cell_angle_alpha   90.00000000
_cell_angle_beta   90.00000000
_cell_angle_gamma   90.38432069
_symmetry_Int_Tables_number   1
_chemical_formula_structural   BaVAsO6
_chemical_formula_sum   'Ba4 V4 As4 O24'
_cell_volume   551.93493406
_cell_formula_units_Z   4
loop_
 _symmetry_equiv_pos_site_id
 _symmetry_equiv_pos_as_xyz
  1  'x, y, z'
loop_
 _atom_site_type_symbol
 _atom_site_label
 _atom_site_symmetry_multiplicity
 _atom_site_fract_x
 _atom_site_fract_y
 _atom_site_fract_z
 _atom_site_occupancy
  O  O0  1  0.61115958  0.11896601  0.07727352  1
  O  O1  1  0.38884042  0.38103399  0.57727352  1
  O  O2  1  0.38884042  0.88103399  0.92272648  1
  O  O3  1  0.61115958  0.61896601  0.42272648  1
  O  O4  1  0.02436256  0.64020849  0.27242917  1
  O  O5  1  0.97563744  0.85979151  0.77242917  1
  O  O6  1  0.97563744  0.35979151  0.72757083  1
  O  O7  1  0.02436256  0.14020849  0.22757083  1
  O  O8  1  0.01526432  0.76692244  0.03437312  1
  O  O9  1  0.98473568  0.73307756  0.53437312  1
  O  O10  1  0.98473568  0.23307756  0.96562688  1
  O  O11  1  0.01526432  0.26692244  0.46562688  1
  O  O12  1  0.61133782  0.16237856  0.36185399  1
  O  O13  1  0.38866218  0.33762144  0.86185399  1
  O  O14  1  0.38866218  0.83762144  0.63814601  1
  O  O15  1  0.61133782  0.66237856  0.13814601  1
  O  O16  1  0.81901639  0.02491873  0.56611849  1
  O  O17  1  0.18098361  0.47508127  0.06611849  1
  O  O18  1  0.18098361  0.97508127  0.43388151  1
  O  O19  1  0.81901639  0.52491873  0.93388151  1
  O  O20  1  0.77679417  0.89370506  0.32657562  1
  O  O21  1  0.22320583  0.60629494  0.82657562  1
  O  O22  1  0.22320583  0.10629494  0.67342438  1
  O  O23  1  0.77679417  0.39370506  0.17342438  1
  V  V24  1  0.85396317  0.58589270  0.09093316  1
  V  V25  1  0.14603683  0.91410730  0.59093316  1
  V  V26  1  0.14603683  0.41410730  0.90906684  1
  V  V27  1  0.85396317  0.08589270  0.40906684  1
  As  As28  1  0.84558746  0.21853894  0.11418496  1
  As  As29  1  0.15441254  0.28146106  0.61418496  1
  As  As30  1  0.15441254  0.78146106  0.88581504  1
  As  As31  1  0.84558746  0.71853894  0.38581504  1
  Ba  Ba32  1  0.63818742  0.58624154  0.69413921  1
  Ba  Ba33  1  0.36181258  0.91375846  0.19413921  1
  Ba  Ba34  1  0.36181258  0.41375846  0.30586079  1
  Ba  Ba35  1  0.63818742  0.08624154  0.80586079  1
