# generated using pymatgen
data_NaCo3As3(HO6)2
_symmetry_space_group_name_H-M   'P 1'
_cell_length_a   6.91107154
_cell_length_b   8.72610659
_cell_length_c   8.72610664
_cell_angle_alpha   91.44810311
_cell_angle_beta   105.93032909
_cell_angle_gamma   105.93033562
_symmetry_Int_Tables_number   1
_chemical_formula_structural   NaCo3As3(HO6)2
_chemical_formula_sum   'Na2 Co6 As6 H4 O24'
_cell_volume   483.71105232
_cell_formula_units_Z   2
loop_
 _symmetry_equiv_pos_site_id
 _symmetry_equiv_pos_as_xyz
  1  'x, y, z'
loop_
 _atom_site_type_symbol
 _atom_site_label
 _atom_site_symmetry_multiplicity
 _atom_site_fract_x
 _atom_site_fract_y
 _atom_site_fract_z
 _atom_site_occupancy
  Na  Na0  1  0.25000000  0.99557876  0.00442124  1
  Na  Na1  1  0.75000000  0.00442124  0.99557876  1
  Co  Co2  1  0.75000000  0.72219627  0.27780373  1
  Co  Co3  1  0.25000000  0.27780373  0.72219627  1
  Co  Co4  1  0.61477489  0.04482332  0.36937339  1
  Co  Co5  1  0.88522511  0.63062661  0.95517668  1
  Co  Co6  1  0.38522511  0.95517668  0.63062661  1
  Co  Co7  1  0.11477489  0.36937339  0.04482332  1
  As  As8  1  0.75000000  0.31455564  0.68544436  1
  As  As9  1  0.25000000  0.68544436  0.31455564  1
  As  As10  1  0.88844335  0.89575935  0.66722794  1
  As  As11  1  0.61155665  0.33277206  0.10424065  1
  As  As12  1  0.11155665  0.10424065  0.33277206  1
  As  As13  1  0.38844335  0.66722794  0.89575935  1
  O  O14  1  0.47513401  0.79811948  0.27216088  1
  O  O15  1  0.02486599  0.72783912  0.20188052  1
  O  O16  1  0.52486599  0.20188052  0.72783912  1
  O  O17  1  0.97513401  0.27216088  0.79811948  1
  O  O18  1  0.72742285  0.28096547  0.48408233  1
  O  O19  1  0.77257715  0.51591767  0.71903453  1
  O  O20  1  0.27257715  0.71903453  0.51591767  1
  O  O21  1  0.22742285  0.48408233  0.28096547  1
  O  O22  1  0.87198471  0.97468306  0.33060847  1
  O  O23  1  0.62801529  0.66939153  0.02531694  1
  O  O24  1  0.12801529  0.02531694  0.66939153  1
  O  O25  1  0.37198471  0.33060847  0.97468306  1
  O  O26  1  0.66544369  0.46250269  0.27908596  1
  O  O27  1  0.83455631  0.72091404  0.53749731  1
  O  O28  1  0.33455631  0.53749731  0.72091404  1
  O  O29  1  0.16544369  0.27908596  0.46250269  1
  O  O30  1  0.68613606  0.97809302  0.60136073  1
  O  O31  1  0.81386394  0.39863927  0.02190698  1
  O  O32  1  0.31386394  0.02190698  0.39863927  1
  O  O33  1  0.18613606  0.60136073  0.97809302  1
  O  O34  1  0.59303245  0.14085128  0.15110046  1
  O  O35  1  0.90696755  0.84889954  0.85914872  1
  O  O36  1  0.40696755  0.85914872  0.84889954  1
  O  O37  1  0.09303245  0.15110046  0.14085128  1
  H  H38  1  0.80398036  0.61780425  0.60886756  1
  H  H39  1  0.69601964  0.39113244  0.38219575  1
  H  H40  1  0.19601964  0.38219575  0.39113244  1
  H  H41  1  0.30398036  0.60886756  0.61780425  1
