# generated using pymatgen
data_La10Os2I15
_symmetry_space_group_name_H-M   'P 1'
_cell_length_a   10.16415469
_cell_length_b   11.17852266
_cell_length_c   11.94944895
_cell_angle_alpha   92.20148423
_cell_angle_beta   113.89226288
_cell_angle_gamma   110.16526168
_symmetry_Int_Tables_number   1
_chemical_formula_structural   La10Os2I15
_chemical_formula_sum   'La10 Os2 I15'
_cell_volume   1139.91745362
_cell_formula_units_Z   1
loop_
 _symmetry_equiv_pos_site_id
 _symmetry_equiv_pos_as_xyz
  1  'x, y, z'
loop_
 _atom_site_type_symbol
 _atom_site_label
 _atom_site_symmetry_multiplicity
 _atom_site_fract_x
 _atom_site_fract_y
 _atom_site_fract_z
 _atom_site_occupancy
  La  La0  1  0.22509151  0.58134053  0.05324209  1
  La  La1  1  0.77490849  0.41865947  0.94675791  1
  La  La2  1  0.29910058  0.90490023  0.27638414  1
  La  La3  1  0.70089942  0.09509977  0.72361586  1
  La  La4  1  0.08785427  0.54568125  0.33041055  1
  La  La5  1  0.91214573  0.45431875  0.66958945  1
  La  La6  1  0.83575531  0.75063204  0.17678044  1
  La  La7  1  0.16424469  0.24936796  0.82321956  1
  La  La8  1  0.97514495  0.79369582  0.90308726  1
  La  La9  1  0.02485505  0.20630418  0.09691274  1
  I  I10  1  0.34084896  0.44359210  0.30217396  1
  I  I11  1  0.65915104  0.55640790  0.69782604  1
  I  I12  1  0.21443337  0.73851598  0.81681922  1
  I  I13  1  0.78556663  0.26148402  0.18318078  1
  I  I14  1  0.14484661  0.38655689  0.58247438  1
  I  I15  1  0.85515339  0.61344311  0.41752562  1
  I  I16  1  0.38888003  0.79990606  0.53376519  1
  I  I17  1  0.61111997  0.20009394  0.46623481  1
  I  I18  1  0.26519030  0.08790537  0.05556083  1
  I  I19  1  0.73480970  0.91209463  0.94443917  1
  I  I20  1  0.56637436  0.84620384  0.22849312  1
  I  I21  1  0.43362564  0.15379616  0.77150688  1
  I  I22  1  0.09254698  0.04068365  0.34016432  1
  I  I23  1  0.90745302  0.95931635  0.65983568  1
  I  I24  1  0.50000000  0.50000000  0.00000000  1
  Os  Os25  1  0.03207427  0.67483064  0.12018420  1
  Os  Os26  1  0.96792573  0.32516936  0.87981580  1
