# generated using pymatgen
data_NiMoO4
_symmetry_space_group_name_H-M   'P 1'
_cell_length_a   6.59512641
_cell_length_b   6.59512658
_cell_length_c   7.77496175
_cell_angle_alpha   72.44180460
_cell_angle_beta   72.44180421
_cell_angle_gamma   84.83052265
_symmetry_Int_Tables_number   1
_chemical_formula_structural   NiMoO4
_chemical_formula_sum   'Ni4 Mo4 O16'
_cell_volume   307.40055678
_cell_formula_units_Z   4
loop_
 _symmetry_equiv_pos_site_id
 _symmetry_equiv_pos_as_xyz
  1  'x, y, z'
loop_
 _atom_site_type_symbol
 _atom_site_label
 _atom_site_symmetry_multiplicity
 _atom_site_fract_x
 _atom_site_fract_y
 _atom_site_fract_z
 _atom_site_occupancy
  Ni  Ni0  1  0.31448485  0.31448485  0.84268352  1
  Ni  Ni1  1  0.68551515  0.68551515  0.15731648  1
  Ni  Ni2  1  0.31418394  0.68581606  0.50000000  1
  Ni  Ni3  1  0.68581606  0.31418394  0.50000000  1
  Mo  Mo4  1  0.28269718  0.28269718  0.36180878  1
  Mo  Mo5  1  0.71730282  0.71730282  0.63819122  1
  Mo  Mo6  1  0.28329553  0.71670447  1.00000000  1
  Mo  Mo7  1  0.71670447  0.28329553  0.00000000  1
  O  O8  1  0.65256513  0.35044689  0.76128494  1
  O  O9  1  0.64955311  0.34743487  0.23871506  1
  O  O10  1  0.34743487  0.64955311  0.23871506  1
  O  O11  1  0.35044689  0.65256513  0.76128494  1
  O  O12  1  0.31770656  0.99358235  0.92122334  1
  O  O13  1  0.00641765  0.68229344  0.07877666  1
  O  O14  1  0.68229344  0.00641765  0.07877666  1
  O  O15  1  0.99358235  0.31770656  0.92122334  1
  O  O16  1  0.31686229  0.00593874  0.42176774  1
  O  O17  1  0.99406126  0.68313771  0.57823226  1
  O  O18  1  0.68313771  0.99406126  0.57823226  1
  O  O19  1  0.00593874  0.31686229  0.42176774  1
  O  O20  1  0.34952204  0.34952204  0.56239370  1
  O  O21  1  0.65047796  0.65047796  0.43760630  1
  O  O22  1  0.34787223  0.34787223  0.08696269  1
  O  O23  1  0.65212777  0.65212777  0.91303731  1
