# generated using pymatgen
data_CoP2PbO7
_symmetry_space_group_name_H-M   'P 1'
_cell_length_a   5.41442644
_cell_length_b   8.39556171
_cell_length_c   13.01032331
_cell_angle_alpha   90.00000000
_cell_angle_beta   89.78257565
_cell_angle_gamma   90.00000000
_symmetry_Int_Tables_number   1
_chemical_formula_structural   CoP2PbO7
_chemical_formula_sum   'Co4 P8 Pb4 O28'
_cell_volume   591.40797723
_cell_formula_units_Z   4
loop_
 _symmetry_equiv_pos_site_id
 _symmetry_equiv_pos_as_xyz
  1  'x, y, z'
loop_
 _atom_site_type_symbol
 _atom_site_label
 _atom_site_symmetry_multiplicity
 _atom_site_fract_x
 _atom_site_fract_y
 _atom_site_fract_z
 _atom_site_occupancy
  Pb  Pb0  1  0.20939165  0.67109611  0.22215318  1
  Pb  Pb1  1  0.29060835  0.17109611  0.27784682  1
  Pb  Pb2  1  0.79060835  0.32890389  0.77784682  1
  Pb  Pb3  1  0.70939165  0.82890389  0.72215318  1
  Co  Co4  1  0.67944999  0.85088741  0.39505899  1
  Co  Co5  1  0.82055001  0.35088741  0.10494101  1
  Co  Co6  1  0.32055001  0.14911259  0.60494101  1
  Co  Co7  1  0.17944999  0.64911259  0.89505899  1
  P  P8  1  0.18395632  0.80060801  0.51936086  1
  P  P9  1  0.31604368  0.30060801  0.98063914  1
  P  P10  1  0.81604368  0.19939199  0.48063914  1
  P  P11  1  0.68395632  0.69939199  0.01936086  1
  P  P12  1  0.24930436  0.53639059  0.66551967  1
  P  P13  1  0.25069564  0.03639059  0.83448033  1
  P  P14  1  0.75069564  0.46360941  0.33448033  1
  P  P15  1  0.74930436  0.96360941  0.16551967  1
  O  O16  1  0.90442619  0.83206473  0.52197094  1
  O  O17  1  0.59557381  0.33206473  0.97802906  1
  O  O18  1  0.09557381  0.16793527  0.47802906  1
  O  O19  1  0.40442619  0.66793527  0.02197094  1
  O  O20  1  0.30332820  0.81125356  0.41222473  1
  O  O21  1  0.19667180  0.31125356  0.08777527  1
  O  O22  1  0.69667180  0.18874644  0.58777527  1
  O  O23  1  0.80332820  0.68874644  0.91222473  1
  O  O24  1  0.32256933  0.90342186  0.59923505  1
  O  O25  1  0.17743067  0.40342186  0.90076495  1
  O  O26  1  0.67743067  0.09657814  0.40076495  1
  O  O27  1  0.82256933  0.59657814  0.09923505  1
  O  O28  1  0.22369626  0.61572593  0.55284648  1
  O  O29  1  0.27630374  0.11572593  0.94715352  1
  O  O30  1  0.77630274  0.38427407  0.44715352  1
  O  O31  1  0.72369726  0.88427407  0.05284648  1
  O  O32  1  0.17935368  0.36093582  0.65248443  1
  O  O33  1  0.32064632  0.86093582  0.84751557  1
  O  O34  1  0.82064632  0.63906418  0.34751557  1
  O  O35  1  0.67935368  0.13906418  0.15248443  1
  O  O36  1  0.06033728  0.61781782  0.73773571  1
  O  O37  1  0.43966272  0.11781782  0.76226429  1
  O  O38  1  0.93966272  0.38218218  0.26226429  1
  O  O39  1  0.56033728  0.88218218  0.23773571  1
  O  O40  1  0.51580520  0.56145282  0.70095665  1
  O  O41  1  0.98419480  0.06145282  0.79904335  1
  O  O42  1  0.48419480  0.43854718  0.29904335  1
  O  O43  1  0.01580520  0.93854718  0.20095665  1
