# generated using pymatgen
data_K2ZnSiO4
_symmetry_space_group_name_H-M   'P 1'
_cell_length_a   5.49852893
_cell_length_b   11.06509411
_cell_length_c   15.79200744
_cell_angle_alpha   90.00000000
_cell_angle_beta   90.00000000
_cell_angle_gamma   90.00000000
_symmetry_Int_Tables_number   1
_chemical_formula_structural   K2ZnSiO4
_chemical_formula_sum   'K16 Zn8 Si8 O32'
_cell_volume   960.81321196
_cell_formula_units_Z   8
loop_
 _symmetry_equiv_pos_site_id
 _symmetry_equiv_pos_as_xyz
  1  'x, y, z'
loop_
 _atom_site_type_symbol
 _atom_site_label
 _atom_site_symmetry_multiplicity
 _atom_site_fract_x
 _atom_site_fract_y
 _atom_site_fract_z
 _atom_site_occupancy
  K  K0  1  0.49838463  0.98561162  0.06197208  1
  K  K1  1  0.50161537  0.01438838  0.56197208  1
  K  K2  1  0.50161537  0.48561162  0.06197208  1
  K  K3  1  0.49838463  0.51438838  0.56197208  1
  K  K4  1  0.45248735  0.73822850  0.18378470  1
  K  K5  1  0.54751265  0.26177150  0.68378470  1
  K  K6  1  0.54751265  0.23822850  0.18378470  1
  K  K7  1  0.45248735  0.76177150  0.68378470  1
  K  K8  1  0.00471549  0.01380947  0.93874399  1
  K  K9  1  0.99528451  0.98619053  0.43874399  1
  K  K10  1  0.99528451  0.51380947  0.93874399  1
  K  K11  1  0.00471549  0.48619053  0.43874399  1
  K  K12  1  0.04985004  0.26448621  0.81464056  1
  K  K13  1  0.95014996  0.73551379  0.31464056  1
  K  K14  1  0.95014996  0.76448621  0.81464056  1
  K  K15  1  0.04985004  0.23551379  0.31464056  1
  Zn  Zn16  1  0.99241258  0.99206929  0.18875887  1
  Zn  Zn17  1  0.00758742  0.00793071  0.68875887  1
  Zn  Zn18  1  0.00758742  0.49206929  0.18875887  1
  Zn  Zn19  1  0.99241258  0.50793071  0.68875887  1
  Zn  Zn20  1  0.53448856  0.25915100  0.93623023  1
  Zn  Zn21  1  0.46551144  0.74084900  0.43623023  1
  Zn  Zn22  1  0.46551144  0.75915100  0.93623023  1
  Zn  Zn23  1  0.53448856  0.24084900  0.43623023  1
  Si  Si24  1  0.50978409  0.00752003  0.81097021  1
  Si  Si25  1  0.49021591  0.99247997  0.31097021  1
  Si  Si26  1  0.49021591  0.50752003  0.81097021  1
  Si  Si27  1  0.50978409  0.49247997  0.31097021  1
  Si  Si28  1  0.96781775  0.73592982  0.06428639  1
  Si  Si29  1  0.03218225  0.26407018  0.56428639  1
  Si  Si30  1  0.03218225  0.23592982  0.06428639  1
  Si  Si31  1  0.96781775  0.76407018  0.56428639  1
  O  O32  1  0.69914309  0.70346770  0.02295471  1
  O  O33  1  0.30085691  0.29653230  0.52295471  1
  O  O34  1  0.30085691  0.20346770  0.02295471  1
  O  O35  1  0.69914309  0.79653230  0.52295471  1
  O  O36  1  0.09326315  0.60788938  0.09738477  1
  O  O37  1  0.90673685  0.39211062  0.59738477  1
  O  O38  1  0.90673685  0.10788938  0.09738477  1
  O  O39  1  0.09326315  0.89211062  0.59738477  1
  O  O40  1  0.93166997  0.82634058  0.14658336  1
  O  O41  1  0.06833003  0.17365942  0.64658336  1
  O  O42  1  0.06833003  0.32634058  0.14658336  1
  O  O43  1  0.93166997  0.67365942  0.64658336  1
  O  O44  1  0.33297761  0.02199106  0.22373630  1
  O  O45  1  0.66702239  0.97800894  0.72373630  1
  O  O46  1  0.66702239  0.52199106  0.22373630  1
  O  O47  1  0.33297761  0.47800894  0.72373630  1
  O  O48  1  0.85161952  0.29571183  0.99161760  1
  O  O49  1  0.14838048  0.70428817  0.49161760  1
  O  O50  1  0.14838048  0.79571183  0.99161760  1
  O  O51  1  0.85161952  0.20428817  0.49161760  1
  O  O52  1  0.41318949  0.41600847  0.88954146  1
  O  O53  1  0.58681051  0.58399153  0.38954146  1
  O  O54  1  0.58681051  0.91600847  0.88954146  1
  O  O55  1  0.41318949  0.08399153  0.38954146  1
  O  O56  1  0.57078187  0.14872726  0.83915224  1
  O  O57  1  0.42921813  0.85127274  0.33915224  1
  O  O58  1  0.42921813  0.64872726  0.83915224  1
  O  O59  1  0.57078187  0.35127274  0.33915224  1
  O  O60  1  0.21790945  0.98681655  0.78964254  1
  O  O61  1  0.78209055  0.01318345  0.28964254  1
  O  O62  1  0.78209055  0.48681655  0.78964254  1
  O  O63  1  0.21790945  0.51318345  0.28964254  1
