# generated using pymatgen
data_VHgO3
_symmetry_space_group_name_H-M   'P 1'
_cell_length_a   3.65000445
_cell_length_b   5.07219948
_cell_length_c   8.81960667
_cell_angle_alpha   86.09595639
_cell_angle_beta   77.65293259
_cell_angle_gamma   87.18825187
_symmetry_Int_Tables_number   1
_chemical_formula_structural   VHgO3
_chemical_formula_sum   'V2 Hg2 O6'
_cell_volume   159.03570879
_cell_formula_units_Z   2
loop_
 _symmetry_equiv_pos_site_id
 _symmetry_equiv_pos_as_xyz
  1  'x, y, z'
loop_
 _atom_site_type_symbol
 _atom_site_label
 _atom_site_symmetry_multiplicity
 _atom_site_fract_x
 _atom_site_fract_y
 _atom_site_fract_z
 _atom_site_occupancy
  Hg  Hg0  1  0.27727147  0.17839403  0.57544360  1
  Hg  Hg1  1  0.72272853  0.82160597  0.42455640  1
  V  V2  1  0.18844442  0.38852561  0.13682013  1
  V  V3  1  0.81155558  0.61147439  0.86317987  1
  O  O4  1  0.07713821  0.49920041  0.32632854  1
  O  O5  1  0.92286179  0.50079959  0.67367146  1
  O  O6  1  0.19726401  0.06509535  0.16081621  1
  O  O7  1  0.80273599  0.93490365  0.83918379  1
  O  O8  1  0.70630172  0.47930476  0.08880035  1
  O  O9  1  0.29369828  0.52069524  0.91119965  1
