# generated using pymatgen
data_AgSbO3
_symmetry_space_group_name_H-M   'P 1'
_cell_length_a   6.49332518
_cell_length_b   6.49332105
_cell_length_c   6.49333806
_cell_angle_alpha   49.30890500
_cell_angle_beta   49.30889888
_cell_angle_gamma   49.30896473
_symmetry_Int_Tables_number   1
_chemical_formula_structural   AgSbO3
_chemical_formula_sum   'Ag2 Sb2 O6'
_cell_volume   144.62499758
_cell_formula_units_Z   2
loop_
 _symmetry_equiv_pos_site_id
 _symmetry_equiv_pos_as_xyz
  1  'x, y, z'
loop_
 _atom_site_type_symbol
 _atom_site_label
 _atom_site_symmetry_multiplicity
 _atom_site_fract_x
 _atom_site_fract_y
 _atom_site_fract_z
 _atom_site_occupancy
  O  O0  1  0.81487143  0.44056033  0.04459284  1
  O  O1  1  0.55943985  0.95540620  0.18512921  1
  Sb  Sb2  1  0.16289663  0.16289649  0.16289710  1
  O  O3  1  0.95540789  0.18512950  0.55943833  1
  Sb  Sb4  1  0.83710315  0.83710343  0.83710346  1
  Ag  Ag5  1  0.36156054  0.36156104  0.36156119  1
  Ag  Ag6  1  0.63843875  0.63843939  0.63843889  1
  O  O7  1  0.04459227  0.81487066  0.44056108  1
  O  O8  1  0.44056080  0.04459357  0.81487100  1
  O  O9  1  0.18512869  0.55943940  0.95540691  1
