# generated using pymatgen
data_BaYb2CoO5
_symmetry_space_group_name_H-M   'P 1'
_cell_length_a   5.65861133
_cell_length_b   7.02725444
_cell_length_c   12.16243578
_cell_angle_alpha   90.00000000
_cell_angle_beta   90.00000000
_cell_angle_gamma   90.00000000
_symmetry_Int_Tables_number   1
_chemical_formula_structural   BaYb2CoO5
_chemical_formula_sum   'Ba4 Yb8 Co4 O20'
_cell_volume   483.63319695
_cell_formula_units_Z   4
loop_
 _symmetry_equiv_pos_site_id
 _symmetry_equiv_pos_as_xyz
  1  'x, y, z'
loop_
 _atom_site_type_symbol
 _atom_site_label
 _atom_site_symmetry_multiplicity
 _atom_site_fract_x
 _atom_site_fract_y
 _atom_site_fract_z
 _atom_site_occupancy
  O  O0  1  0.25000000  0.44500351  0.60252020  1
  O  O1  1  0.75000000  0.55499649  0.39747980  1
  O  O2  1  0.75000000  0.94500351  0.89747980  1
  O  O3  1  0.25000000  0.05499649  0.10252020  1
  O  O4  1  0.01854985  0.84246139  0.26558365  1
  O  O5  1  0.51854985  0.15753861  0.73441635  1
  O  O6  1  0.98145015  0.34246139  0.23441635  1
  O  O7  1  0.48145015  0.65753861  0.76558365  1
  O  O8  1  0.98145015  0.15753861  0.73441635  1
  O  O9  1  0.48145015  0.84246139  0.26558365  1
  O  O10  1  0.01854985  0.65753861  0.76558365  1
  O  O11  1  0.51854985  0.34246139  0.23441635  1
  O  O12  1  0.47650194  0.68157971  0.06580557  1
  O  O13  1  0.97650194  0.31842029  0.93419443  1
  O  O14  1  0.52349806  0.18157971  0.43419443  1
  O  O15  1  0.02349806  0.81842029  0.56580557  1
  O  O16  1  0.97650194  0.18157971  0.43419443  1
  O  O17  1  0.47650194  0.81842029  0.56580557  1
  O  O18  1  0.02349806  0.68157971  0.06580557  1
  O  O19  1  0.52349806  0.31842029  0.93419443  1
  Co  Co20  1  0.25000000  0.69246108  0.65327013  1
  Co  Co21  1  0.75000000  0.30753892  0.34672987  1
  Co  Co22  1  0.75000000  0.19246108  0.84672987  1
  Co  Co23  1  0.25000000  0.80753892  0.15327013  1
  Ba  Ba24  1  0.25000000  0.92842438  0.89458286  1
  Ba  Ba25  1  0.75000000  0.07157562  0.10541714  1
  Ba  Ba26  1  0.75000000  0.42842438  0.60541714  1
  Ba  Ba27  1  0.25000000  0.57157562  0.39458286  1
  Yb  Yb28  1  0.25000000  0.10581015  0.57440260  1
  Yb  Yb29  1  0.75000000  0.89418985  0.42559740  1
  Yb  Yb30  1  0.75000000  0.60581015  0.92559740  1
  Yb  Yb31  1  0.25000000  0.39418985  0.07440260  1
  Yb  Yb32  1  0.25000000  0.38322296  0.79816817  1
  Yb  Yb33  1  0.75000000  0.61677704  0.20183183  1
  Yb  Yb34  1  0.75000000  0.88322296  0.70183183  1
  Yb  Yb35  1  0.25000000  0.11677704  0.29816817  1
