# generated using pymatgen
data_Cs2MnO4
_symmetry_space_group_name_H-M   'P 1'
_cell_length_a   6.40836547
_cell_length_b   8.57690131
_cell_length_c   11.38817165
_cell_angle_alpha   90.00000000
_cell_angle_beta   90.00000000
_cell_angle_gamma   90.00000000
_symmetry_Int_Tables_number   1
_chemical_formula_structural   Cs2MnO4
_chemical_formula_sum   'Cs8 Mn4 O16'
_cell_volume   625.93853496
_cell_formula_units_Z   4
loop_
 _symmetry_equiv_pos_site_id
 _symmetry_equiv_pos_as_xyz
  1  'x, y, z'
loop_
 _atom_site_type_symbol
 _atom_site_label
 _atom_site_symmetry_multiplicity
 _atom_site_fract_x
 _atom_site_fract_y
 _atom_site_fract_z
 _atom_site_occupancy
  Cs  Cs0  1  0.75000000  0.66901970  0.58866943  1
  Cs  Cs1  1  0.25000000  0.33098030  0.41133057  1
  Cs  Cs2  1  0.75000000  0.16901970  0.91133057  1
  Cs  Cs3  1  0.25000000  0.83098030  0.08866943  1
  Cs  Cs4  1  0.75000000  0.98732118  0.30651055  1
  Cs  Cs5  1  0.25000000  0.01267882  0.69348945  1
  Cs  Cs6  1  0.75000000  0.48732118  0.19348945  1
  Cs  Cs7  1  0.25000000  0.51267882  0.80651055  1
  Mn  Mn8  1  0.75000000  0.23611420  0.58041294  1
  Mn  Mn9  1  0.25000000  0.76388580  0.41958706  1
  Mn  Mn10  1  0.75000000  0.73611420  0.91958706  1
  Mn  Mn11  1  0.25000000  0.26388580  0.08041294  1
  O  O12  1  0.75000000  0.04256068  0.58477781  1
  O  O13  1  0.25000000  0.95743932  0.41522219  1
  O  O14  1  0.75000000  0.54256068  0.91522219  1
  O  O15  1  0.25000000  0.45743932  0.08477781  1
  O  O16  1  0.75000000  0.29244823  0.43988300  1
  O  O17  1  0.25000000  0.70755177  0.56011700  1
  O  O18  1  0.75000000  0.79244823  0.06011700  1
  O  O19  1  0.25000000  0.20755177  0.93988300  1
  O  O20  1  0.96149787  0.30685529  0.64712566  1
  O  O21  1  0.46149787  0.69314471  0.35287434  1
  O  O22  1  0.53850213  0.80685529  0.85287434  1
  O  O23  1  0.03850213  0.19314471  0.14712566  1
  O  O24  1  0.03850213  0.69314471  0.35287434  1
  O  O25  1  0.53850213  0.30685529  0.64712566  1
  O  O26  1  0.46149787  0.19314471  0.14712566  1
  O  O27  1  0.96149787  0.80685529  0.85287434  1
