# generated using pymatgen
data_SmZnPO
_symmetry_space_group_name_H-M   'P 1'
_cell_length_a   10.54629282
_cell_length_b   10.54629267
_cell_length_c   10.54629266
_cell_angle_alpha   21.66477984
_cell_angle_beta   21.66478179
_cell_angle_gamma   21.66478230
_symmetry_Int_Tables_number   1
_chemical_formula_structural   SmZnPO
_chemical_formula_sum   'Sm2 Zn2 P2 O2'
_cell_volume   140.09993271
_cell_formula_units_Z   2
loop_
 _symmetry_equiv_pos_site_id
 _symmetry_equiv_pos_as_xyz
  1  'x, y, z'
loop_
 _atom_site_type_symbol
 _atom_site_label
 _atom_site_symmetry_multiplicity
 _atom_site_fract_x
 _atom_site_fract_y
 _atom_site_fract_z
 _atom_site_occupancy
  Zn  Zn0  1  0.19629050  0.19629050  0.19629050  1
  P  P1  1  0.11317776  0.11317776  0.11317776  1
  O  O2  1  0.69480858  0.69480858  0.69480858  1
  Zn  Zn3  1  0.80370942  0.80370942  0.80370942  1
  P  P4  1  0.88682260  0.88682260  0.88682260  1
  Sm  Sm5  1  0.38070323  0.38070323  0.38070323  1
  O  O6  1  0.30519140  0.30519140  0.30519140  1
  Sm  Sm7  1  0.61929651  0.61929651  0.61929651  1
