# generated using pymatgen
data_Sr2Li3NbN4
_symmetry_space_group_name_H-M   'P 1'
_cell_length_a   7.05627650
_cell_length_b   8.74823093
_cell_length_c   9.03444165
_cell_angle_alpha   90.00000000
_cell_angle_beta   90.00000000
_cell_angle_gamma   90.00000000
_symmetry_Int_Tables_number   1
_chemical_formula_structural   Sr2Li3NbN4
_chemical_formula_sum   'Sr8 Li12 Nb4 N16'
_cell_volume   557.69550781
_cell_formula_units_Z   4
loop_
 _symmetry_equiv_pos_site_id
 _symmetry_equiv_pos_as_xyz
  1  'x, y, z'
loop_
 _atom_site_type_symbol
 _atom_site_label
 _atom_site_symmetry_multiplicity
 _atom_site_fract_x
 _atom_site_fract_y
 _atom_site_fract_z
 _atom_site_occupancy
  Li  Li0  1  0.23748511  0.01778525  0.36537046  1
  Li  Li1  1  0.23748511  0.98221475  0.63462954  1
  Li  Li2  1  0.26251489  0.51778525  0.13462954  1
  Li  Li3  1  0.26251489  0.48221475  0.86537046  1
  Li  Li4  1  0.76251489  0.98221475  0.63462954  1
  Li  Li5  1  0.76251489  0.01778525  0.36537046  1
  Li  Li6  1  0.73748511  0.48221475  0.86537046  1
  Li  Li7  1  0.73748511  0.51778525  0.13462954  1
  N  N8  1  0.23480751  0.30204389  0.01890746  1
  N  N9  1  0.23480751  0.69795611  0.98109254  1
  N  N10  1  0.26519249  0.80204389  0.48109254  1
  N  N11  1  0.26519249  0.19795611  0.51890746  1
  N  N12  1  0.76519249  0.69795611  0.98109254  1
  N  N13  1  0.76519249  0.30204389  0.01890746  1
  N  N14  1  0.73480751  0.19795611  0.51890746  1
  N  N15  1  0.73480751  0.80204389  0.48109254  1
  N  N16  1  0.00000000  0.07212185  0.22109884  1
  N  N17  1  0.00000000  0.92787815  0.77890116  1
  N  N18  1  0.50000000  0.57212185  0.27890116  1
  N  N19  1  0.50000000  0.42787815  0.72109884  1
  Li  Li20  1  0.00000000  0.20527875  0.42182946  1
  Li  Li21  1  0.00000000  0.79472125  0.57817054  1
  Li  Li22  1  0.50000000  0.70527875  0.07817054  1
  Li  Li23  1  0.50000000  0.29472125  0.92182946  1
  Sr  Sr24  1  0.00000000  0.24327401  0.75432997  1
  Sr  Sr25  1  0.00000000  0.75672599  0.24567003  1
  Sr  Sr26  1  0.50000000  0.74327401  0.74567003  1
  Sr  Sr27  1  0.50000000  0.25672599  0.25432997  1
  Nb  Nb28  1  0.00000000  0.28550972  0.13766937  1
  Nb  Nb29  1  0.00000000  0.71449028  0.86233063  1
  Nb  Nb30  1  0.50000000  0.78550972  0.36233063  1
  Nb  Nb31  1  0.50000000  0.21449028  0.63766937  1
  N  N32  1  0.00000000  0.45332954  0.28440481  1
  N  N33  1  0.00000000  0.54667046  0.71559519  1
  N  N34  1  0.50000000  0.95332954  0.21559519  1
  N  N35  1  0.50000000  0.04667046  0.78440481  1
  Sr  Sr36  1  0.25948515  0.00000000  0.00000000  1
  Sr  Sr37  1  0.24051485  0.50000000  0.50000000  1
  Sr  Sr38  1  0.74051485  0.00000000  0.00000000  1
  Sr  Sr39  1  0.75948515  0.50000000  0.50000000  1
