# generated using pymatgen
data_Sr2Li3TaN4
_symmetry_space_group_name_H-M   'P 1'
_cell_length_a   7.04132938
_cell_length_b   8.74304720
_cell_length_c   9.03594438
_cell_angle_alpha   90.00000000
_cell_angle_beta   90.00000000
_cell_angle_gamma   90.00000000
_symmetry_Int_Tables_number   1
_chemical_formula_structural   Sr2Li3TaN4
_chemical_formula_sum   'Sr8 Li12 Ta4 N16'
_cell_volume   556.27690827
_cell_formula_units_Z   4
loop_
 _symmetry_equiv_pos_site_id
 _symmetry_equiv_pos_as_xyz
  1  'x, y, z'
loop_
 _atom_site_type_symbol
 _atom_site_label
 _atom_site_symmetry_multiplicity
 _atom_site_fract_x
 _atom_site_fract_y
 _atom_site_fract_z
 _atom_site_occupancy
  Li  Li0  1  0.23755911  0.01896666  0.36520001  1
  Li  Li1  1  0.23755911  0.98103334  0.63479999  1
  Li  Li2  1  0.26244089  0.51896666  0.13479999  1
  Li  Li3  1  0.26244089  0.48103334  0.86520001  1
  Li  Li4  1  0.76244089  0.98103334  0.63479999  1
  Li  Li5  1  0.76244089  0.01896666  0.36520001  1
  Li  Li6  1  0.73755911  0.48103334  0.86520001  1
  Li  Li7  1  0.73755911  0.51896666  0.13479999  1
  N  N8  1  0.23401872  0.30207709  0.01915183  1
  N  N9  1  0.23401872  0.69792291  0.98084817  1
  N  N10  1  0.26598128  0.80207709  0.48084817  1
  N  N11  1  0.26598128  0.19792291  0.51915183  1
  N  N12  1  0.76598128  0.69792291  0.98084817  1
  N  N13  1  0.76598128  0.30207709  0.01915183  1
  N  N14  1  0.73401872  0.19792291  0.51915183  1
  N  N15  1  0.73401872  0.80207709  0.48084817  1
  N  N16  1  0.00000000  0.07409508  0.22085829  1
  N  N17  1  0.00000000  0.92590492  0.77914171  1
  N  N18  1  0.50000000  0.57409508  0.27914171  1
  N  N19  1  0.50000000  0.42590492  0.72085829  1
  Li  Li20  1  0.00000000  0.20587988  0.42254131  1
  Li  Li21  1  0.00000000  0.79412012  0.57745869  1
  Li  Li22  1  0.50000000  0.70587988  0.07745869  1
  Li  Li23  1  0.50000000  0.29412012  0.92254131  1
  Sr  Sr24  1  0.00000000  0.24229112  0.75411299  1
  Sr  Sr25  1  0.00000000  0.75770888  0.24588701  1
  Sr  Sr26  1  0.50000000  0.74229112  0.74588701  1
  Sr  Sr27  1  0.50000000  0.25770888  0.25411299  1
  Ta  Ta28  1  0.00000000  0.28568289  0.13749332  1
  Ta  Ta29  1  0.00000000  0.71431711  0.86250668  1
  Ta  Ta30  1  0.50000000  0.78568289  0.36250668  1
  Ta  Ta31  1  0.50000000  0.21431711  0.63749332  1
  N  N32  1  0.00000000  0.45259903  0.28380335  1
  N  N33  1  0.00000000  0.54740097  0.71619665  1
  N  N34  1  0.50000000  0.95259903  0.21619665  1
  N  N35  1  0.50000000  0.04740097  0.78380335  1
  Sr  Sr36  1  0.26019886  0.00000000  0.00000000  1
  Sr  Sr37  1  0.23980114  0.50000000  0.50000000  1
  Sr  Sr38  1  0.73980114  0.00000000  0.00000000  1
  Sr  Sr39  1  0.76019886  0.50000000  0.50000000  1
