# generated using pymatgen
data_Rb7(FeO4)2
_symmetry_space_group_name_H-M   'P 1'
_cell_length_a   6.52820161
_cell_length_b   10.65344325
_cell_length_c   21.02570448
_cell_angle_alpha   90.00000000
_cell_angle_beta   92.95355945
_cell_angle_gamma   90.00000000
_symmetry_Int_Tables_number   1
_chemical_formula_structural   Rb7(FeO4)2
_chemical_formula_sum   'Rb28 Fe8 O32'
_cell_volume   1460.34955573
_cell_formula_units_Z   4
loop_
 _symmetry_equiv_pos_site_id
 _symmetry_equiv_pos_as_xyz
  1  'x, y, z'
loop_
 _atom_site_type_symbol
 _atom_site_label
 _atom_site_symmetry_multiplicity
 _atom_site_fract_x
 _atom_site_fract_y
 _atom_site_fract_z
 _atom_site_occupancy
  O  O0  1  0.14005232  0.25853663  0.76595891  1
  O  O1  1  0.85994768  0.75853663  0.73404109  1
  O  O2  1  0.85994768  0.74146337  0.23404109  1
  O  O3  1  0.14005232  0.24146337  0.26595891  1
  O  O4  1  0.35270648  0.19993760  0.65724987  1
  O  O5  1  0.64729352  0.69993760  0.84275013  1
  O  O6  1  0.64729352  0.80006240  0.34275013  1
  O  O7  1  0.35270648  0.30006240  0.15724987  1
  O  O8  1  0.51725590  0.40917541  0.73010674  1
  O  O9  1  0.48274410  0.90917541  0.76989326  1
  O  O10  1  0.48274410  0.59082459  0.26989326  1
  O  O11  1  0.51725590  0.09082459  0.23010674  1
  O  O12  1  0.12703430  0.45854804  0.67307757  1
  O  O13  1  0.87296570  0.95854804  0.82692243  1
  O  O14  1  0.87296570  0.54145196  0.32692243  1
  O  O15  1  0.12703430  0.04145196  0.17307757  1
  O  O16  1  0.48881743  0.20000939  0.94211675  1
  O  O17  1  0.51118257  0.79999061  0.05788325  1
  O  O18  1  0.48881743  0.29999061  0.44211675  1
  O  O19  1  0.10920673  0.65917725  0.49266458  1
  O  O20  1  0.72256268  0.11003331  0.53809645  1
  O  O21  1  0.27743732  0.61003331  0.96190355  1
  O  O22  1  0.27743732  0.88996669  0.46190355  1
  O  O23  1  0.72256268  0.38996669  0.03809645  1
  O  O24  1  0.19302082  0.85906397  0.59429369  1
  O  O25  1  0.80697918  0.35906397  0.90570631  1
  O  O26  1  0.80697918  0.14093603  0.40570631  1
  O  O27  1  0.19302082  0.64093603  0.09429369  1
  O  O28  1  0.10920673  0.84082275  0.99266458  1
  O  O29  1  0.89079327  0.34082275  0.50733542  1
  O  O30  1  0.89079327  0.15917725  0.00733542  1
  O  O31  1  0.51118257  0.70000939  0.55788325  1
  Fe  Fe32  1  0.28122580  0.77779865  0.52553665  1
  Fe  Fe33  1  0.71877420  0.27779865  0.97446335  1
  Fe  Fe34  1  0.71877420  0.22220135  0.47446335  1
  Fe  Fe35  1  0.28122580  0.72220135  0.02553665  1
  Fe  Fe36  1  0.71811347  0.66905424  0.29486758  1
  Fe  Fe37  1  0.71811347  0.83094576  0.79486758  1
  Fe  Fe38  1  0.28188653  0.16905424  0.20513242  1
  Fe  Fe39  1  0.28188653  0.33094576  0.70513242  1
  Rb  Rb40  1  0.41427540  0.45344412  0.86637191  1
  Rb  Rb41  1  0.58572460  0.95344412  0.63362809  1
  Rb  Rb42  1  0.58572460  0.54655588  0.13362809  1
  Rb  Rb43  1  0.41427540  0.04655588  0.36637191  1
  Rb  Rb44  1  0.19730294  0.11013378  0.53377246  1
  Rb  Rb45  1  0.80269706  0.61013378  0.96622754  1
  Rb  Rb46  1  0.80269706  0.88986622  0.46622754  1
  Rb  Rb47  1  0.19730294  0.38986622  0.03377246  1
  Rb  Rb48  1  0.09720329  0.15776265  0.88504052  1
  Rb  Rb49  1  0.90279671  0.65776265  0.61495948  1
  Rb  Rb50  1  0.90279671  0.84223735  0.11495948  1
  Rb  Rb51  1  0.09720329  0.34223735  0.38504052  1
  Rb  Rb52  1  0.59908799  0.16173987  0.80355777  1
  Rb  Rb53  1  0.40091201  0.66173987  0.69644223  1
  Rb  Rb54  1  0.40091201  0.83826013  0.19644223  1
  Rb  Rb55  1  0.59908799  0.33826013  0.30355777  1
  Rb  Rb56  1  0.28849067  0.44317052  0.54759131  1
  Rb  Rb57  1  0.71150933  0.94317052  0.95240869  1
  Rb  Rb58  1  0.71150933  0.55682948  0.45240869  1
  Rb  Rb59  1  0.28849067  0.05682948  0.04759131  1
  Rb  Rb60  1  0.11737888  0.99685755  0.71536564  1
  Rb  Rb61  1  0.88262112  0.49685755  0.78463436  1
  Rb  Rb62  1  0.88262112  0.00314245  0.28463436  1
  Rb  Rb63  1  0.11737888  0.50314245  0.21536564  1
  Rb  Rb64  1  0.78011217  0.29227219  0.63726984  1
  Rb  Rb65  1  0.21988783  0.79227219  0.86273016  1
  Rb  Rb66  1  0.21988783  0.70772781  0.36273016  1
  Rb  Rb67  1  0.78011217  0.20772781  0.13726984  1
