# generated using pymatgen
data_CsTaPS6
_symmetry_space_group_name_H-M   'P 1'
_cell_length_a   14.98912823
_cell_length_b   16.29306879
_cell_length_c   18.04227455
_cell_angle_alpha   90.00000000
_cell_angle_beta   90.00000000
_cell_angle_gamma   105.79865069
_symmetry_Int_Tables_number   1
_chemical_formula_structural   CsTaPS6
_chemical_formula_sum   'Cs16 Ta16 P16 S96'
_cell_volume   4239.81513901
_cell_formula_units_Z   16
loop_
 _symmetry_equiv_pos_site_id
 _symmetry_equiv_pos_as_xyz
  1  'x, y, z'
loop_
 _atom_site_type_symbol
 _atom_site_label
 _atom_site_symmetry_multiplicity
 _atom_site_fract_x
 _atom_site_fract_y
 _atom_site_fract_z
 _atom_site_occupancy
  Cs  Cs0  1  0.86541611  0.02928880  0.33150125  1
  Cs  Cs1  1  0.14129530  0.45198231  0.93420093  1
  Cs  Cs2  1  0.99239114  0.12685541  0.98253393  1
  Cs  Cs3  1  0.00760886  0.87314459  0.01746607  1
  Cs  Cs4  1  0.55541228  1.00181613  0.87289485  1
  Cs  Cs5  1  0.44458772  -0.00181613  0.12710515  1
  Cs  Cs6  1  0.49239114  0.62685541  0.51746607  1
  Cs  Cs7  1  0.36541611  0.52928880  0.16849875  1
  Cs  Cs8  1  0.85870470  0.54801769  0.06579907  1
  Cs  Cs9  1  0.50760886  0.37314459  0.48253393  1
  Cs  Cs10  1  0.35870470  0.04801769  0.43420093  1
  Cs  Cs11  1  0.64129530  0.95198231  0.56579907  1
  Cs  Cs12  1  0.13458389  0.97071120  0.66849875  1
  Cs  Cs13  1  0.94458772  0.49818387  0.37289485  1
  Cs  Cs14  1  0.05541228  0.50181613  0.62710515  1
  Cs  Cs15  1  0.63458389  0.47071120  0.83150125  1
  Ta  Ta16  1  0.36242369  0.68931660  0.72861166  1
  Ta  Ta17  1  0.86242369  0.18931660  0.77138834  1
  Ta  Ta18  1  0.25217546  0.74461057  0.89126648  1
  Ta  Ta19  1  0.24782454  0.75538943  0.39126648  1
  Ta  Ta20  1  0.63757631  0.31068340  0.27138834  1
  Ta  Ta21  1  0.28765988  0.26693507  0.71267836  1
  Ta  Ta22  1  0.67476930  0.84253414  0.12507799  1
  Ta  Ta23  1  0.78765988  0.76693507  0.78732164  1
  Ta  Ta24  1  0.13757631  0.81068340  0.22861166  1
  Ta  Ta25  1  0.71234012  0.73306493  0.28732164  1
  Ta  Ta26  1  0.74782454  0.25538943  0.10873352  1
  Ta  Ta27  1  0.32523070  0.15746586  0.87492201  1
  Ta  Ta28  1  0.82523070  0.65746586  0.62507799  1
  Ta  Ta29  1  0.17476930  0.34253414  0.37492201  1
  Ta  Ta30  1  0.75217546  0.24461057  0.60873352  1
  Ta  Ta31  1  0.21234012  0.23306493  0.21267836  1
  P  P32  1  0.83909338  0.98084480  0.78341721  1
  P  P33  1  0.25058761  0.55213098  0.38826250  1
  P  P34  1  0.33909338  0.48084480  0.71658279  1
  P  P35  1  0.69090168  0.17140116  0.43678970  1
  P  P36  1  0.80909832  0.32859884  0.93678970  1
  P  P37  1  0.24941239  0.94786902  0.88826250  1
  P  P38  1  0.66090662  0.51915520  0.28341721  1
  P  P39  1  0.74941239  0.44786902  0.61173750  1
  P  P40  1  0.79256329  0.79538648  0.45639767  1
  P  P41  1  0.70743671  0.70461352  0.95639767  1
  P  P42  1  0.19090168  0.67140116  0.06321030  1
  P  P43  1  0.30909832  0.82859884  0.56321030  1
  P  P44  1  0.75058761  0.05213098  0.11173750  1
  P  P45  1  0.16090662  0.01915520  0.21658279  1
  P  P46  1  0.29256329  0.29538648  0.04360233  1
  P  P47  1  0.20743671  0.20461352  0.54360233  1
  S  S48  1  0.58303769  0.59016735  0.33083568  1
  S  S49  1  0.42604050  0.21709144  0.76005947  1
  S  S50  1  0.39364875  0.30614796  0.82761089  1
  S  S51  1  0.63796109  0.17288168  0.20931988  1
  S  S52  1  0.39228002  0.39820266  0.01899556  1
  S  S53  1  0.69421059  0.32872718  0.00347759  1
  S  S54  1  0.40736074  0.56818272  0.79382461  1
  S  S55  1  0.60635125  0.69385204  0.17238911  1
  S  S56  1  0.31876376  0.18260081  0.60529532  1
  S  S57  1  0.67737256  0.79066385  0.88134700  1
  S  S58  1  0.15259292  0.84434367  0.84510295  1
  S  S59  1  0.18123624  0.31739919  0.10529532  1
  S  S60  1  0.32396970  0.89216147  0.95805955  1
  S  S61  1  0.84740708  0.15565633  0.15489705  1
  S  S62  1  0.72756281  0.89130428  0.73875753  1
  S  S63  1  0.90736074  0.06818272  0.70617539  1
  S  S64  1  0.60771998  0.60179734  0.98100444  1
  S  S65  1  0.10635125  0.19385204  0.32761089  1
  S  S66  1  0.82262744  0.70933615  0.38134700  1
  S  S67  1  0.41696231  0.40983265  0.66916432  1
  S  S68  1  0.69440951  0.14245009  0.69598244  1
  S  S69  1  0.82396970  0.39216147  0.54194045  1
  S  S70  1  0.91696231  0.90983265  0.83083568  1
  S  S71  1  0.80578941  0.17127282  0.50347759  1
  S  S72  1  0.88303133  0.28737995  0.02077605  1
  S  S73  1  0.59263926  0.43181728  0.20617539  1
  S  S74  1  0.27511996  0.26696967  0.44987272  1
  S  S75  1  0.75134466  0.26715431  0.36117947  1
  S  S76  1  0.87408510  0.43981951  0.89228164  1
  S  S77  1  0.20017603  0.03934653  0.93903637  1
  S  S78  1  0.30559049  0.85754991  0.30401756  1
  S  S79  1  0.19440951  0.64245009  0.80401756  1
  S  S80  1  0.00884362  0.74518895  0.16991074  1
  S  S81  1  0.62591490  0.06018049  0.39228164  1
  S  S82  1  0.80559049  0.35754991  0.19598244  1
  S  S83  1  0.36203891  0.82711832  0.79068012  1
  S  S84  1  0.11696867  0.71262005  0.97922395  1
  S  S85  1  0.24865534  0.73284569  0.63882053  1
  S  S86  1  0.82808528  0.52292419  0.69420079  1
  S  S87  1  0.17737256  0.29066385  0.61865300  1
  S  S88  1  0.25134466  0.76715431  0.13882053  1
  S  S89  1  0.58069237  0.24765026  0.14339365  1
  S  S90  1  0.06012024  0.33577885  0.45327581  1
  S  S91  1  0.77511996  0.76696967  0.05012728  1
  S  S92  1  0.09263926  0.93181728  0.29382461  1
  S  S93  1  0.56012024  0.83577885  0.04672419  1
  S  S94  1  0.08303769  0.09016735  0.16916432  1
  S  S95  1  0.81406181  0.83055504  0.21699900  1
  S  S96  1  0.29982397  0.46065347  0.43903637  1
  S  S97  1  0.27243719  0.10869572  0.26124247  1
  S  S98  1  0.68593819  0.66944496  0.71699900  1
  S  S99  1  0.61696867  0.21262005  0.52077605  1
  S  S100  1  0.93987976  0.66422115  0.54672419  1
  S  S101  1  0.68123624  0.81739919  0.39470468  1
  S  S102  1  0.81876376  0.68260081  0.89470468  1
  S  S103  1  0.89228002  0.89820266  0.48100444  1
  S  S104  1  0.50884362  0.24518895  0.33008926  1
  S  S105  1  0.70201398  0.43743000  0.35534268  1
  S  S106  1  0.43987976  0.16422115  0.95327581  1
  S  S107  1  0.32262744  0.20933615  0.11865300  1
  S  S108  1  0.89364875  0.80614796  0.67238911  1
  S  S109  1  0.22488004  0.23303033  0.94987272  1
  S  S110  1  0.17603030  0.60783853  0.45805955  1
  S  S111  1  0.18593819  0.16944496  0.78300100  1
  S  S112  1  0.31406181  0.33055504  0.28300100  1
  S  S113  1  0.22756281  0.39130428  0.76124247  1
  S  S114  1  0.79982397  0.96065347  0.06096363  1
  S  S115  1  0.30578941  0.67127282  0.99652241  1
  S  S116  1  0.67191472  0.97707581  0.19420079  1
  S  S117  1  0.38303133  0.78737995  0.47922395  1
  S  S118  1  0.57395950  0.78290856  0.23994053  1
  S  S119  1  0.79798602  0.06257000  0.85534268  1
  S  S120  1  0.65259292  0.34434367  0.65489705  1
  S  S121  1  0.67603030  0.10783853  0.04194045  1
  S  S122  1  0.08069237  0.74765026  0.35660635  1
  S  S123  1  0.91930763  0.25234974  0.64339365  1
  S  S124  1  0.19421059  0.82872718  0.49652241  1
  S  S125  1  0.20201398  0.93743000  0.14465732  1
  S  S126  1  0.74865534  0.23284569  0.86117947  1
  S  S127  1  0.12591490  0.56018049  0.10771836  1
  S  S128  1  0.70017603  0.53934653  0.56096363  1
  S  S129  1  0.77243719  0.60869572  0.23875753  1
  S  S130  1  0.86203891  0.32711832  0.70931988  1
  S  S131  1  0.34740708  0.65565633  0.34510295  1
  S  S132  1  0.92604050  0.71709144  0.73994053  1
  S  S133  1  0.72488004  0.73303033  0.55012728  1
  S  S134  1  0.07395950  0.28290856  0.26005947  1
  S  S135  1  0.49115638  0.75481105  0.66991074  1
  S  S136  1  0.32808528  0.02292419  0.80579921  1
  S  S137  1  0.37408510  0.93981951  0.60771836  1
  S  S138  1  0.29798602  0.56257000  0.64465732  1
  S  S139  1  0.99115638  0.25481105  0.83008926  1
  S  S140  1  0.17191472  0.47707581  0.30579921  1
  S  S141  1  0.10771998  0.10179734  0.51899556  1
  S  S142  1  0.41930763  0.75234974  0.85660635  1
  S  S143  1  0.13796109  0.67288168  0.29068012  1
