# generated using pymatgen
data_K2SmP2S7
_symmetry_space_group_name_H-M   'P 1'
_cell_length_a   6.78220229
_cell_length_b   9.05142592
_cell_length_c   11.95970908
_cell_angle_alpha   96.75882166
_cell_angle_beta   106.46676303
_cell_angle_gamma   90.00158460
_symmetry_Int_Tables_number   1
_chemical_formula_structural   K2SmP2S7
_chemical_formula_sum   'K4 Sm2 P4 S14'
_cell_volume   698.75359775
_cell_formula_units_Z   2
loop_
 _symmetry_equiv_pos_site_id
 _symmetry_equiv_pos_as_xyz
  1  'x, y, z'
loop_
 _atom_site_type_symbol
 _atom_site_label
 _atom_site_symmetry_multiplicity
 _atom_site_fract_x
 _atom_site_fract_y
 _atom_site_fract_z
 _atom_site_occupancy
  K  K0  1  0.42839779  0.69772734  0.11501484  1
  K  K1  1  0.18232730  0.87933797  0.62833205  1
  K  K2  1  0.31319495  0.30224922  0.88499516  1
  K  K3  1  0.55454504  0.12064293  0.37156181  1
  Sm  Sm4  1  0.04979434  0.53340165  0.32073362  1
  Sm  Sm5  1  0.72901367  0.46661948  0.67926869  1
  P  P6  1  0.57760343  0.70726320  0.45546485  1
  P  P7  1  0.12219895  0.29276524  0.54456156  1
  P  P8  1  0.88545355  0.38700461  0.03026668  1
  P  P9  1  0.85515233  0.61295982  0.96973827  1
  S  S10  1  0.80937181  0.24331251  0.88183605  1
  S  S11  1  0.50572988  0.48104315  0.42867954  1
  S  S12  1  0.07708651  0.51898919  0.57132041  1
  S  S13  1  0.92531187  0.19520104  0.61917078  1
  S  S14  1  0.92743398  0.75666455  0.11816376  1
  S  S15  1  0.41228960  0.23068109  0.62930936  1
  S  S16  1  0.05269320  0.61637441  0.86856889  1
  S  S17  1  0.78305796  0.76933601  0.37074420  1
  S  S18  1  0.68236806  0.76941393  0.63200198  1
  S  S19  1  0.18416623  0.38361168  0.13139621  1
  S  S20  1  0.69854517  0.38827178  0.13725474  1
  S  S21  1  0.05039584  0.23059862  0.36802217  1
  S  S22  1  0.56127397  0.61167549  0.86277454  1
  S  S23  1  0.30619455  0.80485507  0.38081984  1
