# generated using pymatgen
data_SrZr4(PO4)6
_symmetry_space_group_name_H-M   'P 1'
_cell_length_a   9.38707769
_cell_length_b   9.38707787
_cell_length_c   9.38707832
_cell_angle_alpha   56.29903996
_cell_angle_beta   56.29903922
_cell_angle_gamma   56.29903917
_symmetry_Int_Tables_number   1
_chemical_formula_structural   SrZr4(PO4)6
_chemical_formula_sum   'Sr1 Zr4 P6 O24'
_cell_volume   534.81250955
_cell_formula_units_Z   1
loop_
 _symmetry_equiv_pos_site_id
 _symmetry_equiv_pos_as_xyz
  1  'x, y, z'
loop_
 _atom_site_type_symbol
 _atom_site_label
 _atom_site_symmetry_multiplicity
 _atom_site_fract_x
 _atom_site_fract_y
 _atom_site_fract_z
 _atom_site_occupancy
  Sr  Sr0  1  0.50000000  0.50000000  0.50000000  1
  Zr  Zr1  1  0.14383445  0.14383445  0.14383445  1
  Zr  Zr2  1  0.85616555  0.85616555  0.85616555  1
  Zr  Zr3  1  0.64975124  0.64975124  0.64975124  1
  Zr  Zr4  1  0.35024876  0.35024876  0.35024876  1
  P  P5  1  0.53165209  0.95676583  0.25509295  1
  P  P6  1  0.95676583  0.25509295  0.53165209  1
  P  P7  1  0.25509295  0.53165209  0.95676583  1
  P  P8  1  0.74490705  0.46834791  0.04323417  1
  P  P9  1  0.46834791  0.04323417  0.74490705  1
  P  P10  1  0.04323417  0.74490705  0.46834791  1
  O  O11  1  0.06881248  0.68730371  0.95637278  1
  O  O12  1  0.88843159  0.70156609  0.50131473  1
  O  O13  1  0.98034714  0.25600376  0.35512020  1
  O  O14  1  0.70156609  0.50131473  0.88843159  1
  O  O15  1  0.58746423  0.76904931  0.40707247  1
  O  O16  1  0.29843391  0.49868527  0.11156841  1
  O  O17  1  0.93118752  0.31269629  0.04362722  1
  O  O18  1  0.35512020  0.98034714  0.25600376  1
  O  O19  1  0.40707247  0.58746423  0.76904931  1
  O  O20  1  0.23095069  0.59292753  0.41253577  1
  O  O21  1  0.64487980  0.01965286  0.74399624  1
  O  O22  1  0.41253577  0.23095069  0.59292753  1
  O  O23  1  0.49868527  0.11156841  0.29843391  1
  O  O24  1  0.11156841  0.29843391  0.49868527  1
  O  O25  1  0.50131473  0.88843159  0.70156609  1
  O  O26  1  0.31269629  0.04362722  0.93118752  1
  O  O27  1  0.76904931  0.40707247  0.58746423  1
  O  O28  1  0.74399624  0.64487980  0.01965286  1
  O  O29  1  0.04362722  0.93118752  0.31269629  1
  O  O30  1  0.68730371  0.95637278  0.06881248  1
  O  O31  1  0.59292753  0.41253577  0.23095069  1
  O  O32  1  0.01965286  0.74399624  0.64487980  1
  O  O33  1  0.95637278  0.06881248  0.68730371  1
  O  O34  1  0.25600376  0.35512020  0.98034714  1
