# generated using pymatgen
data_K6Si2S6O
_symmetry_space_group_name_H-M   'P 1'
_cell_length_a   8.42418793
_cell_length_b   8.85654921
_cell_length_c   11.85762336
_cell_angle_alpha   90.00000000
_cell_angle_beta   90.00000000
_cell_angle_gamma   112.08310509
_symmetry_Int_Tables_number   1
_chemical_formula_structural   K6Si2S6O
_chemical_formula_sum   'K12 Si4 S12 O2'
_cell_volume   819.78706412
_cell_formula_units_Z   2
loop_
 _symmetry_equiv_pos_site_id
 _symmetry_equiv_pos_as_xyz
  1  'x, y, z'
loop_
 _atom_site_type_symbol
 _atom_site_label
 _atom_site_symmetry_multiplicity
 _atom_site_fract_x
 _atom_site_fract_y
 _atom_site_fract_z
 _atom_site_occupancy
  K  K0  1  0.01093284  0.00768769  0.67275890  1
  K  K1  1  0.30795757  0.45650035  0.77914852  1
  K  K2  1  0.71712888  0.22559738  0.43801066  1
  K  K3  1  0.48906716  0.99231231  0.17275890  1
  K  K4  1  0.28287112  0.77440262  0.56198934  1
  K  K5  1  0.69204243  0.54349965  0.22085148  1
  K  K6  1  0.78287112  0.77440262  0.93801066  1
  K  K7  1  0.21712888  0.22559738  0.06198934  1
  K  K8  1  0.80795757  0.45650035  0.72085148  1
  K  K9  1  0.19204243  0.54349965  0.27914852  1
  K  K10  1  0.98906716  0.99231231  0.32724110  1
  K  K11  1  0.51093284  0.00768769  0.82724110  1
  Si  Si12  1  0.64977158  0.68452227  0.51013305  1
  Si  Si13  1  0.85022842  0.31547773  0.01013305  1
  Si  Si14  1  0.35022842  0.31547773  0.48986695  1
  Si  Si15  1  0.14977158  0.68452227  0.98986695  1
  S  S16  1  0.39020591  0.66508172  0.02275636  1
  S  S17  1  0.08832779  0.82670309  0.11557673  1
  S  S18  1  0.86970214  0.23930718  0.17860170  1
  S  S19  1  0.58832779  0.82670309  0.38442327  1
  S  S20  1  0.63029786  0.76069282  0.67860170  1
  S  S21  1  0.91167221  0.17329691  0.88442327  1
  S  S22  1  0.10979409  0.33491828  0.52275636  1
  S  S23  1  0.41167221  0.17329691  0.61557673  1
  S  S24  1  0.60979409  0.33491828  0.97724364  1
  S  S25  1  0.36970214  0.23930718  0.32139830  1
  S  S26  1  0.89020591  0.66508172  0.47724364  1
  S  S27  1  0.13029786  0.76069282  0.82139830  1
  O  O28  1  0.50000000  0.50000000  0.50000000  1
  O  O29  1  0.00000000  0.50000000  0.00000000  1
