# generated using pymatgen
data_K2Zn(Si2O5)2
_symmetry_space_group_name_H-M   'P 1'
_cell_length_a   7.17369179
_cell_length_b   10.20582231
_cell_length_c   14.25641814
_cell_angle_alpha   90.00000000
_cell_angle_beta   90.00000000
_cell_angle_gamma   90.00000000
_symmetry_Int_Tables_number   1
_chemical_formula_structural   K2Zn(Si2O5)2
_chemical_formula_sum   'K8 Zn4 Si16 O40'
_cell_volume   1043.76118195
_cell_formula_units_Z   4
loop_
 _symmetry_equiv_pos_site_id
 _symmetry_equiv_pos_as_xyz
  1  'x, y, z'
loop_
 _atom_site_type_symbol
 _atom_site_label
 _atom_site_symmetry_multiplicity
 _atom_site_fract_x
 _atom_site_fract_y
 _atom_site_fract_z
 _atom_site_occupancy
  K  K0  1  0.23132632  0.40113495  0.11928506  1
  K  K1  1  0.73132632  0.09886505  0.88071494  1
  K  K2  1  0.26867368  0.59886505  0.61928506  1
  K  K3  1  0.76867368  0.90113495  0.38071494  1
  K  K4  1  0.98877665  0.67523212  0.90061220  1
  K  K5  1  0.48877665  0.82476788  0.09938780  1
  K  K6  1  0.01122335  0.17523212  0.59938780  1
  K  K7  1  0.51122335  0.32476788  0.40061220  1
  Zn  Zn8  1  0.48164995  0.80640315  0.85346831  1
  Zn  Zn9  1  0.01835005  0.19359685  0.35346831  1
  Zn  Zn10  1  0.51835005  0.30640315  0.64653169  1
  Zn  Zn11  1  0.98164995  0.69359685  0.14653169  1
  Si  Si12  1  0.26617314  0.94004358  0.40087133  1
  Si  Si13  1  0.76617314  0.55995642  0.59912867  1
  Si  Si14  1  0.23631512  0.34478765  0.82079951  1
  Si  Si15  1  0.53145724  0.51828499  0.92106352  1
  Si  Si16  1  0.17368305  0.90298743  0.72684220  1
  Si  Si17  1  0.46854276  0.01828499  0.57893648  1
  Si  Si18  1  0.82631695  0.40298743  0.77315780  1
  Si  Si19  1  0.67368305  0.59701257  0.27315780  1
  Si  Si20  1  0.26368488  0.65521235  0.32079951  1
  Si  Si21  1  0.03145724  0.98171501  0.07893648  1
  Si  Si22  1  0.73631512  0.15521235  0.17920049  1
  Si  Si23  1  0.32631695  0.09701257  0.22684220  1
  Si  Si24  1  0.76368488  0.84478765  0.67920049  1
  Si  Si25  1  0.96854276  0.48171501  0.42106352  1
  Si  Si26  1  0.23382686  0.05995642  0.90087133  1
  Si  Si27  1  0.73382686  0.44004358  0.09912867  1
  O  O28  1  0.92054400  0.57415395  0.51338606  1
  O  O29  1  0.80688942  0.50802718  0.34177179  1
  O  O30  1  0.10738409  0.00489032  0.81104343  1
  O  O31  1  0.50967924  0.13486592  0.16315722  1
  O  O32  1  0.71612103  0.84741607  0.78904993  1
  O  O33  1  0.02231614  0.82938627  0.05186502  1
  O  O34  1  0.28387897  0.34741607  0.71095007  1
  O  O35  1  0.22944668  0.22755101  0.26682489  1
  O  O36  1  0.19813548  0.79016069  0.37528917  1
  O  O37  1  0.89261591  0.50489032  0.68895657  1
  O  O38  1  0.67122216  0.96643122  0.61830730  1
  O  O39  1  0.07945600  0.07415395  0.98661394  1
  O  O40  1  0.49032076  0.63486592  0.33684278  1
  O  O41  1  0.82877784  0.03356878  0.11830730  1
  O  O42  1  0.59051998  0.46853702  0.57479994  1
  O  O43  1  0.97768386  0.32938627  0.44813498  1
  O  O44  1  0.39261591  0.99510968  0.31104343  1
  O  O45  1  0.80186452  0.29016069  0.12471083  1
  O  O46  1  0.27055332  0.77244899  0.76682489  1
  O  O47  1  0.69813548  0.70983931  0.62471083  1
  O  O48  1  0.90948002  0.53146298  0.07479994  1
  O  O49  1  0.60738409  0.49510968  0.18895657  1
  O  O50  1  0.00967924  0.36513408  0.83684278  1
  O  O51  1  0.69311058  0.49197282  0.84177179  1
  O  O52  1  0.21612103  0.65258393  0.21095007  1
  O  O53  1  0.19311058  0.00802718  0.15822821  1
  O  O54  1  0.57945600  0.42584605  0.01338606  1
  O  O55  1  0.40948002  0.96853702  0.92520006  1
  O  O56  1  0.30688942  0.99197282  0.65822821  1
  O  O57  1  0.47768386  0.17061373  0.55186502  1
  O  O58  1  0.09051998  0.03146298  0.42520006  1
  O  O59  1  0.30186452  0.20983931  0.87528917  1
  O  O60  1  0.52231614  0.67061373  0.94813498  1
  O  O61  1  0.99032076  0.86513408  0.66315722  1
  O  O62  1  0.17122216  0.53356878  0.38169270  1
  O  O63  1  0.77055332  0.72755101  0.23317511  1
  O  O64  1  0.78387897  0.15258393  0.28904993  1
  O  O65  1  0.72944668  0.27244899  0.73317511  1
  O  O66  1  0.32877784  0.46643122  0.88169270  1
  O  O67  1  0.42054400  0.92584605  0.48661394  1
