# generated using pymatgen
data_KNaS2O7
_symmetry_space_group_name_H-M   'P 1'
_cell_length_a   5.98786539
_cell_length_b   7.34750986
_cell_length_c   7.59667768
_cell_angle_alpha   101.50331738
_cell_angle_beta   90.12623995
_cell_angle_gamma   94.39604517
_symmetry_Int_Tables_number   1
_chemical_formula_structural   KNaS2O7
_chemical_formula_sum   'K2 Na2 S4 O14'
_cell_volume   326.49335550
_cell_formula_units_Z   2
loop_
 _symmetry_equiv_pos_site_id
 _symmetry_equiv_pos_as_xyz
  1  'x, y, z'
loop_
 _atom_site_type_symbol
 _atom_site_label
 _atom_site_symmetry_multiplicity
 _atom_site_fract_x
 _atom_site_fract_y
 _atom_site_fract_z
 _atom_site_occupancy
  K  K0  1  0.22554261  0.77672376  0.43131643  1
  K  K1  1  0.77445739  0.22327624  0.56868357  1
  Na  Na2  1  0.20814121  0.64433685  0.89792158  1
  Na  Na3  1  0.79185879  0.35566315  0.10207842  1
  S  S4  1  0.71632299  0.72507037  0.69743036  1
  S  S5  1  0.72429121  0.82611265  0.09805521  1
  S  S6  1  0.27570879  0.17388735  0.90194479  1
  S  S7  1  0.28367701  0.27492963  0.30256964  1
  O  O8  1  0.73882748  0.87632973  0.89255982  1
  O  O9  1  0.50021199  0.26131472  0.88749911  1
  O  O10  1  0.90075039  0.69946816  0.10752124  1
  O  O11  1  0.50323645  0.37636349  0.30728705  1
  O  O12  1  0.26117252  0.12367027  0.10744018  1
  O  O13  1  0.49978801  0.73868528  0.11250089  1
  O  O14  1  0.09924961  0.30053184  0.89247876  1
  O  O15  1  0.49676355  0.62363651  0.69271295  1
  O  O16  1  0.09747747  0.39373844  0.30549006  1
  O  O17  1  0.26020652  0.14904576  0.42806944  1
  O  O18  1  0.23199760  0.98809144  0.79467237  1
  O  O19  1  0.73979348  0.85095424  0.57193056  1
  O  O20  1  0.90252253  0.60626156  0.69450994  1
  O  O21  1  0.76800240  0.01190856  0.20532763  1
