# generated using pymatgen
data_SbTe(ClF2)3
_symmetry_space_group_name_H-M   'P 1'
_cell_length_a   6.53993319
_cell_length_b   8.66914995
_cell_length_c   17.50126262
_cell_angle_alpha   90.00000000
_cell_angle_beta   90.00000000
_cell_angle_gamma   90.00000000
_symmetry_Int_Tables_number   1
_chemical_formula_structural   SbTe(ClF2)3
_chemical_formula_sum   'Sb4 Te4 Cl12 F24'
_cell_volume   992.24566110
_cell_formula_units_Z   4
loop_
 _symmetry_equiv_pos_site_id
 _symmetry_equiv_pos_as_xyz
  1  'x, y, z'
loop_
 _atom_site_type_symbol
 _atom_site_label
 _atom_site_symmetry_multiplicity
 _atom_site_fract_x
 _atom_site_fract_y
 _atom_site_fract_z
 _atom_site_occupancy
  Sb  Sb0  1  0.84806873  0.25000000  0.42491463  1
  Sb  Sb1  1  0.34806873  0.75000000  0.07508537  1
  Sb  Sb2  1  0.15193127  0.75000000  0.57508537  1
  Sb  Sb3  1  0.65193127  0.25000000  0.92491463  1
  Te  Te4  1  0.12883909  0.25000000  0.10422977  1
  Te  Te5  1  0.62883909  0.75000000  0.39577023  1
  Te  Te6  1  0.87116091  0.75000000  0.89577023  1
  Te  Te7  1  0.37116091  0.25000000  0.60422977  1
  Cl  Cl8  1  0.59210155  0.44318444  0.64290547  1
  Cl  Cl9  1  0.40789845  0.94318444  0.35709453  1
  Cl  Cl10  1  0.59210155  0.05681556  0.64290547  1
  Cl  Cl11  1  0.09210155  0.94318444  0.85709453  1
  Cl  Cl12  1  0.66455546  0.75000000  0.78859641  1
  Cl  Cl13  1  0.90789845  0.44318444  0.14290547  1
  Cl  Cl14  1  0.83544454  0.75000000  0.28859641  1
  Cl  Cl15  1  0.90789845  0.05681556  0.14290547  1
  Cl  Cl16  1  0.09210155  0.55681556  0.85709453  1
  Cl  Cl17  1  0.40789845  0.55681556  0.35709453  1
  Cl  Cl18  1  0.33544454  0.25000000  0.21140359  1
  Cl  Cl19  1  0.16455546  0.25000000  0.71140359  1
  F  F20  1  0.57839362  0.25000000  0.47298441  1
  F  F21  1  0.72741070  0.25000000  0.32587054  1
  F  F22  1  0.27258930  0.75000000  0.67412946  1
  F  F23  1  0.96278068  0.25000000  0.52571326  1
  F  F24  1  0.53721932  0.25000000  0.02571326  1
  F  F25  1  0.77258930  0.25000000  0.82587054  1
  F  F26  1  0.61660290  0.75000000  0.11729109  1
  F  F27  1  0.33995761  0.52691526  0.07363495  1
  F  F28  1  0.22741070  0.75000000  0.17412946  1
  F  F29  1  0.16004239  0.52691526  0.57363495  1
  F  F30  1  0.38339710  0.25000000  0.88270891  1
  F  F31  1  0.03721932  0.75000000  0.47428674  1
  F  F32  1  0.88339710  0.75000000  0.61729109  1
  F  F33  1  0.07839362  0.75000000  0.02701559  1
  F  F34  1  0.83995761  0.47308474  0.42636505  1
  F  F35  1  0.46278068  0.75000000  0.97428674  1
  F  F36  1  0.83995761  0.02691526  0.42636505  1
  F  F37  1  0.66004239  0.02691526  0.92636505  1
  F  F38  1  0.92160638  0.25000000  0.97298441  1
  F  F39  1  0.33995761  0.97308474  0.07363495  1
  F  F40  1  0.66004239  0.47308474  0.92636505  1
  F  F41  1  0.16004239  0.97308474  0.57363495  1
  F  F42  1  0.11660290  0.25000000  0.38270891  1
  F  F43  1  0.42160638  0.75000000  0.52701559  1
