# generated using pymatgen
data_Na2MnF5
_symmetry_space_group_name_H-M   'P 1'
_cell_length_a   5.33626279
_cell_length_b   7.85078149
_cell_length_c   11.02766014
_cell_angle_alpha   108.67285788
_cell_angle_beta   90.00000000
_cell_angle_gamma   90.00000000
_symmetry_Int_Tables_number   1
_chemical_formula_structural   Na2MnF5
_chemical_formula_sum   'Na8 Mn4 F20'
_cell_volume   437.67269788
_cell_formula_units_Z   4
loop_
 _symmetry_equiv_pos_site_id
 _symmetry_equiv_pos_as_xyz
  1  'x, y, z'
loop_
 _atom_site_type_symbol
 _atom_site_label
 _atom_site_symmetry_multiplicity
 _atom_site_fract_x
 _atom_site_fract_y
 _atom_site_fract_z
 _atom_site_occupancy
  F  F0  1  0.74254584  0.50773869  0.62706866  1
  F  F1  1  0.24254584  0.49226131  0.87293134  1
  F  F2  1  0.25745416  0.49226131  0.37293134  1
  F  F3  1  0.75745416  0.50773869  0.12706866  1
  F  F4  1  0.72037509  0.37948414  0.36541791  1
  F  F5  1  0.22037509  0.62051586  0.13458209  1
  F  F6  1  0.27962491  0.62051586  0.63458209  1
  F  F7  1  0.77962491  0.37948414  0.86541791  1
  F  F8  1  0.66912005  0.74909469  0.49640491  1
  F  F9  1  0.16912005  0.25090531  0.00359509  1
  F  F10  1  0.33087995  0.25090531  0.50359509  1
  F  F11  1  0.83087995  0.74909469  0.99640491  1
  F  F12  1  0.85134420  0.95399126  0.83423788  1
  F  F13  1  0.35134420  0.04600874  0.66576212  1
  F  F14  1  0.14865580  0.04600874  0.16576212  1
  F  F15  1  0.64865580  0.95399126  0.33423788  1
  F  F16  1  0.69847893  0.10863713  0.07382327  1
  F  F17  1  0.19847893  0.89136287  0.42617673  1
  F  F18  1  0.30152107  0.89136287  0.92617673  1
  F  F19  1  0.80152107  0.10863713  0.57382327  1
  Na  Na20  1  0.94425099  0.65416021  0.31993758  1
  Na  Na21  1  0.44425099  0.34583979  0.18006242  1
  Na  Na22  1  0.05574901  0.34583979  0.68006242  1
  Na  Na23  1  0.55574901  0.65416021  0.81993758  1
  Na  Na24  1  0.48963595  0.85143226  0.13181377  1
  Na  Na25  1  0.98963595  0.14856774  0.36818623  1
  Na  Na26  1  0.51036405  0.14856774  0.86818623  1
  Na  Na27  1  0.01036405  0.85143226  0.63181377  1
  Mn  Mn28  1  0.50000000  0.50000000  0.50000000  1
  Mn  Mn29  1  0.00000000  0.50000000  0.00000000  1
  Mn  Mn30  1  0.50000000  0.00000000  0.50000000  1
  Mn  Mn31  1  0.00000000  0.00000000  0.00000000  1
