# generated using pymatgen
data_LuMn2O5
_symmetry_space_group_name_H-M   'P 1'
_cell_length_a   5.76145168
_cell_length_b   7.22975928
_cell_length_c   8.47310935
_cell_angle_alpha   90.00000000
_cell_angle_beta   90.00000000
_cell_angle_gamma   90.00000000
_symmetry_Int_Tables_number   1
_chemical_formula_structural   LuMn2O5
_chemical_formula_sum   'Lu4 Mn8 O20'
_cell_volume   352.93812369
_cell_formula_units_Z   4
loop_
 _symmetry_equiv_pos_site_id
 _symmetry_equiv_pos_as_xyz
  1  'x, y, z'
loop_
 _atom_site_type_symbol
 _atom_site_label
 _atom_site_symmetry_multiplicity
 _atom_site_fract_x
 _atom_site_fract_y
 _atom_site_fract_z
 _atom_site_occupancy
  Lu  Lu0  1  0.00000000  0.13707271  0.16962251  1
  Lu  Lu1  1  0.00000000  0.86292729  0.83037749  1
  Lu  Lu2  1  0.00000000  0.63707271  0.33037749  1
  Lu  Lu3  1  0.00000000  0.36292729  0.66962251  1
  Mn  Mn4  1  0.25200767  0.00000000  0.50000000  1
  Mn  Mn5  1  0.74799233  0.50000000  0.00000000  1
  Mn  Mn6  1  0.74799233  0.00000000  0.50000000  1
  Mn  Mn7  1  0.25200767  0.50000000  0.00000000  1
  Mn  Mn8  1  0.50000000  0.41269548  0.34757860  1
  Mn  Mn9  1  0.50000000  0.58730452  0.65242140  1
  Mn  Mn10  1  0.50000000  0.91269548  0.15242140  1
  Mn  Mn11  1  0.50000000  0.08730452  0.84757860  1
  O  O12  1  0.26566747  0.00000000  0.00000000  1
  O  O13  1  0.73433253  0.50000000  0.50000000  1
  O  O14  1  0.73433253  0.00000000  0.00000000  1
  O  O15  1  0.26566747  0.50000000  0.50000000  1
  O  O16  1  0.00000000  0.16629761  0.43987880  1
  O  O17  1  0.00000000  0.83370239  0.56012120  1
  O  O18  1  0.00000000  0.66629761  0.06012120  1
  O  O19  1  0.00000000  0.33370239  0.93987880  1
  O  O20  1  0.50000000  0.15056126  0.42825616  1
  O  O21  1  0.50000000  0.84943874  0.57174384  1
  O  O22  1  0.50000000  0.65056126  0.07174384  1
  O  O23  1  0.50000000  0.34943874  0.92825616  1
  O  O24  1  0.23657335  0.38881012  0.20695300  1
  O  O25  1  0.23657335  0.61118988  0.79304700  1
  O  O26  1  0.76342665  0.88881012  0.29304700  1
  O  O27  1  0.76342665  0.11118988  0.70695300  1
  O  O28  1  0.76342665  0.61118988  0.79304700  1
  O  O29  1  0.76342665  0.38881012  0.20695300  1
  O  O30  1  0.23657335  0.11118988  0.70695300  1
  O  O31  1  0.23657335  0.88881012  0.29304700  1
