# generated using pymatgen
data_K2Zn(SO4)2
_symmetry_space_group_name_H-M   'P 1'
_cell_length_a   5.44336477
_cell_length_b   8.94267030
_cell_length_c   16.35036241
_cell_angle_alpha   90.00000000
_cell_angle_beta   91.80573597
_cell_angle_gamma   90.00000000
_symmetry_Int_Tables_number   1
_chemical_formula_structural   K2Zn(SO4)2
_chemical_formula_sum   'K8 Zn4 S8 O32'
_cell_volume   795.51124287
_cell_formula_units_Z   4
loop_
 _symmetry_equiv_pos_site_id
 _symmetry_equiv_pos_as_xyz
  1  'x, y, z'
loop_
 _atom_site_type_symbol
 _atom_site_label
 _atom_site_symmetry_multiplicity
 _atom_site_fract_x
 _atom_site_fract_y
 _atom_site_fract_z
 _atom_site_occupancy
  K  K0  1  0.26687251  0.85571291  0.27161061  1
  K  K1  1  0.73551885  0.82588169  0.52255429  1
  K  K2  1  0.23312749  0.35571291  0.22838939  1
  K  K3  1  0.23551885  0.67411831  0.02255429  1
  K  K4  1  0.73312749  0.14428709  0.72838939  1
  K  K5  1  0.26448115  0.17411831  0.47744571  1
  K  K6  1  0.76448115  0.32588169  0.97744571  1
  K  K7  1  0.76687251  0.64428709  0.77161061  1
  Zn  Zn8  1  0.25364155  0.02994028  0.86951689  1
  Zn  Zn9  1  0.74635845  0.97005972  0.13048311  1
  Zn  Zn10  1  0.75364155  0.47005972  0.36951689  1
  Zn  Zn11  1  0.24635845  0.52994028  0.63048311  1
  S  S12  1  0.23527721  0.38421267  0.82324768  1
  S  S13  1  0.74572408  0.89004852  0.92781561  1
  S  S14  1  0.73527721  0.11578733  0.32324768  1
  S  S15  1  0.24572408  0.60995148  0.42781561  1
  S  S16  1  0.25427592  0.10995148  0.07218439  1
  S  S17  1  0.75427592  0.39004852  0.57218439  1
  S  S18  1  0.26472279  0.88421267  0.67675232  1
  S  S19  1  0.76472279  0.61578733  0.17675232  1
  O  O20  1  0.33252223  0.61789920  0.51467384  1
  O  O21  1  0.42149828  0.23459178  0.09232588  1
  O  O22  1  0.64226907  0.04550416  0.24454961  1
  O  O23  1  0.50666501  0.37876327  0.82761206  1
  O  O24  1  0.38232400  0.96284896  0.09011370  1
  O  O25  1  0.86651108  0.53187640  0.10755693  1
  O  O26  1  0.63348892  0.03187640  0.39244307  1
  O  O27  1  0.92149828  0.26540822  0.59232588  1
  O  O28  1  0.53140734  0.38048103  0.62510477  1
  O  O29  1  0.57850172  0.76540822  0.90767412  1
  O  O30  1  0.03140734  0.11951897  0.12510477  1
  O  O31  1  0.35773093  0.95449584  0.75545039  1
  O  O32  1  0.14226907  0.45449584  0.74454961  1
  O  O33  1  0.88232400  0.53715104  0.59011370  1
  O  O34  1  0.46859266  0.61951897  0.37489523  1
  O  O35  1  0.96859266  0.88048103  0.87489523  1
  O  O36  1  0.86838247  0.77351803  0.17755561  1
  O  O37  1  0.13348892  0.46812360  0.89244307  1
  O  O38  1  0.63161753  0.27351803  0.32244439  1
  O  O39  1  0.49333499  0.62123673  0.17238794  1
  O  O40  1  0.00666501  0.12123673  0.32761206  1
  O  O41  1  0.07850172  0.73459178  0.40767412  1
  O  O42  1  0.85773093  0.54550416  0.25545039  1
  O  O43  1  0.11767600  0.46284896  0.40988630  1
  O  O44  1  0.16747777  0.11789920  0.98532616  1
  O  O45  1  0.36651108  0.96812360  0.60755693  1
  O  O46  1  0.99333499  0.87876327  0.67238794  1
  O  O47  1  0.83252223  0.88210080  0.01467384  1
  O  O48  1  0.13161753  0.22648197  0.82244439  1
  O  O49  1  0.66747777  0.38210080  0.48532616  1
  O  O50  1  0.36838247  0.72648197  0.67755561  1
  O  O51  1  0.61767600  0.03715104  0.90988630  1
