# generated using pymatgen
data_RbAl3(P3O10)2
_symmetry_space_group_name_H-M   'P 1'
_cell_length_a   8.24588587
_cell_length_b   8.24588652
_cell_length_c   12.08941321
_cell_angle_alpha   90.00000000
_cell_angle_beta   90.00000000
_cell_angle_gamma   105.10720281
_symmetry_Int_Tables_number   1
_chemical_formula_structural   RbAl3(P3O10)2
_chemical_formula_sum   'Rb2 Al6 P12 O40'
_cell_volume   793.60633673
_cell_formula_units_Z   2
loop_
 _symmetry_equiv_pos_site_id
 _symmetry_equiv_pos_as_xyz
  1  'x, y, z'
loop_
 _atom_site_type_symbol
 _atom_site_label
 _atom_site_symmetry_multiplicity
 _atom_site_fract_x
 _atom_site_fract_y
 _atom_site_fract_z
 _atom_site_occupancy
  Rb  Rb0  1  0.52200240  0.52200240  0.50000000  1
  Rb  Rb1  1  0.47799760  0.47799760  0.00000000  1
  Al  Al2  1  0.75357159  0.24642841  0.75000000  1
  Al  Al3  1  0.24642841  0.75357159  0.25000000  1
  Al  Al4  1  0.29217583  0.70782417  0.75000000  1
  Al  Al5  1  0.86795375  0.86795375  0.00000000  1
  Al  Al6  1  0.70782417  0.29217583  0.25000000  1
  Al  Al7  1  0.13204625  0.13204625  0.50000000  1
  P  P8  1  0.25736306  0.84705858  0.98852670  1
  P  P9  1  0.15294142  0.74263694  0.51147330  1
  P  P10  1  0.74263694  0.15294142  0.48852670  1
  P  P11  1  0.09388642  0.36622721  0.18253014  1
  P  P12  1  0.90611358  0.63377279  0.68253014  1
  P  P13  1  0.30480132  0.16831569  0.27709491  1
  P  P14  1  0.36622721  0.09388642  0.81746986  1
  P  P15  1  0.69519868  0.83168431  0.77709491  1
  P  P16  1  0.83168431  0.69519868  0.22290509  1
  P  P17  1  0.84705858  0.25736306  0.01147330  1
  P  P18  1  0.63377279  0.90611358  0.31746986  1
  P  P19  1  0.16831569  0.30480132  0.72290509  1
  O  O20  1  0.23613016  0.25469228  0.61173789  1
  O  O21  1  0.03547326  0.36372158  0.05504253  1
  O  O22  1  0.36372158  0.03547326  0.94495747  1
  O  O23  1  0.63627842  0.96452674  0.44495747  1
  O  O24  1  0.01899582  0.72749339  0.21576050  1
  O  O25  1  0.96452674  0.63627842  0.55504253  1
  O  O26  1  0.47475939  0.76930495  0.29773063  1
  O  O27  1  0.14403012  0.92587829  0.51645323  1
  O  O28  1  0.76386984  0.74530772  0.11173789  1
  O  O29  1  0.20950384  0.17675547  0.81576395  1
  O  O30  1  0.23069505  0.52524061  0.20226937  1
  O  O31  1  0.68093920  0.17423268  0.60334789  1
  O  O32  1  0.25469228  0.23613016  0.38826211  1
  O  O33  1  0.85596988  0.07412171  0.01645323  1
  O  O34  1  0.98100418  0.27250661  0.71576050  1
  O  O35  1  0.29810414  0.72223813  0.90748031  1
  O  O36  1  0.70189586  0.27776187  0.40748031  1
  O  O37  1  0.94441861  0.32742408  0.25766941  1
  O  O38  1  0.26853526  0.47571393  0.76020139  1
  O  O39  1  0.17675547  0.20950384  0.18423605  1
  O  O40  1  0.79049616  0.82324453  0.31576395  1
  O  O41  1  0.52524061  0.23069505  0.79773063  1
  O  O42  1  0.47571393  0.26853526  0.23979861  1
  O  O43  1  0.07412171  0.85596988  0.98354677  1
  O  O44  1  0.72749339  0.01899582  0.78423950  1
  O  O45  1  0.72223813  0.29810414  0.09251969  1
  O  O46  1  0.67257592  0.05558139  0.24233059  1
  O  O47  1  0.73146474  0.52428607  0.26020139  1
  O  O48  1  0.82576732  0.31906080  0.89665211  1
  O  O49  1  0.27250661  0.98100418  0.28423950  1
  O  O50  1  0.31906080  0.82576732  0.10334789  1
  O  O51  1  0.82324453  0.79049616  0.68423605  1
  O  O52  1  0.27776187  0.70189586  0.59251969  1
  O  O53  1  0.92587829  0.14403012  0.48354677  1
  O  O54  1  0.52428607  0.73146474  0.73979861  1
  O  O55  1  0.74530772  0.76386984  0.88826211  1
  O  O56  1  0.76930495  0.47475939  0.70226937  1
  O  O57  1  0.17423268  0.68093920  0.39665211  1
  O  O58  1  0.05558139  0.67257592  0.75766941  1
  O  O59  1  0.32742408  0.94441861  0.74233059  1
