# generated using pymatgen
data_NdSeClO3
_symmetry_space_group_name_H-M   'P 1'
_cell_length_a   5.42704450
_cell_length_b   11.29983859
_cell_length_c   13.66577996
_cell_angle_alpha   90.00000000
_cell_angle_beta   90.00000000
_cell_angle_gamma   90.00000000
_symmetry_Int_Tables_number   1
_chemical_formula_structural   NdSeClO3
_chemical_formula_sum   'Nd8 Se8 Cl8 O24'
_cell_volume   838.05022352
_cell_formula_units_Z   8
loop_
 _symmetry_equiv_pos_site_id
 _symmetry_equiv_pos_as_xyz
  1  'x, y, z'
loop_
 _atom_site_type_symbol
 _atom_site_label
 _atom_site_symmetry_multiplicity
 _atom_site_fract_x
 _atom_site_fract_y
 _atom_site_fract_z
 _atom_site_occupancy
  Nd  Nd0  1  0.25000000  0.92793207  0.35543505  1
  Nd  Nd1  1  0.75000000  0.42914639  0.60014505  1
  Nd  Nd2  1  0.25000000  0.57085361  0.39985495  1
  Nd  Nd3  1  0.25000000  0.42793207  0.14456495  1
  Nd  Nd4  1  0.25000000  0.07085361  0.10014505  1
  Nd  Nd5  1  0.75000000  0.92914639  0.89985495  1
  Nd  Nd6  1  0.75000000  0.57206793  0.85543505  1
  Nd  Nd7  1  0.75000000  0.07206793  0.64456495  1
  Se  Se8  1  0.75000000  0.74071282  0.47023567  1
  Se  Se9  1  0.25000000  0.75928718  0.97023567  1
  Se  Se10  1  0.75000000  0.24071282  0.02976433  1
  Se  Se11  1  0.25000000  0.65204801  0.68371450  1
  Se  Se12  1  0.75000000  0.34795199  0.31628550  1
  Se  Se13  1  0.25000000  0.25928718  0.52976433  1
  Se  Se14  1  0.75000000  0.84795199  0.18371450  1
  Se  Se15  1  0.25000000  0.15204801  0.81628550  1
  Cl  Cl16  1  0.25000000  0.66672274  0.20035846  1
  Cl  Cl17  1  0.75000000  0.83327726  0.70035846  1
  Cl  Cl18  1  0.75000000  0.33327726  0.79964154  1
  Cl  Cl19  1  0.25000000  0.98222478  0.56776765  1
  Cl  Cl20  1  0.75000000  0.51777522  0.06776765  1
  Cl  Cl21  1  0.25000000  0.48222478  0.93223235  1
  Cl  Cl22  1  0.75000000  0.01777522  0.43223235  1
  Cl  Cl23  1  0.25000000  0.16672274  0.29964154  1
  O  O24  1  0.25000000  0.15752322  0.94015080  1
  O  O25  1  0.75000000  0.08562082  0.02614453  1
  O  O26  1  0.00133002  0.55660102  0.70796028  1
  O  O27  1  0.25000000  0.65752322  0.55984920  1
  O  O28  1  0.49866998  0.55660102  0.70796028  1
  O  O29  1  0.25000000  0.91437918  0.97385547  1
  O  O30  1  0.75000000  0.58562082  0.47385547  1
  O  O31  1  0.00374159  0.24336899  0.61008260  1
  O  O32  1  0.99625841  0.75663101  0.38991740  1
  O  O33  1  0.99866998  0.94339898  0.20796028  1
  O  O34  1  0.50133002  0.94339898  0.20796028  1
  O  O35  1  0.50374159  0.75663101  0.38991740  1
  O  O36  1  0.75000000  0.34247678  0.44015080  1
  O  O37  1  0.25000000  0.41437918  0.52614453  1
  O  O38  1  0.50374159  0.25663101  0.11008260  1
  O  O39  1  0.99625841  0.25663101  0.11008260  1
  O  O40  1  0.49866998  0.05660102  0.79203972  1
  O  O41  1  0.99866998  0.44339898  0.29203972  1
  O  O42  1  0.49625841  0.74336899  0.88991740  1
  O  O43  1  0.00133002  0.05660102  0.79203972  1
  O  O44  1  0.75000000  0.84247678  0.05984920  1
  O  O45  1  0.00374159  0.74336899  0.88991740  1
  O  O46  1  0.50133002  0.44339898  0.29203972  1
  O  O47  1  0.49625841  0.24336899  0.61008260  1
