# generated using pymatgen
data_Ca9In(PO4)7
_symmetry_space_group_name_H-M   'P 1'
_cell_length_a   13.93474435
_cell_length_b   13.93474486
_cell_length_c   13.93474527
_cell_angle_alpha   44.30900235
_cell_angle_beta   44.30900017
_cell_angle_gamma   44.30900248
_symmetry_Int_Tables_number   1
_chemical_formula_structural   Ca9In(PO4)7
_chemical_formula_sum   'Ca18 In2 P14 O56'
_cell_volume   1199.94108041
_cell_formula_units_Z   2
loop_
 _symmetry_equiv_pos_site_id
 _symmetry_equiv_pos_as_xyz
  1  'x, y, z'
loop_
 _atom_site_type_symbol
 _atom_site_label
 _atom_site_symmetry_multiplicity
 _atom_site_fract_x
 _atom_site_fract_y
 _atom_site_fract_z
 _atom_site_occupancy
  Ca  Ca0  1  0.85564238  0.43193190  0.40676706  1
  Ca  Ca1  1  0.57759874  0.15225609  0.56408240  1
  Ca  Ca2  1  0.43193190  0.40676706  0.85564238  1
  Ca  Ca3  1  0.56408240  0.57759874  0.15225609  1
  Ca  Ca4  1  0.93193190  0.35564238  0.90676706  1
  Ca  Ca5  1  0.35564238  0.90676706  0.93193190  1
  Ca  Ca6  1  0.47188851  0.05026928  0.45318172  1
  Ca  Ca7  1  0.45318172  0.47188851  0.05026928  1
  Ca  Ca8  1  0.97188851  0.95318172  0.55026928  1
  Ca  Ca9  1  0.40676706  0.85564238  0.43193190  1
  Ca  Ca10  1  0.95318172  0.55026928  0.97188851  1
  Ca  Ca11  1  0.55026928  0.97188851  0.95318172  1
  Ca  Ca12  1  0.90676706  0.93193190  0.35564238  1
  Ca  Ca13  1  0.07759874  0.06408240  0.65225609  1
  Ca  Ca14  1  0.15225609  0.56408240  0.57759874  1
  Ca  Ca15  1  0.06408240  0.65225609  0.07759874  1
  Ca  Ca16  1  0.65225609  0.07759874  0.06408240  1
  Ca  Ca17  1  0.05026928  0.45318172  0.47188851  1
  In  In18  1  0.99947733  0.99947733  0.99947733  1
  In  In19  1  0.49947733  0.49947733  0.49947733  1
  P  P20  1  0.76893185  0.76893185  0.76893185  1
  P  P21  1  0.26893185  0.26893185  0.26893185  1
  P  P22  1  0.22064805  0.18673732  0.68521692  1
  P  P23  1  0.81991701  0.30857710  0.27440246  1
  P  P24  1  0.27440246  0.81991701  0.30857710  1
  P  P25  1  0.30857710  0.27440246  0.81991701  1
  P  P26  1  0.68673732  0.72064805  0.18521692  1
  P  P27  1  0.68521692  0.22064805  0.18673732  1
  P  P28  1  0.77440246  0.80857710  0.31991701  1
  P  P29  1  0.72064805  0.18521692  0.68673732  1
  P  P30  1  0.18521692  0.68673732  0.72064805  1
  P  P31  1  0.80857710  0.31991701  0.77440246  1
  P  P32  1  0.31991701  0.77440246  0.80857710  1
  P  P33  1  0.18673732  0.68521692  0.22064805  1
  O  O34  1  0.39280432  0.77087232  0.85671774  1
  O  O35  1  0.27087232  0.89280432  0.35671774  1
  O  O36  1  0.66857770  0.68443123  0.11857589  1
  O  O37  1  0.11036892  0.39190409  0.26612725  1
  O  O38  1  0.83881386  0.38827335  0.11076905  1
  O  O39  1  0.13955861  0.86857875  0.87580624  1
  O  O40  1  0.36857875  0.63955861  0.37580624  1
  O  O41  1  0.14431810  0.59541743  0.89236149  1
  O  O42  1  0.61076905  0.88827335  0.33881386  1
  O  O43  1  0.35671774  0.27087232  0.89280432  1
  O  O44  1  0.26612725  0.11036892  0.39190409  1
  O  O45  1  0.39190409  0.26612725  0.11036892  1
  O  O46  1  0.89280432  0.35671774  0.27087232  1
  O  O47  1  0.18443123  0.16857770  0.61857589  1
  O  O48  1  0.12971806  0.85616017  0.66242072  1
  O  O49  1  0.61857589  0.18443123  0.16857770  1
  O  O50  1  0.63581298  0.36382372  0.61794164  1
  O  O51  1  0.61794164  0.63581298  0.36382372  1
  O  O52  1  0.86382372  0.13581298  0.11794164  1
  O  O53  1  0.85616017  0.66242072  0.12971806  1
  O  O54  1  0.35616017  0.62971806  0.16242072  1
  O  O55  1  0.85671774  0.39280432  0.77087232  1
  O  O56  1  0.61036892  0.76612725  0.89190409  1
  O  O57  1  0.11794164  0.86382372  0.13581298  1
  O  O58  1  0.89190409  0.61036892  0.76612725  1
  O  O59  1  0.87256741  0.13629282  0.35062284  1
  O  O60  1  0.11857589  0.66857770  0.68443123  1
  O  O61  1  0.16857770  0.61857589  0.18443123  1
  O  O62  1  0.39236149  0.09541743  0.64431810  1
  O  O63  1  0.16242072  0.35616017  0.62971806  1
  O  O64  1  0.37580624  0.36857875  0.63955861  1
  O  O65  1  0.13581298  0.11794164  0.86382372  1
  O  O66  1  0.13629282  0.35062284  0.87256741  1
  O  O67  1  0.76612725  0.89190409  0.61036892  1
  O  O68  1  0.88827335  0.33881386  0.61076905  1
  O  O69  1  0.66242072  0.12971806  0.85616017  1
  O  O70  1  0.63955861  0.37580624  0.36857875  1
  O  O71  1  0.85062284  0.63629282  0.37256741  1
  O  O72  1  0.36382372  0.61794164  0.63581298  1
  O  O73  1  0.37256741  0.85062284  0.63629282  1
  O  O74  1  0.09541743  0.64431810  0.39236149  1
  O  O75  1  0.35062284  0.87256741  0.13629282  1
  O  O76  1  0.81033719  0.81033719  0.81033719  1
  O  O77  1  0.33881386  0.61076905  0.88827335  1
  O  O78  1  0.31033719  0.31033719  0.31033719  1
  O  O79  1  0.64431810  0.39236149  0.09541743  1
  O  O80  1  0.62971806  0.16242072  0.35616017  1
  O  O81  1  0.59541743  0.89236149  0.14431810  1
  O  O82  1  0.77087232  0.85671774  0.39280432  1
  O  O83  1  0.89236149  0.14431810  0.59541743  1
  O  O84  1  0.11076905  0.83881386  0.38827335  1
  O  O85  1  0.38827335  0.11076905  0.83881386  1
  O  O86  1  0.87580624  0.13955861  0.86857875  1
  O  O87  1  0.86857875  0.87580624  0.13955861  1
  O  O88  1  0.63629282  0.37256741  0.85062284  1
  O  O89  1  0.68443123  0.11857589  0.66857770  1
