# generated using pymatgen
data_MoF5
_symmetry_space_group_name_H-M   'P 1'
_cell_length_a   5.47163667
_cell_length_b   8.85699945
_cell_length_c   8.85699886
_cell_angle_alpha   111.31457516
_cell_angle_beta   91.32356446
_cell_angle_gamma   91.32356150
_symmetry_Int_Tables_number   1
_chemical_formula_structural   MoF5
_chemical_formula_sum   'Mo4 F20'
_cell_volume   399.53518623
_cell_formula_units_Z   4
loop_
 _symmetry_equiv_pos_site_id
 _symmetry_equiv_pos_as_xyz
  1  'x, y, z'
loop_
 _atom_site_type_symbol
 _atom_site_label
 _atom_site_symmetry_multiplicity
 _atom_site_fract_x
 _atom_site_fract_y
 _atom_site_fract_z
 _atom_site_occupancy
  Mo  Mo0  1  1.00000000  0.79827378  0.20172622  1
  Mo  Mo1  1  0.00000000  0.20172622  0.79827378  1
  Mo  Mo2  1  0.26240561  0.74408756  0.74408756  1
  Mo  Mo3  1  0.73759439  0.25591244  0.25591244  1
  F  F4  1  0.53305177  0.86262505  0.86262505  1
  F  F5  1  0.46694823  0.13737495  0.13737495  1
  F  F6  1  0.94682879  0.66809288  0.66809288  1
  F  F7  1  0.05317121  0.33190712  0.33190712  1
  F  F8  1  0.37963604  0.54157259  0.72764135  1
  F  F9  1  0.62036396  0.27235865  0.45842741  1
  F  F10  1  0.62036396  0.45842741  0.27235865  1
  F  F11  1  0.37963604  0.72764135  0.54157259  1
  F  F12  1  0.12750794  0.77360877  0.97277958  1
  F  F13  1  0.87249206  0.02722042  0.22639123  1
  F  F14  1  0.87249206  0.22639123  0.02722042  1
  F  F15  1  0.12750794  0.97277958  0.77360877  1
  F  F16  1  0.29538382  0.91048704  0.27861527  1
  F  F17  1  0.70461618  0.72138473  0.08951296  1
  F  F18  1  0.70461618  0.08951296  0.72138473  1
  F  F19  1  0.29538382  0.27861527  0.91048704  1
  F  F20  1  0.11790035  0.59273772  0.17390160  1
  F  F21  1  0.88209965  0.82609840  0.40726228  1
  F  F22  1  0.88209965  0.40726228  0.82609840  1
  F  F23  1  0.11790035  0.17390160  0.59273772  1
