# generated using pymatgen
data_Sm3OsO7
_symmetry_space_group_name_H-M   'P 1'
_cell_length_a   7.50236630
_cell_length_b   10.81043692
_cell_length_c   15.03172719
_cell_angle_alpha   90.00000000
_cell_angle_beta   90.00000000
_cell_angle_gamma   90.00000000
_symmetry_Int_Tables_number   1
_chemical_formula_structural   Sm3OsO7
_chemical_formula_sum   'Sm24 Os8 O56'
_cell_volume   1219.13106205
_cell_formula_units_Z   8
loop_
 _symmetry_equiv_pos_site_id
 _symmetry_equiv_pos_as_xyz
  1  'x, y, z'
loop_
 _atom_site_type_symbol
 _atom_site_label
 _atom_site_symmetry_multiplicity
 _atom_site_fract_x
 _atom_site_fract_y
 _atom_site_fract_z
 _atom_site_occupancy
  Sm  Sm0  1  0.00337204  0.17127332  0.11046433  1
  Sm  Sm1  1  0.49662796  0.17127332  0.61046433  1
  Sm  Sm2  1  0.49686708  0.68794216  0.86104639  1
  Sm  Sm3  1  0.75110252  0.94811061  0.97294705  1
  Sm  Sm4  1  0.00313292  0.68794216  0.36104639  1
  Sm  Sm5  1  0.74315452  0.91045374  0.22305867  1
  Sm  Sm6  1  0.99686708  0.18794216  0.63895361  1
  Sm  Sm7  1  0.23540067  0.89845946  0.52160306  1
  Sm  Sm8  1  0.75684503  0.45987821  0.72857237  1
  Sm  Sm9  1  0.50337204  0.67127332  0.38953567  1
  Sm  Sm10  1  0.24315452  0.41045374  0.27694133  1
  Sm  Sm11  1  0.25684503  0.95987821  0.77142763  1
  Sm  Sm12  1  0.99662796  0.67127332  0.88953567  1
  Sm  Sm13  1  0.75684548  0.91045374  0.72305867  1
  Sm  Sm14  1  0.25684548  0.41045374  0.77694133  1
  Sm  Sm15  1  0.25110252  0.44811061  0.52705295  1
  Sm  Sm16  1  0.24315497  0.95987821  0.27142763  1
  Sm  Sm17  1  0.74889748  0.94811061  0.47294705  1
  Sm  Sm18  1  0.74315497  0.45987821  0.22857237  1
  Sm  Sm19  1  0.26459933  0.89845946  0.02160306  1
  Sm  Sm20  1  0.76459933  0.39845946  0.47839694  1
  Sm  Sm21  1  0.73540067  0.39845946  0.97839694  1
  Sm  Sm22  1  0.50313292  0.18794216  0.13895361  1
  Sm  Sm23  1  0.24889748  0.44811061  0.02705295  1
  Os  Os24  1  0.49789232  0.67786129  0.12616762  1
  Os  Os25  1  0.99830082  0.68032739  0.12492338  1
  Os  Os26  1  0.50169918  0.68032739  0.62492338  1
  Os  Os27  1  0.99789232  0.17786129  0.37383238  1
  Os  Os28  1  0.00210768  0.67786129  0.62616762  1
  Os  Os29  1  0.49830082  0.18032739  0.37507662  1
  Os  Os30  1  0.50210768  0.17786129  0.87383238  1
  Os  Os31  1  0.00169918  0.18032739  0.87507662  1
  O  O32  1  0.24135156  0.04850435  0.63006383  1
  O  O33  1  0.73554989  0.81289569  0.35682852  1
  O  O34  1  0.45124381  0.83032698  0.19056777  1
  O  O35  1  0.46832730  0.30721459  0.46910694  1
  O  O36  1  0.26457926  0.81081934  0.38029820  1
  O  O37  1  0.03983307  0.05339895  0.96844182  1
  O  O38  1  0.76457926  0.31081934  0.11970180  1
  O  O39  1  0.75864844  0.54850435  0.36993617  1
  O  O40  1  0.23542074  0.81081934  0.88029820  1
  O  O41  1  0.46016693  0.05339895  0.46844182  1
  O  O42  1  0.74825547  0.68790984  0.16669202  1
  O  O43  1  0.46174485  0.57416611  0.23600182  1
  O  O44  1  0.95866563  0.52242964  0.56162565  1
  O  O45  1  0.96621931  0.30914978  0.78027527  1
  O  O46  1  0.46733362  0.55590587  0.72065953  1
  O  O47  1  0.26615011  0.54554350  0.89379528  1
  O  O48  1  0.96016693  0.55339895  0.03155818  1
  O  O49  1  0.46163723  0.28020576  0.98434823  1
  O  O50  1  0.24871310  0.66992343  0.08403739  1
  O  O51  1  0.03266638  0.55590587  0.22065953  1
  O  O52  1  0.75128690  0.16992343  0.91596261  1
  O  O53  1  0.03378069  0.80914978  0.21972473  1
  O  O54  1  0.96163723  0.78020576  0.51565177  1
  O  O55  1  0.96174485  0.07416611  0.26399818  1
  O  O56  1  0.25128690  0.66992343  0.58403739  1
  O  O57  1  0.04133437  0.02242964  0.43837435  1
  O  O58  1  0.04875619  0.83032698  0.69056777  1
  O  O59  1  0.03167270  0.30721459  0.96910694  1
  O  O60  1  0.26445011  0.31289569  0.64317148  1
  O  O61  1  0.23554989  0.31289569  0.14317148  1
  O  O62  1  0.53378069  0.30914978  0.28027527  1
  O  O63  1  0.76615011  0.04554350  0.60620472  1
  O  O64  1  0.53836277  0.78020576  0.01565177  1
  O  O65  1  0.45866563  0.02242964  0.93837435  1
  O  O66  1  0.74135156  0.54850435  0.86993617  1
  O  O67  1  0.76445011  0.81289569  0.85682852  1
  O  O68  1  0.25174453  0.18790984  0.83330798  1
  O  O69  1  0.53266638  0.05590587  0.27934047  1
  O  O70  1  0.25864844  0.04850435  0.13006383  1
  O  O71  1  0.23384989  0.54554350  0.39379528  1
  O  O72  1  0.53983307  0.55339895  0.53155818  1
  O  O73  1  0.53825515  0.07416611  0.76399818  1
  O  O74  1  0.54133437  0.52242964  0.06162565  1
  O  O75  1  0.73384989  0.04554350  0.10620472  1
  O  O76  1  0.95124381  0.33032698  0.30943223  1
  O  O77  1  0.03825515  0.57416611  0.73600182  1
  O  O78  1  0.73542074  0.31081934  0.61970180  1
  O  O79  1  0.53167270  0.80721459  0.53089306  1
  O  O80  1  0.46621931  0.80914978  0.71972473  1
  O  O81  1  0.96832730  0.80721459  0.03089306  1
  O  O82  1  0.54875619  0.33032698  0.80943223  1
  O  O83  1  0.75174453  0.68790984  0.66669202  1
  O  O84  1  0.74871310  0.16992343  0.41596261  1
  O  O85  1  0.96733362  0.05590587  0.77934047  1
  O  O86  1  0.03836277  0.28020576  0.48434823  1
  O  O87  1  0.24825547  0.18790984  0.33330798  1
