# generated using pymatgen
data_La3CuS3O2
_symmetry_space_group_name_H-M   'P 1'
_cell_length_a   3.94255218
_cell_length_b   12.57416028
_cell_length_c   14.07889137
_cell_angle_alpha   90.00000000
_cell_angle_beta   90.00000000
_cell_angle_gamma   90.00000000
_symmetry_Int_Tables_number   1
_chemical_formula_structural   La3CuS3O2
_chemical_formula_sum   'La12 Cu4 S12 O8'
_cell_volume   697.95094543
_cell_formula_units_Z   4
loop_
 _symmetry_equiv_pos_site_id
 _symmetry_equiv_pos_as_xyz
  1  'x, y, z'
loop_
 _atom_site_type_symbol
 _atom_site_label
 _atom_site_symmetry_multiplicity
 _atom_site_fract_x
 _atom_site_fract_y
 _atom_site_fract_z
 _atom_site_occupancy
  La  La0  1  0.75000000  0.90427973  0.36816870  1
  La  La1  1  0.25000000  0.38770475  0.70811607  1
  La  La2  1  0.75000000  0.61229525  0.29188393  1
  La  La3  1  0.75000000  0.90036126  0.07750206  1
  La  La4  1  0.25000000  0.09963874  0.92249794  1
  La  La5  1  0.25000000  0.40036126  0.42249794  1
  La  La6  1  0.25000000  0.09572027  0.63183130  1
  La  La7  1  0.75000000  0.59963874  0.57750206  1
  La  La8  1  0.75000000  0.59572027  0.86816870  1
  La  La9  1  0.25000000  0.11229525  0.20811607  1
  La  La10  1  0.75000000  0.88770475  0.79188393  1
  La  La11  1  0.25000000  0.40427973  0.13183130  1
  Cu  Cu12  1  0.75000000  0.17170395  0.41448543  1
  Cu  Cu13  1  0.25000000  0.67170395  0.08551457  1
  Cu  Cu14  1  0.25000000  0.82829605  0.58551457  1
  Cu  Cu15  1  0.75000000  0.32829605  0.91448543  1
  S  S16  1  0.25000000  0.78811526  0.21837172  1
  S  S17  1  0.75000000  0.56772419  0.08701248  1
  S  S18  1  0.25000000  0.71188474  0.71837172  1
  S  S19  1  0.25000000  0.43227581  0.91298752  1
  S  S20  1  0.75000000  0.93227581  0.58701248  1
  S  S21  1  0.75000000  0.23598708  0.05577965  1
  S  S22  1  0.25000000  0.73598708  0.44422035  1
  S  S23  1  0.75000000  0.26401292  0.55577965  1
  S  S24  1  0.75000000  0.21188474  0.78162828  1
  S  S25  1  0.25000000  0.06772419  0.41298752  1
  S  S26  1  0.75000000  0.28811526  0.28162828  1
  S  S27  1  0.25000000  0.76401292  0.94422035  1
  O  O28  1  0.25000000  0.49328122  0.57346465  1
  O  O29  1  0.75000000  0.50671878  0.42653535  1
  O  O30  1  0.75000000  0.49347511  0.72902789  1
  O  O31  1  0.25000000  0.00671878  0.07346465  1
  O  O32  1  0.25000000  0.50652489  0.27097211  1
  O  O33  1  0.75000000  0.99328122  0.92653535  1
  O  O34  1  0.75000000  0.00652489  0.22902789  1
  O  O35  1  0.25000000  0.99347511  0.77097211  1
