# generated using pymatgen
data_Na2Mn2Si2O7
_symmetry_space_group_name_H-M   'P 1'
_cell_length_a   5.82072301
_cell_length_b   8.88844463
_cell_length_c   13.47845803
_cell_angle_alpha   90.00000000
_cell_angle_beta   90.00000000
_cell_angle_gamma   89.90543467
_symmetry_Int_Tables_number   1
_chemical_formula_structural   Na2Mn2Si2O7
_chemical_formula_sum   'Na8 Mn8 Si8 O28'
_cell_volume   697.33638067
_cell_formula_units_Z   4
loop_
 _symmetry_equiv_pos_site_id
 _symmetry_equiv_pos_as_xyz
  1  'x, y, z'
loop_
 _atom_site_type_symbol
 _atom_site_label
 _atom_site_symmetry_multiplicity
 _atom_site_fract_x
 _atom_site_fract_y
 _atom_site_fract_z
 _atom_site_occupancy
  Na  Na0  1  0.71658593  0.30520833  0.24669427  1
  Na  Na1  1  0.78341407  0.19479167  0.74669427  1
  Na  Na2  1  0.28341407  0.69479167  0.75330573  1
  Na  Na3  1  0.21658593  0.80520833  0.25330573  1
  Na  Na4  1  0.66876992  0.61657035  0.15953659  1
  Na  Na5  1  0.83123008  0.88342965  0.65953659  1
  Na  Na6  1  0.33123008  0.38342965  0.84046341  1
  Na  Na7  1  0.16876992  0.11657035  0.34046341  1
  Mn  Mn8  1  0.13816031  0.70947449  0.00716291  1
  Mn  Mn9  1  0.36183969  0.79052551  0.50716291  1
  Mn  Mn10  1  0.86183969  0.29052551  0.99283709  1
  Mn  Mn11  1  0.63816031  0.20947449  0.49283709  1
  Mn  Mn12  1  0.33630138  0.11701760  0.08093556  1
  Mn  Mn13  1  0.16369862  0.38298240  0.58093556  1
  Mn  Mn14  1  0.66369862  0.88298240  0.91906444  1
  Mn  Mn15  1  0.83630138  0.61701760  0.41906444  1
  Si  Si16  1  0.18040749  0.02826253  0.88071120  1
  Si  Si17  1  0.31959251  0.47173747  0.38071120  1
  Si  Si18  1  0.81959251  0.97173747  0.11928880  1
  Si  Si19  1  0.68040749  0.52826253  0.61928880  1
  Si  Si20  1  0.18392540  0.45017292  0.16650742  1
  Si  Si21  1  0.31607360  0.04982708  0.66650742  1
  Si  Si22  1  0.81607360  0.54982708  0.83349258  1
  Si  Si23  1  0.68392640  0.95017292  0.33349258  1
  O  O24  1  0.62270191  0.95788235  0.20997773  1
  O  O25  1  0.87729809  0.54211765  0.70997773  1
  O  O26  1  0.37729809  0.04211765  0.79002227  1
  O  O27  1  0.12270191  0.45788235  0.29002227  1
  O  O28  1  0.69699795  0.09199371  0.04113445  1
  O  O29  1  0.80300205  0.40800629  0.54113445  1
  O  O30  1  0.30300205  0.90800629  0.95886555  1
  O  O31  1  0.19699795  0.59199371  0.45886555  1
  O  O32  1  0.27718751  0.61750122  0.13337055  1
  O  O33  1  0.22281249  0.88249878  0.63337055  1
  O  O34  1  0.72281249  0.38249878  0.86662945  1
  O  O35  1  0.77718751  0.11750122  0.36662945  1
  O  O36  1  0.06630382  0.02300456  0.16443611  1
  O  O37  1  0.43369618  0.47699544  0.66443611  1
  O  O38  1  0.93369618  0.97699544  0.83556389  1
  O  O39  1  0.56630382  0.52300456  0.33556389  1
  O  O40  1  0.37743023  0.31988569  0.15237485  1
  O  O41  1  0.12256977  0.18011431  0.65237485  1
  O  O42  1  0.62256877  0.68011431  0.84762515  1
  O  O43  1  0.87743123  0.81988569  0.34762515  1
  O  O44  1  0.82814689  0.80980294  0.05943471  1
  O  O45  1  0.67185311  0.69019706  0.55943471  1
  O  O46  1  0.17185311  0.19019706  0.94056529  1
  O  O47  1  0.32814689  0.30980294  0.44056529  1
  O  O48  1  0.93214028  0.41707879  0.11653791  1
  O  O49  1  0.56785972  0.08292121  0.61653791  1
  O  O50  1  0.06785972  0.58292121  0.88346209  1
  O  O51  1  0.43214028  0.91707879  0.38346209  1
