# generated using pymatgen
data_SrZn(SeO3)2
_symmetry_space_group_name_H-M   'P 1'
_cell_length_a   4.58023442
_cell_length_b   9.53453742
_cell_length_c   15.17288940
_cell_angle_alpha   90.00000000
_cell_angle_beta   90.00000000
_cell_angle_gamma   95.35493817
_symmetry_Int_Tables_number   1
_chemical_formula_structural   SrZn(SeO3)2
_chemical_formula_sum   'Sr4 Zn4 Se8 O24'
_cell_volume   659.71456721
_cell_formula_units_Z   4
loop_
 _symmetry_equiv_pos_site_id
 _symmetry_equiv_pos_as_xyz
  1  'x, y, z'
loop_
 _atom_site_type_symbol
 _atom_site_label
 _atom_site_symmetry_multiplicity
 _atom_site_fract_x
 _atom_site_fract_y
 _atom_site_fract_z
 _atom_site_occupancy
  Sr  Sr0  1  0.25324200  0.54077873  0.88333630  1
  Sr  Sr1  1  0.75324200  0.04077873  0.61666370  1
  Sr  Sr2  1  0.74675800  0.45922127  0.11666370  1
  Sr  Sr3  1  0.24675800  0.95922127  0.38333630  1
  Zn  Zn4  1  0.26936428  0.77733538  0.15131984  1
  Zn  Zn5  1  0.76936428  0.27733538  0.34868016  1
  Zn  Zn6  1  0.23063572  0.72266462  0.65131984  1
  Zn  Zn7  1  0.73063572  0.22266462  0.84868016  1
  Se  Se8  1  0.79623686  0.43649188  0.69764783  1
  Se  Se9  1  0.24725734  0.22053888  0.99479828  1
  Se  Se10  1  0.70376314  0.06350812  0.19764783  1
  Se  Se11  1  0.29623686  0.93649188  0.80235217  1
  Se  Se12  1  0.75274266  0.77946112  0.00520172  1
  Se  Se13  1  0.74725734  0.72053888  0.50520172  1
  Se  Se14  1  0.25274266  0.27946112  0.49479828  1
  Se  Se15  1  0.20376314  0.56350812  0.30235217  1
  O  O16  1  0.30016116  0.57387178  0.18993745  1
  O  O17  1  0.39960533  0.77117814  0.81247293  1
  O  O18  1  0.37768169  0.77951835  0.01980959  1
  O  O19  1  0.36782694  0.96148854  0.20953435  1
  O  O20  1  0.19983884  0.92612822  0.68993745  1
  O  O21  1  0.72619252  0.88947376  0.46567615  1
  O  O22  1  0.60039467  0.22882186  0.18752707  1
  O  O23  1  0.77380748  0.61052624  0.96567615  1
  O  O24  1  0.27380748  0.11052624  0.53432385  1
  O  O25  1  0.66383306  0.74349684  0.61655149  1
  O  O26  1  0.62231831  0.22048165  0.98019041  1
  O  O27  1  0.86782694  0.46148854  0.29046565  1
  O  O28  1  0.22619252  0.38947376  0.03432385  1
  O  O29  1  0.80016116  0.07387178  0.31006255  1
  O  O30  1  0.69983884  0.42612822  0.81006255  1
  O  O31  1  0.12231831  0.72048165  0.51980959  1
  O  O32  1  0.87768169  0.27951835  0.48019041  1
  O  O33  1  0.63217306  0.03851146  0.79046565  1
  O  O34  1  0.16383306  0.24349684  0.88344851  1
  O  O35  1  0.33616694  0.25650316  0.38344851  1
  O  O36  1  0.89960533  0.27117814  0.68752707  1
  O  O37  1  0.83616694  0.75650316  0.11655149  1
  O  O38  1  0.13217306  0.53851146  0.70953435  1
  O  O39  1  0.10039467  0.72882186  0.31247293  1
