# generated using pymatgen
data_BaLa(BiS3)2
_symmetry_space_group_name_H-M   'P 1'
_cell_length_a   4.23187930
_cell_length_b   14.95890617
_cell_length_c   16.62162576
_cell_angle_alpha   90.00000000
_cell_angle_beta   92.71979363
_cell_angle_gamma   90.00000000
_symmetry_Int_Tables_number   1
_chemical_formula_structural   BaLa(BiS3)2
_chemical_formula_sum   'Ba4 La4 Bi8 S24'
_cell_volume   1051.03485743
_cell_formula_units_Z   4
loop_
 _symmetry_equiv_pos_site_id
 _symmetry_equiv_pos_as_xyz
  1  'x, y, z'
loop_
 _atom_site_type_symbol
 _atom_site_label
 _atom_site_symmetry_multiplicity
 _atom_site_fract_x
 _atom_site_fract_y
 _atom_site_fract_z
 _atom_site_occupancy
  Ba  Ba0  1  0.25614005  0.71126619  0.67000649  1
  Ba  Ba1  1  0.74385995  0.21126619  0.82999351  1
  Ba  Ba2  1  0.74385995  0.28873381  0.32999351  1
  Ba  Ba3  1  0.25614005  0.78873381  0.17000649  1
  La  La4  1  0.29476000  0.87418270  0.90623569  1
  La  La5  1  0.70524000  0.37418270  0.59376431  1
  La  La6  1  0.29476000  0.62581730  0.40623569  1
  La  La7  1  0.70524000  0.12581730  0.09376431  1
  Bi  Bi8  1  0.75796283  0.52144124  0.20030242  1
  Bi  Bi9  1  0.24203717  0.47855876  0.79969758  1
  Bi  Bi10  1  0.73707011  0.87218076  0.47014420  1
  Bi  Bi11  1  0.75796283  0.97855876  0.70030242  1
  Bi  Bi12  1  0.24203717  0.02144124  0.29969758  1
  Bi  Bi13  1  0.73707011  0.62781924  0.97014420  1
  Bi  Bi14  1  0.26292989  0.12781924  0.52985580  1
  Bi  Bi15  1  0.26292989  0.37218076  0.02985580  1
  S  S16  1  0.31860459  0.03666235  0.79769182  1
  S  S17  1  0.23521796  0.29299565  0.48034869  1
  S  S18  1  0.76478204  0.79299565  0.01965131  1
  S  S19  1  0.29466542  0.91638527  0.58915728  1
  S  S20  1  0.84219069  0.01186685  0.94977932  1
  S  S21  1  0.70533458  0.08361473  0.41084272  1
  S  S22  1  0.22328980  0.17295215  0.21781926  1
  S  S23  1  0.15780931  0.51186685  0.55022068  1
  S  S24  1  0.22328980  0.32704785  0.71781926  1
  S  S25  1  0.15780931  0.98813315  0.05022068  1
  S  S26  1  0.77671020  0.82704785  0.78218074  1
  S  S27  1  0.70533458  0.41638527  0.91084272  1
  S  S28  1  0.29466542  0.58361473  0.08915728  1
  S  S29  1  0.84219069  0.48813315  0.44977932  1
  S  S30  1  0.24747041  0.83055312  0.36921816  1
  S  S31  1  0.68139541  0.96333765  0.20230818  1
  S  S32  1  0.76478204  0.70700435  0.51965131  1
  S  S33  1  0.68139541  0.53666235  0.70230818  1
  S  S34  1  0.24747041  0.66944688  0.86921816  1
  S  S35  1  0.23521796  0.20700435  0.98034869  1
  S  S36  1  0.75252959  0.33055312  0.13078184  1
  S  S37  1  0.77671020  0.67295215  0.28218074  1
  S  S38  1  0.75252959  0.16944688  0.63078184  1
  S  S39  1  0.31860459  0.46333765  0.29769182  1
