# generated using pymatgen
data_RbAu(SO4)2
_symmetry_space_group_name_H-M   'P 1'
_cell_length_a   4.35617075
_cell_length_b   5.16817726
_cell_length_c   9.03767070
_cell_angle_alpha   76.95622826
_cell_angle_beta   88.30908707
_cell_angle_gamma   74.31159042
_symmetry_Int_Tables_number   1
_chemical_formula_structural   RbAu(SO4)2
_chemical_formula_sum   'Rb1 Au1 S2 O8'
_cell_volume   190.72715464
_cell_formula_units_Z   1
loop_
 _symmetry_equiv_pos_site_id
 _symmetry_equiv_pos_as_xyz
  1  'x, y, z'
loop_
 _atom_site_type_symbol
 _atom_site_label
 _atom_site_symmetry_multiplicity
 _atom_site_fract_x
 _atom_site_fract_y
 _atom_site_fract_z
 _atom_site_occupancy
  Rb  Rb0  1  0.00000000  0.50000000  0.00000000  1
  Au  Au1  1  0.00000000  0.00000000  0.50000000  1
  S  S2  1  0.44935819  0.12347423  0.73113244  1
  S  S3  1  0.55064181  0.87652577  0.26886756  1
  O  O4  1  0.47661984  0.63333850  0.24248509  1
  O  O5  1  0.67997556  0.03814500  0.14221944  1
  O  O6  1  0.32002444  0.96185500  0.85778056  1
  O  O7  1  0.77904146  0.76512360  0.41078671  1
  O  O8  1  0.22095854  0.23487640  0.58921329  1
  O  O9  1  0.74815604  0.91126189  0.68972675  1
  O  O10  1  0.25184396  0.08873811  0.31027325  1
  O  O11  1  0.52338016  0.36666150  0.75751491  1
