# generated using pymatgen
data_Cs4Nb2Si8O23
_symmetry_space_group_name_H-M   'P 1'
_cell_length_a   7.11576209
_cell_length_b   8.01010678
_cell_length_c   11.23940543
_cell_angle_alpha   77.04567496
_cell_angle_beta   89.80495536
_cell_angle_gamma   71.76825354
_symmetry_Int_Tables_number   1
_chemical_formula_structural   Cs4Nb2Si8O23
_chemical_formula_sum   'Cs4 Nb2 Si8 O23'
_cell_volume   591.43479088
_cell_formula_units_Z   1
loop_
 _symmetry_equiv_pos_site_id
 _symmetry_equiv_pos_as_xyz
  1  'x, y, z'
loop_
 _atom_site_type_symbol
 _atom_site_label
 _atom_site_symmetry_multiplicity
 _atom_site_fract_x
 _atom_site_fract_y
 _atom_site_fract_z
 _atom_site_occupancy
  Cs  Cs0  1  0.20834823  0.21279153  0.01316406  1
  Cs  Cs1  1  0.82570629  0.71832771  0.63721423  1
  Cs  Cs2  1  0.17429371  0.28167229  0.36278577  1
  Cs  Cs3  1  0.79165177  0.78720847  0.98683594  1
  Nb  Nb4  1  0.29507521  0.74196657  0.81419613  1
  Nb  Nb5  1  0.70492479  0.25803343  0.18580387  1
  Si  Si6  1  0.65848687  0.33049784  0.86801232  1
  Si  Si7  1  0.43373035  0.14067527  0.71293094  1
  Si  Si8  1  0.35241255  0.70328353  0.49826584  1
  Si  Si9  1  0.00461136  0.81292075  0.29558603  1
  Si  Si10  1  0.56626965  0.85932473  0.28706906  1
  Si  Si11  1  0.99538864  0.18707925  0.70441397  1
  Si  Si12  1  0.64758745  0.29671647  0.50173416  1
  Si  Si13  1  0.34151313  0.66950216  0.13198768  1
  O  O14  1  0.54455372  0.15446708  0.58284297  1
  O  O15  1  0.48216778  0.75145764  0.20270100  1
  O  O16  1  0.14154323  0.60008243  0.84779887  1
  O  O17  1  0.69864946  0.22080872  0.01045522  1
  O  O18  1  0.12877028  0.70096033  0.19871461  1
  O  O19  1  0.53086889  0.06563268  0.21991381  1
  O  O20  1  0.56224842  0.54777535  0.85076748  1
  O  O21  1  0.31933923  0.73672482  0.63280894  1
  O  O22  1  0.43775158  0.45222465  0.14923252  1
  O  O23  1  0.86376561  0.26443179  0.57169088  1
  O  O24  1  0.46913111  0.93436732  0.78008619  1
  O  O25  1  0.30135054  0.77919128  0.98954478  1
  O  O26  1  0.87122972  0.29903967  0.80128539  1
  O  O27  1  0.80645479  0.74882212  0.32180058  1
  O  O28  1  0.04874024  0.97229710  0.75800540  1
  O  O29  1  0.13623439  0.73556821  0.42830912  1
  O  O30  1  0.50000000  0.50000000  0.50000000  1
  O  O31  1  0.51783222  0.24854236  0.79729900  1
  O  O32  1  0.85845677  0.39991757  0.15220113  1
  O  O33  1  0.95125976  0.02770290  0.24199460  1
  O  O34  1  0.19354521  0.25117788  0.67819942  1
  O  O35  1  0.68066077  0.26327518  0.36719106  1
  O  O36  1  0.45544628  0.84553292  0.41715703  1
