# generated using pymatgen
data_RbTb(PO3)4
_symmetry_space_group_name_H-M   'P 1'
_cell_length_a   8.99621828
_cell_length_b   10.45852947
_cell_length_c   11.09231558
_cell_angle_alpha   106.44669053
_cell_angle_beta   90.00000000
_cell_angle_gamma   90.00000000
_symmetry_Int_Tables_number   1
_chemical_formula_structural   RbTb(PO3)4
_chemical_formula_sum   'Rb4 Tb4 P16 O48'
_cell_volume   1000.94284486
_cell_formula_units_Z   4
loop_
 _symmetry_equiv_pos_site_id
 _symmetry_equiv_pos_as_xyz
  1  'x, y, z'
loop_
 _atom_site_type_symbol
 _atom_site_label
 _atom_site_symmetry_multiplicity
 _atom_site_fract_x
 _atom_site_fract_y
 _atom_site_fract_z
 _atom_site_occupancy
  Tb  Tb0  1  0.22690695  0.00135761  0.81695737  1
  Tb  Tb1  1  0.77309305  0.99864239  0.18304263  1
  Tb  Tb2  1  0.27309305  0.50135761  0.31695737  1
  Tb  Tb3  1  0.72690695  0.49864239  0.68304263  1
  Rb  Rb4  1  0.06658170  0.19353893  0.45807728  1
  Rb  Rb5  1  0.93341830  0.80646107  0.54192272  1
  Rb  Rb6  1  0.56658170  0.30646107  0.04192272  1
  Rb  Rb7  1  0.43341830  0.69353893  0.95807728  1
  P  P8  1  0.10912273  0.32433295  0.02291595  1
  P  P9  1  0.17154275  0.95998486  0.13580127  1
  P  P10  1  0.67154275  0.54001514  0.36419873  1
  P  P11  1  0.97419370  0.25222417  0.77798078  1
  P  P12  1  0.39087727  0.82433295  0.52291595  1
  P  P13  1  0.59212945  0.85317107  0.74128831  1
  P  P14  1  0.02580630  0.74777583  0.22201922  1
  P  P15  1  0.52580630  0.75222417  0.27798078  1
  P  P16  1  0.60912273  0.17566705  0.47708405  1
  P  P17  1  0.40787055  0.14682893  0.25871169  1
  P  P18  1  0.32845725  0.45998486  0.63580127  1
  P  P19  1  0.47419370  0.24777583  0.72201922  1
  P  P20  1  0.09212945  0.64682893  0.75871169  1
  P  P21  1  0.82845725  0.04001514  0.86419873  1
  P  P22  1  0.89087727  0.67566705  0.97708405  1
  P  P23  1  0.90787055  0.35317107  0.24128831  1
  O  O24  1  0.71168724  0.06792063  0.40450514  1
  O  O25  1  0.82357088  0.23453835  0.25462219  1
  O  O26  1  0.67642912  0.73453835  0.75462219  1
  O  O27  1  0.79146573  0.47522417  0.25405063  1
  O  O28  1  0.78831276  0.56792063  0.90450514  1
  O  O29  1  0.04805730  0.66978301  0.90383462  1
  O  O30  1  0.91513093  0.85441849  0.28351503  1
  O  O31  1  0.95967394  0.59974104  0.67577121  1
  O  O32  1  0.34220957  0.31367309  0.65891224  1
  O  O33  1  0.32357088  0.26546165  0.24537781  1
  O  O34  1  0.54805730  0.83021699  0.59616538  1
  O  O35  1  0.08486907  0.14558151  0.71648497  1
  O  O36  1  0.21168724  0.43207937  0.09549486  1
  O  O37  1  0.45967394  0.90025896  0.82422879  1
  O  O38  1  0.74155123  0.56195318  0.49083577  1
  O  O39  1  0.97078576  0.96372094  0.83028580  1
  O  O40  1  0.29146573  0.02477583  0.24594937  1
  O  O41  1  0.24155123  0.93804682  0.00916423  1
  O  O42  1  0.59426075  0.82994865  0.19773043  1
  O  O43  1  0.15779043  0.81367309  0.15891224  1
  O  O44  1  0.47078576  0.53627906  0.66971420  1
  O  O45  1  0.58486907  0.35441849  0.78351503  1
  O  O46  1  0.41513093  0.64558151  0.21648497  1
  O  O47  1  0.75844877  0.06195318  0.99083577  1
  O  O48  1  0.45323925  0.86022039  0.39925529  1
  O  O49  1  0.04676075  0.36022039  0.89925529  1
  O  O50  1  0.25844877  0.43804682  0.50916423  1
  O  O51  1  0.66562439  0.31607589  0.51779613  1
  O  O52  1  0.84220957  0.18632691  0.84108776  1
  O  O53  1  0.95194270  0.33021699  0.09616538  1
  O  O54  1  0.17642912  0.76546165  0.74537781  1
  O  O55  1  0.40573925  0.17005135  0.80226957  1
  O  O56  1  0.65779043  0.68632691  0.34108776  1
  O  O57  1  0.90573925  0.32994865  0.69773043  1
  O  O58  1  0.09426075  0.67005135  0.30226957  1
  O  O59  1  0.52921424  0.46372094  0.33028580  1
  O  O60  1  0.16562439  0.18392411  0.98220387  1
  O  O61  1  0.54032606  0.09974104  0.17577121  1
  O  O62  1  0.04032606  0.40025896  0.32422879  1
  O  O63  1  0.83437561  0.81607589  0.01779613  1
  O  O64  1  0.45194270  0.16978301  0.40383462  1
  O  O65  1  0.95323925  0.63977961  0.10074471  1
  O  O66  1  0.28831276  0.93207937  0.59549486  1
  O  O67  1  0.70853427  0.97522417  0.75405063  1
  O  O68  1  0.20853427  0.52477583  0.74594937  1
  O  O69  1  0.54676075  0.13977961  0.60074471  1
  O  O70  1  0.33437561  0.68392411  0.48220387  1
  O  O71  1  0.02921424  0.03627906  0.16971420  1
