# generated using pymatgen
data_ReO2F3
_symmetry_space_group_name_H-M   'P 1'
_cell_length_a   7.74579267
_cell_length_b   7.74579265
_cell_length_c   13.87851588
_cell_angle_alpha   90.00000000
_cell_angle_beta   90.00000000
_cell_angle_gamma   95.33161316
_symmetry_Int_Tables_number   1
_chemical_formula_structural   ReO2F3
_chemical_formula_sum   'Re8 O16 F24'
_cell_volume   829.07104109
_cell_formula_units_Z   8
loop_
 _symmetry_equiv_pos_site_id
 _symmetry_equiv_pos_as_xyz
  1  'x, y, z'
loop_
 _atom_site_type_symbol
 _atom_site_label
 _atom_site_symmetry_multiplicity
 _atom_site_fract_x
 _atom_site_fract_y
 _atom_site_fract_z
 _atom_site_occupancy
  Re  Re0  1  0.76101748  0.23898252  0.50000000  1
  Re  Re1  1  0.26101748  0.73898252  0.00000000  1
  Re  Re2  1  0.66836810  0.66836810  0.67633651  1
  Re  Re3  1  0.23898252  0.76101748  0.50000000  1
  Re  Re4  1  0.83163190  0.83163190  0.17633651  1
  Re  Re5  1  0.73898252  0.26101748  0.00000000  1
  Re  Re6  1  0.16836810  0.16836810  0.82366349  1
  Re  Re7  1  0.33163190  0.33163190  0.32366349  1
  O  O8  1  0.38487152  0.15332498  0.26266911  1
  O  O9  1  0.21450338  0.92360956  0.58022742  1
  O  O10  1  0.61512848  0.84667502  0.73733089  1
  O  O11  1  0.88487152  0.65332498  0.23733089  1
  O  O12  1  0.71450338  0.42360956  0.91977258  1
  O  O13  1  0.84667502  0.61512848  0.73733089  1
  O  O14  1  0.78549662  0.07639044  0.41977258  1
  O  O15  1  0.92360956  0.21450338  0.58022742  1
  O  O16  1  0.42360956  0.71450338  0.91977258  1
  O  O17  1  0.11512848  0.34667502  0.76266911  1
  O  O18  1  0.07639044  0.78549662  0.41977258  1
  O  O19  1  0.65332498  0.88487152  0.23733089  1
  O  O20  1  0.34667502  0.11512848  0.76266911  1
  O  O21  1  0.15332498  0.38487152  0.26266911  1
  O  O22  1  0.57639044  0.28549662  0.08022742  1
  O  O23  1  0.28549662  0.57639044  0.08022742  1
  F  F24  1  0.78489962  0.78489962  0.57331180  1
  F  F25  1  0.45564487  0.68744170  0.58009500  1
  F  F26  1  0.04435513  0.81255830  0.08009500  1
  F  F27  1  0.87035616  0.42074051  0.42726436  1
  F  F28  1  0.99484640  0.99484640  0.23221163  1
  F  F29  1  0.49484640  0.49484640  0.26778837  1
  F  F30  1  0.21510038  0.21510038  0.42668820  1
  F  F31  1  0.92074051  0.37035616  0.07273564  1
  F  F32  1  0.42074051  0.87035616  0.42726436  1
  F  F33  1  0.62964384  0.07925949  0.92726436  1
  F  F34  1  0.28489962  0.28489962  0.92668820  1
  F  F35  1  0.00515360  0.00515360  0.76778837  1
  F  F36  1  0.31255830  0.54435513  0.41990500  1
  F  F37  1  0.50515360  0.50515360  0.73221163  1
  F  F38  1  0.95564487  0.18744170  0.91990500  1
  F  F39  1  0.57925949  0.12964384  0.57273564  1
  F  F40  1  0.37035616  0.92074051  0.07273564  1
  F  F41  1  0.18744170  0.95564487  0.91990500  1
  F  F42  1  0.71510038  0.71510038  0.07331180  1
  F  F43  1  0.68744170  0.45564487  0.58009500  1
  F  F44  1  0.07925949  0.62964384  0.92726436  1
  F  F45  1  0.12964384  0.57925949  0.57273564  1
  F  F46  1  0.54435513  0.31255830  0.41990500  1
  F  F47  1  0.81255830  0.04435513  0.08009500  1
