# generated using pymatgen
data_LiZnPO4
_symmetry_space_group_name_H-M   'P 1'
_cell_length_a   9.88729447
_cell_length_b   10.05474527
_cell_length_c   16.41402045
_cell_angle_alpha   97.68814186
_cell_angle_beta   90.00000000
_cell_angle_gamma   119.45060550
_symmetry_Int_Tables_number   1
_chemical_formula_structural   LiZnPO4
_chemical_formula_sum   'Li16 Zn16 P16 O64'
_cell_volume   1404.05801971
_cell_formula_units_Z   16
loop_
 _symmetry_equiv_pos_site_id
 _symmetry_equiv_pos_as_xyz
  1  'x, y, z'
loop_
 _atom_site_type_symbol
 _atom_site_label
 _atom_site_symmetry_multiplicity
 _atom_site_fract_x
 _atom_site_fract_y
 _atom_site_fract_z
 _atom_site_occupancy
  Li  Li0  1  0.31318831  0.45339484  0.49866492  1
  Li  Li1  1  0.81278634  0.01235322  0.49721346  1
  Li  Li2  1  0.75966047  0.84048896  0.74689194  1
  Li  Li3  1  0.20380761  0.77264143  0.74757832  1
  Li  Li4  1  0.81130707  0.51290540  0.49657247  1
  Li  Li5  1  0.70159833  0.51290540  0.99657247  1
  Li  Li6  1  0.70194011  0.27864939  0.74725765  1
  Li  Li7  1  0.57670929  0.27864939  0.24725765  1
  Li  Li8  1  0.56883381  0.77264143  0.24757832  1
  Li  Li9  1  0.19956688  0.01235322  0.99721346  1
  Li  Li10  1  0.14020654  0.45339484  0.99866492  1
  Li  Li11  1  0.07427688  0.33422320  0.24848940  1
  Li  Li12  1  0.08082850  0.84048896  0.24689194  1
  Li  Li13  1  0.63938354  0.95205000  0.99743941  1
  Li  Li14  1  0.31266646  0.95205000  0.49743941  1
  Li  Li15  1  0.25994632  0.33422320  0.74848940  1
  Zn  Zn16  1  0.76744272  0.71319403  0.37080741  1
  Zn  Zn17  1  0.00427645  0.32977208  0.62223147  1
  Zn  Zn18  1  0.38063383  0.88590319  0.12142230  1
  Zn  Zn19  1  0.51130519  0.39088246  0.62133741  1
  Zn  Zn20  1  0.38200065  0.65257279  0.87274676  1
  Zn  Zn21  1  0.27057213  0.65257279  0.37274676  1
  Zn  Zn22  1  0.87957727  0.39088246  0.12133741  1
  Zn  Zn23  1  0.50526936  0.88590319  0.62142230  1
  Zn  Zn24  1  0.82604725  0.83503398  0.12086103  1
  Zn  Zn25  1  0.94575131  0.71319403  0.87080741  1
  Zn  Zn26  1  0.76927271  0.21478205  0.37257900  1
  Zn  Zn27  1  0.88450028  0.15149308  0.87189365  1
  Zn  Zn28  1  0.44550934  0.21478205  0.87257900  1
  Zn  Zn29  1  0.26699280  0.15149308  0.37189365  1
  Zn  Zn30  1  0.00898672  0.83503398  0.62086103  1
  Zn  Zn31  1  0.32549563  0.32977208  0.12223147  1
  P  P32  1  0.04357221  0.46038935  0.81107425  1
  P  P33  1  0.91812784  0.52019141  0.30914058  1
  P  P34  1  0.48188437  0.64719823  0.06017293  1
  P  P35  1  0.10159521  0.01624636  0.80906460  1
  P  P36  1  0.54493266  0.96332840  0.81079649  1
  P  P37  1  0.41839574  0.96332840  0.31079649  1
  P  P38  1  0.98256519  0.15104590  0.06017944  1
  P  P39  1  0.03878234  0.70540633  0.05821829  1
  P  P40  1  0.53705795  0.20226332  0.05871928  1
  P  P41  1  0.66662400  0.70540633  0.55821829  1
  P  P42  1  0.60206357  0.52019141  0.80914058  1
  P  P43  1  0.16531386  0.64719823  0.56017293  1
  P  P44  1  0.66520537  0.20226332  0.55871928  1
  P  P45  1  0.16848071  0.15104590  0.56017944  1
  P  P46  1  0.41681714  0.46038935  0.31107425  1
  P  P47  1  0.91465115  0.01624636  0.30906460  1
  O  O48  1  0.13908227  0.48007764  0.54846670  1
  O  O49  1  0.00625065  0.64010011  0.57288642  1
  O  O50  1  0.00744774  0.13876284  0.57385852  1
  O  O51  1  0.44217016  0.32484702  0.32654567  1
  O  O52  1  0.84408226  0.44056802  0.38534945  1
  O  O53  1  0.41900161  0.16137189  0.98433913  1
  O  O54  1  0.80698798  0.41530576  0.23192839  1
  O  O55  1  0.78592092  0.76238844  0.63454329  1
  O  O56  1  0.47015373  0.75025995  0.13670771  1
  O  O57  1  0.93214615  0.17992621  0.32042700  1
  O  O58  1  0.74237028  0.16137189  0.48433913  1
  O  O59  1  0.66304377  0.00235059  0.88496508  1
  O  O60  1  0.10862457  0.90703172  0.73465255  1
  O  O61  1  0.59648576  0.44056802  0.88534945  1
  O  O62  1  0.52803315  0.10483743  0.79796212  1
  O  O63  1  0.24778006  0.17992621  0.82042700  1
  O  O64  1  0.74742751  0.68433961  0.82116285  1
  O  O65  1  0.50869660  0.06000260  0.57350453  1
  O  O66  1  0.20244231  0.83552394  0.04204688  1
  O  O67  1  0.63384946  0.64010011  0.07288642  1
  O  O68  1  0.24015371  0.72624491  0.48414646  1
  O  O69  1  0.11043264  0.41056508  0.73451566  1
  O  O70  1  0.69962329  0.33422881  0.04240033  1
  O  O71  1  0.38466705  0.82706384  0.82658221  1
  O  O72  1  0.93691210  0.68433961  0.32116285  1
  O  O73  1  0.07712840  0.03210821  0.29497186  1
  O  O74  1  0.09292482  0.94003483  0.88709843  1
  O  O75  1  0.63460552  0.33422881  0.54240033  1
  O  O76  1  0.45297221  0.53264149  0.79696814  1
  O  O77  1  0.02630377  0.60072906  0.79573081  1
  O  O78  1  0.34398912  0.50469245  0.38666675  1
  O  O79  1  0.60831778  0.41530576  0.73192839  1
  O  O80  1  0.57442529  0.60072906  0.29573081  1
  O  O81  1  0.30843780  0.91762018  0.23161558  1
  O  O82  1  0.92118739  0.66136272  0.98311484  1
  O  O83  1  0.60918238  0.91762018  0.73161558  1
  O  O84  1  0.14648857  0.98549392  0.54925947  1
  O  O85  1  0.57680428  0.10483743  0.29796212  1
  O  O86  1  0.63308163  0.83552394  0.54204688  1
  O  O87  1  0.47471092  0.25485728  0.13664982  1
  O  O88  1  0.55130601  0.06000260  0.07350453  1
  O  O89  1  0.97646753  0.76238844  0.13454329  1
  O  O90  1  0.79840715  0.90703172  0.23465255  1
  O  O91  1  0.95497981  0.03210821  0.79497186  1
  O  O92  1  0.28509785  0.25852225  0.63510734  1
  O  O93  1  0.33930683  0.00235059  0.38496508  1
  O  O94  1  0.30013244  0.41056508  0.23451566  1
  O  O95  1  0.16070334  0.50469245  0.88666675  1
  O  O96  1  0.28010622  0.75025995  0.63670771  1
  O  O97  1  0.88267686  0.32484702  0.82654567  1
  O  O98  1  0.78014636  0.25485728  0.63664982  1
  O  O99  1  0.13131510  0.13876284  0.07385852  1
  O  O100  1  0.51147113  0.56343120  0.57484025  1
  O  O101  1  0.83900535  0.98549392  0.04925947  1
  O  O102  1  0.34099537  0.48007764  0.04846670  1
  O  O103  1  0.84711001  0.94003483  0.38709843  1
  O  O104  1  0.44239678  0.82706384  0.32658221  1
  O  O105  1  0.07966927  0.53264149  0.29696814  1
  O  O106  1  0.74017532  0.66136272  0.48311484  1
  O  O107  1  0.97342440  0.25852225  0.13510734  1
  O  O108  1  0.98941460  0.22770061  0.98283330  1
  O  O109  1  0.23828601  0.22770061  0.48283330  1
  O  O110  1  0.48609120  0.72624491  0.98414646  1
  O  O111  1  0.05196007  0.56343120  0.07484025  1
