# generated using pymatgen
data_Na8Fe2O7
_symmetry_space_group_name_H-M   'P 1'
_cell_length_a   8.79126079
_cell_length_b   10.21127455
_cell_length_c   11.12307465
_cell_angle_alpha   90.00000000
_cell_angle_beta   90.00000000
_cell_angle_gamma   107.62444904
_symmetry_Int_Tables_number   1
_chemical_formula_structural   Na8Fe2O7
_chemical_formula_sum   'Na32 Fe8 O28'
_cell_volume   951.64927198
_cell_formula_units_Z   4
loop_
 _symmetry_equiv_pos_site_id
 _symmetry_equiv_pos_as_xyz
  1  'x, y, z'
loop_
 _atom_site_type_symbol
 _atom_site_label
 _atom_site_symmetry_multiplicity
 _atom_site_fract_x
 _atom_site_fract_y
 _atom_site_fract_z
 _atom_site_occupancy
  Na  Na0  1  0.71398383  0.43016133  0.74971773  1
  Na  Na1  1  0.11921349  0.42298247  0.02425565  1
  Na  Na2  1  0.11921349  0.92298247  0.47574435  1
  Na  Na3  1  0.88078651  0.57701753  0.97574435  1
  Na  Na4  1  0.10563870  0.03292147  0.75976616  1
  Na  Na5  1  0.89436130  0.46707853  0.25976616  1
  Na  Na6  1  0.89436130  0.96707853  0.24023384  1
  Na  Na7  1  0.10563870  0.53292147  0.74023384  1
  Na  Na8  1  0.25684128  0.21174585  0.55283533  1
  Na  Na9  1  0.74315872  0.28825415  0.05283533  1
  Na  Na10  1  0.74315872  0.78825415  0.44716467  1
  Na  Na11  1  0.25684128  0.71174585  0.94716467  1
  Na  Na12  1  0.33902364  0.51646963  0.50475462  1
  Na  Na13  1  0.66097636  0.98353037  0.00475462  1
  Na  Na14  1  0.66097636  0.48353037  0.49524538  1
  Na  Na15  1  0.33902364  0.01646963  0.99524538  1
  Na  Na16  1  0.49984837  0.62724734  0.73166840  1
  Na  Na17  1  0.50015163  0.87275266  0.23166840  1
  Na  Na18  1  0.50015163  0.37275266  0.26833160  1
  Na  Na19  1  0.49984837  0.12724734  0.76833160  1
  Na  Na20  1  0.08358586  0.14339173  0.03892991  1
  Na  Na21  1  0.71398383  0.93016133  0.75028227  1
  Na  Na22  1  0.88078651  0.07701753  0.52425565  1
  Na  Na23  1  0.28601617  0.06983867  0.24971773  1
  Na  Na24  1  0.56779944  0.64434627  0.97296767  1
  Na  Na25  1  0.43220056  0.85565373  0.47296767  1
  Na  Na26  1  0.43220056  0.35565373  0.02703233  1
  Na  Na27  1  0.56779944  0.14434627  0.52703233  1
  Na  Na28  1  0.08358586  0.64339173  0.46107009  1
  Na  Na29  1  0.91641414  0.85660827  0.96107009  1
  Na  Na30  1  0.91641414  0.35660827  0.53892991  1
  Na  Na31  1  0.28601617  0.56983867  0.25028227  1
  Fe  Fe32  1  0.30858211  0.84692597  0.71674053  1
  Fe  Fe33  1  0.69141789  0.65307403  0.21674053  1
  Fe  Fe34  1  0.69141789  0.15307403  0.28325947  1
  Fe  Fe35  1  0.30858211  0.34692597  0.78325947  1
  Fe  Fe36  1  0.90643342  0.72618643  0.70302494  1
  Fe  Fe37  1  0.09356658  0.77381357  0.20302494  1
  Fe  Fe38  1  0.09356658  0.27381357  0.29697506  1
  Fe  Fe39  1  0.90643342  0.22618643  0.79697506  1
  O  O40  1  0.10395532  0.62056822  0.11079806  1
  O  O41  1  0.89604468  0.87943178  0.61079806  1
  O  O42  1  0.89604468  0.37943178  0.88920194  1
  O  O43  1  0.10395532  0.12056822  0.38920194  1
  O  O44  1  0.67150259  0.49648725  0.11544656  1
  O  O45  1  0.32849741  0.00351275  0.61544656  1
  O  O46  1  0.32849741  0.50351275  0.88455344  1
  O  O47  1  0.67150259  0.99648725  0.38455344  1
  O  O48  1  0.89383801  0.56644505  0.61046084  1
  O  O49  1  0.10616199  0.93355495  0.11046084  1
  O  O50  1  0.10616199  0.43355495  0.38953916  1
  O  O51  1  0.89383801  0.06644505  0.88953916  1
  O  O52  1  0.74784513  0.68306185  0.82462075  1
  O  O53  1  0.25215487  0.81693815  0.32462075  1
  O  O54  1  0.25215487  0.31693815  0.17537925  1
  O  O55  1  0.74784513  0.18306185  0.67537925  1
  O  O56  1  0.32281923  0.69903394  0.61897610  1
  O  O57  1  0.67718077  0.80096606  0.11897610  1
  O  O58  1  0.67718077  0.30096606  0.38102390  1
  O  O59  1  0.32281923  0.19903394  0.88102390  1
  O  O60  1  0.54174329  0.60536246  0.34892603  1
  O  O61  1  0.45825671  0.89463754  0.84892603  1
  O  O62  1  0.45825671  0.39463754  0.65107397  1
  O  O63  1  0.54174329  0.10536246  0.15107397  1
  O  O64  1  0.89697160  0.71597948  0.30156659  1
  O  O65  1  0.10302840  0.78402052  0.80156659  1
  O  O66  1  0.10302840  0.28402052  0.69843341  1
  O  O67  1  0.89697160  0.21597948  0.19843341  1
