# generated using pymatgen
data_BaNb10SiO19
_symmetry_space_group_name_H-M   'P 1'
_cell_length_a   7.86315884
_cell_length_b   7.86315922
_cell_length_c   14.72364326
_cell_angle_alpha   90.00000000
_cell_angle_beta   90.00000000
_cell_angle_gamma   119.99999840
_symmetry_Int_Tables_number   1
_chemical_formula_structural   BaNb10SiO19
_chemical_formula_sum   'Ba2 Nb20 Si2 O38'
_cell_volume   788.38806958
_cell_formula_units_Z   2
loop_
 _symmetry_equiv_pos_site_id
 _symmetry_equiv_pos_as_xyz
  1  'x, y, z'
loop_
 _atom_site_type_symbol
 _atom_site_label
 _atom_site_symmetry_multiplicity
 _atom_site_fract_x
 _atom_site_fract_y
 _atom_site_fract_z
 _atom_site_occupancy
  Ba  Ba0  1  0.66666700  0.33333300  0.59288058  1
  Ba  Ba1  1  0.33333300  0.66666700  0.09288058  1
  Nb  Nb2  1  0.31315445  0.44980952  0.49992381  1
  Nb  Nb3  1  0.66666700  0.33333300  0.33243677  1
  Nb  Nb4  1  0.52424028  0.63794643  0.33889938  1
  Nb  Nb5  1  0.55019048  0.86334493  0.49992381  1
  Nb  Nb6  1  0.04721310  0.22760827  0.67348889  1
  Nb  Nb7  1  0.88629385  0.52424028  0.83889938  1
  Nb  Nb8  1  0.13665507  0.68684555  0.49992381  1
  Nb  Nb9  1  0.22760827  0.18039517  0.17348889  1
  Nb  Nb10  1  0.36205357  0.88629385  0.33889938  1
  Nb  Nb11  1  0.63794643  0.11370615  0.83889938  1
  Nb  Nb12  1  0.47575972  0.36205357  0.83889938  1
  Nb  Nb13  1  0.81960483  0.04721310  0.17348889  1
  Nb  Nb14  1  0.44980952  0.13665507  0.99992381  1
  Nb  Nb15  1  0.33333300  0.66666700  0.83243677  1
  Nb  Nb16  1  0.11370615  0.47575972  0.33889938  1
  Nb  Nb17  1  0.68684555  0.55019048  0.99992381  1
  Nb  Nb18  1  0.18039517  0.95278690  0.67348889  1
  Nb  Nb19  1  0.77239173  0.81960483  0.67348889  1
  Nb  Nb20  1  0.95278690  0.77239173  0.17348889  1
  Nb  Nb21  1  0.86334493  0.31315445  0.99992381  1
  Si  Si22  1  0.00000000  0.00000000  0.88961201  1
  Si  Si23  1  0.00000000  0.00000000  0.38961201  1
  O  O24  1  0.00000000  0.00000000  0.27613972  1
  O  O25  1  0.92066644  0.77212227  0.91928340  1
  O  O26  1  0.86609911  0.30188634  0.75308649  1
  O  O27  1  0.77212227  0.85145583  0.41928340  1
  O  O28  1  0.13390089  0.69811366  0.25308649  1
  O  O29  1  0.69811366  0.56421278  0.75308649  1
  O  O30  1  0.54721598  0.64185512  0.58090294  1
  O  O31  1  0.59276508  0.09953823  0.42005203  1
  O  O32  1  0.85145583  0.07933356  0.91928340  1
  O  O33  1  0.49322685  0.59276508  0.92005203  1
  O  O34  1  0.40723492  0.90046177  0.92005203  1
  O  O35  1  0.90536086  0.54721598  0.08090294  1
  O  O36  1  0.25883612  0.20801227  0.59914304  1
  O  O37  1  0.57601354  0.84169162  0.76209698  1
  O  O38  1  0.05082385  0.25883612  0.09914304  1
  O  O39  1  0.09463914  0.45278402  0.58090294  1
  O  O40  1  0.30188634  0.43578722  0.25308649  1
  O  O41  1  0.43578722  0.13390089  0.75308649  1
  O  O42  1  0.90046177  0.49322685  0.42005203  1
  O  O43  1  0.45278402  0.35814488  0.08090294  1
  O  O44  1  0.00000000  0.00000000  0.77613972  1
  O  O45  1  0.94917615  0.74116388  0.59914304  1
  O  O46  1  0.42398646  0.15830838  0.26209698  1
  O  O47  1  0.73432192  0.57601354  0.26209698  1
  O  O48  1  0.79198773  0.05082385  0.59914304  1
  O  O49  1  0.74116388  0.79198773  0.09914304  1
  O  O50  1  0.64185512  0.09463914  0.08090294  1
  O  O51  1  0.35814488  0.90536086  0.58090294  1
  O  O52  1  0.84169162  0.26567808  0.26209698  1
  O  O53  1  0.56421278  0.86609911  0.25308649  1
  O  O54  1  0.15830838  0.73432192  0.76209698  1
  O  O55  1  0.22787773  0.14854417  0.91928340  1
  O  O56  1  0.26567808  0.42398646  0.76209698  1
  O  O57  1  0.09953823  0.50677315  0.92005203  1
  O  O58  1  0.20801227  0.94917615  0.09914304  1
  O  O59  1  0.14854417  0.92066644  0.41928340  1
  O  O60  1  0.07933356  0.22787773  0.41928340  1
  O  O61  1  0.50677315  0.40723492  0.42005203  1
