# generated using pymatgen
data_Na4Sc2Si4O13
_symmetry_space_group_name_H-M   'P 1'
_cell_length_a   5.35112653
_cell_length_b   14.57948708
_cell_length_c   14.35385613
_cell_angle_alpha   90.00000000
_cell_angle_beta   90.00000000
_cell_angle_gamma   90.00000000
_symmetry_Int_Tables_number   1
_chemical_formula_structural   Na4Sc2Si4O13
_chemical_formula_sum   'Na16 Sc8 Si16 O52'
_cell_volume   1119.84020200
_cell_formula_units_Z   4
loop_
 _symmetry_equiv_pos_site_id
 _symmetry_equiv_pos_as_xyz
  1  'x, y, z'
loop_
 _atom_site_type_symbol
 _atom_site_label
 _atom_site_symmetry_multiplicity
 _atom_site_fract_x
 _atom_site_fract_y
 _atom_site_fract_z
 _atom_site_occupancy
  Na  Na0  1  0.19275695  0.21153282  0.05115210  1
  Na  Na1  1  0.82377975  0.91494852  0.57765849  1
  Na  Na2  1  0.21983377  0.83523832  0.69828644  1
  Na  Na3  1  0.78016623  0.33523832  0.30171356  1
  Na  Na4  1  0.17396382  0.62219698  0.32952035  1
  Na  Na5  1  0.30724305  0.21153282  0.55115210  1
  Na  Na6  1  0.82603618  0.12219698  0.67047965  1
  Na  Na7  1  0.69275695  0.71153282  0.44884790  1
  Na  Na8  1  0.32377975  0.41494852  0.92234151  1
  Na  Na9  1  0.67622025  0.91494852  0.07765849  1
  Na  Na10  1  0.17622025  0.41494852  0.42234151  1
  Na  Na11  1  0.71983377  0.33523832  0.80171356  1
  Na  Na12  1  0.28016623  0.83523832  0.19828644  1
  Na  Na13  1  0.80724305  0.71153282  0.94884790  1
  Na  Na14  1  0.32603618  0.62219698  0.82952035  1
  Na  Na15  1  0.67396382  0.12219698  0.17047965  1
  Sc  Sc16  1  0.31001972  0.42058322  0.66976199  1
  Sc  Sc17  1  0.18998028  0.42058322  0.16976199  1
  Sc  Sc18  1  0.65007954  0.12714534  0.92073537  1
  Sc  Sc19  1  0.81001972  0.92058322  0.83023801  1
  Sc  Sc20  1  0.84992046  0.12714534  0.42073537  1
  Sc  Sc21  1  0.34992046  0.62714534  0.07926463  1
  Sc  Sc22  1  0.15007954  0.62714534  0.57926463  1
  Sc  Sc23  1  0.68998028  0.92058322  0.33023801  1
  Si  Si24  1  0.64925759  0.50004649  0.47749276  1
  Si  Si25  1  0.70109908  0.32002703  0.05846910  1
  Si  Si26  1  0.67269483  0.54587981  0.27313365  1
  Si  Si27  1  0.29890092  0.82002703  0.94153090  1
  Si  Si28  1  0.85074241  0.50004649  0.97749276  1
  Si  Si29  1  0.35074241  1.00004649  0.52250724  1
  Si  Si30  1  0.32730517  0.04587981  0.72686635  1
  Si  Si31  1  0.82730517  0.54587981  0.77313365  1
  Si  Si32  1  0.17465243  0.22778418  0.80638730  1
  Si  Si33  1  0.17269483  0.04587981  0.22686635  1
  Si  Si34  1  0.79890092  0.32002703  0.55846910  1
  Si  Si35  1  0.32534757  0.22778418  0.30638730  1
  Si  Si36  1  0.20109908  0.82002703  0.44153090  1
  Si  Si37  1  0.82534757  0.72778418  0.19361270  1
  Si  Si38  1  0.67465243  0.72778418  0.69361270  1
  Si  Si39  1  0.14925759  1.00004649  0.02250724  1
  O  O40  1  0.11296578  0.84113513  0.85512979  1
  O  O41  1  0.51857832  0.52418442  0.37342514  1
  O  O42  1  0.43246643  0.98907498  0.22898947  1
  O  O43  1  0.20752382  0.88731353  0.03248643  1
  O  O44  1  0.31687001  0.33610690  0.27562501  1
  O  O45  1  0.68312999  0.83610690  0.72437499  1
  O  O46  1  0.79247618  0.38731353  0.96751357  1
  O  O47  1  0.29247618  0.88731353  0.53248643  1
  O  O48  1  0.88910789  0.19392654  0.82650910  1
  O  O49  1  0.36637499  0.21655831  0.89302839  1
  O  O50  1  0.24471242  0.71193749  0.46863119  1
  O  O51  1  0.03735585  0.53073620  0.69190632  1
  O  O52  1  0.56753357  0.48907498  0.77101053  1
  O  O53  1  0.06753357  0.98907498  0.72898947  1
  O  O54  1  0.40865224  0.34705124  0.07461399  1
  O  O55  1  0.92554807  0.01555257  0.94651270  1
  O  O56  1  0.07445193  0.51555257  0.05348730  1
  O  O57  1  0.90865224  0.84705124  0.42538601  1
  O  O58  1  0.27080796  0.15900733  0.71744018  1
  O  O59  1  0.93246643  0.48907498  0.27101053  1
  O  O60  1  0.61089211  0.19392654  0.32650910  1
  O  O61  1  0.53735585  0.03073620  0.80809368  1
  O  O62  1  0.42554807  0.51555257  0.55348730  1
  O  O63  1  0.75528758  0.21193749  0.53136881  1
  O  O64  1  0.40384459  0.05813265  0.01475801  1
  O  O65  1  0.98142168  0.52418442  0.87342514  1
  O  O66  1  0.11089211  0.69392654  0.17349090  1
  O  O67  1  0.57445193  0.01555257  0.44651270  1
  O  O68  1  0.09615541  0.05813265  0.51475801  1
  O  O69  1  0.88703422  0.34113513  0.14487021  1
  O  O70  1  0.63362501  0.71655831  0.10697161  1
  O  O71  1  0.59134776  0.84705124  0.92538601  1
  O  O72  1  0.72919204  0.65900733  0.28255982  1
  O  O73  1  0.09134776  0.34705124  0.57461399  1
  O  O74  1  0.90384459  0.55813265  0.48524199  1
  O  O75  1  0.38910789  0.69392654  0.67349090  1
  O  O76  1  0.25528758  0.71193749  0.96863119  1
  O  O77  1  0.81687001  0.83610690  0.22437499  1
  O  O78  1  0.22919204  0.15900733  0.21744018  1
  O  O79  1  0.77080796  0.65900733  0.78255982  1
  O  O80  1  0.61296578  0.34113513  0.64487021  1
  O  O81  1  0.74471242  0.21193749  0.03136881  1
  O  O82  1  0.18312999  0.33610690  0.77562501  1
  O  O83  1  0.13362501  0.21655831  0.39302839  1
  O  O84  1  0.01857832  0.02418442  0.12657486  1
  O  O85  1  0.86637499  0.71655831  0.60697161  1
  O  O86  1  0.46264415  0.53073620  0.19190632  1
  O  O87  1  0.96264415  0.03073620  0.30809368  1
  O  O88  1  0.59615541  0.55813265  0.98524199  1
  O  O89  1  0.38703422  0.84113513  0.35512979  1
  O  O90  1  0.48142168  0.02418442  0.62657486  1
  O  O91  1  0.70752382  0.38731353  0.46751357  1
