# generated using pymatgen
data_AlSCl7
_symmetry_space_group_name_H-M   'P 1'
_cell_length_a   6.45250590
_cell_length_b   6.55440828
_cell_length_c   13.60725853
_cell_angle_alpha   102.86860516
_cell_angle_beta   90.00000000
_cell_angle_gamma   90.00000000
_symmetry_Int_Tables_number   1
_chemical_formula_structural   AlSCl7
_chemical_formula_sum   'Al2 S2 Cl14'
_cell_volume   561.02885941
_cell_formula_units_Z   2
loop_
 _symmetry_equiv_pos_site_id
 _symmetry_equiv_pos_as_xyz
  1  'x, y, z'
loop_
 _atom_site_type_symbol
 _atom_site_label
 _atom_site_symmetry_multiplicity
 _atom_site_fract_x
 _atom_site_fract_y
 _atom_site_fract_z
 _atom_site_occupancy
  Al  Al0  1  0.49044374  0.44542924  0.85715949  1
  Al  Al1  1  0.50955626  0.44542924  0.35715949  1
  S  S2  1  0.07451287  0.12338373  0.68849336  1
  S  S3  1  0.92548713  0.12338373  0.18849336  1
  Cl  Cl4  1  0.72014903  0.95132772  0.09247903  1
  Cl  Cl5  1  0.11975314  0.22138965  0.09227348  1
  Cl  Cl6  1  0.36052315  0.65957938  0.98547196  1
  Cl  Cl7  1  0.27985097  0.95132772  0.59247903  1
  Cl  Cl8  1  0.90956568  0.89870437  0.73318662  1
  Cl  Cl9  1  0.63947685  0.65957938  0.48547196  1
  Cl  Cl10  1  0.17613146  0.47551007  0.36112393  1
  Cl  Cl11  1  0.39891284  0.12908335  0.86111964  1
  Cl  Cl12  1  0.82386854  0.47551007  0.86112393  1
  Cl  Cl13  1  0.60108716  0.12908335  0.36111964  1
  Cl  Cl14  1  0.62553907  0.50389249  0.21659249  1
  Cl  Cl15  1  0.88024686  0.22138965  0.59227348  1
  Cl  Cl16  1  0.37446093  0.50389249  0.71659249  1
  Cl  Cl17  1  0.09043432  0.89870437  0.23318662  1
