# generated using pymatgen
data_Ba2B5ClO9
_symmetry_space_group_name_H-M   'P 1'
_cell_length_a   6.76226366
_cell_length_b   11.78662579
_cell_length_c   11.72438271
_cell_angle_alpha   90.00000000
_cell_angle_beta   90.00000000
_cell_angle_gamma   90.00000000
_symmetry_Int_Tables_number   1
_chemical_formula_structural   Ba2B5ClO9
_chemical_formula_sum   'Ba8 B20 Cl4 O36'
_cell_volume   934.48337980
_cell_formula_units_Z   4
loop_
 _symmetry_equiv_pos_site_id
 _symmetry_equiv_pos_as_xyz
  1  'x, y, z'
loop_
 _atom_site_type_symbol
 _atom_site_label
 _atom_site_symmetry_multiplicity
 _atom_site_fract_x
 _atom_site_fract_y
 _atom_site_fract_z
 _atom_site_occupancy
  Ba  Ba0  1  0.00680194  0.97995404  0.26831987  1
  Ba  Ba1  1  0.35152835  0.25513530  0.54273286  1
  Ba  Ba2  1  0.00680194  0.02004596  0.73168013  1
  Ba  Ba3  1  0.85152835  0.24486470  0.04273286  1
  Ba  Ba4  1  0.85152835  0.75513530  0.95726714  1
  Ba  Ba5  1  0.35152835  0.74486470  0.45726714  1
  Ba  Ba6  1  0.50680194  0.52004596  0.76831987  1
  Ba  Ba7  1  0.50680194  0.47995404  0.23168013  1
  B  B8  1  0.15692443  0.72780252  0.18671519  1
  B  B9  1  0.50207273  0.18148908  0.79891313  1
  B  B10  1  0.86997006  0.24834593  0.48908653  1
  B  B11  1  0.00207273  0.68148908  0.70108687  1
  B  B12  1  0.50207273  0.81851092  0.20108687  1
  B  B13  1  0.36997006  0.74834593  0.01091347  1
  B  B14  1  0.03633607  0.45687316  0.72592600  1
  B  B15  1  0.53633607  0.95687316  0.77407400  1
  B  B16  1  0.65692443  0.77219748  0.68671519  1
  B  B17  1  0.32251808  0.78641884  0.78563435  1
  B  B18  1  0.82251808  0.28641884  0.71436565  1
  B  B19  1  0.00207273  0.31851092  0.29891313  1
  B  B20  1  0.15692443  0.27219748  0.81328481  1
  B  B21  1  0.53633607  0.04312684  0.22592600  1
  B  B22  1  0.03633607  0.54312684  0.27407400  1
  B  B23  1  0.86997006  0.75165407  0.51091347  1
  B  B24  1  0.65692443  0.22780252  0.31328481  1
  B  B25  1  0.36997006  0.25165407  0.98908653  1
  B  B26  1  0.32251808  0.21358116  0.21436565  1
  B  B27  1  0.82251808  0.71358116  0.28563435  1
  Cl  Cl28  1  0.99332065  0.00000000  0.00000000  1
  Cl  Cl29  1  0.73070750  0.50000000  0.00000000  1
  Cl  Cl30  1  0.23070750  0.00000000  0.50000000  1
  Cl  Cl31  1  0.49332065  0.50000000  0.50000000  1
  O  O32  1  0.01970599  0.70463921  0.57550704  1
  O  O33  1  0.61059296  0.26880312  0.73150336  1
  O  O34  1  0.69098609  0.11891984  0.24973241  1
  O  O35  1  0.28989310  0.18448392  0.76623219  1
  O  O36  1  0.59069705  0.93124801  0.22532444  1
  O  O37  1  0.51970599  0.20463921  0.92449296  1
  O  O38  1  0.69098609  0.88108016  0.75026759  1
  O  O39  1  0.11059296  0.23119688  0.23150336  1
  O  O40  1  0.11059296  0.76880312  0.76849664  1
  O  O41  1  0.78989310  0.68448392  0.73376781  1
  O  O42  1  0.90211216  0.23257207  0.60463643  1
  O  O43  1  0.09069705  0.56875199  0.72532444  1
  O  O44  1  0.78989310  0.31551608  0.26623219  1
  O  O45  1  0.35112128  0.91379895  0.79324024  1
  O  O46  1  0.40211216  0.73257207  0.89536357  1
  O  O47  1  0.01970599  0.29536079  0.42449296  1
  O  O48  1  0.19980504  0.70921629  0.06235863  1
  O  O49  1  0.44705059  0.73925328  0.69371913  1
  O  O50  1  0.85112128  0.58620105  0.29324024  1
  O  O51  1  0.35112128  0.08620105  0.20675976  1
  O  O52  1  0.44705059  0.26074672  0.30628087  1
  O  O53  1  0.69980504  0.79078371  0.56235863  1
  O  O54  1  0.40211216  0.26742793  0.10463643  1
  O  O55  1  0.94705059  0.76074672  0.19371913  1
  O  O56  1  0.90211216  0.76742793  0.39536357  1
  O  O57  1  0.09069705  0.43124801  0.27467556  1
  O  O58  1  0.19098609  0.38108016  0.74973241  1
  O  O59  1  0.61059296  0.73119688  0.26849664  1
  O  O60  1  0.59069705  0.06875199  0.77467556  1
  O  O61  1  0.94705059  0.23925328  0.80628087  1
  O  O62  1  0.19980504  0.29078371  0.93764137  1
  O  O63  1  0.69980504  0.20921629  0.43764137  1
  O  O64  1  0.19098609  0.61891984  0.25026759  1
  O  O65  1  0.85112128  0.41379895  0.70675976  1
  O  O66  1  0.28989310  0.81551608  0.23376781  1
  O  O67  1  0.51970599  0.79536079  0.07550704  1
