# generated using pymatgen
data_Ba6Ti5S15O
_symmetry_space_group_name_H-M   'P 1'
_cell_length_a   6.77247694
_cell_length_b   8.60278174
_cell_length_c   24.01205587
_cell_angle_alpha   90.00000000
_cell_angle_beta   90.00000000
_cell_angle_gamma   113.18001822
_symmetry_Int_Tables_number   1
_chemical_formula_structural   Ba6Ti5S15O
_chemical_formula_sum   'Ba12 Ti10 S30 O2'
_cell_volume   1286.05675092
_cell_formula_units_Z   2
loop_
 _symmetry_equiv_pos_site_id
 _symmetry_equiv_pos_as_xyz
  1  'x, y, z'
loop_
 _atom_site_type_symbol
 _atom_site_label
 _atom_site_symmetry_multiplicity
 _atom_site_fract_x
 _atom_site_fract_y
 _atom_site_fract_z
 _atom_site_occupancy
  Ba  Ba0  1  0.18109704  0.80166555  0.32212711  1
  Ba  Ba1  1  0.81890296  0.19833445  0.82212711  1
  Ba  Ba2  1  0.31475358  0.21686844  0.16384253  1
  Ba  Ba3  1  0.44460839  0.28926182  0.48288592  1
  Ba  Ba4  1  0.62056852  0.80166555  0.17787289  1
  Ba  Ba5  1  0.55539161  0.71073818  0.98288592  1
  Ba  Ba6  1  0.84465343  0.28926182  0.01711408  1
  Ba  Ba7  1  0.37943148  0.19833445  0.67787289  1
  Ba  Ba8  1  0.68524642  0.78313156  0.66384253  1
  Ba  Ba9  1  0.09788514  0.78313156  0.83615747  1
  Ba  Ba10  1  0.15534657  0.71073818  0.51711408  1
  Ba  Ba11  1  0.90211486  0.21686844  0.33615747  1
  Ti  Ti12  1  0.11100125  0.74335766  0.09462001  1
  Ti  Ti13  1  0.44890200  0.51364884  0.80497870  1
  Ti  Ti14  1  0.06474683  0.51364884  0.69502130  1
  Ti  Ti15  1  0.17392752  0.00000000  0.00000000  1
  Ti  Ti16  1  0.36764359  0.25664234  0.90537999  1
  Ti  Ti17  1  0.88899875  0.25664234  0.59462001  1
  Ti  Ti18  1  0.63235641  0.74335766  0.40537999  1
  Ti  Ti19  1  0.82607248  0.00000000  0.50000000  1
  Ti  Ti20  1  0.93525317  0.48635116  0.19502130  1
  Ti  Ti21  1  0.55109800  0.48635116  0.30497870  1
  S  S22  1  0.94928115  0.30526605  0.49360288  1
  S  S23  1  0.69227903  0.47444710  0.89018280  1
  S  S24  1  0.21522851  0.47626804  0.88433481  1
  S  S25  1  0.05071885  0.69473395  0.99360288  1
  S  S26  1  0.73896047  0.52373196  0.11566519  1
  S  S27  1  0.60930554  0.80118386  0.80384776  1
  S  S28  1  0.06377338  0.03475318  0.57362800  1
  S  S29  1  0.80812169  0.19881614  0.19615224  1
  S  S30  1  0.43949386  0.97185766  0.07255228  1
  S  S31  1  0.35598490  0.30526605  0.00639712  1
  S  S32  1  0.30772097  0.52555290  0.39018280  1
  S  S33  1  0.78216807  0.47444710  0.60981720  1
  S  S34  1  0.74427261  0.48854523  0.75000000  1
  S  S35  1  0.97097981  0.03475318  0.92637200  1
  S  S36  1  0.69694619  0.82338707  0.30922234  1
  S  S37  1  0.87355912  0.17661293  0.69077766  1
  S  S38  1  0.78477149  0.52373196  0.38433481  1
  S  S39  1  0.93622662  0.96524682  0.07362800  1
  S  S40  1  0.39069446  0.19881614  0.30384776  1
  S  S41  1  0.53236380  0.97185766  0.42744772  1
  S  S42  1  0.25572739  0.51145477  0.25000000  1
  S  S43  1  0.19187831  0.80118386  0.69615224  1
  S  S44  1  0.64401510  0.69473395  0.50639712  1
  S  S45  1  0.02902019  0.96524682  0.42637200  1
  S  S46  1  0.21783193  0.52555290  0.10981720  1
  S  S47  1  0.30305381  0.17661293  0.80922234  1
  S  S48  1  0.46763620  0.02814234  0.92744772  1
  S  S49  1  0.56050614  0.02814234  0.57255228  1
  S  S50  1  0.26103953  0.47626804  0.61566519  1
  S  S51  1  0.12644088  0.82338707  0.19077766  1
  O  O52  1  0.24377996  0.48755993  0.75000000  1
  O  O53  1  0.75622004  0.51244007  0.25000000  1
