# generated using pymatgen
data_KDy(SeO4)2
_symmetry_space_group_name_H-M   'P 1'
_cell_length_a   5.72349503
_cell_length_b   9.10603384
_cell_length_c   27.83295966
_cell_angle_alpha   90.00000000
_cell_angle_beta   90.00000000
_cell_angle_gamma   90.00000000
_symmetry_Int_Tables_number   1
_chemical_formula_structural   KDy(SeO4)2
_chemical_formula_sum   'K8 Dy8 Se16 O64'
_cell_volume   1450.60763880
_cell_formula_units_Z   8
loop_
 _symmetry_equiv_pos_site_id
 _symmetry_equiv_pos_as_xyz
  1  'x, y, z'
loop_
 _atom_site_type_symbol
 _atom_site_label
 _atom_site_symmetry_multiplicity
 _atom_site_fract_x
 _atom_site_fract_y
 _atom_site_fract_z
 _atom_site_occupancy
  K  K0  1  0.28413068  0.78291674  0.33299580  1
  K  K1  1  0.74547062  0.44938804  0.91810603  1
  K  K2  1  0.78413068  0.28291674  0.16700420  1
  K  K3  1  0.75452938  0.44938804  0.41810603  1
  K  K4  1  0.25452938  0.94938804  0.08189397  1
  K  K5  1  0.21586932  0.78291674  0.83299580  1
  K  K6  1  0.71586932  0.28291674  0.66700420  1
  K  K7  1  0.24547062  0.94938804  0.58189397  1
  Dy  Dy8  1  0.27683257  0.41806592  0.05267736  1
  Dy  Dy9  1  0.72316743  0.91806592  0.94732264  1
  Dy  Dy10  1  0.77683257  0.91806592  0.44732264  1
  Dy  Dy11  1  0.32490139  0.32248839  0.30084658  1
  Dy  Dy12  1  0.82490139  0.82248839  0.19915342  1
  Dy  Dy13  1  0.17509861  0.32248839  0.80084658  1
  Dy  Dy14  1  0.67509861  0.82248839  0.69915342  1
  Dy  Dy15  1  0.22316743  0.41806592  0.55267736  1
  Se  Se16  1  0.81030951  0.05554121  0.31707358  1
  Se  Se17  1  0.21018131  0.02108756  0.70762535  1
  Se  Se18  1  0.23655160  0.71740104  0.45619612  1
  Se  Se19  1  0.71018131  0.52108756  0.79237465  1
  Se  Se20  1  0.68969049  0.05554121  0.81707358  1
  Se  Se21  1  0.73655160  0.21740104  0.04380388  1
  Se  Se22  1  0.78981869  0.52108756  0.29237465  1
  Se  Se23  1  0.73239566  0.68834196  0.56665421  1
  Se  Se24  1  0.23239566  0.18834196  0.93334579  1
  Se  Se25  1  0.26344840  0.71740104  0.95619612  1
  Se  Se26  1  0.76344840  0.21740104  0.54380388  1
  Se  Se27  1  0.28981869  0.02108756  0.20762535  1
  Se  Se28  1  0.31030951  0.55554121  0.18292642  1
  Se  Se29  1  0.76760434  0.68834196  0.06665421  1
  Se  Se30  1  0.18969049  0.55554121  0.68292642  1
  Se  Se31  1  0.26760434  0.18834196  0.43334579  1
  O  O32  1  0.79853948  0.91903117  0.35711482  1
  O  O33  1  0.70146052  0.91903117  0.85711482  1
  O  O34  1  0.00481264  0.62274046  0.57190820  1
  O  O35  1  0.25682149  0.49247381  0.73767815  1
  O  O36  1  0.19899280  0.32347594  0.89331923  1
  O  O37  1  0.29853948  0.41903117  0.14288518  1
  O  O38  1  0.95875110  0.55344621  0.07645146  1
  O  O39  1  0.18750827  0.25155261  0.98897681  1
  O  O40  1  0.33359273  0.86148513  0.99062019  1
  O  O41  1  0.51869241  0.24220447  0.57604763  1
  O  O42  1  0.16640727  0.86148513  0.49062019  1
  O  O43  1  0.74317851  0.99247381  0.26232185  1
  O  O44  1  0.68750827  0.75155261  0.51102319  1
  O  O45  1  0.97795831  0.97831178  0.67348686  1
  O  O46  1  0.99518736  0.12274046  0.42809180  1
  O  O47  1  0.94585066  0.52579039  0.82892628  1
  O  O48  1  0.30100720  0.32347594  0.39331923  1
  O  O49  1  0.33199902  0.18849616  0.23014848  1
  O  O50  1  0.04124890  0.05344621  0.92354854  1
  O  O51  1  0.47795831  0.47831178  0.82651314  1
  O  O52  1  0.02204169  0.47831178  0.32651314  1
  O  O53  1  0.50915790  0.21622454  0.08253482  1
  O  O54  1  0.24317851  0.49247381  0.23767815  1
  O  O55  1  0.11614907  0.68444047  0.16817539  1
  O  O56  1  0.54124890  0.55344621  0.57645146  1
  O  O57  1  0.77562201  0.38582945  0.75457168  1
  O  O58  1  0.27562201  0.88582945  0.74542832  1
  O  O59  1  0.01869241  0.74220447  0.92395237  1
  O  O60  1  0.66800098  0.68849616  0.76985152  1
  O  O61  1  0.45875110  0.05344621  0.42354854  1
  O  O62  1  0.07856020  0.12795029  0.31727609  1
  O  O63  1  0.75682149  0.99247381  0.76232185  1
  O  O64  1  0.16800098  0.18849616  0.73014848  1
  O  O65  1  0.50481264  0.12274046  0.92809180  1
  O  O66  1  0.83359273  0.36148513  0.50937981  1
  O  O67  1  0.92143980  0.62795029  0.68272391  1
  O  O68  1  0.98130759  0.24220447  0.07604763  1
  O  O69  1  0.31249173  0.25155261  0.48897681  1
  O  O70  1  0.66640727  0.36148513  0.00937981  1
  O  O71  1  0.69899280  0.82347594  0.60668077  1
  O  O72  1  0.99084210  0.21622454  0.58253482  1
  O  O73  1  0.48130759  0.74220447  0.42395237  1
  O  O74  1  0.83199902  0.68849616  0.26985152  1
  O  O75  1  0.00915790  0.71622454  0.41746518  1
  O  O76  1  0.20146052  0.41903117  0.64288518  1
  O  O77  1  0.75449805  0.05421629  0.01728882  1
  O  O78  1  0.44585066  0.02579039  0.67107372  1
  O  O79  1  0.22437799  0.88582945  0.24542832  1
  O  O80  1  0.38385093  0.68444047  0.66817539  1
  O  O81  1  0.57856020  0.62795029  0.18272391  1
  O  O82  1  0.88385093  0.18444047  0.83182461  1
  O  O83  1  0.61614907  0.18444047  0.33182461  1
  O  O84  1  0.81249173  0.75155261  0.01102319  1
  O  O85  1  0.05414934  0.02579039  0.17107372  1
  O  O86  1  0.55414934  0.52579039  0.32892628  1
  O  O87  1  0.49518736  0.62274046  0.07190820  1
  O  O88  1  0.72437799  0.38582945  0.25457168  1
  O  O89  1  0.25449805  0.55421629  0.48271118  1
  O  O90  1  0.24550195  0.55421629  0.98271118  1
  O  O91  1  0.80100720  0.82347594  0.10668077  1
  O  O92  1  0.52204169  0.97831178  0.17348686  1
  O  O93  1  0.74550195  0.05421629  0.51728882  1
  O  O94  1  0.49084210  0.71622454  0.91746518  1
  O  O95  1  0.42143980  0.12795029  0.81727609  1
