# generated using pymatgen
data_Na2Cd3(P2O7)2
_symmetry_space_group_name_H-M   'P 1'
_cell_length_a   5.74810233
_cell_length_b   7.15398103
_cell_length_c   7.98126590
_cell_angle_alpha   77.09694631
_cell_angle_beta   82.51295347
_cell_angle_gamma   68.23070386
_symmetry_Int_Tables_number   1
_chemical_formula_structural   Na2Cd3(P2O7)2
_chemical_formula_sum   'Na2 Cd3 P4 O14'
_cell_volume   296.69274009
_cell_formula_units_Z   1
loop_
 _symmetry_equiv_pos_site_id
 _symmetry_equiv_pos_as_xyz
  1  'x, y, z'
loop_
 _atom_site_type_symbol
 _atom_site_label
 _atom_site_symmetry_multiplicity
 _atom_site_fract_x
 _atom_site_fract_y
 _atom_site_fract_z
 _atom_site_occupancy
  Na  Na0  1  0.59143013  0.00794076  0.68274825  1
  Na  Na1  1  0.40856987  0.99205924  0.31725175  1
  Cd  Cd2  1  0.18932515  0.53391940  0.30717512  1
  Cd  Cd3  1  0.00000000  0.00000000  0.00000000  1
  Cd  Cd4  1  0.81067485  0.46608060  0.69282488  1
  P  P5  1  0.19904426  0.73190287  0.66833147  1
  P  P6  1  0.65270126  0.67326176  0.07728382  1
  P  P7  1  0.34729874  0.32673824  0.92271618  1
  P  P8  1  0.80095574  0.26809713  0.33166853  1
  O  O9  1  0.25454927  0.56990178  0.85128851  1
  O  O10  1  0.54964864  0.26566464  0.42332714  1
  O  O11  1  0.68345577  0.69942872  0.88352225  1
  O  O12  1  0.96212936  0.06771903  0.27454077  1
  O  O13  1  0.94241737  0.34515501  0.43749663  1
  O  O14  1  0.05758263  0.65484499  0.56250337  1
  O  O15  1  0.31654423  0.30057128  0.11647775  1
  O  O16  1  0.45035136  0.73433536  0.57667286  1
  O  O17  1  0.62556220  0.23959299  0.85484238  1
  O  O18  1  0.81366246  0.76196339  0.15538666  1
  O  O19  1  0.18633754  0.23803661  0.84461334  1
  O  O20  1  0.37443780  0.76040701  0.14515762  1
  O  O21  1  0.03787064  0.93228097  0.72545923  1
  O  O22  1  0.74545073  0.43009822  0.14871149  1
