# generated using pymatgen
data_SnPO3F
_symmetry_space_group_name_H-M   'P 1'
_cell_length_a   4.79256685
_cell_length_b   6.40396521
_cell_length_c   13.11275863
_cell_angle_alpha   90.00000000
_cell_angle_beta   90.00000000
_cell_angle_gamma   100.23662457
_symmetry_Int_Tables_number   1
_chemical_formula_structural   SnPO3F
_chemical_formula_sum   'Sn4 P4 O12 F4'
_cell_volume   396.04322784
_cell_formula_units_Z   4
loop_
 _symmetry_equiv_pos_site_id
 _symmetry_equiv_pos_as_xyz
  1  'x, y, z'
loop_
 _atom_site_type_symbol
 _atom_site_label
 _atom_site_symmetry_multiplicity
 _atom_site_fract_x
 _atom_site_fract_y
 _atom_site_fract_z
 _atom_site_occupancy
  Sn  Sn0  1  0.96857804  0.71324180  0.36865444  1
  Sn  Sn1  1  0.03142196  0.28675820  0.63134556  1
  Sn  Sn2  1  0.96857804  0.21324180  0.13134556  1
  Sn  Sn3  1  0.03142196  0.78675820  0.86865444  1
  P  P4  1  0.61558498  0.16415453  0.85100162  1
  P  P5  1  0.38441502  0.33584547  0.35100162  1
  P  P6  1  0.38441502  0.83584547  0.14899838  1
  P  P7  1  0.61558498  0.66415453  0.64899838  1
  O  O8  1  0.33187094  0.55456739  0.69391218  1
  O  O9  1  0.23352405  0.97911468  0.08288734  1
  O  O10  1  0.76647595  0.02088532  0.91711266  1
  O  O11  1  0.19649990  0.19902411  0.27392439  1
  O  O12  1  0.19649990  0.69902411  0.22607561  1
  O  O13  1  0.66812906  0.94543261  0.19391218  1
  O  O14  1  0.66812906  0.44543261  0.30608782  1
  O  O15  1  0.33187094  0.05456739  0.80608782  1
  O  O16  1  0.80350010  0.30097589  0.77392439  1
  O  O17  1  0.76647595  0.52088532  0.58288734  1
  O  O18  1  0.80350010  0.80097589  0.72607561  1
  O  O19  1  0.23352405  0.47911468  0.41711266  1
  F  F20  1  0.53619787  0.83419190  0.57039781  1
  F  F21  1  0.53619787  0.33419190  0.92960219  1
  F  F22  1  0.46380213  0.16580810  0.42960219  1
  F  F23  1  0.46380213  0.66580810  0.07039781  1
