# generated using pymatgen
data_Hg3As8(S4Br3)2
_symmetry_space_group_name_H-M   'P 1'
_cell_length_a   10.20096803
_cell_length_b   11.95606646
_cell_length_c   14.65615442
_cell_angle_alpha   90.00000000
_cell_angle_beta   107.97051768
_cell_angle_gamma   90.00000000
_symmetry_Int_Tables_number   1
_chemical_formula_structural   Hg3As8(S4Br3)2
_chemical_formula_sum   'Hg6 As16 S16 Br12'
_cell_volume   1700.31196836
_cell_formula_units_Z   2
loop_
 _symmetry_equiv_pos_site_id
 _symmetry_equiv_pos_as_xyz
  1  'x, y, z'
loop_
 _atom_site_type_symbol
 _atom_site_label
 _atom_site_symmetry_multiplicity
 _atom_site_fract_x
 _atom_site_fract_y
 _atom_site_fract_z
 _atom_site_occupancy
  Hg  Hg0  1  0.75863516  0.22129841  0.69360780  1
  Hg  Hg1  1  0.24136484  0.72129841  0.80639220  1
  Hg  Hg2  1  0.75863516  0.27870159  0.19360780  1
  Hg  Hg3  1  0.24136484  0.77870159  0.30639220  1
  Hg  Hg4  1  0.00000000  0.50000000  0.50000000  1
  Hg  Hg5  1  0.00000000  0.00000000  0.00000000  1
  As  As6  1  0.37822368  0.08519850  0.58159718  1
  As  As7  1  0.86813574  0.82560869  0.47576964  1
  As  As8  1  0.61283982  0.63450758  0.49321037  1
  As  As9  1  0.86813574  0.67439131  0.97576964  1
  As  As10  1  0.37201550  0.14584230  0.18258664  1
  As  As11  1  0.13186426  0.32560869  0.02423036  1
  As  As12  1  0.62798450  0.85415770  0.81741336  1
  As  As13  1  0.62798450  0.64584230  0.31741336  1
  As  As14  1  0.13186426  0.17439131  0.52423036  1
  As  As15  1  0.62177632  0.91480150  0.41840282  1
  As  As16  1  0.38716018  0.36549242  0.50678963  1
  As  As17  1  0.61283982  0.86549242  0.99321037  1
  As  As18  1  0.38716018  0.13450758  0.00678963  1
  As  As19  1  0.62177632  0.58519850  0.91840282  1
  As  As20  1  0.37822368  0.41480150  0.08159718  1
  As  As21  1  0.37201550  0.35415770  0.68258664  1
  S  S22  1  0.53802604  0.81992055  0.27842235  1
  S  S23  1  0.46197396  0.31992055  0.22157765  1
  S  S24  1  0.53802604  0.68007945  0.77842235  1
  S  S25  1  0.51566112  0.69656349  -0.00035148  1
  S  S26  1  0.46197396  0.18007945  0.72157765  1
  S  S27  1  0.82773417  0.69376659  0.57478093  1
  S  S28  1  0.84776335  0.70726150  0.35161947  1
  S  S29  1  0.17226583  0.30623341  0.42521907  1
  S  S30  1  0.17226583  0.19376659  0.92521907  1
  S  S31  1  0.15223665  0.20726150  0.14838053  1
  S  S32  1  0.84776335  0.79273850  0.85161947  1
  S  S33  1  0.51566112  0.80343651  0.49964852  1
  S  S34  1  0.48433888  0.30343651  1.00035148  1
  S  S35  1  0.82773417  0.80623341  0.07478093  1
  S  S36  1  0.48433888  0.19656349  0.50035148  1
  S  S37  1  0.15223665  0.29273850  0.64838053  1
  Br  Br38  1  0.84107146  0.46533326  0.16412103  1
  Br  Br39  1  0.21279259  0.61665874  0.55622402  1
  Br  Br40  1  0.15892854  0.96533326  0.33587897  1
  Br  Br41  1  0.21279259  0.88334126  0.05622402  1
  Br  Br42  1  0.26253885  0.57873625  0.26914713  1
  Br  Br43  1  0.84107146  0.03466674  0.66412103  1
  Br  Br44  1  0.78720741  0.11665874  0.94377598  1
  Br  Br45  1  0.78720741  0.38334126  0.44377598  1
  Br  Br46  1  0.26253885  0.92126375  0.76914713  1
  Br  Br47  1  0.73746115  0.07873625  0.23085287  1
  Br  Br48  1  0.15892854  0.53466674  0.83587897  1
  Br  Br49  1  0.73746115  0.42126375  0.73085287  1
