# generated using pymatgen
data_CsZr(NO3)5
_symmetry_space_group_name_H-M   'P 1'
_cell_length_a   7.77939036
_cell_length_b   11.96633449
_cell_length_c   14.88127575
_cell_angle_alpha   90.00000000
_cell_angle_beta   96.28795808
_cell_angle_gamma   90.00000000
_symmetry_Int_Tables_number   1
_chemical_formula_structural   CsZr(NO3)5
_chemical_formula_sum   'Cs4 Zr4 N20 O60'
_cell_volume   1376.97564571
_cell_formula_units_Z   4
loop_
 _symmetry_equiv_pos_site_id
 _symmetry_equiv_pos_as_xyz
  1  'x, y, z'
loop_
 _atom_site_type_symbol
 _atom_site_label
 _atom_site_symmetry_multiplicity
 _atom_site_fract_x
 _atom_site_fract_y
 _atom_site_fract_z
 _atom_site_occupancy
  Cs  Cs0  1  0.35604682  0.23738049  0.99908633  1
  Cs  Cs1  1  0.14395318  0.73738049  0.50091367  1
  Cs  Cs2  1  0.85604682  0.26261951  0.49908633  1
  Cs  Cs3  1  0.64395318  0.76261951  0.00091367  1
  Zr  Zr4  1  0.46552776  0.58415094  0.27187938  1
  Zr  Zr5  1  0.96552776  0.91584906  0.77187938  1
  Zr  Zr6  1  0.53447224  0.41584906  0.72812062  1
  Zr  Zr7  1  0.03447224  0.08415094  0.22812062  1
  N  N8  1  0.68011117  0.54908350  0.60526257  1
  N  N9  1  0.18011117  0.95091650  0.10526257  1
  N  N10  1  0.65039910  0.85505723  0.68379916  1
  N  N11  1  0.15039910  0.64494277  0.18379916  1
  N  N12  1  0.58996499  0.47755514  0.12382054  1
  N  N13  1  0.78957460  0.53402150  0.35867228  1
  N  N14  1  0.31988883  0.45091650  0.39473743  1
  N  N15  1  0.84960090  0.35505723  0.81620084  1
  N  N16  1  0.99915203  0.31326198  0.20161009  1
  N  N17  1  0.00084797  0.68673802  0.79838991  1
  N  N18  1  0.34960090  0.14494277  0.31620084  1
  N  N19  1  0.81988883  0.04908350  0.89473743  1
  N  N20  1  0.49915203  0.18673802  0.70161009  1
  N  N21  1  0.71042540  0.03402150  0.14132772  1
  N  N22  1  0.41003501  0.52244486  0.87617946  1
  N  N23  1  0.91003501  0.97755514  0.37617946  1
  N  N24  1  0.28957460  0.96597850  0.85867228  1
  N  N25  1  0.50084797  0.81326198  0.29838991  1
  N  N26  1  0.08996499  0.02244486  0.62382054  1
  N  N27  1  0.21042540  0.46597850  0.64132772  1
  O  O28  1  0.02567128  0.58688557  0.80742494  1
  O  O29  1  0.47432872  0.08688557  0.69257506  1
  O  O30  1  0.68845984  0.84911800  0.77112965  1
  O  O31  1  0.22536500  0.10196801  0.35638308  1
  O  O32  1  0.42984414  0.98874441  0.89968903  1
  O  O33  1  0.68521515  0.57265516  0.69019295  1
  O  O34  1  0.14324525  0.06072755  0.55588832  1
  O  O35  1  0.26585616  0.38912883  0.45019781  1
  O  O36  1  0.52567128  0.91311443  0.30742494  1
  O  O37  1  0.48556791  0.17673765  0.35528938  1
  O  O38  1  0.98925181  0.26100521  0.27791296  1
  O  O39  1  0.92984414  0.51125559  0.39968903  1
  O  O40  1  0.17220283  0.04102922  0.83610800  1
  O  O41  1  0.60914377  0.45249652  0.58444636  1
  O  O42  1  0.03673823  0.24794337  0.13763337  1
  O  O43  1  0.76585616  0.11087117  0.95019781  1
  O  O44  1  0.75637849  0.13378636  0.16536036  1
  O  O45  1  0.98556791  0.32326235  0.85528938  1
  O  O46  1  0.72536500  0.39803199  0.85638308  1
  O  O47  1  0.74362151  0.63378636  0.33463964  1
  O  O48  1  0.81478485  0.07265516  0.80980705  1
  O  O49  1  0.18845984  0.65088200  0.27112965  1
  O  O50  1  0.77463500  0.89803199  0.64361692  1
  O  O51  1  0.85675475  0.93927245  0.44411168  1
  O  O52  1  0.86520155  0.07659545  0.34506123  1
  O  O53  1  0.36520155  0.42340455  0.84506123  1
  O  O54  1  0.13479845  0.92340455  0.65493877  1
  O  O55  1  0.32779717  0.54102922  0.66389200  1
  O  O56  1  0.98551898  0.07375017  0.67035292  1
  O  O57  1  0.10914377  0.04750348  0.08444636  1
  O  O58  1  0.31478485  0.42734484  0.30980705  1
  O  O59  1  0.51074819  0.76100521  0.22208704  1
  O  O60  1  0.01443209  0.67673765  0.14471062  1
  O  O61  1  0.96326177  0.75205663  0.86236663  1
  O  O62  1  0.64324525  0.43927245  0.05588832  1
  O  O63  1  0.51448102  0.57375017  0.82964708  1
  O  O64  1  0.97432872  0.41311443  0.19257506  1
  O  O65  1  0.23414384  0.88912883  0.04980219  1
  O  O66  1  0.51443209  0.82326235  0.64471062  1
  O  O67  1  0.81154016  0.34911800  0.72887035  1
  O  O68  1  0.48551898  0.42624983  0.17035292  1
  O  O69  1  0.01074819  0.73899479  0.72208704  1
  O  O70  1  0.27463500  0.60196801  0.14361692  1
  O  O71  1  0.39085623  0.54750348  0.41555364  1
  O  O72  1  0.57015586  0.01125559  0.10031097  1
  O  O73  1  0.07015586  0.48874441  0.60031097  1
  O  O74  1  0.24362151  0.86621364  0.83463964  1
  O  O75  1  0.46326177  0.74794337  0.36236663  1
  O  O76  1  0.73414384  0.61087117  0.54980219  1
  O  O77  1  0.48925181  0.23899479  0.77791296  1
  O  O78  1  0.89085623  0.95249652  0.91555364  1
  O  O79  1  0.35675475  0.56072755  0.94411168  1
  O  O80  1  0.82779717  0.95897078  0.16389200  1
  O  O81  1  0.18521515  0.92734484  0.19019295  1
  O  O82  1  0.25637849  0.36621364  0.66536036  1
  O  O83  1  0.53673823  0.25205663  0.63763337  1
  O  O84  1  0.63479845  0.57659545  0.15493877  1
  O  O85  1  0.31154016  0.15088200  0.22887035  1
  O  O86  1  0.01448102  0.92624983  0.32964708  1
  O  O87  1  0.67220283  0.45897078  0.33610800  1
