# generated using pymatgen
data_ZnBi2B2O7
_symmetry_space_group_name_H-M   'P 1'
_cell_length_a   4.95292205
_cell_length_b   10.95786558
_cell_length_c   11.12700829
_cell_angle_alpha   90.00000000
_cell_angle_beta   90.00000000
_cell_angle_gamma   90.00000000
_symmetry_Int_Tables_number   1
_chemical_formula_structural   ZnBi2B2O7
_chemical_formula_sum   'Zn4 Bi8 B8 O28'
_cell_volume   603.90117316
_cell_formula_units_Z   4
loop_
 _symmetry_equiv_pos_site_id
 _symmetry_equiv_pos_as_xyz
  1  'x, y, z'
loop_
 _atom_site_type_symbol
 _atom_site_label
 _atom_site_symmetry_multiplicity
 _atom_site_fract_x
 _atom_site_fract_y
 _atom_site_fract_z
 _atom_site_occupancy
  Zn  Zn0  1  0.06995786  0.74147268  0.24023651  1
  Zn  Zn1  1  0.06995786  0.24147268  0.25976349  1
  Zn  Zn2  1  0.06995786  0.25852732  0.75976349  1
  Zn  Zn3  1  0.06995786  0.75852732  0.74023651  1
  Bi  Bi4  1  0.58168420  0.32016510  0.03271088  1
  Bi  Bi5  1  0.57795210  0.51496070  0.31275026  1
  Bi  Bi6  1  0.57795210  0.48503930  0.68724974  1
  Bi  Bi7  1  0.58168420  0.67983490  0.96728912  1
  Bi  Bi8  1  0.57795210  0.98503930  0.81275026  1
  Bi  Bi9  1  0.58168420  0.17983490  0.53271088  1
  Bi  Bi10  1  0.58168420  0.82016510  0.46728912  1
  Bi  Bi11  1  0.57795210  0.01496070  0.18724974  1
  B  B12  1  0.12473454  0.51432535  0.87323495  1
  B  B13  1  0.08080365  0.38451447  0.47991673  1
  B  B14  1  0.12473454  0.98567465  0.37323495  1
  B  B15  1  0.08080365  0.88451447  0.02008327  1
  B  B16  1  0.12473454  0.01432535  0.62676505  1
  B  B17  1  0.08080365  0.11548553  0.97991673  1
  B  B18  1  0.08080365  0.61548553  0.52008327  1
  B  B19  1  0.12473454  0.48567465  0.12676505  1
  O  O20  1  0.95698392  0.50000000  0.50000000  1
  O  O21  1  0.21637923  0.50000000  0.00000000  1
  O  O22  1  0.93038103  0.19644997  0.91537193  1
  O  O23  1  0.93038103  0.69644997  0.58462807  1
  O  O24  1  0.73778197  0.19961408  0.17447220  1
  O  O25  1  0.95698392  0.00000000  0.00000000  1
  O  O26  1  0.82943575  0.47892622  0.14017168  1
  O  O27  1  0.24842326  0.08698326  0.29996722  1
  O  O28  1  0.82943575  0.52107378  0.85982832  1
  O  O29  1  0.21637923  0.00000000  0.50000000  1
  O  O30  1  0.73778197  0.30038592  0.67447220  1
  O  O31  1  0.93038103  0.80355003  0.08462807  1
  O  O32  1  0.93038103  0.30355003  0.41537193  1
  O  O33  1  0.26717876  0.87130004  0.32673677  1
  O  O34  1  0.26717876  0.12869996  0.67326323  1
  O  O35  1  0.33593530  0.63455639  0.47796831  1
  O  O36  1  0.33593530  0.86544361  0.97796831  1
  O  O37  1  0.33593530  0.13455639  0.02203169  1
  O  O38  1  0.24842326  0.58698326  0.20003278  1
  O  O39  1  0.24842326  0.91301674  0.70003278  1
  O  O40  1  0.82943575  0.97892622  0.35982832  1
  O  O41  1  0.33593530  0.36544361  0.52203169  1
  O  O42  1  0.73778197  0.69961408  0.32552780  1
  O  O43  1  0.24842326  0.41301674  0.79996722  1
  O  O44  1  0.82943575  0.02107378  0.64017168  1
  O  O45  1  0.73778197  0.80038592  0.82552780  1
  O  O46  1  0.26717876  0.37130004  0.17326323  1
  O  O47  1  0.26717876  0.62869996  0.82673677  1
