# generated using pymatgen
data_K6Be4C6O19
_symmetry_space_group_name_H-M   'P 1'
_cell_length_a   10.10427317
_cell_length_b   10.10427343
_cell_length_c   10.10427297
_cell_angle_alpha   90.80146826
_cell_angle_beta   90.80146831
_cell_angle_gamma   90.80146627
_symmetry_Int_Tables_number   1
_chemical_formula_structural   K6Be4C6O19
_chemical_formula_sum   'K12 Be8 C12 O38'
_cell_volume   1031.30364514
_cell_formula_units_Z   2
loop_
 _symmetry_equiv_pos_site_id
 _symmetry_equiv_pos_as_xyz
  1  'x, y, z'
loop_
 _atom_site_type_symbol
 _atom_site_label
 _atom_site_symmetry_multiplicity
 _atom_site_fract_x
 _atom_site_fract_y
 _atom_site_fract_z
 _atom_site_occupancy
  K  K0  1  0.82006827  0.32609143  0.97672079  1
  K  K1  1  0.17993173  0.67390857  0.02327921  1
  K  K2  1  0.35198289  0.85882727  0.46736480  1
  K  K3  1  0.32609143  0.97672079  0.82006827  1
  K  K4  1  0.53263520  0.64801711  0.14117273  1
  K  K5  1  0.64801711  0.14117273  0.53263520  1
  K  K6  1  0.97672079  0.82006827  0.32609143  1
  K  K7  1  0.46736480  0.35198289  0.85882727  1
  K  K8  1  0.14117273  0.53263520  0.64801711  1
  K  K9  1  0.85882727  0.46736480  0.35198289  1
  K  K10  1  0.67390857  0.02327921  0.17993173  1
  K  K11  1  0.02327921  0.17993173  0.67390857  1
  Be  Be12  1  0.83876735  0.68583255  0.62900802  1
  Be  Be13  1  0.31416745  0.37099198  0.16123265  1
  Be  Be14  1  0.15302013  0.15302013  0.15302013  1
  Be  Be15  1  0.68583255  0.62900802  0.83876735  1
  Be  Be16  1  0.84697987  0.84697987  0.84697987  1
  Be  Be17  1  0.62900802  0.83876735  0.68583255  1
  Be  Be18  1  0.16123265  0.31416745  0.37099198  1
  Be  Be19  1  0.37099198  0.16123265  0.31416745  1
  C  C20  1  0.66437864  0.02607506  0.86967255  1
  C  C21  1  0.68951548  0.78785351  0.43965916  1
  C  C22  1  0.43965916  0.68951548  0.78785351  1
  C  C23  1  0.31048452  0.21214649  0.56034084  1
  C  C24  1  0.56034084  0.31048452  0.21214649  1
  C  C25  1  0.97392494  0.13032745  0.33562136  1
  C  C26  1  0.21214649  0.56034084  0.31048452  1
  C  C27  1  0.02607506  0.86967255  0.66437864  1
  C  C28  1  0.33562136  0.97392494  0.13032745  1
  C  C29  1  0.13032745  0.33562136  0.97392494  1
  C  C30  1  0.86967255  0.66437864  0.02607506  1
  C  C31  1  0.78785351  0.43965916  0.68951548  1
  O  O32  1  0.38047229  0.87140394  0.07310419  1
  O  O33  1  0.66385371  0.79896830  0.31725782  1
  O  O34  1  0.33614629  0.20103170  0.68274218  1
  O  O35  1  0.07310419  0.38047229  0.87140394  1
  O  O36  1  0.25111416  0.25111416  0.25111416  1
  O  O37  1  0.86948312  0.52726198  0.63950005  1
  O  O38  1  0.24046944  0.04186164  0.07483878  1
  O  O39  1  0.68274218  0.33614629  0.20103170  1
  O  O40  1  0.51871344  0.23151060  0.30533079  1
  O  O41  1  0.01467752  0.24532472  0.38486488  1
  O  O42  1  0.79896830  0.31725782  0.66385371  1
  O  O43  1  0.87140394  0.07310419  0.38047229  1
  O  O44  1  0.23151060  0.30533079  0.51871344  1
  O  O45  1  0.04186164  0.07483878  0.24046944  1
  O  O46  1  0.30533079  0.51871344  0.23151060  1
  O  O47  1  0.36049995  0.13051688  0.47273802  1
  O  O48  1  0.69466921  0.48128656  0.76848940  1
  O  O49  1  0.48128656  0.76848940  0.69466921  1
  O  O50  1  0.63950005  0.86948312  0.52726198  1
  O  O51  1  0.92516122  0.75953056  0.95813836  1
  O  O52  1  0.75467528  0.61513512  0.98532248  1
  O  O53  1  0.76848940  0.69466921  0.48128656  1
  O  O54  1  0.92689581  0.61952771  0.12859606  1
  O  O55  1  0.95813836  0.92516122  0.75953056  1
  O  O56  1  0.74888584  0.74888584  0.74888584  1
  O  O57  1  0.47273802  0.36049995  0.13051688  1
  O  O58  1  0.75953056  0.95813836  0.92516122  1
  O  O59  1  0.12859606  0.92689581  0.61952771  1
  O  O60  1  0.61952771  0.12859606  0.92689581  1
  O  O61  1  0.38486488  0.01467752  0.24532472  1
  O  O62  1  0.61513512  0.98532248  0.75467528  1
  O  O63  1  0.07483878  0.24046944  0.04186164  1
  O  O64  1  0.13051688  0.47273802  0.36049995  1
  O  O65  1  0.24532472  0.38486488  0.01467752  1
  O  O66  1  0.20103170  0.68274218  0.33614629  1
  O  O67  1  0.52726198  0.63950005  0.86948312  1
  O  O68  1  0.31725782  0.66385371  0.79896830  1
  O  O69  1  0.98532248  0.75467528  0.61513512  1
