# generated using pymatgen
data_Rb2Ag2GeS4
_symmetry_space_group_name_H-M   'P 1'
_cell_length_a   6.38710944
_cell_length_b   7.57390906
_cell_length_c   11.93382567
_cell_angle_alpha   102.02038260
_cell_angle_beta   97.94769371
_cell_angle_gamma   114.05273112
_symmetry_Int_Tables_number   1
_chemical_formula_structural   Rb2Ag2GeS4
_chemical_formula_sum   'Rb4 Ag4 Ge2 S8'
_cell_volume   499.26478060
_cell_formula_units_Z   2
loop_
 _symmetry_equiv_pos_site_id
 _symmetry_equiv_pos_as_xyz
  1  'x, y, z'
loop_
 _atom_site_type_symbol
 _atom_site_label
 _atom_site_symmetry_multiplicity
 _atom_site_fract_x
 _atom_site_fract_y
 _atom_site_fract_z
 _atom_site_occupancy
  Rb  Rb0  1  0.94177642  0.69177642  0.38355283  1
  Rb  Rb1  1  0.05822358  0.30822358  0.61644717  1
  Rb  Rb2  1  0.68816205  0.43816205  0.87632410  1
  Rb  Rb3  1  0.31183795  0.56183795  0.12367590  1
  Ag  Ag4  1  0.28204787  0.03204787  0.06409575  1
  Ag  Ag5  1  0.71795213  0.96795213  0.93590425  1
  Ag  Ag6  1  0.43433817  0.18433817  0.36867634  1
  Ag  Ag7  1  0.56566183  0.81566183  0.63132366  1
  Ge  Ge8  1  0.12672197  0.87672197  0.75344393  1
  Ge  Ge9  1  0.87327803  0.12327803  0.24655607  1
  S  S10  1  0.28189132  0.73423045  0.86739145  1
  S  S11  1  0.08550013  0.13316101  0.86739145  1
  S  S12  1  0.71810868  0.26576955  0.13260855  1
  S  S13  1  0.91449987  0.86683899  0.13260855  1
  S  S14  1  0.35745988  0.01567239  0.63861179  1
  S  S15  1  0.78115191  0.62293940  0.63861179  1
  S  S16  1  0.64254012  0.98432761  0.36138821  1
  S  S17  1  0.21884809  0.37706060  0.36138821  1
