# generated using pymatgen
data_Na2CuSbS3
_symmetry_space_group_name_H-M   'P 1'
_cell_length_a   5.86719535
_cell_length_b   6.81313710
_cell_length_c   17.24542493
_cell_angle_alpha   90.00000000
_cell_angle_beta   90.00000000
_cell_angle_gamma   113.10604398
_symmetry_Int_Tables_number   1
_chemical_formula_structural   Na2CuSbS3
_chemical_formula_sum   'Na8 Cu4 Sb4 S12'
_cell_volume   634.06763858
_cell_formula_units_Z   4
loop_
 _symmetry_equiv_pos_site_id
 _symmetry_equiv_pos_as_xyz
  1  'x, y, z'
loop_
 _atom_site_type_symbol
 _atom_site_label
 _atom_site_symmetry_multiplicity
 _atom_site_fract_x
 _atom_site_fract_y
 _atom_site_fract_z
 _atom_site_occupancy
  Na  Na0  1  0.84411860  0.69034064  0.96159763  1
  Na  Na1  1  0.65588140  0.80965936  0.46159763  1
  Na  Na2  1  0.55297232  0.11763904  0.88674650  1
  Na  Na3  1  0.94702768  0.38236096  0.38674650  1
  Na  Na4  1  0.44702768  0.88236096  0.11325350  1
  Na  Na5  1  0.05297232  0.61763904  0.61325350  1
  Na  Na6  1  0.15588140  0.30965936  0.03840237  1
  Na  Na7  1  0.34411860  0.19034064  0.53840237  1
  Cu  Cu8  1  0.01836279  0.89956130  0.78769860  1
  Cu  Cu9  1  0.51836279  0.39956130  0.71230140  1
  Cu  Cu10  1  0.98163721  0.10043870  0.21230140  1
  Cu  Cu11  1  0.48163721  0.60043870  0.28769860  1
  Sb  Sb12  1  0.22673243  0.48165164  0.82606925  1
  Sb  Sb13  1  0.77326757  0.51834836  0.17393075  1
  Sb  Sb14  1  0.72673243  0.98165164  0.67393075  1
  Sb  Sb15  1  0.27326757  0.01834836  0.32606925  1
  S  S16  1  0.83029297  0.53987892  0.80411623  1
  S  S17  1  0.64705554  0.30508720  0.05691077  1
  S  S18  1  0.44853760  0.37338645  0.38720297  1
  S  S19  1  0.14705554  0.80508720  0.44308923  1
  S  S20  1  0.33029297  0.03987892  0.69588377  1
  S  S21  1  0.66970703  0.96012108  0.30411623  1
  S  S22  1  0.05146240  0.12661355  0.88720297  1
  S  S23  1  0.35294446  0.69491280  0.94308923  1
  S  S24  1  0.85294446  0.19491280  0.55691077  1
  S  S25  1  0.16970703  0.46012108  0.19588377  1
  S  S26  1  0.94853760  0.87338645  0.11279703  1
  S  S27  1  0.55146240  0.62661355  0.61279703  1
