# generated using pymatgen
data_NaSmGeO4
_symmetry_space_group_name_H-M   'P 1'
_cell_length_a   5.36266632
_cell_length_b   6.65650168
_cell_length_c   11.72811872
_cell_angle_alpha   90.00000000
_cell_angle_beta   90.00000000
_cell_angle_gamma   90.00000000
_symmetry_Int_Tables_number   1
_chemical_formula_structural   NaSmGeO4
_chemical_formula_sum   'Na4 Sm4 Ge4 O16'
_cell_volume   418.65393184
_cell_formula_units_Z   4
loop_
 _symmetry_equiv_pos_site_id
 _symmetry_equiv_pos_as_xyz
  1  'x, y, z'
loop_
 _atom_site_type_symbol
 _atom_site_label
 _atom_site_symmetry_multiplicity
 _atom_site_fract_x
 _atom_site_fract_y
 _atom_site_fract_z
 _atom_site_occupancy
  Na  Na0  1  0.00000000  -0.00000000  0.50000000  1
  Na  Na1  1  0.50000000  0.50000000  -0.00000000  1
  Na  Na2  1  0.00000000  0.50000000  0.50000000  1
  Na  Na3  1  0.50000000  0.00000000  -0.00000000  1
  Sm  Sm4  1  -0.00010761  0.75000000  0.22118862  1
  Sm  Sm5  1  0.50010761  0.75000000  0.72118862  1
  Sm  Sm6  1  0.00010761  0.25000000  0.77881138  1
  Sm  Sm7  1  0.49989239  0.25000000  0.27881138  1
  Ge  Ge8  1  0.05926258  0.75000000  0.90452578  1
  Ge  Ge9  1  0.44073742  0.75000000  0.40452578  1
  Ge  Ge10  1  0.94073742  0.25000000  0.09547422  1
  Ge  Ge11  1  0.55926258  0.25000000  0.59547422  1
  O  O12  1  0.18089731  0.75000000  0.04422824  1
  O  O13  1  0.31910269  0.75000000  0.54422824  1
  O  O14  1  0.81910269  0.25000000  0.95577176  1
  O  O15  1  0.68089731  0.25000000  0.45577176  1
  O  O16  1  0.79090712  0.45436868  0.17080143  1
  O  O17  1  0.70909288  0.04563132  0.67080143  1
  O  O18  1  0.20909288  0.95436868  0.82919857  1
  O  O19  1  0.29090712  0.54563132  0.32919857  1
  O  O20  1  0.20909288  0.54563132  0.82919857  1
  O  O21  1  0.29090712  0.95436868  0.32919857  1
  O  O22  1  0.79090712  0.04563132  0.17080143  1
  O  O23  1  0.70909288  0.45436868  0.67080143  1
  O  O24  1  0.76532582  0.75000000  0.39125244  1
  O  O25  1  0.73467418  0.75000000  0.89125244  1
  O  O26  1  0.23467418  0.25000000  0.60874756  1
  O  O27  1  0.26532582  0.25000000  0.10874756  1
