# generated using pymatgen
data_Tb5Se2Cl3O10
_symmetry_space_group_name_H-M   'P 1'
_cell_length_a   5.50994866
_cell_length_b   6.73083544
_cell_length_c   9.90766483
_cell_angle_alpha   90.90441595
_cell_angle_beta   90.00000000
_cell_angle_gamma   114.16127424
_symmetry_Int_Tables_number   1
_chemical_formula_structural   Tb5Se2Cl3O10
_chemical_formula_sum   'Tb5 Se2 Cl3 O10'
_cell_volume   335.20205102
_cell_formula_units_Z   1
loop_
 _symmetry_equiv_pos_site_id
 _symmetry_equiv_pos_as_xyz
  1  'x, y, z'
loop_
 _atom_site_type_symbol
 _atom_site_label
 _atom_site_symmetry_multiplicity
 _atom_site_fract_x
 _atom_site_fract_y
 _atom_site_fract_z
 _atom_site_occupancy
  Tb  Tb0  1  0.21370521  0.42741043  0.10321683  1
  Tb  Tb1  1  0.90127864  0.80255728  0.23429676  1
  Tb  Tb2  1  0.09872136  0.19744272  0.76570324  1
  Tb  Tb3  1  0.50000000  0.00000000  0.00000000  1
  Tb  Tb4  1  0.78629479  0.57258957  0.89678317  1
  Se  Se5  1  0.40761040  0.81522079  0.68385944  1
  Se  Se6  1  0.59238960  0.18477921  0.31614056  1
  Cl  Cl7  1  0.66341646  0.32683293  0.64952482  1
  Cl  Cl8  1  0.33658354  0.67316707  0.35047518  1
  Cl  Cl9  1  0.00000000  0.00000000  0.50000000  1
  O  O10  1  0.89838839  0.28838259  0.94117229  1
  O  O11  1  0.31694525  0.11138744  0.20418025  1
  O  O12  1  0.79444219  0.11138744  0.20418025  1
  O  O13  1  0.61000580  0.71161741  0.05882771  1
  O  O14  1  0.20555781  0.88861256  0.79581975  1
  O  O15  1  0.10161161  0.71161741  0.05882771  1
  O  O16  1  0.68305475  0.88861256  0.79581975  1
  O  O17  1  0.72664012  0.45328023  0.28410033  1
  O  O18  1  0.27335988  0.54671977  0.71589967  1
  O  O19  1  0.38999420  0.28838259  0.94117229  1
