# generated using pymatgen
data_KCuCO3F
_symmetry_space_group_name_H-M   'P 1'
_cell_length_a   4.06587809
_cell_length_b   5.14786435
_cell_length_c   9.04262833
_cell_angle_alpha   90.00000000
_cell_angle_beta   90.00000000
_cell_angle_gamma   90.00000000
_symmetry_Int_Tables_number   1
_chemical_formula_structural   KCuCO3F
_chemical_formula_sum   'K2 Cu2 C2 O6 F2'
_cell_volume   189.26753589
_cell_formula_units_Z   2
loop_
 _symmetry_equiv_pos_site_id
 _symmetry_equiv_pos_as_xyz
  1  'x, y, z'
loop_
 _atom_site_type_symbol
 _atom_site_label
 _atom_site_symmetry_multiplicity
 _atom_site_fract_x
 _atom_site_fract_y
 _atom_site_fract_z
 _atom_site_occupancy
  K  K0  1  0.50000000  0.71035088  0.07734893  1
  K  K1  1  0.50000000  0.28964912  0.57734893  1
  Cu  Cu2  1  0.00000000  0.79135433  0.73233586  1
  Cu  Cu3  1  0.00000000  0.20864567  0.23233586  1
  C  C4  1  0.00000000  0.78443019  0.41365496  1
  C  C5  1  0.00000000  0.21556981  0.91365496  1
  O  O6  1  0.00000000  0.33027318  0.78892765  1
  O  O7  1  0.00000000  0.03859946  0.42356434  1
  O  O8  1  0.00000000  0.64844775  0.53534755  1
  O  O9  1  0.00000000  0.66972682  0.28892765  1
  O  O10  1  0.00000000  0.35155225  0.03534755  1
  O  O11  1  0.00000000  0.96140054  0.92356434  1
  F  F12  1  0.50000000  0.80405851  0.72882071  1
  F  F13  1  0.50000000  0.19594149  0.22882071  1
