# generated using pymatgen
data_Al(IO3)3
_symmetry_space_group_name_H-M   'P 1'
_cell_length_a   9.10812971
_cell_length_b   9.10812997
_cell_length_c   5.34279109
_cell_angle_alpha   90.00000000
_cell_angle_beta   90.00000000
_cell_angle_gamma   119.99999904
_symmetry_Int_Tables_number   1
_chemical_formula_structural   Al(IO3)3
_chemical_formula_sum   'Al2 I6 O18'
_cell_volume   383.84620830
_cell_formula_units_Z   2
loop_
 _symmetry_equiv_pos_site_id
 _symmetry_equiv_pos_as_xyz
  1  'x, y, z'
loop_
 _atom_site_type_symbol
 _atom_site_label
 _atom_site_symmetry_multiplicity
 _atom_site_fract_x
 _atom_site_fract_y
 _atom_site_fract_z
 _atom_site_occupancy
  Al  Al0  1  0.33333300  0.66666700  0.08313166  1
  Al  Al1  1  0.66666700  0.33333300  0.58313166  1
  I  I2  1  0.33696573  0.31435034  0.22489513  1
  I  I3  1  0.66303427  0.68564966  0.72489513  1
  I  I4  1  0.02261539  0.33696573  0.72489513  1
  I  I5  1  0.97738461  0.66303427  0.22489513  1
  I  I6  1  0.31435034  0.97738461  0.72489513  1
  I  I7  1  0.68564966  0.02261539  0.22489513  1
  O  O8  1  0.13148063  0.55147072  0.87884876  1
  O  O9  1  0.51698819  0.80521695  0.30552064  1
  O  O10  1  0.28822876  0.48301181  0.30552064  1
  O  O11  1  0.19478305  0.71177124  0.30552064  1
  O  O12  1  0.48301181  0.19478305  0.80552064  1
  O  O13  1  0.80521695  0.28822876  0.80552064  1
  O  O14  1  0.58000991  0.13148063  0.37884876  1
  O  O15  1  0.21681348  0.17211583  0.47599158  1
  O  O16  1  0.17211583  0.95530235  0.97599158  1
  O  O17  1  0.44852928  0.58000991  0.87884876  1
  O  O18  1  0.82788417  0.04469765  0.47599158  1
  O  O19  1  0.55147072  0.41999009  0.37884876  1
  O  O20  1  0.41999009  0.86851937  0.87884876  1
  O  O21  1  0.95530235  0.78318652  0.47599158  1
  O  O22  1  0.71177124  0.51698819  0.80552064  1
  O  O23  1  0.04469765  0.21681348  0.97599158  1
  O  O24  1  0.86851937  0.44852928  0.37884876  1
  O  O25  1  0.78318652  0.82788417  0.97599158  1
