# generated using pymatgen
data_Pr9(SbO)5
_symmetry_space_group_name_H-M   'P 1'
_cell_length_a   9.31961670
_cell_length_b   10.34106479
_cell_length_c   10.34106479
_cell_angle_alpha   90.00000000
_cell_angle_beta   90.00000000
_cell_angle_gamma   90.00000000
_symmetry_Int_Tables_number   1
_chemical_formula_structural   Pr9(SbO)5
_chemical_formula_sum   'Pr18 Sb10 O10'
_cell_volume   996.61763845
_cell_formula_units_Z   2
loop_
 _symmetry_equiv_pos_site_id
 _symmetry_equiv_pos_as_xyz
  1  'x, y, z'
loop_
 _atom_site_type_symbol
 _atom_site_label
 _atom_site_symmetry_multiplicity
 _atom_site_fract_x
 _atom_site_fract_y
 _atom_site_fract_z
 _atom_site_occupancy
  Pr  Pr0  1  0.00121243  0.66860817  0.97662628  1
  Pr  Pr1  1  0.00121243  0.97662628  0.83139183  1
  Pr  Pr2  1  0.33174288  0.25000000  0.25000000  1
  Pr  Pr3  1  0.99878757  0.33139183  0.02337372  1
  Pr  Pr4  1  0.99878757  0.16860817  0.47662628  1
  Pr  Pr5  1  0.34448758  0.64615032  0.45436338  1
  Pr  Pr6  1  0.00121243  0.83139183  0.52337372  1
  Pr  Pr7  1  0.65551242  0.54563662  0.14615032  1
  Pr  Pr8  1  0.99878757  0.02337372  0.16860817  1
  Pr  Pr9  1  0.65551242  0.35384968  0.54563662  1
  Pr  Pr10  1  0.00121243  0.52337372  0.66860817  1
  Pr  Pr11  1  0.65551242  0.95436338  0.35384968  1
  Pr  Pr12  1  0.34448758  0.85384968  0.04563662  1
  Pr  Pr13  1  0.66825712  0.75000000  0.75000000  1
  Pr  Pr14  1  0.99878757  0.47662628  0.33139183  1
  Pr  Pr15  1  0.34448758  0.04563662  0.64615032  1
  Pr  Pr16  1  0.65551242  0.14615032  0.95436338  1
  Pr  Pr17  1  0.34448758  0.45436338  0.85384968  1
  Sb  Sb18  1  0.31452566  0.75000000  0.75000000  1
  Sb  Sb19  1  0.70032131  0.65330655  0.44667083  1
  Sb  Sb20  1  0.70032131  0.05332917  0.65330655  1
  Sb  Sb21  1  0.68547434  0.25000000  0.25000000  1
  Sb  Sb22  1  0.29967869  0.15330655  0.94667083  1
  Sb  Sb23  1  0.29967869  0.94667083  0.34669345  1
  Sb  Sb24  1  0.70032131  0.44667083  0.84669345  1
  Sb  Sb25  1  0.29967869  0.34669345  0.55332917  1
  Sb  Sb26  1  0.70032131  0.84669345  0.05332917  1
  Sb  Sb27  1  0.29967869  0.55332917  0.15330655  1
  O  O28  1  0.93260344  0.75000000  0.75000000  1
  O  O29  1  0.91021352  0.12909517  0.97473550  1
  O  O30  1  0.08978648  0.47473550  0.87090483  1
  O  O31  1  0.08978648  0.02526450  0.62909517  1
  O  O32  1  0.91021352  0.97473550  0.37090483  1
  O  O33  1  0.91021352  0.37090483  0.52526450  1
  O  O34  1  0.06739656  0.25000000  0.25000000  1
  O  O35  1  0.08978648  0.62909517  0.47473550  1
  O  O36  1  0.91021352  0.52526450  0.12909517  1
  O  O37  1  0.08978648  0.87090483  0.02526450  1
