# generated using pymatgen
data_Pr3CuSiS7
_symmetry_space_group_name_H-M   'P 1'
_cell_length_a   10.28199994
_cell_length_b   10.28199982
_cell_length_c   5.79820297
_cell_angle_alpha   90.00000000
_cell_angle_beta   90.00000000
_cell_angle_gamma   120.00000041
_symmetry_Int_Tables_number   1
_chemical_formula_structural   Pr3CuSiS7
_chemical_formula_sum   'Pr6 Cu2 Si2 S14'
_cell_volume   530.85905903
_cell_formula_units_Z   2
loop_
 _symmetry_equiv_pos_site_id
 _symmetry_equiv_pos_as_xyz
  1  'x, y, z'
loop_
 _atom_site_type_symbol
 _atom_site_label
 _atom_site_symmetry_multiplicity
 _atom_site_fract_x
 _atom_site_fract_y
 _atom_site_fract_z
 _atom_site_occupancy
  Pr  Pr0  1  0.12376386  0.35668269  0.73094342  1
  Pr  Pr1  1  0.76708057  0.12376348  0.23094396  1
  Pr  Pr2  1  0.23291883  0.87623614  0.73094342  1
  Pr  Pr3  1  0.35668291  0.23291943  0.23094396  1
  Pr  Pr4  1  0.64331731  0.76708117  0.73094342  1
  Pr  Pr5  1  0.87623652  0.64331709  0.23094396  1
  Cu  Cu6  1  0.00000000  0.00000000  0.21565778  1
  Si  Si7  1  0.66666700  0.33333300  0.81636089  1
  Si  Si8  1  0.33333300  0.66666700  0.31636028  1
  Cu  Cu9  1  0.00000000  0.00000000  0.71571468  1
  S  S10  1  0.47552550  0.88615684  0.45850327  1
  S  S11  1  0.11384316  0.58936865  0.45850327  1
  S  S12  1  0.66666700  0.33333300  0.45193674  1
  S  S13  1  0.08581856  0.25016511  0.22165881  1
  S  S14  1  0.41063135  0.52447450  0.45850327  1
  S  S15  1  0.33333300  0.66666700  0.95193633  1
  S  S16  1  0.88615677  0.41063122  0.95850342  1
  S  S17  1  0.91418250  0.74983887  0.72165821  1
  S  S18  1  0.16434656  0.91418144  0.22165881  1
  S  S19  1  0.58936878  0.47552554  0.95850342  1
  S  S20  1  0.74983489  0.83565344  0.22165881  1
  S  S21  1  0.52447446  0.11384323  0.95850342  1
  S  S22  1  0.25016113  0.16434364  0.72165821  1
  S  S23  1  0.83565636  0.08581750  0.72165821  1
