# generated using pymatgen
data_K2CaP2O7
_symmetry_space_group_name_H-M   'P 1'
_cell_length_a   5.74548201
_cell_length_b   9.93211643
_cell_length_c   13.19135253
_cell_angle_alpha   104.21509048
_cell_angle_beta   90.00000000
_cell_angle_gamma   90.00000000
_symmetry_Int_Tables_number   1
_chemical_formula_structural   K2CaP2O7
_chemical_formula_sum   'K8 Ca4 P8 O28'
_cell_volume   729.71280984
_cell_formula_units_Z   4
loop_
 _symmetry_equiv_pos_site_id
 _symmetry_equiv_pos_as_xyz
  1  'x, y, z'
loop_
 _atom_site_type_symbol
 _atom_site_label
 _atom_site_symmetry_multiplicity
 _atom_site_fract_x
 _atom_site_fract_y
 _atom_site_fract_z
 _atom_site_occupancy
  K  K0  1  0.26891650  0.35646549  0.82211793  1
  K  K1  1  0.76199892  0.87293938  0.85994372  1
  K  K2  1  0.23108350  0.85646549  0.32211793  1
  K  K3  1  0.73108350  0.64353451  0.17788207  1
  K  K4  1  0.73800108  0.37293938  0.35994372  1
  K  K5  1  0.23800108  0.12706062  0.14005628  1
  K  K6  1  0.26199892  0.62706062  0.64005628  1
  K  K7  1  0.76891650  0.14353451  0.67788207  1
  Ca  Ca8  1  0.76157708  0.74879887  0.48168203  1
  Ca  Ca9  1  0.73842292  0.24879887  0.98168203  1
  Ca  Ca10  1  0.23842292  0.25120113  0.51831797  1
  Ca  Ca11  1  0.26157708  0.75120113  0.01831797  1
  P  P12  1  0.24483936  0.53038886  0.35855231  1
  P  P13  1  0.74483936  0.96961114  0.14144769  1
  P  P14  1  0.21992266  0.44718260  0.12586447  1
  P  P15  1  0.28007734  0.94718260  0.62586447  1
  P  P16  1  0.71992266  0.05281740  0.37413553  1
  P  P17  1  0.78007734  0.55281740  0.87413553  1
  P  P18  1  0.25516064  0.03038886  0.85855231  1
  P  P19  1  0.75516064  0.46961114  0.64144769  1
  O  O20  1  0.39698754  0.35676749  0.05366801  1
  O  O21  1  0.29599246  0.42493139  0.24231663  1
  O  O22  1  0.73805822  0.89718588  0.36759352  1
  O  O23  1  0.89698754  0.14323251  0.44633199  1
  O  O24  1  0.20400754  0.92493139  0.74231663  1
  O  O25  1  0.02907573  0.60970108  0.89072057  1
  O  O26  1  0.79599246  0.07506861  0.25768337  1
  O  O27  1  0.76323846  0.57029514  0.57036895  1
  O  O28  1  0.26194178  0.10281412  0.63240648  1
  O  O29  1  0.54492088  0.37191629  0.62122537  1
  O  O30  1  0.26323846  0.92970486  0.92963105  1
  O  O31  1  0.97092427  0.39029892  0.10927943  1
  O  O32  1  0.10301246  0.85676749  0.55366801  1
  O  O33  1  0.45507912  0.62808371  0.37877463  1
  O  O34  1  0.98756193  0.39618011  0.64756188  1
  O  O35  1  0.51243807  0.89618011  0.14756188  1
  O  O36  1  0.95507912  0.87191629  0.12122537  1
  O  O37  1  0.01243807  0.60381989  0.35243812  1
  O  O38  1  0.70400754  0.57506861  0.75768337  1
  O  O39  1  0.48756193  0.10381989  0.85243812  1
  O  O40  1  0.47092427  0.10970108  0.39072057  1
  O  O41  1  0.60301246  0.64323251  0.94633199  1
  O  O42  1  0.52907573  0.89029892  0.60927943  1
  O  O43  1  0.23805822  0.60281412  0.13240648  1
  O  O44  1  0.73676154  0.07029514  0.07036895  1
  O  O45  1  0.23676154  0.42970486  0.42963105  1
  O  O46  1  0.76194178  0.39718588  0.86759352  1
  O  O47  1  0.04492088  0.12808371  0.87877463  1
