# generated using pymatgen
data_Nb2Tl5S4Cl9
_symmetry_space_group_name_H-M   'P 1'
_cell_length_a   7.21305862
_cell_length_b   9.79724642
_cell_length_c   10.02425348
_cell_angle_alpha   119.25188486
_cell_angle_beta   111.09952964
_cell_angle_gamma   90.00886090
_symmetry_Int_Tables_number   1
_chemical_formula_structural   Nb2Tl5S4Cl9
_chemical_formula_sum   'Nb2 Tl5 S4 Cl9'
_cell_volume   562.97338716
_cell_formula_units_Z   1
loop_
 _symmetry_equiv_pos_site_id
 _symmetry_equiv_pos_as_xyz
  1  'x, y, z'
loop_
 _atom_site_type_symbol
 _atom_site_label
 _atom_site_symmetry_multiplicity
 _atom_site_fract_x
 _atom_site_fract_y
 _atom_site_fract_z
 _atom_site_occupancy
  Nb  Nb0  1  0.90823916  0.90825089  0.81653224  1
  Nb  Nb1  1  0.09176084  0.09174911  0.18346776  1
  Tl  Tl2  1  0.66689728  0.88591419  0.33376809  1
  Tl  Tl3  1  0.33310272  0.11408581  0.66623191  1
  Tl  Tl4  1  0.33309859  0.55213474  0.66622330  1
  Tl  Tl5  1  0.66690141  0.44786526  0.33377670  1
  Tl  Tl6  1  0.00000000  0.50000000  0.00000000  1
  S  S7  1  0.75225068  0.89717599  0.99994700  1
  S  S8  1  0.24777558  0.89731016  0.00008059  1
  S  S9  1  0.75222442  0.10268984  0.99991941  1
  S  S10  1  0.24774932  0.10282401  0.00005300  1
  Cl  Cl11  1  0.96948486  0.20924286  0.41847781  1
  Cl  Cl12  1  0.13541606  0.39411942  0.27066057  1
  Cl  Cl13  1  0.03051514  0.79075714  0.58152219  1
  Cl  Cl14  1  0.13537904  0.87656392  0.27066057  1
  Cl  Cl15  1  0.44917363  0.20931411  0.41855395  1
  Cl  Cl16  1  0.55082637  0.79068589  0.58144605  1
  Cl  Cl17  1  0.86462096  0.12343608  0.72933943  1
  Cl  Cl18  1  0.50000000  0.50000000  0.00000000  1
  Cl  Cl19  1  0.86458394  0.60588058  0.72933943  1
