# generated using pymatgen
data_LiYSiO4
_symmetry_space_group_name_H-M   'P 1'
_cell_length_a   5.45574497
_cell_length_b   6.26662565
_cell_length_c   10.08565172
_cell_angle_alpha   90.00000000
_cell_angle_beta   96.08936101
_cell_angle_gamma   90.00000000
_symmetry_Int_Tables_number   1
_chemical_formula_structural   LiYSiO4
_chemical_formula_sum   'Li4 Y4 Si4 O16'
_cell_volume   342.87388062
_cell_formula_units_Z   4
loop_
 _symmetry_equiv_pos_site_id
 _symmetry_equiv_pos_as_xyz
  1  'x, y, z'
loop_
 _atom_site_type_symbol
 _atom_site_label
 _atom_site_symmetry_multiplicity
 _atom_site_fract_x
 _atom_site_fract_y
 _atom_site_fract_z
 _atom_site_occupancy
  Li  Li0  1  0.65205155  0.13436306  0.57016243  1
  Li  Li1  1  0.84794845  0.63436306  0.92983757  1
  Li  Li2  1  0.34794845  0.86563694  0.42983757  1
  Li  Li3  1  0.15205155  0.36563694  0.07016243  1
  Y  Y4  1  0.70689437  0.11587168  0.15268778  1
  Y  Y5  1  0.29310563  0.88412832  0.84731222  1
  Y  Y6  1  0.79310563  0.61587168  0.34731222  1
  Y  Y7  1  0.20689437  0.38412832  0.65268778  1
  Si  Si8  1  0.73726976  0.65212123  0.64065391  1
  Si  Si9  1  0.26273024  0.34787877  0.35934609  1
  Si  Si10  1  0.76273024  0.15212123  0.85934609  1
  Si  Si11  1  0.23726976  0.84787877  0.14065391  1
  O  O12  1  0.99492719  0.85851814  0.22440025  1
  O  O13  1  0.49492719  0.64148186  0.72440025  1
  O  O14  1  0.28973722  0.16398547  0.47581755  1
  O  O15  1  0.49006907  0.83727810  0.24685202  1
  O  O16  1  0.00507281  0.14148186  0.77559975  1
  O  O17  1  0.21863813  0.56995206  0.44476954  1
  O  O18  1  0.99006907  0.66272190  0.74685202  1
  O  O19  1  0.78136187  0.43004794  0.55523046  1
  O  O20  1  0.28136187  0.06995206  0.05523046  1
  O  O21  1  0.21026278  0.66398547  0.02418245  1
  O  O22  1  0.50993093  0.16272190  0.75314798  1
  O  O23  1  0.71863813  0.93004794  0.94476954  1
  O  O24  1  0.78973722  0.33601453  0.97581755  1
  O  O25  1  0.00993093  0.33727810  0.25314798  1
  O  O26  1  0.50507281  0.35851814  0.27559975  1
  O  O27  1  0.71026278  0.83601453  0.52418245  1
