# generated using pymatgen
data_Dy2Te5O13
_symmetry_space_group_name_H-M   'P 1'
_cell_length_a   7.04421043
_cell_length_b   8.77697592
_cell_length_c   10.77132348
_cell_angle_alpha   89.48108797
_cell_angle_beta   87.38818634
_cell_angle_gamma   74.88209774
_symmetry_Int_Tables_number   1
_chemical_formula_structural   Dy2Te5O13
_chemical_formula_sum   'Dy4 Te10 O26'
_cell_volume   642.23856102
_cell_formula_units_Z   2
loop_
 _symmetry_equiv_pos_site_id
 _symmetry_equiv_pos_as_xyz
  1  'x, y, z'
loop_
 _atom_site_type_symbol
 _atom_site_label
 _atom_site_symmetry_multiplicity
 _atom_site_fract_x
 _atom_site_fract_y
 _atom_site_fract_z
 _atom_site_occupancy
  Dy  Dy0  1  0.55300290  0.52690796  0.17874183  1
  Dy  Dy1  1  0.99756791  0.73828889  0.23915545  1
  Dy  Dy2  1  0.00243209  0.26171111  0.76084455  1
  Dy  Dy3  1  0.44699710  0.47309204  0.82125817  1
  Te  Te4  1  0.27397894  0.39229847  0.48808757  1
  Te  Te5  1  0.28965136  0.87580143  0.97715634  1
  Te  Te6  1  0.72602106  0.60770153  0.51191243  1
  Te  Te7  1  0.71034864  0.12419857  0.02284366  1
  Te  Te8  1  0.43647488  0.90135462  0.30138817  1
  Te  Te9  1  0.56352512  0.09864538  0.69861183  1
  Te  Te10  1  0.12015470  0.35030641  0.10997218  1
  Te  Te11  1  0.15516646  0.80294565  0.64094034  1
  Te  Te12  1  0.84483354  0.19705435  0.35905966  1
  Te  Te13  1  0.87984530  0.64969359  0.89002782  1
  O  O14  1  0.65338825  0.01741357  0.87454476  1
  O  O15  1  0.12365502  0.48887953  0.89208436  1
  O  O16  1  0.87634498  0.51112047  0.10791564  1
  O  O17  1  0.46309782  0.19338127  0.51989668  1
  O  O18  1  0.66182360  0.48714707  0.38168212  1
  O  O19  1  0.32774733  0.74222075  0.77367967  1
  O  O20  1  0.76434440  0.50540264  0.81174475  1
  O  O21  1  0.67031810  0.77529027  0.22353092  1
  O  O22  1  0.05877157  0.81846073  0.03813691  1
  O  O23  1  0.68632367  0.26500111  0.71500310  1
  O  O24  1  0.46470680  0.67002227  0.99906991  1
  O  O25  1  0.06587277  0.26567043  0.27779591  1
  O  O26  1  0.06231324  0.01684866  0.68724960  1
  O  O27  1  0.33817640  0.51285293  0.61831788  1
  O  O28  1  0.34661175  0.98258643  0.12545524  1
  O  O29  1  0.53529320  0.32997773  0.00093009  1
  O  O30  1  0.53690218  0.80661873  0.48010332  1
  O  O31  1  0.04653071  0.34895534  0.56626001  1
  O  O32  1  0.93412723  0.73432957  0.72220409  1
  O  O33  1  0.23565560  0.49459736  0.18825525  1
  O  O34  1  0.93768676  0.98315134  0.31275040  1
  O  O35  1  0.95346929  0.65104466  0.43373999  1
  O  O36  1  0.67225267  0.25777925  0.22632033  1
  O  O37  1  0.94122843  0.18153927  0.96186309  1
  O  O38  1  0.31367633  0.73499889  0.28499690  1
  O  O39  1  0.32968190  0.22470973  0.77646908  1
