# generated using pymatgen
data_Na2P2PbO7
_symmetry_space_group_name_H-M   'P 1'
_cell_length_a   5.59383802
_cell_length_b   7.02270623
_cell_length_c   9.53670089
_cell_angle_alpha   106.21143220
_cell_angle_beta   96.90996534
_cell_angle_gamma   108.53863143
_symmetry_Int_Tables_number   1
_chemical_formula_structural   Na2P2PbO7
_chemical_formula_sum   'Na4 P4 Pb2 O14'
_cell_volume   331.95938495
_cell_formula_units_Z   2
loop_
 _symmetry_equiv_pos_site_id
 _symmetry_equiv_pos_as_xyz
  1  'x, y, z'
loop_
 _atom_site_type_symbol
 _atom_site_label
 _atom_site_symmetry_multiplicity
 _atom_site_fract_x
 _atom_site_fract_y
 _atom_site_fract_z
 _atom_site_occupancy
  Na  Na0  1  0.34528267  0.63549286  0.77172239  1
  Na  Na1  1  0.09885629  0.28714689  0.99228974  1
  Na  Na2  1  0.90114371  0.71285311  0.00771026  1
  Na  Na3  1  0.65471733  0.36450714  0.22827761  1
  P  P4  1  0.47373088  0.86034241  0.15936062  1
  P  P5  1  0.75032366  0.36086332  0.64019984  1
  P  P6  1  0.24967634  0.63913668  0.35980016  1
  P  P7  1  0.52626912  0.13965759  0.84063938  1
  Pb  Pb8  1  0.86035655  0.86588097  0.62633888  1
  Pb  Pb9  1  0.13964345  0.13411903  0.37366112  1
  O  O10  1  0.34729804  0.68137345  0.52613549  1
  O  O11  1  0.50963997  0.20178232  0.68613616  1
  O  O12  1  0.01297923  0.69541244  0.32110465  1
  O  O13  1  0.24135962  0.02488908  0.83770769  1
  O  O14  1  0.32109042  0.01162616  0.17447144  1
  O  O15  1  0.65270196  0.31862655  0.47386451  1
  O  O16  1  0.78696838  0.59012963  0.73913141  1
  O  O17  1  0.33308726  0.65693510  0.02517380  1
  O  O18  1  0.49036003  0.79821768  0.31386384  1
  O  O19  1  0.66691274  0.34306490  0.97482620  1
  O  O20  1  0.98702077  0.30458756  0.67889535  1
  O  O21  1  0.75864038  0.97511092  0.16229231  1
  O  O22  1  0.21303162  0.40987037  0.26086859  1
  O  O23  1  0.67890958  0.98837384  0.82552856  1
