# generated using pymatgen
data_RbEr3F10
_symmetry_space_group_name_H-M   'P 1'
_cell_length_a   8.21214593
_cell_length_b   8.21214617
_cell_length_c   13.41046408
_cell_angle_alpha   90.00000000
_cell_angle_beta   90.00000000
_cell_angle_gamma   119.99999898
_symmetry_Int_Tables_number   1
_chemical_formula_structural   RbEr3F10
_chemical_formula_sum   'Rb4 Er12 F40'
_cell_volume   783.22722060
_cell_formula_units_Z   4
loop_
 _symmetry_equiv_pos_site_id
 _symmetry_equiv_pos_as_xyz
  1  'x, y, z'
loop_
 _atom_site_type_symbol
 _atom_site_label
 _atom_site_symmetry_multiplicity
 _atom_site_fract_x
 _atom_site_fract_y
 _atom_site_fract_z
 _atom_site_occupancy
  Rb  Rb0  1  0.66666700  0.33333300  0.25860155  1
  Rb  Rb1  1  0.00000000  0.00000000  0.49959205  1
  Rb  Rb2  1  0.33333300  0.66666700  0.75860155  1
  Rb  Rb3  1  0.00000000  0.00000000  0.99959205  1
  Er  Er4  1  0.50556916  0.01113833  0.51276110  1
  Er  Er5  1  0.49443084  0.98886167  0.01276110  1
  Er  Er6  1  0.49443084  0.50556916  0.01276110  1
  Er  Er7  1  0.17433931  0.82566069  0.25264725  1
  Er  Er8  1  0.01113833  0.50556916  0.01276110  1
  Er  Er9  1  0.82566069  0.17433931  0.75264725  1
  Er  Er10  1  0.34867861  0.17433931  0.75264725  1
  Er  Er11  1  0.17433931  0.34867861  0.25264725  1
  Er  Er12  1  0.98886167  0.49443084  0.51276110  1
  Er  Er13  1  0.50556916  0.49443084  0.51276110  1
  Er  Er14  1  0.65132139  0.82566069  0.25264725  1
  Er  Er15  1  0.82566069  0.65132139  0.75264725  1
  F  F16  1  0.77706364  0.22293636  0.04928404  1
  F  F17  1  0.10978874  0.21957747  0.72258974  1
  F  F18  1  0.34108120  0.33495980  0.88265104  1
  F  F19  1  0.66504020  0.65891880  0.88265104  1
  F  F20  1  0.95942852  0.47971426  0.68695819  1
  F  F21  1  0.22293636  0.77706364  0.54928404  1
  F  F22  1  0.33333300  0.66666700  0.29916922  1
  F  F23  1  0.00612140  0.66504020  0.38265104  1
  F  F24  1  0.33333300  0.66666700  0.96909083  1
  F  F25  1  0.65891880  0.99387860  0.38265104  1
  F  F26  1  0.00612140  0.34108120  0.38265104  1
  F  F27  1  0.52028574  0.04057148  0.68695819  1
  F  F28  1  0.77706364  0.55412727  0.04928404  1
  F  F29  1  0.99387860  0.33495980  0.88265104  1
  F  F30  1  0.81577704  0.18422296  0.57698638  1
  F  F31  1  0.22293636  0.44587273  0.54928404  1
  F  F32  1  0.78042253  0.89021126  0.72258974  1
  F  F33  1  0.66504020  0.00612140  0.88265104  1
  F  F34  1  0.55412727  0.77706364  0.54928404  1
  F  F35  1  0.10978874  0.89021126  0.72258974  1
  F  F36  1  0.18422296  0.81577704  0.07698638  1
  F  F37  1  0.89021126  0.78042253  0.22258974  1
  F  F38  1  0.52028574  0.47971426  0.68695819  1
  F  F39  1  0.21957747  0.10978874  0.22258974  1
  F  F40  1  0.18422296  0.36844592  0.07698638  1
  F  F41  1  0.33495980  0.34108120  0.38265104  1
  F  F42  1  0.44587273  0.22293636  0.04928404  1
  F  F43  1  0.65891880  0.66504020  0.38265104  1
  F  F44  1  0.47971426  0.52028574  0.18695819  1
  F  F45  1  0.04057148  0.52028574  0.18695819  1
  F  F46  1  0.33495980  0.99387860  0.38265104  1
  F  F47  1  0.81577704  0.63155408  0.57698638  1
  F  F48  1  0.66666700  0.33333300  0.46909083  1
  F  F49  1  0.34108120  0.00612140  0.88265104  1
  F  F50  1  0.99387860  0.65891880  0.88265104  1
  F  F51  1  0.36844592  0.18422296  0.57698638  1
  F  F52  1  0.66666700  0.33333300  0.79916922  1
  F  F53  1  0.89021126  0.10978874  0.22258974  1
  F  F54  1  0.63155408  0.81577704  0.07698638  1
  F  F55  1  0.47971426  0.95942852  0.18695819  1
