# generated using pymatgen
data_Pr3S3N
_symmetry_space_group_name_H-M   'P 1'
_cell_length_a   4.08608488
_cell_length_b   12.26950901
_cell_length_c   13.23968101
_cell_angle_alpha   90.00000000
_cell_angle_beta   90.00000000
_cell_angle_gamma   90.00000000
_symmetry_Int_Tables_number   1
_chemical_formula_structural   Pr3S3N
_chemical_formula_sum   'Pr12 S12 N4'
_cell_volume   663.76154719
_cell_formula_units_Z   4
loop_
 _symmetry_equiv_pos_site_id
 _symmetry_equiv_pos_as_xyz
  1  'x, y, z'
loop_
 _atom_site_type_symbol
 _atom_site_label
 _atom_site_symmetry_multiplicity
 _atom_site_fract_x
 _atom_site_fract_y
 _atom_site_fract_z
 _atom_site_occupancy
  Pr  Pr0  1  0.25000000  0.58820131  0.87296622  1
  Pr  Pr1  1  0.25000000  0.53767368  0.34982676  1
  Pr  Pr2  1  0.75000000  0.46232632  0.65017324  1
  Pr  Pr3  1  0.25000000  0.22544068  0.86808868  1
  Pr  Pr4  1  0.25000000  0.08820131  0.62703378  1
  Pr  Pr5  1  0.75000000  0.27455932  0.36808868  1
  Pr  Pr6  1  0.25000000  0.03767368  0.15017324  1
  Pr  Pr7  1  0.75000000  0.96232632  0.84982676  1
  Pr  Pr8  1  0.75000000  0.91179869  0.37296622  1
  Pr  Pr9  1  0.25000000  0.72544068  0.63191132  1
  Pr  Pr10  1  0.75000000  0.77455932  0.13191132  1
  Pr  Pr11  1  0.75000000  0.41179869  0.12703378  1
  S  S12  1  0.25000000  0.35786276  0.49831031  1
  S  S13  1  0.75000000  0.14213724  0.99831031  1
  S  S14  1  0.25000000  0.85786276  0.00168969  1
  S  S15  1  0.75000000  0.23322453  0.70100522  1
  S  S16  1  0.75000000  0.92264287  0.60729169  1
  S  S17  1  0.75000000  0.64213724  0.50168969  1
  S  S18  1  0.75000000  0.42264287  0.89270831  1
  S  S19  1  0.25000000  0.76677547  0.29899478  1
  S  S20  1  0.75000000  0.73322453  0.79899478  1
  S  S21  1  0.25000000  0.26677547  0.20100522  1
  S  S22  1  0.25000000  0.07735713  0.39270831  1
  S  S23  1  0.25000000  0.57735713  0.10729169  1
  N  N24  1  0.25000000  0.54961630  0.70188064  1
  N  N25  1  0.25000000  0.04961630  0.79811936  1
  N  N26  1  0.75000000  0.45038370  0.29811936  1
  N  N27  1  0.75000000  0.95038370  0.20188064  1
