# generated using pymatgen
data_RbNa7(CoO3)2
_symmetry_space_group_name_H-M   'P 1'
_cell_length_a   4.43595585
_cell_length_b   5.87511496
_cell_length_c   10.81433699
_cell_angle_alpha   91.24534682
_cell_angle_beta   89.99964646
_cell_angle_gamma   112.17959615
_symmetry_Int_Tables_number   1
_chemical_formula_structural   RbNa7(CoO3)2
_chemical_formula_sum   'Rb1 Na7 Co2 O6'
_cell_volume   260.91390669
_cell_formula_units_Z   1
loop_
 _symmetry_equiv_pos_site_id
 _symmetry_equiv_pos_as_xyz
  1  'x, y, z'
loop_
 _atom_site_type_symbol
 _atom_site_label
 _atom_site_symmetry_multiplicity
 _atom_site_fract_x
 _atom_site_fract_y
 _atom_site_fract_z
 _atom_site_occupancy
  Rb  Rb0  1  1.00000094  0.99999816  0.99997313  1
  Na  Na1  1  0.14437597  0.28859836  0.72053818  1
  Na  Na2  1  0.27318635  0.54652616  0.10502583  1
  Na  Na3  1  0.76752053  0.53515354  0.59352369  1
  Na  Na4  1  0.72680799  0.45345735  0.89498239  1
  Na  Na5  1  0.85563433  0.71142002  0.27946911  1
  Na  Na6  1  0.23248721  0.46485200  0.40647474  1
  Na  Na7  1  0.49998801  1.00001512  0.49999980  1
  Co  Co8  1  0.41593893  0.83185414  0.76007416  1
  Co  Co9  1  0.58406276  0.16814086  0.23992451  1
  O  O10  1  0.41726565  0.83459564  0.26971874  1
  O  O11  1  0.32287136  0.64583016  0.60551320  1
  O  O12  1  0.67713092  0.35417084  0.39448790  1
  O  O13  1  0.31436475  0.62863894  0.89388200  1
  O  O14  1  0.58273422  0.16540271  0.73029433  1
  O  O15  1  0.68563109  0.37134600  0.10611629  1
