# generated using pymatgen
data_K2MoP2O9
_symmetry_space_group_name_H-M   'P 1'
_cell_length_a   8.13392788
_cell_length_b   8.13392829
_cell_length_c   15.75430856
_cell_angle_alpha   82.38692769
_cell_angle_beta   82.38692729
_cell_angle_gamma   60.52475709
_symmetry_Int_Tables_number   1
_chemical_formula_structural   K2MoP2O9
_chemical_formula_sum   'K8 Mo4 P8 O36'
_cell_volume   896.67082453
_cell_formula_units_Z   4
loop_
 _symmetry_equiv_pos_site_id
 _symmetry_equiv_pos_as_xyz
  1  'x, y, z'
loop_
 _atom_site_type_symbol
 _atom_site_label
 _atom_site_symmetry_multiplicity
 _atom_site_fract_x
 _atom_site_fract_y
 _atom_site_fract_z
 _atom_site_occupancy
  K  K0  1  0.30235434  0.98657628  0.76270198  1
  K  K1  1  0.01342372  0.69764566  0.73729802  1
  K  K2  1  0.69764566  0.01342372  0.23729802  1
  K  K3  1  0.98657628  0.30235434  0.26270198  1
  K  K4  1  0.06335609  0.22677181  0.52577295  1
  K  K5  1  0.77322819  0.93664391  0.97422705  1
  K  K6  1  0.93664391  0.77322819  0.47422705  1
  K  K7  1  0.22677181  0.06335609  0.02577295  1
  Mo  Mo8  1  0.52866989  0.24464500  0.63586167  1
  Mo  Mo9  1  0.75535500  0.47133011  0.86413833  1
  Mo  Mo10  1  0.47133011  0.75535500  0.36413833  1
  Mo  Mo11  1  0.24464500  0.52866989  0.13586167  1
  P  P12  1  0.70880551  0.54772006  0.65515780  1
  P  P13  1  0.45227994  0.29119449  0.84484220  1
  P  P14  1  0.29119449  0.45227994  0.34484220  1
  P  P15  1  0.54772006  0.70880551  0.15515780  1
  P  P16  1  0.34139228  0.73427516  0.57673630  1
  P  P17  1  0.26572484  0.65860772  0.92326370  1
  P  P18  1  0.65860772  0.26572484  0.42326370  1
  P  P19  1  0.73427516  0.34139228  0.07673630  1
  O  O20  1  0.88505165  0.55776927  0.62084126  1
  O  O21  1  0.44223073  0.11494835  0.87915874  1
  O  O22  1  0.11494835  0.44223073  0.37915874  1
  O  O23  1  0.55776927  0.88505165  0.12084126  1
  O  O24  1  0.71587772  0.35982646  0.64433543  1
  O  O25  1  0.64017354  0.28412228  0.85566457  1
  O  O26  1  0.28412228  0.64017354  0.35566457  1
  O  O27  1  0.35982646  0.71587772  0.14433543  1
  O  O28  1  0.17924229  0.87577216  0.63096669  1
  O  O29  1  0.12422784  0.82075771  0.86903331  1
  O  O30  1  0.82075771  0.12422784  0.36903331  1
  O  O31  1  0.87577216  0.17924229  0.13096669  1
  O  O32  1  0.35850597  0.53699522  0.58388668  1
  O  O33  1  0.46300478  0.64149403  0.91611332  1
  O  O34  1  0.64149403  0.46300478  0.41611332  1
  O  O35  1  0.53699522  0.35850597  0.08388668  1
  O  O36  1  0.32637625  0.81780428  0.48110061  1
  O  O37  1  0.18219572  0.67362375  0.01889939  1
  O  O38  1  0.67362375  0.18219572  0.51889939  1
  O  O39  1  0.81780428  0.32637625  0.98110061  1
  O  O40  1  0.53738141  0.71573692  0.60181419  1
  O  O41  1  0.28426308  0.46261859  0.89818581  1
  O  O42  1  0.46261859  0.28426308  0.39818581  1
  O  O43  1  0.71573692  0.53738141  0.10181419  1
  O  O44  1  0.64032373  0.60427581  0.75018296  1
  O  O45  1  0.39572419  0.35967627  0.74981704  1
  O  O46  1  0.35967627  0.39572419  0.24981704  1
  O  O47  1  0.60427581  0.64032373  0.25018296  1
  O  O48  1  0.34769172  0.20490027  0.61310198  1
  O  O49  1  0.79509973  0.65230828  0.88689802  1
  O  O50  1  0.65230828  0.79509973  0.38689802  1
  O  O51  1  0.20490027  0.34769172  0.11310198  1
  O  O52  1  0.68272453  0.02857387  0.68618778  1
  O  O53  1  0.97142513  0.31727547  0.81381222  1
  O  O54  1  0.31727547  0.97142513  0.31381222  1
  O  O55  1  0.02857387  0.68272453  0.18618778  1
