# generated using pymatgen
data_Er3SiSe2O10F
_symmetry_space_group_name_H-M   'P 1'
_cell_length_a   5.90701621
_cell_length_b   10.35552778
_cell_length_c   15.44218633
_cell_angle_alpha   90.00000000
_cell_angle_beta   90.00000000
_cell_angle_gamma   90.00000000
_symmetry_Int_Tables_number   1
_chemical_formula_structural   Er3SiSe2O10F
_chemical_formula_sum   'Er12 Si4 Se8 O40 F4'
_cell_volume   944.60271429
_cell_formula_units_Z   4
loop_
 _symmetry_equiv_pos_site_id
 _symmetry_equiv_pos_as_xyz
  1  'x, y, z'
loop_
 _atom_site_type_symbol
 _atom_site_label
 _atom_site_symmetry_multiplicity
 _atom_site_fract_x
 _atom_site_fract_y
 _atom_site_fract_z
 _atom_site_occupancy
  Er  Er0  1  0.92901917  0.88685810  0.34784736  1
  Er  Er1  1  0.07098083  0.11314190  0.65215264  1
  Er  Er2  1  0.25000000  0.37285592  0.50000000  1
  Er  Er3  1  0.75000000  0.62714408  0.50000000  1
  Er  Er4  1  0.42901917  0.11314190  0.34784736  1
  Er  Er5  1  0.42901917  0.38685810  0.15215264  1
  Er  Er6  1  0.57098083  0.61314190  0.84784736  1
  Er  Er7  1  0.75000000  0.87285592  0.00000000  1
  Er  Er8  1  0.92901917  0.61314190  0.15215264  1
  Er  Er9  1  0.07098083  0.38685810  0.84784736  1
  Er  Er10  1  0.57098083  0.88685810  0.65215264  1
  Er  Er11  1  0.25000000  0.12714408  0.00000000  1
  Si  Si12  1  0.75000000  0.35789985  0.00000000  1
  Si  Si13  1  0.25000000  0.85789985  0.50000000  1
  Si  Si14  1  0.75000000  0.14210015  0.50000000  1
  Si  Si15  1  0.25000000  0.64210015  0.00000000  1
  Se  Se16  1  0.03078566  0.88381571  0.82504211  1
  Se  Se17  1  0.96921434  0.11618429  0.17495789  1
  Se  Se18  1  0.96921434  0.38381571  0.32504211  1
  Se  Se19  1  0.53078566  0.11618429  0.82504211  1
  Se  Se20  1  0.53078566  0.38381571  0.67495789  1
  Se  Se21  1  0.46921434  0.61618429  0.32504211  1
  Se  Se22  1  0.03078566  0.61618429  0.67495789  1
  Se  Se23  1  0.46921434  0.88381571  0.17495789  1
  O  O24  1  0.48061276  0.98521538  0.08587116  1
  O  O25  1  0.98061276  0.01478462  0.08587116  1
  O  O26  1  0.23225385  0.55303096  0.91130355  1
  O  O27  1  0.02205613  0.77494365  0.47308116  1
  O  O28  1  0.38097826  0.03282981  0.74478470  1
  O  O29  1  0.73225385  0.44696904  0.91130355  1
  O  O30  1  0.01938724  0.98521538  0.91412884  1
  O  O31  1  0.73225385  0.05303096  0.58869645  1
  O  O32  1  0.47794387  0.72505635  0.97308116  1
  O  O33  1  0.97794387  0.22505635  0.52691884  1
  O  O34  1  0.47794387  0.77494365  0.52691884  1
  O  O35  1  0.88097826  0.96717019  0.74478470  1
  O  O36  1  0.51938724  0.01478462  0.91412884  1
  O  O37  1  0.81739922  0.78239320  0.86115438  1
  O  O38  1  0.98061276  0.48521538  0.41412884  1
  O  O39  1  0.18260078  0.21760680  0.13884562  1
  O  O40  1  0.88097826  0.53282981  0.75521530  1
  O  O41  1  0.76774615  0.05303096  0.41130355  1
  O  O42  1  0.23225385  0.94696904  0.58869645  1
  O  O43  1  0.11902174  0.46717019  0.24478470  1
  O  O44  1  0.38097826  0.46717019  0.75521530  1
  O  O45  1  0.52205613  0.22505635  0.47308116  1
  O  O46  1  0.31739922  0.28239320  0.63884562  1
  O  O47  1  0.76774615  0.44696904  0.08869645  1
  O  O48  1  0.26774615  0.55303096  0.08869645  1
  O  O49  1  0.31739922  0.21760680  0.86115438  1
  O  O50  1  0.52205613  0.27494365  0.02691884  1
  O  O51  1  0.18260078  0.28239320  0.36115438  1
  O  O52  1  0.48061276  0.51478462  0.41412884  1
  O  O53  1  0.02205613  0.72505635  0.02691884  1
  O  O54  1  0.81739922  0.71760680  0.63884562  1
  O  O55  1  0.61902174  0.53282981  0.24478470  1
  O  O56  1  0.68260078  0.78239320  0.13884562  1
  O  O57  1  0.51938724  0.48521538  0.58587116  1
  O  O58  1  0.26774615  0.94696904  0.41130355  1
  O  O59  1  0.11902174  0.03282981  0.25521530  1
  O  O60  1  0.68260078  0.71760680  0.36115438  1
  O  O61  1  0.01938724  0.51478462  0.58587116  1
  O  O62  1  0.97794387  0.27494365  0.97308116  1
  O  O63  1  0.61902174  0.96717019  0.25521530  1
  F  F64  1  0.43914341  0.75000000  0.75000000  1
  F  F65  1  0.93914341  0.25000000  0.75000000  1
  F  F66  1  0.56085659  0.25000000  0.25000000  1
  F  F67  1  0.06085659  0.75000000  0.25000000  1
