# generated using pymatgen
data_Zn4SiTePbO10
_symmetry_space_group_name_H-M   'P 1'
_cell_length_a   6.62229794
_cell_length_b   8.41332930
_cell_length_c   15.84203718
_cell_angle_alpha   90.00000000
_cell_angle_beta   90.00000000
_cell_angle_gamma   90.00000000
_symmetry_Int_Tables_number   1
_chemical_formula_structural   Zn4SiTePbO10
_chemical_formula_sum   'Zn16 Si4 Te4 Pb4 O40'
_cell_volume   882.64818360
_cell_formula_units_Z   4
loop_
 _symmetry_equiv_pos_site_id
 _symmetry_equiv_pos_as_xyz
  1  'x, y, z'
loop_
 _atom_site_type_symbol
 _atom_site_label
 _atom_site_symmetry_multiplicity
 _atom_site_fract_x
 _atom_site_fract_y
 _atom_site_fract_z
 _atom_site_occupancy
  Zn  Zn0  1  0.71443838  0.22877034  0.63611003  1
  Zn  Zn1  1  0.52939890  0.87785412  0.56622524  1
  Zn  Zn2  1  0.78556162  0.72877034  0.13611003  1
  Zn  Zn3  1  0.21443838  0.27122966  0.86388997  1
  Zn  Zn4  1  0.47060110  0.12214588  0.06622524  1
  Zn  Zn5  1  0.97060110  0.37785412  0.43377476  1
  Zn  Zn6  1  0.02939890  0.62214588  0.93377476  1
  Zn  Zn7  1  0.97060110  0.37785412  0.06622524  1
  Zn  Zn8  1  0.02939890  0.62214588  0.56622524  1
  Zn  Zn9  1  0.78556162  0.72877034  0.36388997  1
  Zn  Zn10  1  0.21443838  0.27122966  0.63611003  1
  Zn  Zn11  1  0.47060110  0.12214588  0.43377476  1
  Zn  Zn12  1  0.28556162  0.77122966  0.36388997  1
  Zn  Zn13  1  0.28556162  0.77122966  0.13611003  1
  Zn  Zn14  1  0.52939890  0.87785412  0.93377476  1
  Zn  Zn15  1  0.71443838  0.22877034  0.86388997  1
  Si  Si16  1  0.06585574  0.51067155  0.25000000  1
  Si  Si17  1  0.93414426  0.48932845  0.75000000  1
  Si  Si18  1  0.43414426  0.01067155  0.75000000  1
  Si  Si19  1  0.56585574  0.98932845  0.25000000  1
  Te  Te20  1  0.00000000  0.00000000  0.50000000  1
  Te  Te21  1  0.50000000  0.50000000  0.00000000  1
  Te  Te22  1  0.00000000  0.00000000  0.00000000  1
  Te  Te23  1  0.50000000  0.50000000  0.50000000  1
  Pb  Pb24  1  0.05588327  0.08997903  0.25000000  1
  Pb  Pb25  1  0.55588327  0.41002097  0.25000000  1
  Pb  Pb26  1  0.44411673  0.58997903  0.75000000  1
  Pb  Pb27  1  0.94411673  0.91002097  0.75000000  1
  O  O28  1  0.47349571  0.65781108  0.91044153  1
  O  O29  1  0.08423933  0.48181376  0.66697363  1
  O  O30  1  0.52474057  0.67032180  0.08583881  1
  O  O31  1  0.02474057  0.82967820  0.41416119  1
  O  O32  1  0.02474057  0.82967820  0.08583881  1
  O  O33  1  0.22007051  0.66664272  0.25000000  1
  O  O34  1  0.20697564  0.50586626  0.48497649  1
  O  O35  1  0.02650429  0.15781108  0.41044153  1
  O  O36  1  0.52650429  0.34218892  0.08955847  1
  O  O37  1  0.79302436  0.49413374  0.98497649  1
  O  O38  1  0.77992949  0.33335728  0.75000000  1
  O  O39  1  0.30563298  0.84475465  0.75000000  1
  O  O40  1  0.97349571  0.84218892  0.58955847  1
  O  O41  1  0.97525943  0.17032180  0.58583881  1
  O  O42  1  0.80563298  0.65524535  0.75000000  1
  O  O43  1  0.72007051  0.83335728  0.25000000  1
  O  O44  1  0.47349571  0.65781108  0.58955847  1
  O  O45  1  0.69436702  0.15524535  0.25000000  1
  O  O46  1  0.52474057  0.67032180  0.41416119  1
  O  O47  1  0.91576067  0.51818624  0.16697363  1
  O  O48  1  0.41576067  0.98181376  0.33302637  1
  O  O49  1  0.29302436  0.00586626  0.51502351  1
  O  O50  1  0.58423933  0.01818624  0.66697363  1
  O  O51  1  0.52650429  0.34218892  0.41044153  1
  O  O52  1  0.47525943  0.32967820  0.91416119  1
  O  O53  1  0.41576067  0.98181376  0.16697363  1
  O  O54  1  0.20697564  0.50586626  0.01502351  1
  O  O55  1  0.58423933  0.01818624  0.83302637  1
  O  O56  1  0.29302436  0.00586626  0.98497649  1
  O  O57  1  0.19436702  0.34475465  0.25000000  1
  O  O58  1  0.02650429  0.15781108  0.08955847  1
  O  O59  1  0.47525943  0.32967820  0.58583881  1
  O  O60  1  0.08423933  0.48181376  0.83302637  1
  O  O61  1  0.97349571  0.84218892  0.91044153  1
  O  O62  1  0.91576067  0.51818624  0.33302637  1
  O  O63  1  0.70697564  0.99413374  0.48497649  1
  O  O64  1  0.79302436  0.49413374  0.51502351  1
  O  O65  1  0.27992949  0.16664272  0.75000000  1
  O  O66  1  0.97525943  0.17032180  0.91416119  1
  O  O67  1  0.70697564  0.99413374  0.01502351  1
