# generated using pymatgen
data_Ge
_symmetry_space_group_name_H-M   'P 1'
_cell_length_a   6.02665042
_cell_length_b   6.02665042
_cell_length_c   7.10586777
_cell_angle_alpha   90.00000000
_cell_angle_beta   90.00000000
_cell_angle_gamma   90.00000000
_symmetry_Int_Tables_number   1
_chemical_formula_structural   Ge
_chemical_formula_sum   Ge12
_cell_volume   258.08877895
_cell_formula_units_Z   12
loop_
 _symmetry_equiv_pos_site_id
 _symmetry_equiv_pos_as_xyz
  1  'x, y, z'
loop_
 _atom_site_type_symbol
 _atom_site_label
 _atom_site_symmetry_multiplicity
 _atom_site_fract_x
 _atom_site_fract_y
 _atom_site_fract_z
 _atom_site_occupancy
  Ge  Ge0  1  0.08764839  0.08764839  0.00000000  1
  Ge  Ge1  1  0.41235161  0.58764839  0.75000000  1
  Ge  Ge2  1  0.58764839  0.41235161  0.25000000  1
  Ge  Ge3  1  0.91235161  0.91235161  0.50000000  1
  Ge  Ge4  1  0.17139943  0.37039500  0.25322832  1
  Ge  Ge5  1  0.12960500  0.67139943  0.00322832  1
  Ge  Ge6  1  0.87039500  0.32860057  0.50322832  1
  Ge  Ge7  1  0.67139943  0.12960500  0.99677168  1
  Ge  Ge8  1  0.32860057  0.87039500  0.49677168  1
  Ge  Ge9  1  0.82860057  0.62960500  0.75322832  1
  Ge  Ge10  1  0.37039500  0.17139943  0.74677168  1
  Ge  Ge11  1  0.62960500  0.82860057  0.24677168  1
