# generated using pymatgen
data_Na2Sr2Al2PO4F9
_symmetry_space_group_name_H-M   'P 1'
_cell_length_a   5.33846110
_cell_length_b   10.62911225
_cell_length_c   17.97380900
_cell_angle_alpha   90.00000000
_cell_angle_beta   91.05801447
_cell_angle_gamma   90.00000000
_symmetry_Int_Tables_number   1
_chemical_formula_structural   Na2Sr2Al2PO4F9
_chemical_formula_sum   'Na8 Sr8 Al8 P4 O16 F36'
_cell_volume   1019.71580229
_cell_formula_units_Z   4
loop_
 _symmetry_equiv_pos_site_id
 _symmetry_equiv_pos_as_xyz
  1  'x, y, z'
loop_
 _atom_site_type_symbol
 _atom_site_label
 _atom_site_symmetry_multiplicity
 _atom_site_fract_x
 _atom_site_fract_y
 _atom_site_fract_z
 _atom_site_occupancy
  Na  Na0  1  0.52022356  0.27984399  0.01884725  1
  Na  Na1  1  0.02357657  0.74294101  0.86815637  1
  Na  Na2  1  0.97642343  0.25705899  0.13184363  1
  Na  Na3  1  0.47977644  0.72015601  0.98115275  1
  Na  Na4  1  0.52357657  0.75705899  0.36815637  1
  Na  Na5  1  0.97977644  0.77984399  0.48115275  1
  Na  Na6  1  0.02022356  0.22015601  0.51884725  1
  Na  Na7  1  0.47642343  0.24294101  0.63184363  1
  Sr  Sr8  1  0.49289341  0.53882571  0.16843731  1
  Sr  Sr9  1  0.50710659  0.46117429  0.83156269  1
  Sr  Sr10  1  0.00710659  0.03882571  0.33156269  1
  Sr  Sr11  1  0.99976919  0.46339030  0.35696945  1
  Sr  Sr12  1  0.49976919  0.03660970  0.85696945  1
  Sr  Sr13  1  0.50023081  0.96339030  0.14303055  1
  Sr  Sr14  1  0.00023081  0.53660970  0.64303055  1
  Sr  Sr15  1  0.99289341  0.96117429  0.66843731  1
  Al  Al16  1  0.54481449  0.75295514  0.75898506  1
  Al  Al17  1  0.00000000  0.50000000  0.00000000  1
  Al  Al18  1  0.04481449  0.74704486  0.25898506  1
  Al  Al19  1  0.50000000  0.00000000  0.50000000  1
  Al  Al20  1  0.95518551  0.25295514  0.74101494  1
  Al  Al21  1  0.45518551  0.24704486  0.24101494  1
  Al  Al22  1  0.00000000  0.00000000  0.00000000  1
  Al  Al23  1  0.50000000  0.50000000  0.50000000  1
  P  P24  1  0.03646580  0.25039282  0.90947019  1
  P  P25  1  0.53646580  0.24960718  0.40947019  1
  P  P26  1  0.46353420  0.75039282  0.59052981  1
  P  P27  1  0.96353420  0.74960718  0.09052981  1
  O  O28  1  0.10652086  0.69837654  0.16101080  1
  O  O29  1  0.54519650  0.82714065  0.52207991  1
  O  O30  1  0.39347914  0.19837654  0.33898920  1
  O  O31  1  0.95480350  0.32714065  0.97792009  1
  O  O32  1  0.32287442  0.25570811  0.89913355  1
  O  O33  1  0.44206911  0.38702308  0.41970396  1
  O  O34  1  0.94206911  0.11297692  0.91970396  1
  O  O35  1  0.82287442  0.24429189  0.39913355  1
  O  O36  1  0.45480350  0.17285935  0.47792009  1
  O  O37  1  0.17712558  0.75570811  0.60086645  1
  O  O38  1  0.67712558  0.74429189  0.10086645  1
  O  O39  1  0.04519650  0.67285935  0.02207991  1
  O  O40  1  0.55793089  0.61297692  0.58029604  1
  O  O41  1  0.60652086  0.80162346  0.66101080  1
  O  O42  1  0.89347914  0.30162346  0.83898920  1
  O  O43  1  0.05793089  0.88702308  0.08029604  1
  F  F44  1  0.00043104  0.78639204  0.35668428  1
  F  F45  1  0.65880917  0.96603365  0.41157269  1
  F  F46  1  0.69973031  0.13537320  0.73967301  1
  F  F47  1  0.49956896  0.28639204  0.14331572  1
  F  F48  1  0.80026969  0.63537320  0.76032699  1
  F  F49  1  0.70608581  0.13086133  0.23239089  1
  F  F50  1  0.20608581  0.36913867  0.73239089  1
  F  F51  1  0.22961695  0.12437596  0.21109258  1
  F  F52  1  0.72961695  0.37562404  0.71109258  1
  F  F53  1  0.34119083  0.03396635  0.58842731  1
  F  F54  1  0.27038305  0.62437596  0.28890742  1
  F  F55  1  0.15880917  0.53396635  0.91157269  1
  F  F56  1  0.79025346  0.09128808  0.06125484  1
  F  F57  1  0.50043104  0.71360796  0.85668428  1
  F  F58  1  0.17056922  0.12491090  0.76371130  1
  F  F59  1  0.29658077  0.46614915  0.04802387  1
  F  F60  1  0.29025346  0.40871192  0.56125484  1
  F  F61  1  0.99956896  0.21360796  0.64331572  1
  F  F62  1  0.70974654  0.59128808  0.43874516  1
  F  F63  1  0.82943078  0.87508910  0.23628870  1
  F  F64  1  0.79391419  0.63086133  0.26760911  1
  F  F65  1  0.20341923  0.96614915  0.45197613  1
  F  F66  1  0.73319574  0.91022870  0.96294929  1
  F  F67  1  0.26680426  0.08977130  0.03705071  1
  F  F68  1  0.32943078  0.62491090  0.73628870  1
  F  F69  1  0.79658077  0.03385085  0.54802387  1
  F  F70  1  0.77038305  0.87562404  0.78890742  1
  F  F71  1  0.20974654  0.90871192  0.93874516  1
  F  F72  1  0.67056922  0.37508910  0.26371130  1
  F  F73  1  0.29391419  0.86913867  0.76760911  1
  F  F74  1  0.19973031  0.36462680  0.23967301  1
  F  F75  1  0.84119083  0.46603365  0.08842731  1
  F  F76  1  0.70341923  0.53385085  0.95197613  1
  F  F77  1  0.23319574  0.58977130  0.46294929  1
  F  F78  1  0.76680426  0.41022870  0.53705071  1
  F  F79  1  0.30026969  0.86462680  0.26032699  1
