# generated using pymatgen
data_Pr5(RuO6)2
_symmetry_space_group_name_H-M   'P 1'
_cell_length_a   6.02681611
_cell_length_b   7.12501047
_cell_length_c   7.74379386
_cell_angle_alpha   105.77034080
_cell_angle_beta   90.00000000
_cell_angle_gamma   115.01995222
_symmetry_Int_Tables_number   1
_chemical_formula_structural   Pr5(RuO6)2
_chemical_formula_sum   'Pr5 Ru2 O12'
_cell_volume   287.45079830
_cell_formula_units_Z   1
loop_
 _symmetry_equiv_pos_site_id
 _symmetry_equiv_pos_as_xyz
  1  'x, y, z'
loop_
 _atom_site_type_symbol
 _atom_site_label
 _atom_site_symmetry_multiplicity
 _atom_site_fract_x
 _atom_site_fract_y
 _atom_site_fract_z
 _atom_site_occupancy
  Pr  Pr0  1  0.30661607  0.61323214  0.64240991  1
  Pr  Pr1  1  0.69338393  0.38676786  0.35759009  1
  Pr  Pr2  1  0.69065315  0.38130630  0.83279559  1
  Pr  Pr3  1  0.30934685  0.61869370  0.16720441  1
  Pr  Pr4  1  0.00000000  0.00000000  0.50000000  1
  Ru  Ru5  1  0.76511935  0.00000000  0.00000000  1
  Ru  Ru6  1  0.23488065  0.00000000  0.00000000  1
  O  O7  1  0.09551250  0.69040144  0.42208614  1
  O  O8  1  0.99912169  0.99824338  0.81488715  1
  O  O9  1  0.40511106  0.30959856  0.57791386  1
  O  O10  1  0.49982089  0.99964178  0.82899375  1
  O  O11  1  0.09600762  0.68203470  0.92151253  1
  O  O12  1  0.90448750  0.30959856  0.57791386  1
  O  O13  1  0.00087831  0.00175662  0.18511285  1
  O  O14  1  0.59488894  0.69040144  0.42208614  1
  O  O15  1  0.50017911  0.00035822  0.17100625  1
  O  O16  1  0.58602707  0.68203470  0.92151253  1
  O  O17  1  0.41397293  0.31796530  0.07848747  1
  O  O18  1  0.90399238  0.31796530  0.07848747  1
