# generated using pymatgen
data_Ni(NF7)2
_symmetry_space_group_name_H-M   'P 1'
_cell_length_a   6.78832221
_cell_length_b   6.78832222
_cell_length_c   6.78832222
_cell_angle_alpha   91.57549062
_cell_angle_beta   119.09459712
_cell_angle_gamma   119.09459711
_symmetry_Int_Tables_number   1
_chemical_formula_structural   Ni(NF7)2
_chemical_formula_sum   'Ni1 N2 F14'
_cell_volume   224.12886570
_cell_formula_units_Z   1
loop_
 _symmetry_equiv_pos_site_id
 _symmetry_equiv_pos_as_xyz
  1  'x, y, z'
loop_
 _atom_site_type_symbol
 _atom_site_label
 _atom_site_symmetry_multiplicity
 _atom_site_fract_x
 _atom_site_fract_y
 _atom_site_fract_z
 _atom_site_occupancy
  N  N0  1  0.50000000  0.75000000  0.25000000  1
  N  N1  1  0.50000000  0.25000000  0.75000000  1
  F  F2  1  0.71452523  0.40488179  0.97238672  1
  F  F3  1  0.35995888  0.22819288  0.13176600  1
  F  F4  1  0.90357312  0.13176600  0.77180712  1
  F  F5  1  0.09642688  0.86823400  0.22819288  1
  F  F6  1  0.64004112  0.77180712  0.86823400  1
  F  F7  1  0.00000000  0.19063599  0.19063599  1
  F  F8  1  0.00000000  0.80936401  0.80936401  1
  F  F9  1  0.71452523  0.74213851  0.30964344  1
  F  F10  1  0.56750493  0.30964344  0.59511821  1
  F  F11  1  0.43249507  0.02761328  0.74213851  1
  F  F12  1  0.28547477  0.59511821  0.02761328  1
  F  F13  1  0.28547477  0.25786149  0.69035656  1
  F  F14  1  0.43249507  0.69035656  0.40488179  1
  F  F15  1  0.56750493  0.97238672  0.25786149  1
  Ni  Ni16  1  0.00000000  0.00000000  0.00000000  1
