# generated using pymatgen
data_SbSe6IF6
_symmetry_space_group_name_H-M   'P 1'
_cell_length_a   7.25856527
_cell_length_b   9.49630195
_cell_length_c   11.01712348
_cell_angle_alpha   108.70371936
_cell_angle_beta   90.00000000
_cell_angle_gamma   90.00000000
_symmetry_Int_Tables_number   1
_chemical_formula_structural   SbSe6IF6
_chemical_formula_sum   'Sb2 Se12 I2 F12'
_cell_volume   719.30052443
_cell_formula_units_Z   2
loop_
 _symmetry_equiv_pos_site_id
 _symmetry_equiv_pos_as_xyz
  1  'x, y, z'
loop_
 _atom_site_type_symbol
 _atom_site_label
 _atom_site_symmetry_multiplicity
 _atom_site_fract_x
 _atom_site_fract_y
 _atom_site_fract_z
 _atom_site_occupancy
  Sb  Sb0  1  0.00000000  0.00000000  0.00000000  1
  Sb  Sb1  1  0.00000000  0.50000000  0.50000000  1
  Se  Se2  1  0.25704603  0.04980830  0.38841256  1
  Se  Se3  1  0.74295397  0.95019170  0.61158744  1
  Se  Se4  1  0.75459923  0.55291579  0.10985006  1
  Se  Se5  1  0.24540077  0.44708421  0.89014994  1
  Se  Se6  1  0.56770386  0.14211769  0.38380180  1
  Se  Se7  1  0.25704603  0.45019170  0.11158744  1
  Se  Se8  1  0.43229614  0.85788231  0.61619820  1
  Se  Se9  1  0.24540077  0.05291579  0.60985006  1
  Se  Se10  1  0.75459923  0.94708421  0.39014994  1
  Se  Se11  1  0.74295397  0.54980830  0.88841256  1
  Se  Se12  1  0.43229614  0.64211769  0.88380180  1
  Se  Se13  1  0.56770386  0.35788231  0.11619820  1
  I  I14  1  0.27672107  0.75000000  0.25000000  1
  I  I15  1  0.72327893  0.25000000  0.75000000  1
  F  F16  1  0.89726234  0.90266107  0.11363732  1
  F  F17  1  0.22063370  0.45421500  0.39787844  1
  F  F18  1  0.77936630  0.95421500  0.89787844  1
  F  F19  1  0.10483701  0.81426573  0.89728900  1
  F  F20  1  0.10273766  0.09733893  0.88636268  1
  F  F21  1  0.77936630  0.54578500  0.60212156  1
  F  F22  1  0.10273766  0.40266107  0.61363732  1
  F  F23  1  0.89516299  0.18573427  0.10271100  1
  F  F24  1  0.89516299  0.31426573  0.39728900  1
  F  F25  1  0.89726234  0.59733893  0.38636268  1
  F  F26  1  0.10483701  0.68573427  0.60271100  1
  F  F27  1  0.22063370  0.04578500  0.10212156  1
