# generated using pymatgen
data_K2PrCuCl6
_symmetry_space_group_name_H-M   'P 1'
_cell_length_a   7.47289102
_cell_length_b   7.47289147
_cell_length_c   7.47289085
_cell_angle_alpha   59.99879422
_cell_angle_beta   59.99879993
_cell_angle_gamma   59.99878978
_symmetry_Int_Tables_number   1
_chemical_formula_structural   K2PrCuCl6
_chemical_formula_sum   'K2 Pr1 Cu1 Cl6'
_cell_volume   295.07953887
_cell_formula_units_Z   1
loop_
 _symmetry_equiv_pos_site_id
 _symmetry_equiv_pos_as_xyz
  1  'x, y, z'
loop_
 _atom_site_type_symbol
 _atom_site_label
 _atom_site_symmetry_multiplicity
 _atom_site_fract_x
 _atom_site_fract_y
 _atom_site_fract_z
 _atom_site_occupancy
  K  K0  1  0.25000040  0.25000054  0.25000053  1
  K  K1  1  0.74999969  0.74999951  0.74999938  1
  Pr  Pr2  1  0.49999999  0.49999999  0.50000001  1
  Cu  Cu3  1  -0.00000002  0.00000003  0.00000001  1
  Cl  Cl4  1  0.24050501  0.75949364  0.24050505  1
  Cl  Cl5  1  0.75949499  0.75949494  0.24050640  1
  Cl  Cl6  1  0.75949498  0.24050635  0.75949498  1
  Cl  Cl7  1  0.75949362  0.24050502  0.24050505  1
  Cl  Cl8  1  0.24050636  0.75949494  0.75949498  1
  Cl  Cl9  1  0.24050499  0.24050505  0.75949361  1
