# generated using pymatgen
data_In7GeIrO8
_symmetry_space_group_name_H-M   'P 1'
_cell_length_a   7.28747454
_cell_length_b   7.28747452
_cell_length_c   7.28747442
_cell_angle_alpha   60.00000043
_cell_angle_beta   60.00000052
_cell_angle_gamma   60.00000029
_symmetry_Int_Tables_number   1
_chemical_formula_structural   In7GeIrO8
_chemical_formula_sum   'In7 Ge1 Ir1 O8'
_cell_volume   273.66304112
_cell_formula_units_Z   1
loop_
 _symmetry_equiv_pos_site_id
 _symmetry_equiv_pos_as_xyz
  1  'x, y, z'
loop_
 _atom_site_type_symbol
 _atom_site_label
 _atom_site_symmetry_multiplicity
 _atom_site_fract_x
 _atom_site_fract_y
 _atom_site_fract_z
 _atom_site_occupancy
  In  In0  1  0.74996591  0.74996591  0.25003409  1
  In  In1  1  0.25003409  0.25003409  0.74996591  1
  In  In2  1  0.25003409  0.74996591  0.25003409  1
  In  In3  1  0.74996591  0.25003409  0.25003409  1
  In  In4  1  0.74996591  0.25003409  0.74996591  1
  In  In5  1  0.25003409  0.74996591  0.74996591  1
  In  In6  1  0.75000000  0.75000000  0.75000000  1
  Ge  Ge7  1  0.25000000  0.25000000  0.25000000  1
  Ir  Ir8  1  0.00000000  0.00000000  0.00000000  1
  O  O9  1  0.94692476  0.35102508  0.35102508  1
  O  O10  1  0.62970063  0.62970063  0.62970063  1
  O  O11  1  0.35102508  0.35102508  0.94692476  1
  O  O12  1  0.11089811  0.62970063  0.62970063  1
  O  O13  1  0.35102508  0.35102508  0.35102508  1
  O  O14  1  0.62970063  0.62970063  0.11089811  1
  O  O15  1  0.35102508  0.94692476  0.35102508  1
  O  O16  1  0.62970063  0.11089811  0.62970063  1
