# generated using pymatgen
data_Nd4GeO8
_symmetry_space_group_name_H-M   'P 1'
_cell_length_a   5.78789849
_cell_length_b   7.52304212
_cell_length_c   18.26279478
_cell_angle_alpha   90.00000000
_cell_angle_beta   90.00000000
_cell_angle_gamma   90.00000000
_symmetry_Int_Tables_number   1
_chemical_formula_structural   Nd4GeO8
_chemical_formula_sum   'Nd16 Ge4 O32'
_cell_volume   795.20964335
_cell_formula_units_Z   4
loop_
 _symmetry_equiv_pos_site_id
 _symmetry_equiv_pos_as_xyz
  1  'x, y, z'
loop_
 _atom_site_type_symbol
 _atom_site_label
 _atom_site_symmetry_multiplicity
 _atom_site_fract_x
 _atom_site_fract_y
 _atom_site_fract_z
 _atom_site_occupancy
  Nd  Nd0  1  0.26971513  0.74080580  0.11372709  1
  Nd  Nd1  1  0.70864727  -0.00000000  0.79445255  1
  Nd  Nd2  1  0.72941511  -0.00000000  0.99718321  1
  Nd  Nd3  1  0.77366371  0.24084503  0.40977953  1
  Nd  Nd4  1  0.21142959  0.50000000  0.72875800  1
  Nd  Nd5  1  0.22633629  0.75915497  0.90977953  1
  Nd  Nd6  1  0.73028487  0.25919420  0.61372709  1
  Nd  Nd7  1  0.22633629  0.24084503  0.90977953  1
  Nd  Nd8  1  0.23378666  0.50000000  0.52608800  1
  Nd  Nd9  1  0.73028487  0.74080580  0.61372709  1
  Nd  Nd10  1  0.27058489  -0.00000000  0.49718321  1
  Nd  Nd11  1  0.78857041  0.50000000  0.22875800  1
  Nd  Nd12  1  0.29135273  -0.00000000  0.29445255  1
  Nd  Nd13  1  0.26971513  0.25919420  0.11372709  1
  Nd  Nd14  1  0.77366371  0.75915497  0.40977953  1
  Nd  Nd15  1  0.76621334  0.50000000  0.02608800  1
  Ge  Ge16  1  0.75779167  -0.00000000  0.20250682  1
  Ge  Ge17  1  0.74084782  0.50000000  0.82044644  1
  Ge  Ge18  1  0.25915218  0.50000000  0.32044644  1
  Ge  Ge19  1  0.24220833  -0.00000000  0.70250682  1
  O  O20  1  0.47475318  0.50000000  0.63666692  1
  O  O21  1  0.44559971  0.50000000  0.84992197  1
  O  O22  1  0.52157225  -0.00000000  0.39553563  1
  O  O23  1  0.67682911  0.18944253  0.25528705  1
  O  O24  1  0.00621589  0.23106136  0.01751979  1
  O  O25  1  0.47842775  -0.00000000  0.89553563  1
  O  O26  1  0.51075381  0.26886224  0.50590386  1
  O  O27  1  0.94262511  0.50000000  0.89555533  1
  O  O28  1  0.52524682  0.50000000  0.13666692  1
  O  O29  1  0.48924619  0.26886224  0.00590386  1
  O  O30  1  0.01781113  0.50000000  0.12763530  1
  O  O31  1  0.32317089  0.81055747  0.75528705  1
  O  O32  1  0.55478803  -0.00000000  0.12771577  1
  O  O33  1  0.97123890  -0.00000000  0.88671336  1
  O  O34  1  0.82202733  0.68946819  0.76768758  1
  O  O35  1  0.99378411  0.23106136  0.51751979  1
  O  O36  1  0.99378411  0.76893864  0.51751979  1
  O  O37  1  0.67682911  0.81055747  0.25528705  1
  O  O38  1  0.98218887  0.50000000  0.62763530  1
  O  O39  1  0.32317089  0.18944253  0.75528705  1
  O  O40  1  0.94692776  -0.00000000  0.67340990  1
  O  O41  1  0.48924619  0.73113776  0.00590386  1
  O  O42  1  0.00621589  0.76893864  0.01751979  1
  O  O43  1  0.17797267  0.31053181  0.26768758  1
  O  O44  1  0.44521197  -0.00000000  0.62771577  1
  O  O45  1  0.02876110  -0.00000000  0.38671336  1
  O  O46  1  0.05737489  0.50000000  0.39555533  1
  O  O47  1  0.17797267  0.68946819  0.26768758  1
  O  O48  1  0.05307224  -0.00000000  0.17340990  1
  O  O49  1  0.51075381  0.73113776  0.50590386  1
  O  O50  1  0.82202733  0.31053181  0.76768758  1
  O  O51  1  0.55440029  0.50000000  0.34992197  1
