# generated using pymatgen
data_Er3CuSiS7
_symmetry_space_group_name_H-M   'P 1'
_cell_length_a   9.80957941
_cell_length_b   9.80957925
_cell_length_c   5.69736703
_cell_angle_alpha   90.00000000
_cell_angle_beta   90.00000000
_cell_angle_gamma   120.00000053
_symmetry_Int_Tables_number   1
_chemical_formula_structural   Er3CuSiS7
_chemical_formula_sum   'Er6 Cu2 Si2 S14'
_cell_volume   474.79440764
_cell_formula_units_Z   2
loop_
 _symmetry_equiv_pos_site_id
 _symmetry_equiv_pos_as_xyz
  1  'x, y, z'
loop_
 _atom_site_type_symbol
 _atom_site_label
 _atom_site_symmetry_multiplicity
 _atom_site_fract_x
 _atom_site_fract_y
 _atom_site_fract_z
 _atom_site_occupancy
  Er  Er0  1  0.13258383  0.35772622  0.74454803  1
  Er  Er1  1  0.77485379  0.13258135  0.24454783  1
  Er  Er2  1  0.86741865  0.64227244  0.24454783  1
  Er  Er3  1  0.35772756  0.22514621  0.24454783  1
  Er  Er4  1  0.22514239  0.86741617  0.74454803  1
  Er  Er5  1  0.64227378  0.77485761  0.74454803  1
  Cu  Cu6  1  0.00000000  0.00000000  0.19394976  1
  Si  Si7  1  0.66666700  0.33333300  0.83239046  1
  Cu  Cu8  1  0.00000000  0.00000000  0.69400905  1
  Si  Si9  1  0.33333300  0.66666700  0.33239120  1
  S  S10  1  0.41918047  0.52362269  0.48350485  1
  S  S11  1  0.26016143  0.16180381  0.71170250  1
  S  S12  1  0.47637731  0.89555777  0.48350485  1
  S  S13  1  0.10444223  0.58081953  0.48350485  1
  S  S14  1  0.58082040  0.47637809  0.98350319  1
  S  S15  1  0.73984163  0.83819771  0.21170103  1
  S  S16  1  0.90164238  0.73983857  0.71170250  1
  S  S17  1  0.52362191  0.10444231  0.98350319  1
  S  S18  1  0.83819619  0.09835762  0.71170250  1
  S  S19  1  0.16180229  0.90164391  0.21170103  1
  S  S20  1  0.09835609  0.26015837  0.21170103  1
  S  S21  1  0.89555769  0.41917960  0.98350319  1
  S  S22  1  0.66666700  0.33333300  0.46096917  1
  S  S23  1  0.33333300  0.66666700  0.96096811  1
