# generated using pymatgen
data_Ca5(ReO6)2
_symmetry_space_group_name_H-M   'P 1'
_cell_length_a   19.23257768
_cell_length_b   19.23257728
_cell_length_c   19.23257736
_cell_angle_alpha   29.08231033
_cell_angle_beta   29.08231250
_cell_angle_gamma   29.08231201
_symmetry_Int_Tables_number   1
_chemical_formula_structural   Ca5(ReO6)2
_chemical_formula_sum   'Ca30 Re12 O72'
_cell_volume   1486.78015265
_cell_formula_units_Z   6
loop_
 _symmetry_equiv_pos_site_id
 _symmetry_equiv_pos_as_xyz
  1  'x, y, z'
loop_
 _atom_site_type_symbol
 _atom_site_label
 _atom_site_symmetry_multiplicity
 _atom_site_fract_x
 _atom_site_fract_y
 _atom_site_fract_z
 _atom_site_occupancy
  Ca  Ca0  1  0.79939156  0.46403240  0.17394744  1
  Ca  Ca1  1  0.46403240  0.17394744  0.79939156  1
  Ca  Ca2  1  0.50799587  0.21875379  0.92072529  1
  Ca  Ca3  1  0.89595099  0.89595099  0.89595099  1
  Ca  Ca4  1  0.78124621  0.07927471  0.49200413  1
  Ca  Ca5  1  0.07927471  0.49200413  0.78124621  1
  Ca  Ca6  1  0.32605256  0.03596760  0.70060844  1
  Ca  Ca7  1  0.70060844  0.32605256  0.03596760  1
  Ca  Ca8  1  0.10404901  0.10404901  0.10404901  1
  Ca  Ca9  1  0.00799587  0.42072529  0.71875379  1
  Ca  Ca10  1  0.67394744  0.96403240  0.29939156  1
  Ca  Ca11  1  0.53596760  0.82605256  0.20060844  1
  Ca  Ca12  1  0.17394744  0.79939156  0.46403240  1
  Ca  Ca13  1  0.96403240  0.29939156  0.67394744  1
  Ca  Ca14  1  0.75000000  0.75000000  0.75000000  1
  Ca  Ca15  1  0.57927471  0.28124621  0.99200413  1
  Ca  Ca16  1  0.29939156  0.67394744  0.96403240  1
  Ca  Ca17  1  0.21875379  0.92072529  0.50799587  1
  Ca  Ca18  1  0.49200413  0.78124621  0.07927471  1
  Ca  Ca19  1  0.71875379  0.00799587  0.42072529  1
  Ca  Ca20  1  0.99200413  0.57927471  0.28124621  1
  Ca  Ca21  1  0.82605256  0.20060844  0.53596760  1
  Ca  Ca22  1  0.28124621  0.99200413  0.57927471  1
  Ca  Ca23  1  0.39595099  0.39595099  0.39595099  1
  Ca  Ca24  1  0.60404901  0.60404901  0.60404901  1
  Ca  Ca25  1  0.92072529  0.50799587  0.21875379  1
  Ca  Ca26  1  0.42072529  0.71875379  0.00799587  1
  Ca  Ca27  1  0.03596760  0.70060844  0.32605256  1
  Ca  Ca28  1  0.25000000  0.25000000  0.25000000  1
  Ca  Ca29  1  0.20060844  0.53596760  0.82605256  1
  Re  Re30  1  0.83907208  0.83907208  0.83907208  1
  Re  Re31  1  0.75000000  0.41590331  0.08409669  1
  Re  Re32  1  0.58409669  0.91590331  0.25000000  1
  Re  Re33  1  0.16092792  0.16092792  0.16092792  1
  Re  Re34  1  0.00000000  0.00000000  0.00000000  1
  Re  Re35  1  0.08409669  0.75000000  0.41590331  1
  Re  Re36  1  0.50000000  0.50000000  0.50000000  1
  Re  Re37  1  0.33907208  0.33907208  0.33907208  1
  Re  Re38  1  0.25000000  0.58409669  0.91590331  1
  Re  Re39  1  0.91590331  0.25000000  0.58409669  1
  Re  Re40  1  0.66092792  0.66092792  0.66092792  1
  Re  Re41  1  0.41590331  0.08409669  0.75000000  1
  O  O42  1  0.52646762  0.35222921  0.67919459  1
  O  O43  1  0.33295012  0.94233134  0.97294845  1
  O  O44  1  0.58595476  0.96741074  0.77386097  1
  O  O45  1  0.14777079  0.97353238  0.82080541  1
  O  O46  1  0.70039730  0.76870335  0.20907573  1
  O  O47  1  0.79960270  0.29092427  0.73129665  1
  O  O48  1  0.64777079  0.32080541  0.47353238  1
  O  O49  1  0.97320902  0.93085383  0.67780282  1
  O  O50  1  0.97294845  0.33295012  0.94233134  1
  O  O51  1  0.85222921  0.02646762  0.17919459  1
  O  O52  1  0.75780722  0.00930284  0.69804973  1
  O  O53  1  0.24219278  0.99069716  0.30195027  1
  O  O54  1  0.49069716  0.74219278  0.80195027  1
  O  O55  1  0.53258926  0.91404524  0.72613903  1
  O  O56  1  0.52679098  0.82219718  0.56914617  1
  O  O57  1  0.08595476  0.27386097  0.46741074  1
  O  O58  1  0.03258926  0.22613903  0.41404524  1
  O  O59  1  0.22613903  0.41404524  0.03258926  1
  O  O60  1  0.82219718  0.56914617  0.52679098  1
  O  O61  1  0.47353238  0.64777079  0.32080541  1
  O  O62  1  0.52705155  0.55766866  0.16704988  1
  O  O63  1  0.47294845  0.44233134  0.83295012  1
  O  O64  1  0.00930284  0.69804973  0.75780722  1
  O  O65  1  0.02679098  0.06914617  0.32219718  1
  O  O66  1  0.06914617  0.32219718  0.02679098  1
  O  O67  1  0.66704988  0.05766866  0.02705155  1
  O  O68  1  0.94233134  0.97294845  0.33295012  1
  O  O69  1  0.26870335  0.20039730  0.70907573  1
  O  O70  1  0.41404524  0.03258926  0.22613903  1
  O  O71  1  0.93085383  0.67780282  0.97320902  1
  O  O72  1  0.35222921  0.67919459  0.52646762  1
  O  O73  1  0.91404524  0.72613903  0.53258926  1
  O  O74  1  0.67780282  0.97320902  0.93085383  1
  O  O75  1  0.74219278  0.80195027  0.49069716  1
  O  O76  1  0.82080541  0.14777079  0.97353238  1
  O  O77  1  0.32080541  0.47353238  0.64777079  1
  O  O78  1  0.02646762  0.17919459  0.85222921  1
  O  O79  1  0.17919459  0.85222921  0.02646762  1
  O  O80  1  0.96741074  0.77386097  0.58595476  1
  O  O81  1  0.73129665  0.79960270  0.29092427  1
  O  O82  1  0.17780282  0.43085383  0.47320902  1
  O  O83  1  0.70907573  0.26870335  0.20039730  1
  O  O84  1  0.05766866  0.02705155  0.66704988  1
  O  O85  1  0.25780722  0.19804973  0.50930284  1
  O  O86  1  0.19804973  0.50930284  0.25780722  1
  O  O87  1  0.29960270  0.23129665  0.79092427  1
  O  O88  1  0.16704988  0.52705155  0.55766866  1
  O  O89  1  0.47320902  0.17780282  0.43085383  1
  O  O90  1  0.67919459  0.52646762  0.35222921  1
  O  O91  1  0.99069716  0.30195027  0.24219278  1
  O  O92  1  0.83295012  0.47294845  0.44233134  1
  O  O93  1  0.72613903  0.53258926  0.91404524  1
  O  O94  1  0.80195027  0.49069716  0.74219278  1
  O  O95  1  0.23129665  0.79092427  0.29960270  1
  O  O96  1  0.77386097  0.58595476  0.96741074  1
  O  O97  1  0.29092427  0.73129665  0.79960270  1
  O  O98  1  0.97353238  0.82080541  0.14777079  1
  O  O99  1  0.02705155  0.66704988  0.05766866  1
  O  O100  1  0.50930284  0.25780722  0.19804973  1
  O  O101  1  0.32219718  0.02679098  0.06914617  1
  O  O102  1  0.55766866  0.16704988  0.52705155  1
  O  O103  1  0.76870335  0.20907573  0.70039730  1
  O  O104  1  0.27386097  0.46741074  0.08595476  1
  O  O105  1  0.56914617  0.52679098  0.82219718  1
  O  O106  1  0.46741074  0.08595476  0.27386097  1
  O  O107  1  0.30195027  0.24219278  0.99069716  1
  O  O108  1  0.20907573  0.70039730  0.76870335  1
  O  O109  1  0.79092427  0.29960270  0.23129665  1
  O  O110  1  0.20039730  0.70907573  0.26870335  1
  O  O111  1  0.69804973  0.75780722  0.00930284  1
  O  O112  1  0.44233134  0.83295012  0.47294845  1
  O  O113  1  0.43085383  0.47320902  0.17780282  1
