# generated using pymatgen
data_K3Nd(AsS4)2
_symmetry_space_group_name_H-M   'P 1'
_cell_length_a   9.10152085
_cell_length_b   10.29483887
_cell_length_c   11.04348718
_cell_angle_alpha   107.40659121
_cell_angle_beta   102.89897891
_cell_angle_gamma   113.90071548
_symmetry_Int_Tables_number   1
_chemical_formula_structural   K3Nd(AsS4)2
_chemical_formula_sum   'K6 Nd2 As4 S16'
_cell_volume   829.36842495
_cell_formula_units_Z   2
loop_
 _symmetry_equiv_pos_site_id
 _symmetry_equiv_pos_as_xyz
  1  'x, y, z'
loop_
 _atom_site_type_symbol
 _atom_site_label
 _atom_site_symmetry_multiplicity
 _atom_site_fract_x
 _atom_site_fract_y
 _atom_site_fract_z
 _atom_site_occupancy
  K  K0  1  0.25354567  0.00354567  0.00709133  1
  K  K1  1  0.74645433  0.99645433  0.99290867  1
  K  K2  1  0.50815328  0.25815328  0.51630656  1
  K  K3  1  0.50000000  0.50000000  0.00000000  1
  K  K4  1  0.49184672  0.74184672  0.48369344  1
  K  K5  1  0.00000000  0.50000000  0.00000000  1
  Nd  Nd6  1  0.99271909  0.24271909  0.48543819  1
  Nd  Nd7  1  0.00728091  0.75728091  0.51456181  1
  As  As8  1  0.01012723  0.90584744  0.24845509  1
  As  As9  1  0.98987277  0.09415256  0.75154491  1
  As  As10  1  0.26167214  0.65739235  0.75154491  1
  As  As11  1  0.73832786  0.34260765  0.24845509  1
  S  S12  1  0.86314205  0.84420619  0.71173082  1
  S  S13  1  0.63861360  0.26780773  0.02844300  1
  S  S14  1  0.20591012  0.86116861  0.35579565  1
  S  S15  1  0.35011447  0.50537296  0.64420435  1
  S  S16  1  0.02627024  0.47000593  0.34387715  1
  S  S17  1  0.88982940  0.76063526  0.02844300  1
  S  S18  1  0.79408988  0.13883139  0.64420435  1
  S  S19  1  0.97372976  0.52999407  0.65612285  1
  S  S20  1  0.65141123  0.13247537  0.28826918  1
  S  S21  1  0.81760691  0.87387122  0.34387715  1
  S  S22  1  0.18239309  0.12612878  0.65612285  1
  S  S23  1  0.36138640  0.73219227  0.97155700  1
  S  S24  1  0.64988553  0.49462704  0.35579565  1
  S  S25  1  0.13685795  0.15579381  0.28826918  1
  S  S26  1  0.34858877  0.86752463  0.71173082  1
  S  S27  1  0.11017060  0.23936474  0.97155700  1
