# generated using pymatgen
data_NbTl(BO3)2
_symmetry_space_group_name_H-M   'P 1'
_cell_length_a   7.49854977
_cell_length_b   8.02265847
_cell_length_c   9.58601891
_cell_angle_alpha   90.00000000
_cell_angle_beta   90.00000000
_cell_angle_gamma   90.00000000
_symmetry_Int_Tables_number   1
_chemical_formula_structural   NbTl(BO3)2
_chemical_formula_sum   'Nb4 Tl4 B8 O24'
_cell_volume   576.67863806
_cell_formula_units_Z   4
loop_
 _symmetry_equiv_pos_site_id
 _symmetry_equiv_pos_as_xyz
  1  'x, y, z'
loop_
 _atom_site_type_symbol
 _atom_site_label
 _atom_site_symmetry_multiplicity
 _atom_site_fract_x
 _atom_site_fract_y
 _atom_site_fract_z
 _atom_site_occupancy
  Nb  Nb0  1  0.24082118  0.83810910  0.86608385  1
  Nb  Nb1  1  0.74082118  0.66189090  0.36608385  1
  Nb  Nb2  1  0.75917882  0.16189090  0.36608385  1
  Nb  Nb3  1  0.25917882  0.33810910  0.86608385  1
  Tl  Tl4  1  0.25929342  0.00320132  0.25224297  1
  Tl  Tl5  1  0.75929342  0.49679868  0.75224297  1
  Tl  Tl6  1  0.74070658  0.99679868  0.75224297  1
  Tl  Tl7  1  0.24070658  0.50320132  0.25224297  1
  B  B8  1  0.41879809  0.21386253  0.57927149  1
  B  B9  1  0.09014575  0.26206915  0.57669872  1
  B  B10  1  0.90985425  0.73793085  0.07669872  1
  B  B11  1  0.40985425  0.76206915  0.57669872  1
  B  B12  1  0.08120191  0.71386253  0.57927149  1
  B  B13  1  0.58120191  0.78613747  0.07927149  1
  B  B14  1  0.91879809  0.28613747  0.07927149  1
  B  B15  1  0.59014575  0.23793085  0.07669872  1
  O  O16  1  0.44177108  0.84820523  0.00255505  1
  O  O17  1  0.69413297  0.44014276  0.36553030  1
  O  O18  1  0.08578149  0.34011004  0.70315252  1
  O  O19  1  0.58578149  0.15988996  0.20315252  1
  O  O20  1  0.25093198  0.21419599  0.51326056  1
  O  O21  1  0.05822892  0.34820523  0.00255505  1
  O  O22  1  0.05926480  0.76834558  0.71310968  1
  O  O23  1  0.74906802  0.78580401  0.01326056  1
  O  O24  1  0.43595590  0.27229768  0.00829486  1
  O  O25  1  0.44073520  0.26834558  0.71310968  1
  O  O26  1  0.06404410  0.77229768  0.00829486  1
  O  O27  1  0.41421851  0.84011004  0.70315252  1
  O  O28  1  0.94073520  0.23165442  0.21310968  1
  O  O29  1  0.94177108  0.65179477  0.50255505  1
  O  O30  1  0.93595590  0.22770232  0.50829486  1
  O  O31  1  0.19413297  0.05985724  0.86553030  1
  O  O32  1  0.80586703  0.94014276  0.36553030  1
  O  O33  1  0.30586703  0.55985724  0.86553030  1
  O  O34  1  0.55926480  0.73165442  0.21310968  1
  O  O35  1  0.75093198  0.28580401  0.01326056  1
  O  O36  1  0.56404410  0.72770232  0.50829486  1
  O  O37  1  0.24906802  0.71419599  0.51326056  1
  O  O38  1  0.55822892  0.15179477  0.50255505  1
  O  O39  1  0.91421851  0.65988996  0.20315252  1
