# generated using pymatgen
data_KBi(PO3)4
_symmetry_space_group_name_H-M   'P 1'
_cell_length_a   9.12823940
_cell_length_b   10.62004150
_cell_length_c   10.91582231
_cell_angle_alpha   105.96426355
_cell_angle_beta   90.00000000
_cell_angle_gamma   90.00000000
_symmetry_Int_Tables_number   1
_chemical_formula_structural   KBi(PO3)4
_chemical_formula_sum   'K4 Bi4 P16 O48'
_cell_volume   1017.39338934
_cell_formula_units_Z   4
loop_
 _symmetry_equiv_pos_site_id
 _symmetry_equiv_pos_as_xyz
  1  'x, y, z'
loop_
 _atom_site_type_symbol
 _atom_site_label
 _atom_site_symmetry_multiplicity
 _atom_site_fract_x
 _atom_site_fract_y
 _atom_site_fract_z
 _atom_site_occupancy
  K  K0  1  0.07165830  0.70630142  0.95426544  1
  K  K1  1  0.42834170  0.20630142  0.45426544  1
  K  K2  1  0.57165830  0.79369858  0.54573456  1
  K  K3  1  0.92834170  0.29369858  0.04573456  1
  Bi  Bi4  1  0.77531417  0.50020076  0.68516104  1
  Bi  Bi5  1  0.22468583  0.49979924  0.31483896  1
  Bi  Bi6  1  0.27531417  0.99979924  0.81483896  1
  Bi  Bi7  1  0.72468583  0.00020076  0.18516104  1
  P  P8  1  0.89387696  0.17919384  0.48292228  1
  P  P9  1  0.02364012  0.25350062  0.73417483  1
  P  P10  1  0.10612304  0.82080616  0.51707772  1
  P  P11  1  0.32893237  0.96087711  0.14344220  1
  P  P12  1  0.17106763  0.46087711  0.64344220  1
  P  P13  1  0.47635988  0.75350062  0.23417483  1
  P  P14  1  0.39387696  0.32080616  0.01707772  1
  P  P15  1  0.82893237  0.53912289  0.35655780  1
  P  P16  1  0.59399944  0.35583915  0.23954068  1
  P  P17  1  0.90600056  0.85583915  0.73954068  1
  P  P18  1  0.09399944  0.14416085  0.26045932  1
  P  P19  1  0.52364012  0.24649938  0.76582517  1
  P  P20  1  0.60612304  0.67919384  0.98292228  1
  P  P21  1  0.97635988  0.74649938  0.26582517  1
  P  P22  1  0.67106763  0.03912289  0.85655780  1
  P  P23  1  0.40600056  0.64416085  0.76045932  1
  O  O24  1  0.84661959  0.68089715  0.32935999  1
  O  O25  1  0.79460097  0.97801389  0.75032979  1
  O  O26  1  0.96506300  0.45765644  0.31912783  1
  O  O27  1  0.68217993  0.24080495  0.25154637  1
  O  O28  1  0.45325188  0.35178587  0.88860433  1
  O  O29  1  0.53485961  0.60265199  0.67276740  1
  O  O30  1  0.54674812  0.64821413  0.11139567  1
  O  O31  1  0.23671416  0.43344903  0.51261647  1
  O  O32  1  0.03485961  0.89734801  0.82723260  1
  O  O33  1  0.70539903  0.47801389  0.25032979  1
  O  O34  1  0.45195830  0.66326261  0.90647776  1
  O  O35  1  0.65242555  0.82018236  0.01486347  1
  O  O36  1  0.96514039  0.10265199  0.17276740  1
  O  O37  1  0.15338041  0.31910285  0.67064001  1
  O  O38  1  0.46506300  0.04234356  0.18087217  1
  O  O39  1  0.03493700  0.54234356  0.68087217  1
  O  O40  1  0.46514039  0.39734801  0.32723260  1
  O  O41  1  0.08661304  0.64324834  0.20233401  1
  O  O42  1  0.04804170  0.16326261  0.40647776  1
  O  O43  1  0.90923176  0.82311168  0.18336014  1
  O  O44  1  0.04674812  0.85178587  0.38860433  1
  O  O45  1  0.34661959  0.81910285  0.17064001  1
  O  O46  1  0.20539903  0.02198611  0.24967021  1
  O  O47  1  0.21238925  0.92564462  0.58290801  1
  O  O48  1  0.73671416  0.06655097  0.98738353  1
  O  O49  1  0.26328584  0.93344903  0.01261647  1
  O  O50  1  0.40923176  0.67688832  0.31663986  1
  O  O51  1  0.31782007  0.75919505  0.74845363  1
  O  O52  1  0.95195830  0.83673739  0.59352224  1
  O  O53  1  0.34757445  0.17981764  0.98513653  1
  O  O54  1  0.58661304  0.85675166  0.29766599  1
  O  O55  1  0.78761075  0.07435538  0.41709199  1
  O  O56  1  0.41338696  0.14324834  0.70233401  1
  O  O57  1  0.71238925  0.57435538  0.91709199  1
  O  O58  1  0.65338041  0.18089715  0.82935999  1
  O  O59  1  0.76328584  0.56655097  0.48738353  1
  O  O60  1  0.28761075  0.42564462  0.08290801  1
  O  O61  1  0.59076824  0.32311168  0.68336014  1
  O  O62  1  0.95325188  0.14821413  0.61139567  1
  O  O63  1  0.91338696  0.35675166  0.79766599  1
  O  O64  1  0.18217993  0.25919505  0.24845363  1
  O  O65  1  0.29460097  0.52198611  0.74967021  1
  O  O66  1  0.81782007  0.74080495  0.75154637  1
  O  O67  1  0.53493700  0.95765644  0.81912783  1
  O  O68  1  0.09076824  0.17688832  0.81663986  1
  O  O69  1  0.54804170  0.33673739  0.09352224  1
  O  O70  1  0.84757445  0.32018236  0.51486347  1
  O  O71  1  0.15242555  0.67981764  0.48513653  1
