# generated using pymatgen
data_KTeOF3
_symmetry_space_group_name_H-M   'P 1'
_cell_length_a   8.04286460
_cell_length_b   10.31308408
_cell_length_c   10.31308408
_cell_angle_alpha   90.00000000
_cell_angle_beta   90.00000000
_cell_angle_gamma   90.00000000
_symmetry_Int_Tables_number   1
_chemical_formula_structural   KTeOF3
_chemical_formula_sum   'K8 Te8 O8 F24'
_cell_volume   855.43669206
_cell_formula_units_Z   8
loop_
 _symmetry_equiv_pos_site_id
 _symmetry_equiv_pos_as_xyz
  1  'x, y, z'
loop_
 _atom_site_type_symbol
 _atom_site_label
 _atom_site_symmetry_multiplicity
 _atom_site_fract_x
 _atom_site_fract_y
 _atom_site_fract_z
 _atom_site_occupancy
  K  K0  1  0.75000000  0.75000000  0.75000000  1
  K  K1  1  0.25000000  0.25000000  0.25000000  1
  K  K2  1  0.25000000  0.75000000  0.75000000  1
  K  K3  1  0.75000000  0.25000000  0.25000000  1
  K  K4  1  0.50000000  0.50000000  0.00000000  1
  K  K5  1  0.50000000  0.00000000  0.50000000  1
  K  K6  1  0.00000000  0.50000000  0.50000000  1
  K  K7  1  0.00000000  0.00000000  0.00000000  1
  Te  Te8  1  0.45969544  0.11689692  0.90662878  1
  Te  Te9  1  0.04030456  0.90662878  0.38310308  1
  Te  Te10  1  0.54030456  0.88310308  0.09337122  1
  Te  Te11  1  0.95969544  0.09337122  0.61689692  1
  Te  Te12  1  0.04030456  0.59337122  0.11689692  1
  Te  Te13  1  0.95969544  0.40662878  0.88310308  1
  Te  Te14  1  0.45969544  0.38310308  0.59337122  1
  Te  Te15  1  0.54030456  0.61689692  0.40662878  1
  O  O16  1  0.84851521  0.97154235  0.50378557  1
  O  O17  1  0.15148479  0.02845765  0.49621443  1
  O  O18  1  0.65148479  0.50378557  0.52845765  1
  O  O19  1  0.34851521  0.00378557  0.02845765  1
  O  O20  1  0.15148479  0.47154235  0.00378557  1
  O  O21  1  0.34851521  0.49621443  0.47154235  1
  O  O22  1  0.84851521  0.52845765  0.99621443  1
  O  O23  1  0.65148479  0.99621443  0.97154235  1
  F  F24  1  0.39673137  0.98899595  0.76379549  1
  F  F25  1  0.01326981  0.43455988  0.24453974  1
  F  F26  1  0.60326863  0.01100405  0.23620451  1
  F  F27  1  0.48673019  0.25546026  0.43455988  1
  F  F28  1  0.89673137  0.26379549  0.01100405  1
  F  F29  1  0.39673137  0.51100405  0.73620451  1
  F  F30  1  0.51326981  0.74453974  0.56544012  1
  F  F31  1  0.98673019  0.56544012  0.75546026  1
  F  F32  1  0.27624337  0.89002698  0.31162543  1
  F  F33  1  0.01326981  0.06544012  0.25546026  1
  F  F34  1  0.27624337  0.60997302  0.18837457  1
  F  F35  1  0.22375663  0.18837457  0.89002698  1
  F  F36  1  0.72375663  0.39002698  0.81162543  1
  F  F37  1  0.77624337  0.68837457  0.39002698  1
  F  F38  1  0.77624337  0.81162543  0.10997302  1
  F  F39  1  0.89673137  0.23620451  0.48899595  1
  F  F40  1  0.72375663  0.10997302  0.68837457  1
  F  F41  1  0.22375663  0.31162543  0.60997302  1
  F  F42  1  0.51326981  0.75546026  0.93455988  1
  F  F43  1  0.10326863  0.76379549  0.51100405  1
  F  F44  1  0.10326863  0.73620451  0.98899595  1
  F  F45  1  0.60326863  0.48899595  0.26379549  1
  F  F46  1  0.48673019  0.24453974  0.06544012  1
  F  F47  1  0.98673019  0.93455988  0.74453974  1
