# generated using pymatgen
data_Rb3Nb6SBr17
_symmetry_space_group_name_H-M   'P 1'
_cell_length_a   9.59586882
_cell_length_b   13.16555032
_cell_length_c   13.16555008
_cell_angle_alpha   94.79065017
_cell_angle_beta   90.87210113
_cell_angle_gamma   90.87210326
_symmetry_Int_Tables_number   1
_chemical_formula_structural   Rb3Nb6SBr17
_chemical_formula_sum   'Rb6 Nb12 S2 Br34'
_cell_volume   1657.03873126
_cell_formula_units_Z   2
loop_
 _symmetry_equiv_pos_site_id
 _symmetry_equiv_pos_as_xyz
  1  'x, y, z'
loop_
 _atom_site_type_symbol
 _atom_site_label
 _atom_site_symmetry_multiplicity
 _atom_site_fract_x
 _atom_site_fract_y
 _atom_site_fract_z
 _atom_site_occupancy
  Rb  Rb0  1  0.16784328  0.16797287  0.27456244  1
  Rb  Rb1  1  0.25000000  0.54454981  0.45545019  1
  Rb  Rb2  1  0.66784328  0.27456244  0.16797287  1
  Rb  Rb3  1  0.33215672  0.72543756  0.83202713  1
  Rb  Rb4  1  0.75000000  0.45545019  0.54454981  1
  Rb  Rb5  1  0.83215672  0.83202713  0.72543756  1
  Nb  Nb6  1  0.26188464  0.30136863  0.94741301  1
  Nb  Nb7  1  0.14362667  0.38261875  0.76008564  1
  Nb  Nb8  1  0.98025132  0.80363718  0.16424999  1
  Nb  Nb9  1  0.85637333  0.61738125  0.23991436  1
  Nb  Nb10  1  0.51974868  0.83575001  0.19636282  1
  Nb  Nb11  1  0.48025132  0.16424999  0.80363718  1
  Nb  Nb12  1  0.64362667  0.76008564  0.38261875  1
  Nb  Nb13  1  0.35637333  0.23991436  0.61738125  1
  Nb  Nb14  1  0.76188464  0.94741301  0.30136863  1
  Nb  Nb15  1  0.23811536  0.05258699  0.69863137  1
  Nb  Nb16  1  0.01974868  0.19636282  0.83575001  1
  Nb  Nb17  1  0.73811536  0.69863137  0.05258699  1
  S  S18  1  0.75000000  0.77744267  0.22255733  1
  S  S19  1  0.25000000  0.22255733  0.77744267  1
  Br  Br20  1  0.11926090  0.64071587  0.20122361  1
  Br  Br21  1  0.93780976  0.43487205  0.30944328  1
  Br  Br22  1  0.25000000  0.88154289  0.11845711  1
  Br  Br23  1  0.52330691  0.03112670  0.25520580  1
  Br  Br24  1  0.18357700  0.48936688  0.93500801  1
  Br  Br25  1  0.56219024  0.69055672  0.56512795  1
  Br  Br26  1  0.39543406  0.43822252  0.68896594  1
  Br  Br27  1  0.83438732  0.14436227  0.36291258  1
  Br  Br28  1  0.52537291  0.34978312  0.90091116  1
  Br  Br29  1  0.60456594  0.56177748  0.31103406  1
  Br  Br30  1  0.33438732  0.36291258  0.14436227  1
  Br  Br31  1  0.61049390  0.87305157  0.00988613  1
  Br  Br32  1  0.02537291  0.90091116  0.34978312  1
  Br  Br33  1  0.11049390  0.00988613  0.87305157  1
  Br  Br34  1  0.75000000  0.11845711  0.88154289  1
  Br  Br35  1  0.89543406  0.68896594  0.43822252  1
  Br  Br36  1  0.31642300  0.06499199  0.51063312  1
  Br  Br37  1  0.06219024  0.56512795  0.69055672  1
  Br  Br38  1  0.02330691  0.25520580  0.03112670  1
  Br  Br39  1  0.97462709  0.09908884  0.65021688  1
  Br  Br40  1  0.88950610  0.99011387  0.12694843  1
  Br  Br41  1  0.38950610  0.12694843  0.99011387  1
  Br  Br42  1  0.47462709  0.65021688  0.09908884  1
  Br  Br43  1  0.10456594  0.31103406  0.56177748  1
  Br  Br44  1  0.61926090  0.20122361  0.64071587  1
  Br  Br45  1  0.81642300  0.51063312  0.06499199  1
  Br  Br46  1  0.43780976  0.30944328  0.43487205  1
  Br  Br47  1  0.88073910  0.35928413  0.79877639  1
  Br  Br48  1  0.47669309  0.96887330  0.74479420  1
  Br  Br49  1  0.38073910  0.79877639  0.35928413  1
  Br  Br50  1  0.16561268  0.85563773  0.63708742  1
  Br  Br51  1  0.97669309  0.74479420  0.96887330  1
  Br  Br52  1  0.68357700  0.93500801  0.48936688  1
  Br  Br53  1  0.66561268  0.63708742  0.85563773  1
