# generated using pymatgen
data_Nd6S4BrN3
_symmetry_space_group_name_H-M   'P 1'
_cell_length_a   4.02922899
_cell_length_b   11.53751515
_cell_length_c   27.39314356
_cell_angle_alpha   90.00000000
_cell_angle_beta   90.00000000
_cell_angle_gamma   90.00000000
_symmetry_Int_Tables_number   1
_chemical_formula_structural   Nd6S4BrN3
_chemical_formula_sum   'Nd24 S16 Br4 N12'
_cell_volume   1273.43302279
_cell_formula_units_Z   4
loop_
 _symmetry_equiv_pos_site_id
 _symmetry_equiv_pos_as_xyz
  1  'x, y, z'
loop_
 _atom_site_type_symbol
 _atom_site_label
 _atom_site_symmetry_multiplicity
 _atom_site_fract_x
 _atom_site_fract_y
 _atom_site_fract_z
 _atom_site_occupancy
  Nd  Nd0  1  0.25000000  0.40059388  0.46480733  1
  Nd  Nd1  1  0.75000000  0.05789740  0.42200121  1
  Nd  Nd2  1  0.75000000  0.75213756  0.93574143  1
  Nd  Nd3  1  0.25000000  0.37582136  0.71712864  1
  Nd  Nd4  1  0.25000000  0.43753096  0.19244178  1
  Nd  Nd5  1  0.25000000  0.87582136  0.78287136  1
  Nd  Nd6  1  0.25000000  0.74296931  0.17080323  1
  Nd  Nd7  1  0.75000000  0.62417864  0.28287136  1
  Nd  Nd8  1  0.75000000  0.09940612  0.96480733  1
  Nd  Nd9  1  0.25000000  0.94210260  0.57799879  1
  Nd  Nd10  1  0.25000000  0.90059388  0.03519267  1
  Nd  Nd11  1  0.75000000  0.12417864  0.21712864  1
  Nd  Nd12  1  0.25000000  0.24296931  0.32919677  1
  Nd  Nd13  1  0.75000000  0.56246904  0.80755822  1
  Nd  Nd14  1  0.75000000  0.75703069  0.67080323  1
  Nd  Nd15  1  0.25000000  0.74786244  0.43574143  1
  Nd  Nd16  1  0.75000000  0.25213756  0.56425857  1
  Nd  Nd17  1  0.75000000  0.06246904  0.69244178  1
  Nd  Nd18  1  0.25000000  0.24786244  0.06425857  1
  Nd  Nd19  1  0.25000000  0.93753096  0.30755822  1
  Nd  Nd20  1  0.25000000  0.44210260  0.92200121  1
  Nd  Nd21  1  0.75000000  0.25703069  0.82919677  1
  Nd  Nd22  1  0.75000000  0.59940612  0.53519267  1
  Nd  Nd23  1  0.75000000  0.55789740  0.07799879  1
  S  S24  1  0.25000000  0.63687406  0.73561533  1
  S  S25  1  0.25000000  0.14312871  0.50640423  1
  S  S26  1  0.25000000  0.70746076  0.60207427  1
  S  S27  1  0.75000000  0.85687129  0.49359577  1
  S  S28  1  0.25000000  0.20746076  0.89792573  1
  S  S29  1  0.25000000  0.19219844  0.63809280  1
  S  S30  1  0.75000000  0.29253924  0.39792573  1
  S  S31  1  0.75000000  0.35687129  0.00640423  1
  S  S32  1  0.75000000  0.80780156  0.36190720  1
  S  S33  1  0.25000000  0.13687406  0.76438467  1
  S  S34  1  0.25000000  0.69219844  0.86190720  1
  S  S35  1  0.25000000  0.64312871  0.99359577  1
  S  S36  1  0.75000000  0.30780156  0.13809280  1
  S  S37  1  0.75000000  0.79253924  0.10207427  1
  S  S38  1  0.75000000  0.36312594  0.26438467  1
  S  S39  1  0.75000000  0.86312594  0.23561533  1
  Br  Br40  1  0.25000000  0.03817240  0.13763484  1
  Br  Br41  1  0.25000000  0.53817240  0.36236516  1
  Br  Br42  1  0.75000000  0.46182760  0.63763484  1
  Br  Br43  1  0.75000000  0.96182760  0.86236516  1
  N  N44  1  0.75000000  0.93929102  0.62503465  1
  N  N45  1  0.25000000  0.59822933  0.48606802  1
  N  N46  1  0.25000000  0.61178774  0.23737456  1
  N  N47  1  0.25000000  0.06070898  0.37496535  1
  N  N48  1  0.25000000  0.56070898  0.12503465  1
  N  N49  1  0.75000000  0.88821226  0.73737456  1
  N  N50  1  0.25000000  0.11178774  0.26262544  1
  N  N51  1  0.75000000  0.43929102  0.87496535  1
  N  N52  1  0.25000000  0.09822933  0.01393198  1
  N  N53  1  0.75000000  0.40177067  0.51393198  1
  N  N54  1  0.75000000  0.38821226  0.76262544  1
  N  N55  1  0.75000000  0.90177067  0.98606802  1
