# generated using pymatgen
data_LiNb3(Bi2O7)2
_symmetry_space_group_name_H-M   'P 1'
_cell_length_a   7.69466355
_cell_length_b   7.69466385
_cell_length_c   12.25300229
_cell_angle_alpha   80.05054786
_cell_angle_beta   80.05054747
_cell_angle_gamma   60.84877401
_symmetry_Int_Tables_number   1
_chemical_formula_structural   LiNb3(Bi2O7)2
_chemical_formula_sum   'Li2 Nb6 Bi8 O28'
_cell_volume   620.73428657
_cell_formula_units_Z   2
loop_
 _symmetry_equiv_pos_site_id
 _symmetry_equiv_pos_as_xyz
  1  'x, y, z'
loop_
 _atom_site_type_symbol
 _atom_site_label
 _atom_site_symmetry_multiplicity
 _atom_site_fract_x
 _atom_site_fract_y
 _atom_site_fract_z
 _atom_site_occupancy
  Li  Li0  1  0.53302179  0.46697821  0.75000000  1
  Li  Li1  1  0.46697821  0.53302179  0.25000000  1
  Nb  Nb2  1  0.62097391  0.87415155  0.73960032  1
  Nb  Nb3  1  0.12584845  0.37902609  0.76039968  1
  Nb  Nb4  1  0.87124033  0.12875967  0.25000000  1
  Nb  Nb5  1  0.87415155  0.62097391  0.23960032  1
  Nb  Nb6  1  0.37902609  0.12584845  0.26039968  1
  Nb  Nb7  1  0.12875967  0.87124033  0.75000000  1
  Bi  Bi8  1  0.49250404  0.27559866  0.50567814  1
  Bi  Bi9  1  0.74171812  0.02398342  0.97673833  1
  Bi  Bi10  1  0.25828188  0.97601658  0.02326167  1
  Bi  Bi11  1  0.72440134  0.50749596  0.99432186  1
  Bi  Bi12  1  0.02398342  0.74171812  0.47673833  1
  Bi  Bi13  1  0.50749596  0.72440134  0.49432186  1
  Bi  Bi14  1  0.97601658  0.25828188  0.52326167  1
  Bi  Bi15  1  0.27559866  0.49250404  0.00567814  1
  O  O16  1  0.14830275  0.85997922  0.58416734  1
  O  O17  1  0.57729644  0.38486940  0.91085439  1
  O  O18  1  0.85997922  0.14830275  0.08416734  1
  O  O19  1  0.26762345  0.15151463  0.41404957  1
  O  O20  1  0.44376401  0.14947356  0.08652394  1
  O  O21  1  0.61513060  0.42270356  0.58914561  1
  O  O22  1  0.85349174  0.92384869  0.77129354  1
  O  O23  1  0.85169725  0.14002078  0.41583266  1
  O  O24  1  0.15151463  0.26762345  0.91404957  1
  O  O25  1  0.07615131  0.14650826  0.72870646  1
  O  O26  1  0.55623599  0.85052644  0.91347606  1
  O  O27  1  0.92384869  0.85349174  0.27129354  1
  O  O28  1  0.42270356  0.61513060  0.08914561  1
  O  O29  1  0.55901019  0.22673958  0.28135046  1
  O  O30  1  0.85052644  0.55623599  0.41347606  1
  O  O31  1  0.14947356  0.44376401  0.58652394  1
  O  O32  1  0.22673958  0.55901019  0.78135046  1
  O  O33  1  0.44098981  0.77326042  0.71864954  1
  O  O34  1  0.55921034  0.84851959  0.28327310  1
  O  O35  1  0.44078966  0.15148041  0.71672690  1
  O  O36  1  0.77326042  0.44098981  0.21864954  1
  O  O37  1  0.84851959  0.55921034  0.78327310  1
  O  O38  1  0.73237655  0.84848537  0.58595043  1
  O  O39  1  0.38486940  0.57729644  0.41085439  1
  O  O40  1  0.14002078  0.85169725  0.91583266  1
  O  O41  1  0.15148041  0.44078966  0.21672690  1
  O  O42  1  0.84848537  0.73237655  0.08595043  1
  O  O43  1  0.14650826  0.07615131  0.22870646  1
