# generated using pymatgen
data_Eu4Br6O
_symmetry_space_group_name_H-M   'P 1'
_cell_length_a   9.88731578
_cell_length_b   9.88731612
_cell_length_c   7.54958372
_cell_angle_alpha   90.00000000
_cell_angle_beta   90.00000000
_cell_angle_gamma   119.99999887
_symmetry_Int_Tables_number   1
_chemical_formula_structural   Eu4Br6O
_chemical_formula_sum   'Eu8 Br12 O2'
_cell_volume   639.16129297
_cell_formula_units_Z   2
loop_
 _symmetry_equiv_pos_site_id
 _symmetry_equiv_pos_as_xyz
  1  'x, y, z'
loop_
 _atom_site_type_symbol
 _atom_site_label
 _atom_site_symmetry_multiplicity
 _atom_site_fract_x
 _atom_site_fract_y
 _atom_site_fract_z
 _atom_site_occupancy
  Eu  Eu0  1  0.40188966  0.20094483  0.50087180  1
  Eu  Eu1  1  0.59811034  0.79905517  0.00087180  1
  Eu  Eu2  1  0.33333300  0.66666700  0.41353276  1
  Eu  Eu3  1  0.20094483  0.79905517  0.00087180  1
  Eu  Eu4  1  0.66666700  0.33333300  0.91353276  1
  Eu  Eu5  1  0.79905517  0.59811034  0.50087180  1
  Eu  Eu6  1  0.79905517  0.20094483  0.50087180  1
  Eu  Eu7  1  0.20094483  0.40188966  0.00087180  1
  Br  Br8  1  0.53419827  0.46580173  0.20566016  1
  Br  Br9  1  0.72222441  0.86111220  0.38506675  1
  Br  Br10  1  0.93160347  0.46580173  0.20566016  1
  Br  Br11  1  0.13888780  0.27777559  0.38506675  1
  Br  Br12  1  0.06839653  0.53419827  0.70566016  1
  Br  Br13  1  0.53419827  0.06839653  0.20566016  1
  Br  Br14  1  0.27777559  0.13888780  0.88506675  1
  Br  Br15  1  0.13888780  0.86111220  0.38506675  1
  Br  Br16  1  0.46580173  0.53419827  0.70566016  1
  Br  Br17  1  0.46580173  0.93160347  0.70566016  1
  Br  Br18  1  0.86111220  0.13888780  0.88506675  1
  Br  Br19  1  0.86111220  0.72222441  0.88506675  1
  O  O20  1  0.33333300  0.66666700  0.10077112  1
  O  O21  1  0.66666700  0.33333300  0.60077112  1
