# generated using pymatgen
data_Pr6Si4S17
_symmetry_space_group_name_H-M   'P 1'
_cell_length_a   9.04108665
_cell_length_b   10.07546511
_cell_length_c   14.38075838
_cell_angle_alpha   81.99255654
_cell_angle_beta   86.88386320
_cell_angle_gamma   89.31585172
_symmetry_Int_Tables_number   1
_chemical_formula_structural   Pr6Si4S17
_chemical_formula_sum   'Pr12 Si8 S34'
_cell_volume   1295.28550650
_cell_formula_units_Z   2
loop_
 _symmetry_equiv_pos_site_id
 _symmetry_equiv_pos_as_xyz
  1  'x, y, z'
loop_
 _atom_site_type_symbol
 _atom_site_label
 _atom_site_symmetry_multiplicity
 _atom_site_fract_x
 _atom_site_fract_y
 _atom_site_fract_z
 _atom_site_occupancy
  Pr  Pr0  1  0.66821497  0.58883096  0.65775952  1
  Pr  Pr1  1  0.10655985  0.38502923  0.81654270  1
  Pr  Pr2  1  0.55182425  0.26147171  0.99877405  1
  Pr  Pr3  1  0.63002698  0.93401760  0.32462636  1
  Pr  Pr4  1  0.89344015  0.61497077  0.18345730  1
  Pr  Pr5  1  0.98129246  0.23082533  0.54048876  1
  Pr  Pr6  1  0.08362590  0.08010347  0.16567774  1
  Pr  Pr7  1  0.91637410  0.91989653  0.83432226  1
  Pr  Pr8  1  0.36997302  0.06598240  0.67537364  1
  Pr  Pr9  1  0.44817575  0.73852829  0.00122595  1
  Pr  Pr10  1  0.33178503  0.41116904  0.34224048  1
  Pr  Pr11  1  0.01870754  0.76917467  0.45951124  1
  Si  Si12  1  0.76932864  0.56243194  0.90117619  1
  Si  Si13  1  0.75100495  0.50060589  0.41622044  1
  Si  Si14  1  0.72527769  0.94137895  0.60563931  1
  Si  Si15  1  0.25092603  0.06008183  0.92278198  1
  Si  Si16  1  0.74907397  0.93991817  0.07721802  1
  Si  Si17  1  0.27472231  0.05862105  0.39436069  1
  Si  Si18  1  0.24899505  0.49939411  0.58377956  1
  Si  Si19  1  0.23067136  0.43756806  0.09882381  1
  S  S20  1  0.74205220  0.11411709  0.14868195  1
  S  S21  1  0.34041068  0.00143493  0.05644316  1
  S  S22  1  0.99049915  0.62777264  0.88550206  1
  S  S23  1  0.70327833  0.69215679  0.45934059  1
  S  S24  1  0.30014545  0.91163505  0.30344506  1
  S  S25  1  0.69985455  0.08836495  0.69655494  1
  S  S26  1  0.24712420  0.61290427  0.16699157  1
  S  S27  1  0.01530185  0.49202003  0.62323807  1
  S  S28  1  0.30604148  0.63282673  0.46129597  1
  S  S29  1  0.81530611  0.01858058  0.46776329  1
  S  S30  1  0.64479286  0.47081571  0.29384150  1
  S  S31  1  0.10745086  0.20130336  0.34556401  1
  S  S32  1  0.04138234  0.14749381  0.95178418  1
  S  S33  1  0.25794780  0.88588291  0.85131805  1
  S  S34  1  0.93077670  0.85668359  0.27787386  1
  S  S35  1  0.38305734  0.21245726  0.83912522  1
  S  S36  1  0.95861766  0.85250619  0.04821582  1
  S  S37  1  0.63343016  0.71758604  0.83365554  1
  S  S38  1  0.65958932  0.99856507  0.94355684  1
  S  S39  1  0.75287580  0.38709573  0.83300843  1
  S  S40  1  0.89254914  0.79869664  0.65443599  1
  S  S41  1  0.29672167  0.30784321  0.54065941  1
  S  S42  1  0.35520714  0.52918429  0.70615850  1
  S  S43  1  0.18469389  0.98141942  0.53223671  1
  S  S44  1  0.69395852  0.36717327  0.53870403  1
  S  S45  1  0.61694266  0.78754274  0.16087478  1
  S  S46  1  0.98469815  0.50797997  0.37676193  1
  S  S47  1  0.06922330  0.14331641  0.72212614  1
  S  S48  1  0.51765004  0.84641757  0.60352786  1
  S  S49  1  0.36656984  0.28241396  0.16634446  1
  S  S50  1  0.67865876  0.51862610  0.04302151  1
  S  S51  1  0.32134124  0.48137390  0.95697849  1
  S  S52  1  0.00950085  0.37222736  0.11449794  1
  S  S53  1  0.48234996  0.15358243  0.39647214  1
