# generated using pymatgen
data_Ba(PO3)2
_symmetry_space_group_name_H-M   'P 1'
_cell_length_a   6.99006048
_cell_length_b   7.67385104
_cell_length_c   9.85728252
_cell_angle_alpha   94.76329267
_cell_angle_beta   90.00000000
_cell_angle_gamma   90.00000000
_symmetry_Int_Tables_number   1
_chemical_formula_structural   Ba(PO3)2
_chemical_formula_sum   'Ba4 P8 O24'
_cell_volume   526.92519844
_cell_formula_units_Z   4
loop_
 _symmetry_equiv_pos_site_id
 _symmetry_equiv_pos_as_xyz
  1  'x, y, z'
loop_
 _atom_site_type_symbol
 _atom_site_label
 _atom_site_symmetry_multiplicity
 _atom_site_fract_x
 _atom_site_fract_y
 _atom_site_fract_z
 _atom_site_occupancy
  Ba  Ba0  1  0.90265218  0.85479534  0.17446681  1
  Ba  Ba1  1  0.59734782  0.35479534  0.67446681  1
  Ba  Ba2  1  0.40265218  0.64520466  0.32553319  1
  Ba  Ba3  1  0.09734782  0.14520466  0.82553319  1
  P  P4  1  0.89471479  0.38000869  0.33591314  1
  P  P5  1  0.79509044  0.87139211  0.57937309  1
  P  P6  1  0.39471479  0.11999131  0.16408686  1
  P  P7  1  0.20490956  0.12860789  0.42062691  1
  P  P8  1  0.29509044  0.62860789  0.92062691  1
  P  P9  1  0.70490956  0.37139211  0.07937309  1
  P  P10  1  0.60528521  0.88000869  0.83591314  1
  P  P11  1  0.10528521  0.61999131  0.66408686  1
  O  O12  1  0.77567117  0.32371834  0.93789692  1
  O  O13  1  0.96865740  0.47380181  0.68344064  1
  O  O14  1  0.50182894  0.71655456  0.89770657  1
  O  O15  1  0.00182894  0.78344544  0.60229343  1
  O  O16  1  0.84241331  0.27879500  0.18534029  1
  O  O17  1  0.65758669  0.77879500  0.68534029  1
  O  O18  1  0.99817106  0.21655456  0.39770657  1
  O  O19  1  0.18185421  0.93872273  0.37080750  1
  O  O20  1  0.27567117  0.17628166  0.56210308  1
  O  O21  1  0.15758669  0.72120500  0.81465971  1
  O  O22  1  0.22432883  0.67628166  0.06210308  1
  O  O23  1  0.21057410  0.08599272  0.08743265  1
  O  O24  1  0.72432883  0.82371834  0.43789692  1
  O  O25  1  0.81814579  0.06127727  0.62919250  1
  O  O26  1  0.46865740  0.02619819  0.81655936  1
  O  O27  1  0.28942590  0.58599272  0.58743265  1
  O  O28  1  0.71057410  0.41400728  0.41256735  1
  O  O29  1  0.34241331  0.22120500  0.31465971  1
  O  O30  1  0.53134260  0.97380181  0.18344064  1
  O  O31  1  0.49817106  0.28344544  0.10229343  1
  O  O32  1  0.78942590  0.91400728  0.91256735  1
  O  O33  1  0.68185421  0.56127727  0.12919250  1
  O  O34  1  0.03134260  0.52619819  0.31655936  1
  O  O35  1  0.31814579  0.43872273  0.87080750  1
