# generated using pymatgen
data_Na2NbAsO6
_symmetry_space_group_name_H-M   'P 1'
_cell_length_a   7.42882589
_cell_length_b   9.23160336
_cell_length_c   9.23160277
_cell_angle_alpha   73.03483323
_cell_angle_beta   75.27833971
_cell_angle_gamma   75.27834219
_symmetry_Int_Tables_number   1
_chemical_formula_structural   Na2NbAsO6
_chemical_formula_sum   'Na8 Nb4 As4 O24'
_cell_volume   574.48227722
_cell_formula_units_Z   4
loop_
 _symmetry_equiv_pos_site_id
 _symmetry_equiv_pos_as_xyz
  1  'x, y, z'
loop_
 _atom_site_type_symbol
 _atom_site_label
 _atom_site_symmetry_multiplicity
 _atom_site_fract_x
 _atom_site_fract_y
 _atom_site_fract_z
 _atom_site_occupancy
  Na  Na0  1  0.05957198  0.64826421  0.07042335  1
  Na  Na1  1  0.55957198  0.07042335  0.64826421  1
  Na  Na2  1  0.94042802  0.35173579  0.92957665  1
  Na  Na3  1  0.25000000  0.99488505  0.00511495  1
  Na  Na4  1  0.44042802  0.92957665  0.35173579  1
  Na  Na5  1  0.75000000  0.45365042  0.54634958  1
  Na  Na6  1  0.75000000  0.00511495  0.99488505  1
  Na  Na7  1  0.25000000  0.54634958  0.45365042  1
  Nb  Nb8  1  0.61612822  0.29174268  0.28677250  1
  Nb  Nb9  1  0.11612822  0.28677250  0.29174268  1
  Nb  Nb10  1  0.88387178  0.71322750  0.70825732  1
  Nb  Nb11  1  0.38387178  0.70825732  0.71322750  1
  As  As12  1  0.95328862  0.94098743  0.31605414  1
  As  As13  1  0.45328862  0.31605414  0.94098743  1
  As  As14  1  0.54671138  0.68394586  0.05901257  1
  As  As15  1  0.04671138  0.05901257  0.68394586  1
  O  O16  1  0.06189622  0.48028192  0.31963169  1
  O  O17  1  0.93810378  0.51971808  0.68036831  1
  O  O18  1  0.49603832  0.47671702  0.79110238  1
  O  O19  1  0.97195876  0.87327125  0.16047267  1
  O  O20  1  0.62459738  0.78949798  0.68659723  1
  O  O21  1  0.37540262  0.21050202  0.31340277  1
  O  O22  1  0.72430845  0.04694336  0.35976452  1
  O  O23  1  0.47195876  0.16047267  0.87327125  1
  O  O24  1  0.87540262  0.31340277  0.21050202  1
  O  O25  1  0.12459738  0.68659723  0.78949798  1
  O  O26  1  0.77569155  0.64023548  0.95305664  1
  O  O27  1  0.43810378  0.68036831  0.51971808  1
  O  O28  1  0.00396168  0.20889762  0.52328298  1
  O  O29  1  0.13134357  0.04400869  0.27683503  1
  O  O30  1  0.63134357  0.27683503  0.04400869  1
  O  O31  1  0.02804124  0.12672875  0.83952733  1
  O  O32  1  0.99603832  0.79110238  0.47671702  1
  O  O33  1  0.86865643  0.95599131  0.72316497  1
  O  O34  1  0.52804124  0.83952733  0.12672875  1
  O  O35  1  0.56189622  0.31963169  0.48028192  1
  O  O36  1  0.27569155  0.95305664  0.64023548  1
  O  O37  1  0.36865643  0.72316497  0.95599131  1
  O  O38  1  0.50396168  0.52328298  0.20889762  1
  O  O39  1  0.22430845  0.35976452  0.04694336  1
