# generated using pymatgen
data_Sr5As3ClO12
_symmetry_space_group_name_H-M   'P 1'
_cell_length_a   10.45512236
_cell_length_b   10.45512196
_cell_length_c   7.30065464
_cell_angle_alpha   90.00000000
_cell_angle_beta   90.00000000
_cell_angle_gamma   120.00000130
_symmetry_Int_Tables_number   1
_chemical_formula_structural   Sr5As3ClO12
_chemical_formula_sum   'Sr10 As6 Cl2 O24'
_cell_volume   691.11553223
_cell_formula_units_Z   2
loop_
 _symmetry_equiv_pos_site_id
 _symmetry_equiv_pos_as_xyz
  1  'x, y, z'
loop_
 _atom_site_type_symbol
 _atom_site_label
 _atom_site_symmetry_multiplicity
 _atom_site_fract_x
 _atom_site_fract_y
 _atom_site_fract_z
 _atom_site_occupancy
  Sr  Sr0  1  0.33333300  0.66666700  0.00241584  1
  Sr  Sr1  1  0.24690756  0.25657740  0.75000000  1
  Sr  Sr2  1  0.33333300  0.66666700  0.49758416  1
  Sr  Sr3  1  0.74342260  0.99033016  0.75000000  1
  Sr  Sr4  1  0.00966984  0.75309244  0.75000000  1
  Sr  Sr5  1  0.66666700  0.33333300  0.99758416  1
  Sr  Sr6  1  0.66666700  0.33333300  0.50241584  1
  Sr  Sr7  1  0.99033016  0.24690756  0.25000000  1
  Sr  Sr8  1  0.75309244  0.74342260  0.25000000  1
  Sr  Sr9  1  0.25657740  0.00966984  0.25000000  1
  As  As10  1  0.03088973  0.40801639  0.75000000  1
  As  As11  1  0.96911027  0.59198361  0.25000000  1
  As  As12  1  0.59198361  0.62287334  0.75000000  1
  As  As13  1  0.62287334  0.03088973  0.25000000  1
  As  As14  1  0.40801639  0.37712666  0.25000000  1
  As  As15  1  0.37712666  0.96911027  0.75000000  1
  Cl  Cl16  1  0.00000000  0.00000000  0.00000000  1
  Cl  Cl17  1  0.00000000  0.00000000  0.50000000  1
  O  O18  1  0.15642097  0.66122606  0.25000000  1
  O  O19  1  0.46999988  0.87054936  0.75000000  1
  O  O20  1  0.09132392  0.35330774  0.93786830  1
  O  O21  1  0.59945052  0.46999988  0.25000000  1
  O  O22  1  0.50480508  0.84357903  0.25000000  1
  O  O23  1  0.73801618  0.09132392  0.06213170  1
  O  O24  1  0.12945064  0.59945052  0.75000000  1
  O  O25  1  0.35330774  0.26198382  0.06213170  1
  O  O26  1  0.84357903  0.33877394  0.75000000  1
  O  O27  1  0.40054948  0.53000012  0.75000000  1
  O  O28  1  0.26198382  0.90867608  0.93786830  1
  O  O29  1  0.73801618  0.09132392  0.43786830  1
  O  O30  1  0.90867608  0.64669226  0.43786830  1
  O  O31  1  0.26198382  0.90867608  0.56213170  1
  O  O32  1  0.35330774  0.26198382  0.43786830  1
  O  O33  1  0.53000012  0.12945064  0.25000000  1
  O  O34  1  0.64669226  0.73801618  0.56213170  1
  O  O35  1  0.33877394  0.49519492  0.25000000  1
  O  O36  1  0.64669226  0.73801618  0.93786830  1
  O  O37  1  0.49519492  0.15642097  0.75000000  1
  O  O38  1  0.09132392  0.35330774  0.56213170  1
  O  O39  1  0.66122606  0.50480508  0.75000000  1
  O  O40  1  0.90867608  0.64669226  0.06213170  1
  O  O41  1  0.87054936  0.40054948  0.25000000  1
