# generated using pymatgen
data_CaLaGaO4
_symmetry_space_group_name_H-M   'P 1'
_cell_length_a   5.39248531
_cell_length_b   6.89319257
_cell_length_c   11.90555242
_cell_angle_alpha   90.00000000
_cell_angle_beta   90.00000000
_cell_angle_gamma   90.00000000
_symmetry_Int_Tables_number   1
_chemical_formula_structural   CaLaGaO4
_chemical_formula_sum   'Ca4 La4 Ga4 O16'
_cell_volume   442.54652355
_cell_formula_units_Z   4
loop_
 _symmetry_equiv_pos_site_id
 _symmetry_equiv_pos_as_xyz
  1  'x, y, z'
loop_
 _atom_site_type_symbol
 _atom_site_label
 _atom_site_symmetry_multiplicity
 _atom_site_fract_x
 _atom_site_fract_y
 _atom_site_fract_z
 _atom_site_occupancy
  Ca  Ca0  1  0.00082486  0.48857725  0.99923183  1
  Ca  Ca1  1  0.49917514  0.48857725  0.49923183  1
  Ca  Ca2  1  0.99917514  0.98857725  0.00076817  1
  Ca  Ca3  1  0.50082486  0.98857725  0.50076817  1
  La  La4  1  0.50793542  0.23681951  0.21981333  1
  La  La5  1  0.99206458  0.23681951  0.71981333  1
  La  La6  1  0.00793542  0.73681951  0.28018667  1
  La  La7  1  0.49206458  0.73681951  0.78018667  1
  Ga  Ga8  1  0.43395739  0.23639994  0.90922454  1
  Ga  Ga9  1  0.56604261  0.73639994  0.09077546  1
  Ga  Ga10  1  0.93395739  0.73639994  0.59077546  1
  Ga  Ga11  1  0.06604261  0.23639994  0.40922454  1
  O  O12  1  0.27147667  0.44773964  0.83660969  1
  O  O13  1  0.27036409  0.02373233  0.83877154  1
  O  O14  1  0.72407025  0.73861695  0.94867245  1
  O  O15  1  0.72620684  0.23811439  0.40724210  1
  O  O16  1  0.22963591  0.02373233  0.33877154  1
  O  O17  1  0.22407025  0.23861695  0.55132755  1
  O  O18  1  0.77036409  0.52373233  0.66122846  1
  O  O19  1  0.27379316  0.73811439  0.59275790  1
  O  O20  1  0.22852333  0.44773964  0.33660969  1
  O  O21  1  0.77379316  0.23811439  0.90724210  1
  O  O22  1  0.22620684  0.73811439  0.09275790  1
  O  O23  1  0.72963591  0.52373233  0.16122846  1
  O  O24  1  0.77147667  0.94773964  0.66339031  1
  O  O25  1  0.72852333  0.94773964  0.16339031  1
  O  O26  1  0.27592975  0.23861695  0.05132755  1
  O  O27  1  0.77592975  0.73861695  0.44867245  1
