# generated using pymatgen
data_BaMnF5
_symmetry_space_group_name_H-M   'P 1'
_cell_length_a   5.02580426
_cell_length_b   5.90829932
_cell_length_c   14.36256335
_cell_angle_alpha   90.00000000
_cell_angle_beta   90.00000000
_cell_angle_gamma   90.00000000
_symmetry_Int_Tables_number   1
_chemical_formula_structural   BaMnF5
_chemical_formula_sum   'Ba4 Mn4 F20'
_cell_volume   426.48132261
_cell_formula_units_Z   4
loop_
 _symmetry_equiv_pos_site_id
 _symmetry_equiv_pos_as_xyz
  1  'x, y, z'
loop_
 _atom_site_type_symbol
 _atom_site_label
 _atom_site_symmetry_multiplicity
 _atom_site_fract_x
 _atom_site_fract_y
 _atom_site_fract_z
 _atom_site_occupancy
  Ba  Ba0  1  0.99508494  0.88557645  0.91082063  1
  Ba  Ba1  1  0.49508494  0.11442455  0.58917937  1
  Ba  Ba2  1  0.50491506  0.38557545  0.08917937  1
  Ba  Ba3  1  0.00491506  0.61442355  0.41082063  1
  Mn  Mn4  1  0.58886870  0.36853733  0.83495020  1
  Mn  Mn5  1  0.08886870  0.63146267  0.66504980  1
  Mn  Mn6  1  0.91113130  0.86853733  0.16504980  1
  Mn  Mn7  1  0.41113130  0.13146267  0.33495020  1
  F  F8  1  0.24422797  0.86509455  0.73436353  1
  F  F9  1  0.74422797  0.13490545  0.76563647  1
  F  F10  1  0.25577203  0.36509455  0.26563647  1
  F  F11  1  0.75577203  0.63490545  0.23436353  1
  F  F12  1  0.93098487  0.86744905  0.57229011  1
  F  F13  1  0.43098487  0.13255095  0.92770989  1
  F  F14  1  0.56901513  0.36744905  0.42770989  1
  F  F15  1  0.06901513  0.63255095  0.07229011  1
  F  F16  1  0.45108131  0.61069765  0.90720680  1
  F  F17  1  0.95108131  0.38930235  0.59279320  1
  F  F18  1  0.04891869  0.11069765  0.09279320  1
  F  F19  1  0.54891869  0.88930235  0.40720680  1
  F  F20  1  0.88103415  0.36875112  0.91822007  1
  F  F21  1  0.38103415  0.63124888  0.58177993  1
  F  F22  1  0.61896585  0.86875112  0.08177993  1
  F  F23  1  0.11896585  0.13124888  0.41822007  1
  F  F24  1  0.80946310  0.62145205  0.75459125  1
  F  F25  1  0.30946310  0.37854795  0.74540875  1
  F  F26  1  0.69053690  0.12145205  0.24540875  1
  F  F27  1  0.19053690  0.87854795  0.25459125  1
