# generated using pymatgen
data_CaP4O11
_symmetry_space_group_name_H-M   'P 1'
_cell_length_a   8.90629113
_cell_length_b   8.90629163
_cell_length_c   12.94889509
_cell_angle_alpha   90.00000000
_cell_angle_beta   90.00000000
_cell_angle_gamma   92.08761160
_symmetry_Int_Tables_number   1
_chemical_formula_structural   CaP4O11
_chemical_formula_sum   'Ca4 P16 O44'
_cell_volume   1026.45087990
_cell_formula_units_Z   4
loop_
 _symmetry_equiv_pos_site_id
 _symmetry_equiv_pos_as_xyz
  1  'x, y, z'
loop_
 _atom_site_type_symbol
 _atom_site_label
 _atom_site_symmetry_multiplicity
 _atom_site_fract_x
 _atom_site_fract_y
 _atom_site_fract_z
 _atom_site_occupancy
  Ca  Ca0  1  0.75128564  0.71449601  0.96950810  1
  Ca  Ca1  1  0.78550399  0.74871436  0.46950810  1
  Ca  Ca2  1  0.25128564  0.21449601  0.53049190  1
  Ca  Ca3  1  0.28550399  0.24871436  0.03049190  1
  P  P4  1  0.42272450  0.38615364  0.28891165  1
  P  P5  1  0.33991136  0.66008864  -0.00000000  1
  P  P6  1  0.63137954  0.24710534  0.66234211  1
  P  P7  1  0.13137954  0.74710534  0.83765789  1
  P  P8  1  0.75289466  0.36862046  0.33765789  1
  P  P9  1  0.40685417  0.71726653  0.33859846  1
  P  P10  1  0.69754595  0.30245405  -0.00000000  1
  P  P11  1  0.28273347  0.59314583  0.66140154  1
  P  P12  1  0.61384636  0.57727550  0.71108835  1
  P  P13  1  0.78273347  0.09314583  0.83859846  1
  P  P14  1  0.25289466  0.86862046  0.16234211  1
  P  P15  1  0.83991136  0.16008864  0.50000000  1
  P  P16  1  0.90685417  0.21726653  0.16140154  1
  P  P17  1  0.92272450  0.88615364  0.21108835  1
  P  P18  1  0.19754595  0.80245405  0.50000000  1
  P  P19  1  0.11384636  0.07727550  0.78891165  1
  O  O20  1  0.03935589  0.75101867  0.51875219  1
  O  O21  1  0.24898133  0.96064411  0.48124781  1
  O  O22  1  0.49420531  0.20581176  0.60456734  1
  O  O23  1  0.60464409  0.36972870  0.27204633  1
  O  O24  1  0.28030918  0.76505364  0.90371847  1
  O  O25  1  0.54212102  0.76208454  0.39733712  1
  O  O26  1  0.37966828  0.34309452  0.39581222  1
  O  O27  1  0.87441774  0.33747111  0.24987206  1
  O  O28  1  0.99420531  0.70581176  0.89543266  1
  O  O29  1  0.49803874  0.71156418  0.01878857  1
  O  O30  1  0.78030918  0.26505364  0.59628153  1
  O  O31  1  0.15690548  0.12033172  0.89581222  1
  O  O32  1  0.87966828  0.84309452  0.10418778  1
  O  O33  1  0.53935589  0.25101867  0.98124781  1
  O  O34  1  0.74898133  0.46064411  0.01875219  1
  O  O35  1  0.85281848  0.81939478  0.30474225  1
  O  O36  1  0.16252889  0.62558226  0.74987206  1
  O  O37  1  0.65690548  0.62033172  0.60418778  1
  O  O38  1  0.43101856  0.58745635  0.72656285  1
  O  O39  1  0.41254365  0.56898144  0.27343715  1
  O  O40  1  0.13027230  0.89535591  0.77204533  1
  O  O41  1  0.35281848  0.31939478  0.19525775  1
  O  O42  1  0.73791546  0.95787898  0.89733712  1
  O  O43  1  0.18060522  0.14718152  0.69525775  1
  O  O44  1  0.25718460  0.69718627  0.40374285  1
  O  O45  1  0.04212102  0.26208454  0.10266288  1
  O  O46  1  0.30281373  0.74281540  0.59625715  1
  O  O47  1  0.23494636  0.71969082  0.09628153  1
  O  O48  1  0.68060522  0.64718152  0.80474225  1
  O  O49  1  0.78843582  0.00196126  0.51878857  1
  O  O50  1  0.75718460  0.19718627  0.09625715  1
  O  O51  1  0.66252889  0.12558226  0.75012794  1
  O  O52  1  0.93101856  0.08745635  0.77343715  1
  O  O53  1  0.79418824  0.50579469  0.39543266  1
  O  O54  1  0.99803874  0.21156418  0.48121143  1
  O  O55  1  0.80281373  0.24281540  0.90374285  1
  O  O56  1  0.37441774  0.83747111  0.25012794  1
  O  O57  1  0.28843582  0.50196126  0.98121143  1
  O  O58  1  0.23791546  0.45787898  0.60266288  1
  O  O59  1  0.73494636  0.21969082  0.40371847  1
  O  O60  1  0.29418824  0.00579469  0.10456734  1
  O  O61  1  0.63027130  0.39535591  0.72795467  1
  O  O62  1  0.91254365  0.06898144  0.22656285  1
  O  O63  1  0.10464409  0.86972870  0.22795367  1
