# generated using pymatgen
data_Rb8AlAu3O4
_symmetry_space_group_name_H-M   'P 1'
_cell_length_a   10.61176993
_cell_length_b   13.15525702
_cell_length_c   13.49024558
_cell_angle_alpha   90.00000000
_cell_angle_beta   90.00000000
_cell_angle_gamma   90.00000000
_symmetry_Int_Tables_number   1
_chemical_formula_structural   Rb8AlAu3O4
_chemical_formula_sum   'Rb32 Al4 Au12 O16'
_cell_volume   1883.24584919
_cell_formula_units_Z   4
loop_
 _symmetry_equiv_pos_site_id
 _symmetry_equiv_pos_as_xyz
  1  'x, y, z'
loop_
 _atom_site_type_symbol
 _atom_site_label
 _atom_site_symmetry_multiplicity
 _atom_site_fract_x
 _atom_site_fract_y
 _atom_site_fract_z
 _atom_site_occupancy
  Rb  Rb0  1  0.90250136  0.95390293  0.49013153  1
  Rb  Rb1  1  0.84717036  0.30774410  0.93881417  1
  Rb  Rb2  1  0.52345889  0.45192944  0.01487564  1
  Rb  Rb3  1  0.09749864  0.45390293  0.00986847  1
  Rb  Rb4  1  0.34717036  0.19225590  0.06118583  1
  Rb  Rb5  1  0.65839318  0.47180894  0.73710196  1
  Rb  Rb6  1  0.38459565  0.23583422  0.34762747  1
  Rb  Rb7  1  0.73164865  0.25205091  0.18127307  1
  Rb  Rb8  1  0.23164865  0.24794909  0.81872693  1
  Rb  Rb9  1  0.88459565  0.26416578  0.65237253  1
  Rb  Rb10  1  0.84160682  0.52819106  0.23710196  1
  Rb  Rb11  1  0.98642145  0.24795331  0.36163731  1
  Rb  Rb12  1  0.76835135  0.74794909  0.68127307  1
  Rb  Rb13  1  0.82157210  0.96027006  0.23304202  1
  Rb  Rb14  1  0.26835135  0.75205091  0.31872693  1
  Rb  Rb15  1  0.01357855  0.74795331  0.13836269  1
  Rb  Rb16  1  0.15282964  0.80774410  0.56118583  1
  Rb  Rb17  1  0.97654111  0.54807056  0.51487564  1
  Rb  Rb18  1  0.48642145  0.25204669  0.63836269  1
  Rb  Rb19  1  0.02345889  0.04807056  0.98512436  1
  Rb  Rb20  1  0.34160682  0.97180894  0.76289804  1
  Rb  Rb21  1  0.32157210  0.53972994  0.76695798  1
  Rb  Rb22  1  0.67842790  0.03972994  0.73304202  1
  Rb  Rb23  1  0.40250136  0.54609707  0.50986847  1
  Rb  Rb24  1  0.51357855  0.75204669  0.86163731  1
  Rb  Rb25  1  0.17842790  0.46027006  0.26695798  1
  Rb  Rb26  1  0.61540435  0.73583422  0.15237253  1
  Rb  Rb27  1  0.59749864  0.04609707  0.99013153  1
  Rb  Rb28  1  0.15839318  0.02819106  0.26289804  1
  Rb  Rb29  1  0.65282964  0.69225590  0.43881417  1
  Rb  Rb30  1  0.11540435  0.76416578  0.84762747  1
  Rb  Rb31  1  0.47654111  0.95192944  0.48512436  1
  Al  Al32  1  0.05464212  0.24546800  0.13799041  1
  Al  Al33  1  0.44535788  0.75453200  0.63799041  1
  Al  Al34  1  0.94535788  0.74546800  0.36200959  1
  Al  Al35  1  0.55464212  0.25453200  0.86200959  1
  Au  Au36  1  0.68931651  0.38745881  0.44627815  1
  Au  Au37  1  0.30534703  0.66144557  0.04773279  1
  Au  Au38  1  0.69465297  0.16144557  0.45226721  1
  Au  Au39  1  0.02483892  0.02478449  0.71531819  1
  Au  Au40  1  0.31068349  0.88745881  0.05372185  1
  Au  Au41  1  0.97516108  0.52478449  0.78468181  1
  Au  Au42  1  0.52483892  0.47521551  0.28468181  1
  Au  Au43  1  0.18931651  0.11254119  0.55372185  1
  Au  Au44  1  0.81068349  0.61254119  0.94627815  1
  Au  Au45  1  0.80534703  0.83855443  0.95226721  1
  Au  Au46  1  0.19465297  0.33855443  0.54773279  1
  Au  Au47  1  0.47516108  0.97521551  0.21531819  1
  O  O48  1  0.81034386  0.74372299  0.27896638  1
  O  O49  1  0.89644941  0.74484505  0.49127280  1
  O  O50  1  0.46687128  0.13946856  0.83538065  1
  O  O51  1  0.18965614  0.24372299  0.22103362  1
  O  O52  1  0.03312872  0.86053144  0.33538065  1
  O  O53  1  0.31034386  0.75627701  0.72103362  1
  O  O54  1  0.04375692  0.63558478  0.33375066  1
  O  O55  1  0.10355059  0.24484505  0.00872720  1
  O  O56  1  0.53312872  0.63946856  0.66461935  1
  O  O57  1  0.95624308  0.13558478  0.16624934  1
  O  O58  1  0.39644941  0.75515495  0.50872720  1
  O  O59  1  0.60355059  0.25515495  0.99127280  1
  O  O60  1  0.68965614  0.25627701  0.77896638  1
  O  O61  1  0.54375692  0.86441522  0.66624934  1
  O  O62  1  0.45624308  0.36441522  0.83375066  1
  O  O63  1  0.96687128  0.36053144  0.16461935  1
