# generated using pymatgen
data_TlRe3(S2Cl)2
_symmetry_space_group_name_H-M   'P 1'
_cell_length_a   6.43635735
_cell_length_b   9.19845163
_cell_length_c   17.18914179
_cell_angle_alpha   95.95395476
_cell_angle_beta   92.65757363
_cell_angle_gamma   96.05123041
_symmetry_Int_Tables_number   1
_chemical_formula_structural   TlRe3(S2Cl)2
_chemical_formula_sum   'Tl4 Re12 S16 Cl8'
_cell_volume   1004.85463731
_cell_formula_units_Z   4
loop_
 _symmetry_equiv_pos_site_id
 _symmetry_equiv_pos_as_xyz
  1  'x, y, z'
loop_
 _atom_site_type_symbol
 _atom_site_label
 _atom_site_symmetry_multiplicity
 _atom_site_fract_x
 _atom_site_fract_y
 _atom_site_fract_z
 _atom_site_occupancy
  Tl  Tl0  1  0.53413387  0.49100887  0.84441900  1
  Tl  Tl1  1  0.04135525  -0.01157767  0.33209915  1
  Tl  Tl2  1  0.95864475  1.01157767  0.66790085  1
  Tl  Tl3  1  0.46586613  0.50899113  0.15558100  1
  Re  Re4  1  0.22486817  0.47499440  0.46157095  1
  Re  Re5  1  0.42263003  0.40954976  0.58805033  1
  Re  Re6  1  0.72376308  0.92700992  0.00412752  1
  Re  Re7  1  0.07054198  0.89774188  0.08381921  1
  Re  Re8  1  0.92945802  0.10225812  0.91618079  1
  Re  Re9  1  0.54035017  0.31641002  0.44935270  1
  Re  Re10  1  0.77513183  0.52500560  0.53842905  1
  Re  Re11  1  0.27623692  0.07299008  0.99587248  1
  Re  Re12  1  0.45964983  0.68358998  0.55064730  1
  Re  Re13  1  0.04065910  0.83937475  0.92879826  1
  Re  Re14  1  0.95934090  0.16062525  0.07120174  1
  Re  Re15  1  0.57736997  0.59045024  0.41194967  1
  S  S16  1  0.22902096  0.01511184  0.85509225  1
  S  S17  1  0.15600948  0.30915009  0.98395430  1
  S  S18  1  0.77097904  0.98488816  0.14490775  1
  S  S19  1  0.64698969  0.18691598  0.99129725  1
  S  S20  1  0.35301031  0.81308402  0.00870275  1
  S  S21  1  0.14260654  0.56591092  0.59813971  1
  S  S22  1  0.28362553  0.12230365  0.13700763  1
  S  S23  1  0.27959251  0.72513032  0.42975484  1
  S  S24  1  0.85739346  0.43408908  0.40186029  1
  S  S25  1  0.71637447  0.87769635  0.86299237  1
  S  S26  1  0.64830130  0.60921388  0.66302209  1
  S  S27  1  0.35169870  0.39078612  0.33697791  1
  S  S28  1  0.84399052  0.69084991  0.01604570  1
  S  S29  1  0.21076500  0.22710867  0.49794455  1
  S  S30  1  0.72040749  0.27486968  0.57024516  1
  S  S31  1  0.78923500  0.77289133  0.50205545  1
  Cl  Cl32  1  0.83408164  0.23345502  0.80711199  1
  Cl  Cl33  1  0.58242702  0.07866970  0.38194369  1
  Cl  Cl34  1  0.08801441  0.63207894  0.83562986  1
  Cl  Cl35  1  0.41757298  0.92133030  0.61805631  1
  Cl  Cl36  1  0.68055783  0.70776943  0.29722587  1
  Cl  Cl37  1  0.91198559  0.36792106  0.16437014  1
  Cl  Cl38  1  0.31944217  0.29223057  0.70277413  1
  Cl  Cl39  1  0.16591836  0.76654498  0.19288801  1
