# generated using pymatgen
data_La6S4BrN3
_symmetry_space_group_name_H-M   'P 1'
_cell_length_a   4.11180023
_cell_length_b   11.70436022
_cell_length_c   27.89318874
_cell_angle_alpha   90.00000000
_cell_angle_beta   90.00000000
_cell_angle_gamma   90.00000000
_symmetry_Int_Tables_number   1
_chemical_formula_structural   La6S4BrN3
_chemical_formula_sum   'La24 S16 Br4 N12'
_cell_volume   1342.38735151
_cell_formula_units_Z   4
loop_
 _symmetry_equiv_pos_site_id
 _symmetry_equiv_pos_as_xyz
  1  'x, y, z'
loop_
 _atom_site_type_symbol
 _atom_site_label
 _atom_site_symmetry_multiplicity
 _atom_site_fract_x
 _atom_site_fract_y
 _atom_site_fract_z
 _atom_site_occupancy
  La  La0  1  0.75000000  0.60003035  0.53605875  1
  La  La1  1  0.25000000  0.74656708  0.17153410  1
  La  La2  1  0.75000000  0.25501140  0.56385682  1
  La  La3  1  0.75000000  0.10003035  0.96394125  1
  La  La4  1  0.25000000  0.87563034  0.78290832  1
  La  La5  1  0.25000000  0.94176591  0.57774542  1
  La  La6  1  0.75000000  0.05823409  0.42225458  1
  La  La7  1  0.25000000  0.93903646  0.30834522  1
  La  La8  1  0.25000000  0.74498860  0.43614318  1
  La  La9  1  0.75000000  0.75501140  0.93614318  1
  La  La10  1  0.25000000  0.24656708  0.32846590  1
  La  La11  1  0.75000000  0.55823409  0.07774542  1
  La  La12  1  0.75000000  0.25343292  0.82846590  1
  La  La13  1  0.75000000  0.62436966  0.28290832  1
  La  La14  1  0.25000000  0.44176591  0.92225458  1
  La  La15  1  0.25000000  0.37563034  0.71709168  1
  La  La16  1  0.75000000  0.56096354  0.80834522  1
  La  La17  1  0.75000000  0.12436966  0.21709168  1
  La  La18  1  0.25000000  0.43903646  0.19165478  1
  La  La19  1  0.25000000  0.39996965  0.46394125  1
  La  La20  1  0.75000000  0.75343292  0.67153410  1
  La  La21  1  0.25000000  0.24498860  0.06385682  1
  La  La22  1  0.75000000  0.06096354  0.69165478  1
  La  La23  1  0.25000000  0.89996965  0.03605875  1
  S  S24  1  0.75000000  0.31047253  0.13700452  1
  S  S25  1  0.75000000  0.29298488  0.39750042  1
  S  S26  1  0.25000000  0.13577532  0.76389390  1
  S  S27  1  0.75000000  0.36422468  0.26389390  1
  S  S28  1  0.75000000  0.35435427  0.00498594  1
  S  S29  1  0.25000000  0.18952747  0.63700452  1
  S  S30  1  0.75000000  0.81047253  0.36299548  1
  S  S31  1  0.25000000  0.64564573  0.99501406  1
  S  S32  1  0.25000000  0.63577532  0.73610610  1
  S  S33  1  0.75000000  0.79298488  0.10249958  1
  S  S34  1  0.75000000  0.85435427  0.49501406  1
  S  S35  1  0.75000000  0.86422468  0.23610610  1
  S  S36  1  0.25000000  0.70701512  0.60249958  1
  S  S37  1  0.25000000  0.14564573  0.50498594  1
  S  S38  1  0.25000000  0.68952747  0.86299548  1
  S  S39  1  0.25000000  0.20701512  0.89750042  1
  Br  Br40  1  0.75000000  0.96201398  0.86233247  1
  Br  Br41  1  0.75000000  0.46201398  0.63766753  1
  Br  Br42  1  0.25000000  0.03798602  0.13766753  1
  Br  Br43  1  0.25000000  0.53798602  0.36233247  1
  N  N44  1  0.25000000  0.09811975  0.01402090  1
  N  N45  1  0.25000000  0.59811975  0.48597910  1
  N  N46  1  0.75000000  0.90188025  0.98597910  1
  N  N47  1  0.25000000  0.11344081  0.26256944  1
  N  N48  1  0.75000000  0.93704157  0.62566308  1
  N  N49  1  0.75000000  0.88655919  0.73743056  1
  N  N50  1  0.25000000  0.61344081  0.23743056  1
  N  N51  1  0.25000000  0.56295843  0.12566308  1
  N  N52  1  0.75000000  0.38655919  0.76256944  1
  N  N53  1  0.75000000  0.43704157  0.87433692  1
  N  N54  1  0.25000000  0.06295843  0.37433692  1
  N  N55  1  0.75000000  0.40188025  0.51402090  1
