# generated using pymatgen
data_NaCrF4
_symmetry_space_group_name_H-M   'P 1'
_cell_length_a   5.41545965
_cell_length_b   7.53301782
_cell_length_c   7.99402057
_cell_angle_alpha   101.31063831
_cell_angle_beta   90.00000000
_cell_angle_gamma   90.00000000
_symmetry_Int_Tables_number   1
_chemical_formula_structural   NaCrF4
_chemical_formula_sum   'Na4 Cr4 F16'
_cell_volume   319.78039970
_cell_formula_units_Z   4
loop_
 _symmetry_equiv_pos_site_id
 _symmetry_equiv_pos_as_xyz
  1  'x, y, z'
loop_
 _atom_site_type_symbol
 _atom_site_label
 _atom_site_symmetry_multiplicity
 _atom_site_fract_x
 _atom_site_fract_y
 _atom_site_fract_z
 _atom_site_occupancy
  Na  Na0  1  0.77998900  0.11043284  0.36385173  1
  Na  Na1  1  0.27998900  0.38956716  0.63614827  1
  Na  Na2  1  0.22001100  0.88956716  0.63614827  1
  Na  Na3  1  0.72001100  0.61043284  0.36385173  1
  Cr  Cr4  1  0.25762869  0.29793160  0.16879117  1
  Cr  Cr5  1  0.75762869  0.20206840  0.83120883  1
  Cr  Cr6  1  0.74237131  0.70206840  0.83120883  1
  Cr  Cr7  1  0.24237131  0.79793160  0.16879117  1
  F  F8  1  0.51885155  0.87411153  0.30959174  1
  F  F9  1  0.01885155  0.62588847  0.69040826  1
  F  F10  1  0.48114845  0.12588847  0.69040826  1
  F  F11  1  0.98114845  0.37411153  0.30959174  1
  F  F12  1  0.04424411  0.81301543  0.36969792  1
  F  F13  1  0.54424411  0.68698457  0.63030208  1
  F  F14  1  0.95575589  0.18698457  0.63030208  1
  F  F15  1  0.45575589  0.31301543  0.36969792  1
  F  F16  1  0.14076671  0.04880078  0.16795511  1
  F  F17  1  0.64076671  0.45119922  0.83204489  1
  F  F18  1  0.85923329  0.95119922  0.83204489  1
  F  F19  1  0.35923329  0.54880078  0.16795511  1
  F  F20  1  0.56073852  0.20519532  0.03986426  1
  F  F21  1  0.06073852  0.29480468  0.96013574  1
  F  F22  1  0.43926148  0.79480468  0.96013574  1
  F  F23  1  0.93926148  0.70519532  0.03986426  1
