# generated using pymatgen
data_AuS3(O3F)3
_symmetry_space_group_name_H-M   'P 1'
_cell_length_a   9.67534559
_cell_length_b   10.02400800
_cell_length_c   11.14127307
_cell_angle_alpha   94.13363531
_cell_angle_beta   90.00000000
_cell_angle_gamma   90.00000000
_symmetry_Int_Tables_number   1
_chemical_formula_structural   AuS3(O3F)3
_chemical_formula_sum   'Au4 S12 O36 F12'
_cell_volume   1077.73374459
_cell_formula_units_Z   4
loop_
 _symmetry_equiv_pos_site_id
 _symmetry_equiv_pos_as_xyz
  1  'x, y, z'
loop_
 _atom_site_type_symbol
 _atom_site_label
 _atom_site_symmetry_multiplicity
 _atom_site_fract_x
 _atom_site_fract_y
 _atom_site_fract_z
 _atom_site_occupancy
  Au  Au0  1  0.00369983  0.64934306  0.16987294  1
  Au  Au1  1  0.99630017  0.35065694  0.83012706  1
  Au  Au2  1  0.49630017  0.14934306  0.16987294  1
  Au  Au3  1  0.50369983  0.85065694  0.83012706  1
  S  S4  1  0.62071951  0.18878928  0.42487827  1
  S  S5  1  0.39916678  0.14892491  0.89019684  1
  S  S6  1  0.89916678  0.35107509  0.10980316  1
  S  S7  1  0.39171014  0.44764592  0.19126314  1
  S  S8  1  0.87928049  0.68878928  0.42487827  1
  S  S9  1  0.60828986  0.55235408  0.80873686  1
  S  S10  1  0.10083322  0.64892491  0.89019684  1
  S  S11  1  0.12071951  0.31121072  0.57512173  1
  S  S12  1  0.37928049  0.81121072  0.57512173  1
  S  S13  1  0.60083322  0.85107509  0.10980316  1
  S  S14  1  0.10828986  0.94764592  0.19126314  1
  S  S15  1  0.89171014  0.05235408  0.80873686  1
  O  O16  1  0.51129096  0.15413214  0.98279352  1
  O  O17  1  0.50975052  0.85759171  0.64928096  1
  O  O18  1  0.14695664  0.79774861  0.18327673  1
  O  O19  1  0.42404284  0.78970082  0.45323582  1
  O  O20  1  0.01129096  0.34586786  0.01720648  1
  O  O21  1  0.02644931  0.02600524  0.85313741  1
  O  O22  1  0.77201958  0.98318685  0.84797397  1
  O  O23  1  0.20108625  0.21627603  0.63439665  1
  O  O24  1  0.36292477  0.00795538  0.84714081  1
  O  O25  1  0.57595716  0.21029918  0.54676418  1
  O  O26  1  0.72798042  0.48318685  0.84797397  1
  O  O27  1  0.00975052  0.64240829  0.35071904  1
  O  O28  1  0.86292477  0.49204462  0.15285919  1
  O  O29  1  0.98870904  0.65413214  0.98279352  1
  O  O30  1  0.47355069  0.52600524  0.85313741  1
  O  O31  1  0.92404284  0.71029918  0.54676418  1
  O  O32  1  0.29891375  0.71627603  0.63439665  1
  O  O33  1  0.78070333  0.27008268  0.08731319  1
  O  O34  1  0.13707523  0.50795538  0.84714081  1
  O  O35  1  0.28070333  0.22991732  0.91268681  1
  O  O36  1  0.79891375  0.78372397  0.36560335  1
  O  O37  1  0.63707523  0.99204462  0.15285919  1
  O  O38  1  0.21929667  0.72991732  0.91268681  1
  O  O39  1  0.22798042  0.01681315  0.15202603  1
  O  O40  1  0.85304336  0.20225139  0.81672327  1
  O  O41  1  0.07595716  0.28970082  0.45323582  1
  O  O42  1  0.35304336  0.29774861  0.18327673  1
  O  O43  1  0.48870904  0.84586786  0.01720648  1
  O  O44  1  0.97355069  0.97399476  0.14686259  1
  O  O45  1  0.52644931  0.47399476  0.14686259  1
  O  O46  1  0.70108625  0.28372397  0.36560335  1
  O  O47  1  0.99024948  0.35759171  0.64928096  1
  O  O48  1  0.71929667  0.77008268  0.08731319  1
  O  O49  1  0.27201958  0.51681315  0.15202603  1
  O  O50  1  0.49024948  0.14240829  0.35071904  1
  O  O51  1  0.64695664  0.70225139  0.81672327  1
  F  F52  1  0.10219514  0.97914163  0.33314747  1
  F  F53  1  0.79110789  0.55472269  0.41819103  1
  F  F54  1  0.20889211  0.44527731  0.58180897  1
  F  F55  1  0.70889211  0.05472269  0.41819103  1
  F  F56  1  0.48287023  0.20127056  0.78319378  1
  F  F57  1  0.89780486  0.02085837  0.66685253  1
  F  F58  1  0.29110789  0.94527731  0.58180897  1
  F  F59  1  0.01712977  0.70127056  0.78319378  1
  F  F60  1  0.60219514  0.52085837  0.66685253  1
  F  F61  1  0.51712977  0.79872944  0.21680622  1
  F  F62  1  0.39780486  0.47914163  0.33314747  1
  F  F63  1  0.98287023  0.29872944  0.21680622  1
