# generated using pymatgen
data_Y3BrO4
_symmetry_space_group_name_H-M   'P 1'
_cell_length_a   4.10437358
_cell_length_b   6.25514022
_cell_length_c   11.71879290
_cell_angle_alpha   90.00000000
_cell_angle_beta   90.00000000
_cell_angle_gamma   109.15228443
_symmetry_Int_Tables_number   1
_chemical_formula_structural   Y3BrO4
_chemical_formula_sum   'Y6 Br2 O8'
_cell_volume   284.20892014
_cell_formula_units_Z   2
loop_
 _symmetry_equiv_pos_site_id
 _symmetry_equiv_pos_as_xyz
  1  'x, y, z'
loop_
 _atom_site_type_symbol
 _atom_site_label
 _atom_site_symmetry_multiplicity
 _atom_site_fract_x
 _atom_site_fract_y
 _atom_site_fract_z
 _atom_site_occupancy
  Y  Y0  1  0.68572797  0.37145594  0.10309696  1
  Y  Y1  1  0.31427203  0.62854406  0.89690304  1
  Y  Y2  1  0.31427203  0.62854406  0.60309696  1
  Y  Y3  1  0.68572797  0.37145594  0.39690304  1
  Y  Y4  1  0.38134718  0.76269435  0.25000000  1
  Y  Y5  1  0.61865282  0.23730565  0.75000000  1
  Br  Br6  1  0.00000000  0.00000000  0.00000000  1
  Br  Br7  1  0.00000000  0.00000000  0.50000000  1
  O  O8  1  0.80898873  0.61797746  0.25000000  1
  O  O9  1  0.73019706  0.46039412  0.58952583  1
  O  O10  1  0.73019706  0.46039412  0.91047417  1
  O  O11  1  0.19101127  0.38202254  0.75000000  1
  O  O12  1  0.26980294  0.53960588  0.41047417  1
  O  O13  1  0.56608440  0.13216879  0.25000000  1
  O  O14  1  0.43391560  0.86783121  0.75000000  1
  O  O15  1  0.26980294  0.53960588  0.08952583  1
