# generated using pymatgen
data_Mg5B3O9F
_symmetry_space_group_name_H-M   'P 1'
_cell_length_a   4.57346946
_cell_length_b   10.18582009
_cell_length_c   15.00284350
_cell_angle_alpha   90.00000000
_cell_angle_beta   90.00000000
_cell_angle_gamma   90.00000000
_symmetry_Int_Tables_number   1
_chemical_formula_structural   Mg5B3O9F
_chemical_formula_sum   'Mg20 B12 O36 F4'
_cell_volume   698.90051973
_cell_formula_units_Z   4
loop_
 _symmetry_equiv_pos_site_id
 _symmetry_equiv_pos_as_xyz
  1  'x, y, z'
loop_
 _atom_site_type_symbol
 _atom_site_label
 _atom_site_symmetry_multiplicity
 _atom_site_fract_x
 _atom_site_fract_y
 _atom_site_fract_z
 _atom_site_occupancy
  Mg  Mg0  1  0.50047219  0.36929608  0.15778687  1
  Mg  Mg1  1  0.01017957  0.84866988  0.95186656  1
  Mg  Mg2  1  0.00047219  0.13070392  0.65778687  1
  Mg  Mg3  1  0.99947469  0.13188490  0.04354788  1
  Mg  Mg4  1  0.99766337  0.58005851  0.85084421  1
  Mg  Mg5  1  0.49947469  0.36811510  0.54354788  1
  Mg  Mg6  1  0.49952781  0.63070392  0.65778687  1
  Mg  Mg7  1  0.48929856  0.34724639  0.74917592  1
  Mg  Mg8  1  0.00233663  0.41994149  0.35084421  1
  Mg  Mg9  1  0.48982043  0.34866988  0.95186656  1
  Mg  Mg10  1  0.99952781  0.86929608  0.15778687  1
  Mg  Mg11  1  0.49766337  0.91994149  0.35084421  1
  Mg  Mg12  1  0.51070144  0.65275361  0.24917592  1
  Mg  Mg13  1  0.01070144  0.84724639  0.74917592  1
  Mg  Mg14  1  0.51017957  0.65133012  0.45186656  1
  Mg  Mg15  1  0.98982043  0.15133012  0.45186656  1
  Mg  Mg16  1  0.50052531  0.63188490  0.04354788  1
  Mg  Mg17  1  0.00052531  0.86811510  0.54354788  1
  Mg  Mg18  1  0.98929856  0.15275361  0.24917592  1
  Mg  Mg19  1  0.50233663  0.08005851  0.85084421  1
  B  B20  1  0.46546031  0.92494884  0.67668739  1
  B  B21  1  0.96546031  0.57505116  0.17668739  1
  B  B22  1  0.95463092  0.22192372  0.85062662  1
  B  B23  1  0.45463092  0.27807628  0.35062662  1
  B  B24  1  0.53453969  0.07505116  0.17668739  1
  B  B25  1  0.03453969  0.42494884  0.67668739  1
  B  B26  1  0.54536908  0.72192372  0.85062662  1
  B  B27  1  0.96430428  0.57412383  0.52486747  1
  B  B28  1  0.53569572  0.07412383  0.52486747  1
  B  B29  1  0.04536908  0.77807628  0.35062662  1
  B  B30  1  0.46430428  0.92587617  0.02486747  1
  B  B31  1  0.03569572  0.42587617  0.02486747  1
  O  O32  1  0.74407777  0.44571870  0.04618346  1
  O  O33  1  0.18851941  0.50744610  0.96571968  1
  O  O34  1  0.70149661  0.70071174  0.92930190  1
  O  O35  1  0.24407777  0.05428130  0.54618346  1
  O  O36  1  0.25693417  0.55507968  0.15516836  1
  O  O37  1  0.19318044  0.31534301  0.64625156  1
  O  O38  1  0.74306583  0.44492032  0.65516836  1
  O  O39  1  0.80589894  0.68385788  0.55504007  1
  O  O40  1  0.30681956  0.81534301  0.64625156  1
  O  O41  1  0.24909483  0.25263581  0.85068827  1
  O  O42  1  0.79910076  0.20010572  0.77193945  1
  O  O43  1  0.18733226  0.50635676  0.73591694  1
  O  O44  1  0.19410106  0.31614212  0.05504007  1
  O  O45  1  0.24306583  0.05507968  0.15516836  1
  O  O46  1  0.75693417  0.94492032  0.65516836  1
  O  O47  1  0.25592223  0.55428130  0.54618346  1
  O  O48  1  0.69410106  0.18385788  0.55504007  1
  O  O49  1  0.81148059  0.49255390  0.46571968  1
  O  O50  1  0.68733226  0.99364324  0.23591694  1
  O  O51  1  0.75090517  0.74736419  0.35068827  1
  O  O52  1  0.79850339  0.20071174  0.92930190  1
  O  O53  1  0.29850339  0.29928826  0.42930190  1
  O  O54  1  0.81266774  0.49364324  0.23591694  1
  O  O55  1  0.20089924  0.79989428  0.27193945  1
  O  O56  1  0.25090517  0.75263581  0.85068827  1
  O  O57  1  0.29910076  0.29989428  0.27193945  1
  O  O58  1  0.75592223  0.94571870  0.04618346  1
  O  O59  1  0.30589894  0.81614212  0.05504007  1
  O  O60  1  0.31148059  0.00744610  0.96571968  1
  O  O61  1  0.20149661  0.79928826  0.42930190  1
  O  O62  1  0.80681956  0.68465699  0.14625156  1
  O  O63  1  0.74909483  0.24736419  0.35068827  1
  O  O64  1  0.68851941  0.99255390  0.46571968  1
  O  O65  1  0.70089924  0.70010572  0.77193945  1
  O  O66  1  0.69318044  0.18465699  0.14625156  1
  O  O67  1  0.31266774  0.00635676  0.73591694  1
  F  F68  1  0.31518142  0.55791257  0.35038739  1
  F  F69  1  0.68481858  0.44208743  0.85038739  1
  F  F70  1  0.18481858  0.05791257  0.35038739  1
  F  F71  1  0.81518142  0.94208743  0.85038739  1
