# generated using pymatgen
data_Ba9Nb2CN10O
_symmetry_space_group_name_H-M   'P 1'
_cell_length_a   8.10550248
_cell_length_b   9.76640923
_cell_length_c   12.78696910
_cell_angle_alpha   75.92934729
_cell_angle_beta   85.63340119
_cell_angle_gamma   87.79269078
_symmetry_Int_Tables_number   1
_chemical_formula_structural   Ba9Nb2CN10O
_chemical_formula_sum   'Ba18 Nb4 C2 N20 O2'
_cell_volume   978.80762682
_cell_formula_units_Z   2
loop_
 _symmetry_equiv_pos_site_id
 _symmetry_equiv_pos_as_xyz
  1  'x, y, z'
loop_
 _atom_site_type_symbol
 _atom_site_label
 _atom_site_symmetry_multiplicity
 _atom_site_fract_x
 _atom_site_fract_y
 _atom_site_fract_z
 _atom_site_occupancy
  Ba  Ba0  1  0.46876524  0.62054063  0.12786735  1
  Ba  Ba1  1  0.49922179  0.67775043  0.57933726  1
  Ba  Ba2  1  0.01647352  0.07007477  0.72332046  1
  Ba  Ba3  1  0.98352648  0.92992523  0.27667954  1
  Ba  Ba4  1  0.46200113  0.92980653  0.27404854  1
  Ba  Ba5  1  0.01116793  0.38280691  0.89260820  1
  Ba  Ba6  1  0.53123476  0.37945937  0.87213265  1
  Ba  Ba7  1  0.73332637  0.29083855  0.15895476  1
  Ba  Ba8  1  0.25646494  0.01441694  0.00248504  1
  Ba  Ba9  1  0.50077821  0.32224957  0.42066274  1
  Ba  Ba10  1  0.26667363  0.70916145  0.84104524  1
  Ba  Ba11  1  0.53799887  0.07019347  0.72595146  1
  Ba  Ba12  1  0.17220049  0.58091772  0.38242664  1
  Ba  Ba13  1  0.82779951  0.41908228  0.61757336  1
  Ba  Ba14  1  0.96396271  0.76103573  0.61867270  1
  Ba  Ba15  1  0.74353506  0.98558306  0.99751496  1
  Ba  Ba16  1  0.98883207  0.61719309  0.10739180  1
  Ba  Ba17  1  0.03603729  0.23896427  0.38132730  1
  Nb  Nb18  1  0.73011741  0.63503481  0.33650522  1
  Nb  Nb19  1  0.26988259  0.36496519  0.66349478  1
  Nb  Nb20  1  0.73125113  0.70314044  0.87952261  1
  Nb  Nb21  1  0.26874887  0.29685956  0.12047739  1
  C  C22  1  0.26112925  0.93935621  0.53431838  1
  C  C23  1  0.73887075  0.06064379  0.46568162  1
  N  N24  1  0.14546093  0.32639940  0.54624211  1
  N  N25  1  0.80524738  0.45386332  0.30106556  1
  N  N26  1  0.19475262  0.54613668  0.69893444  1
  N  N27  1  0.45792009  0.16935788  0.08405930  1
  N  N28  1  0.54207991  0.83064212  0.91594070  1
  N  N29  1  0.69746867  0.07595561  0.37177291  1
  N  N30  1  0.78617335  0.05486512  0.55694131  1
  N  N31  1  0.21382665  0.94513488  0.44305869  1
  N  N32  1  0.70749642  0.63369017  0.74753057  1
  N  N33  1  0.26205833  0.46816952  0.00156574  1
  N  N34  1  0.94006369  0.80756089  0.87612062  1
  N  N35  1  0.73794167  0.53183048  0.99843426  1
  N  N36  1  0.29250358  0.36630983  0.25246943  1
  N  N37  1  0.50625734  0.36820276  0.62181464  1
  N  N38  1  0.75791075  0.79451310  0.20533832  1
  N  N39  1  0.24208925  0.20548690  0.79466168  1
  N  N40  1  0.05993631  0.19243911  0.12387938  1
  N  N41  1  0.30253133  0.92404439  0.62822709  1
  N  N42  1  0.49374266  0.63179724  0.37818536  1
  N  N43  1  0.85453907  0.67360060  0.45375789  1
  O  O44  1  0.78334624  0.20064777  0.82136242  1
  O  O45  1  0.21665376  0.79935223  0.17863758  1
