# generated using pymatgen
data_NiSnF6
_symmetry_space_group_name_H-M   'P 1'
_cell_length_a   5.55524325
_cell_length_b   5.55524325
_cell_length_c   5.55524325
_cell_angle_alpha   56.14692549
_cell_angle_beta   56.14692549
_cell_angle_gamma   56.14692553
_symmetry_Int_Tables_number   1
_chemical_formula_structural   NiSnF6
_chemical_formula_sum   'Ni1 Sn1 F6'
_cell_volume   110.41166982
_cell_formula_units_Z   1
loop_
 _symmetry_equiv_pos_site_id
 _symmetry_equiv_pos_as_xyz
  1  'x, y, z'
loop_
 _atom_site_type_symbol
 _atom_site_label
 _atom_site_symmetry_multiplicity
 _atom_site_fract_x
 _atom_site_fract_y
 _atom_site_fract_z
 _atom_site_occupancy
  F  F0  1  0.24890918  0.87574921  0.62723223  1
  F  F1  1  0.87574921  0.62723223  0.24890918  1
  F  F2  1  0.37276777  0.75109082  0.12425079  1
  F  F3  1  0.12425079  0.37276777  0.75109082  1
  F  F4  1  0.75109082  0.12425079  0.37276777  1
  F  F5  1  0.62723223  0.24890918  0.87574921  1
  Ni  Ni6  1  0.50000000  0.50000000  0.50000000  1
  Sn  Sn7  1  0.00000000  0.00000000  0.00000000  1
