# generated using pymatgen
data_Pr3CuSnS7
_symmetry_space_group_name_H-M   'P 1'
_cell_length_a   10.22764464
_cell_length_b   10.22764478
_cell_length_c   6.14173146
_cell_angle_alpha   90.00000000
_cell_angle_beta   90.00000000
_cell_angle_gamma   119.99999952
_symmetry_Int_Tables_number   1
_chemical_formula_structural   Pr3CuSnS7
_chemical_formula_sum   'Pr6 Cu2 Sn2 S14'
_cell_volume   556.38155429
_cell_formula_units_Z   2
loop_
 _symmetry_equiv_pos_site_id
 _symmetry_equiv_pos_as_xyz
  1  'x, y, z'
loop_
 _atom_site_type_symbol
 _atom_site_label
 _atom_site_symmetry_multiplicity
 _atom_site_fract_x
 _atom_site_fract_y
 _atom_site_fract_z
 _atom_site_occupancy
  Pr  Pr0  1  0.78192384  0.64262190  0.26481903  1
  Pr  Pr1  1  0.86069806  0.21807616  0.26481903  1
  Pr  Pr2  1  0.13930194  0.78192384  0.76481903  1
  Pr  Pr3  1  0.35737810  0.13930194  0.26481903  1
  Pr  Pr4  1  0.64262190  0.86069806  0.76481903  1
  Pr  Pr5  1  0.21807616  0.35737810  0.76481903  1
  Cu  Cu6  1  0.00000000  0.00000000  0.71051669  1
  Cu  Cu7  1  0.00000000  0.00000000  0.21051669  1
  Sn  Sn8  1  0.66666700  0.33333300  0.83659951  1
  Sn  Sn9  1  0.33333300  0.66666700  0.33659951  1
  S  S10  1  0.10114611  0.84752664  0.22520292  1
  S  S11  1  0.57082149  0.08833673  0.00669458  1
  S  S12  1  0.48248477  0.57082149  0.50669458  1
  S  S13  1  0.66666700  0.33333300  0.44893419  1
  S  S14  1  0.84752664  0.74638053  0.72520292  1
  S  S15  1  0.91166327  0.48248477  0.00669458  1
  S  S16  1  0.25361947  0.10114611  0.72520292  1
  S  S17  1  0.74638053  0.89885389  0.22520292  1
  S  S18  1  0.89885389  0.15247336  0.72520292  1
  S  S19  1  0.33333300  0.66666700  0.94893419  1
  S  S20  1  0.15247336  0.25361947  0.22520292  1
  S  S21  1  0.08833673  0.51751523  0.50669458  1
  S  S22  1  0.42917851  0.91166327  0.50669458  1
  S  S23  1  0.51751523  0.42917851  0.00669458  1
