# generated using pymatgen
data_Li2Ca3Be3Si3(O6F)2
_symmetry_space_group_name_H-M   'P 1'
_cell_length_a   11.25794939
_cell_length_b   11.25794972
_cell_length_c   11.25794960
_cell_angle_alpha   109.47122044
_cell_angle_beta   109.47122103
_cell_angle_gamma   109.47121968
_symmetry_Int_Tables_number   1
_chemical_formula_structural   Li2Ca3Be3Si3(O6F)2
_chemical_formula_sum   'Li8 Ca12 Be12 Si12 O48 F8'
_cell_volume   1098.38858270
_cell_formula_units_Z   4
loop_
 _symmetry_equiv_pos_site_id
 _symmetry_equiv_pos_as_xyz
  1  'x, y, z'
loop_
 _atom_site_type_symbol
 _atom_site_label
 _atom_site_symmetry_multiplicity
 _atom_site_fract_x
 _atom_site_fract_y
 _atom_site_fract_z
 _atom_site_occupancy
  Li  Li0  1  0.50000000  0.00000000  0.03930049  1
  Li  Li1  1  0.03930049  0.50000000  0.00000000  1
  Li  Li2  1  1.00000000  0.03930049  0.50000000  1
  Li  Li3  1  1.00000000  0.54271818  0.50000000  1
  Li  Li4  1  0.54271818  0.50000000  0.00000000  1
  Li  Li5  1  0.95728182  0.95728182  0.95728182  1
  Li  Li6  1  0.46069951  0.46069951  0.46069951  1
  Li  Li7  1  0.50000000  0.00000000  0.54271818  1
  Ca  Ca8  1  0.75000000  0.16396881  0.41396881  1
  Ca  Ca9  1  0.59411156  0.84411156  0.75000000  1
  Ca  Ca10  1  0.25000000  0.90588844  0.65588844  1
  Ca  Ca11  1  0.75000000  0.59411156  0.84411156  1
  Ca  Ca12  1  0.16396881  0.41396881  0.75000000  1
  Ca  Ca13  1  0.25000000  0.33603119  0.08603119  1
  Ca  Ca14  1  0.84411156  0.75000000  0.59411156  1
  Ca  Ca15  1  0.65588844  0.25000000  0.90588844  1
  Ca  Ca16  1  0.08603119  0.25000000  0.33603119  1
  Ca  Ca17  1  0.41396881  0.75000000  0.16396881  1
  Ca  Ca18  1  0.90588844  0.65588844  0.25000000  1
  Ca  Ca19  1  0.33603119  0.08603119  0.25000000  1
  Be  Be20  1  0.42440976  0.46473883  0.70108395  1
  Be  Be21  1  0.72332581  0.79891605  0.26365488  1
  Be  Be22  1  0.77667419  0.04032907  0.07559024  1
  Be  Be23  1  0.04032907  0.07559024  0.77667419  1
  Be  Be24  1  0.70108395  0.42440976  0.46473883  1
  Be  Be25  1  0.03526117  0.45967093  0.23634512  1
  Be  Be26  1  0.46473883  0.70108395  0.42440976  1
  Be  Be27  1  0.23634512  0.03526117  0.45967093  1
  Be  Be28  1  0.79891605  0.26365488  0.72332581  1
  Be  Be29  1  0.07559024  0.77667419  0.04032907  1
  Be  Be30  1  0.26365488  0.72332581  0.79891605  1
  Be  Be31  1  0.45967093  0.23634512  0.03526117  1
  Si  Si32  1  0.73536459  0.95602026  0.53157969  1
  Si  Si33  1  0.96842031  0.92444057  0.20378490  1
  Si  Si34  1  0.20378490  0.96842031  0.92444057  1
  Si  Si35  1  0.27934433  0.57555943  0.54397974  1
  Si  Si36  1  0.57555943  0.54397974  0.27934433  1
  Si  Si37  1  0.76463541  0.29621510  0.22065567  1
  Si  Si38  1  0.95602026  0.53157969  0.73536459  1
  Si  Si39  1  0.53157969  0.73536459  0.95602026  1
  Si  Si40  1  0.29621510  0.22065567  0.76463541  1
  Si  Si41  1  0.92444057  0.20378490  0.96842031  1
  Si  Si42  1  0.22065567  0.76463541  0.29621510  1
  Si  Si43  1  0.54397974  0.27934433  0.57555943  1
  O  O44  1  0.54892098  0.63865971  0.82396921  1
  O  O45  1  0.72495177  0.67603079  0.31469049  1
  O  O46  1  0.91003922  0.36009934  0.68543809  1
  O  O47  1  0.67603079  0.31469049  0.72495177  1
  O  O48  1  0.95107902  0.77504823  0.08973873  1
  O  O49  1  0.18530951  0.86134029  0.41026127  1
  O  O50  1  0.68543809  0.91003922  0.36009934  1
  O  O51  1  0.61298254  0.90395149  0.99221056  1
  O  O52  1  0.90395149  0.99221056  0.61298254  1
  O  O53  1  0.13990066  0.04993988  0.32533875  1
  O  O54  1  0.78991959  0.38054907  0.38477256  1
  O  O55  1  0.81456191  0.17466125  0.22460113  1
  O  O56  1  0.82396921  0.54892098  0.63865971  1
  O  O57  1  0.58996078  0.27539887  0.45006012  1
  O  O58  1  0.36009934  0.68543809  0.91003922  1
  O  O59  1  0.40514702  0.11522744  0.49577650  1
  O  O60  1  0.11522744  0.49577650  0.40514702  1
  O  O61  1  0.99221056  0.61298254  0.90395149  1
  O  O62  1  0.20903106  0.08825907  0.59604851  1
  O  O63  1  0.04993988  0.32533875  0.13990066  1
  O  O64  1  0.11945093  0.90937052  0.00422350  1
  O  O65  1  0.08973873  0.95107902  0.77504823  1
  O  O66  1  0.50778944  0.41174093  0.62077199  1
  O  O67  1  0.38477256  0.78991959  0.38054907  1
  O  O68  1  0.38054907  0.38477256  0.78991959  1
  O  O69  1  0.71008041  0.09485298  0.59062948  1
  O  O70  1  0.59604851  0.20903106  0.08825907  1
  O  O71  1  0.86134029  0.41026127  0.18530951  1
  O  O72  1  0.27539887  0.45006012  0.58996078  1
  O  O73  1  0.59062948  0.71008041  0.09485298  1
  O  O74  1  0.41026127  0.18530951  0.86134029  1
  O  O75  1  0.41174093  0.62077199  0.50778944  1
  O  O76  1  0.88701746  0.87922801  0.29096894  1
  O  O77  1  0.08825907  0.59604851  0.20903106  1
  O  O78  1  0.77504823  0.08973873  0.95107902  1
  O  O79  1  0.49577650  0.40514702  0.11522744  1
  O  O80  1  0.62077199  0.50778944  0.41174093  1
  O  O81  1  0.00422350  0.11945093  0.90937052  1
  O  O82  1  0.17466125  0.22460113  0.81456191  1
  O  O83  1  0.45006012  0.58996078  0.27539887  1
  O  O84  1  0.87922801  0.29096894  0.88701746  1
  O  O85  1  0.32533875  0.13990066  0.04993988  1
  O  O86  1  0.09485298  0.59062948  0.71008041  1
  O  O87  1  0.31469049  0.72495177  0.67603079  1
  O  O88  1  0.63865971  0.82396921  0.54892098  1
  O  O89  1  0.22460113  0.81456191  0.17466125  1
  O  O90  1  0.90937052  0.00422350  0.11945093  1
  O  O91  1  0.29096894  0.88701746  0.87922801  1
  F  F92  1  0.50000000  0.00000000  0.21035127  1
  F  F93  1  0.00000000  0.71054205  0.50000000  1
  F  F94  1  0.71054205  0.50000000  1.00000000  1
  F  F95  1  0.50000000  0.00000000  0.71054205  1
  F  F96  1  0.00000000  0.21035127  0.50000000  1
  F  F97  1  0.21035127  0.50000000  1.00000000  1
  F  F98  1  0.28964873  0.28964873  0.28964873  1
  F  F99  1  0.78945795  0.78945795  0.78945795  1
