# generated using pymatgen
data_UTe6(OF5)6
_symmetry_space_group_name_H-M   'P 1'
_cell_length_a   10.02324262
_cell_length_b   10.02324308
_cell_length_c   10.36681761
_cell_angle_alpha   102.74205463
_cell_angle_beta   102.74205515
_cell_angle_gamma   116.28622278
_symmetry_Int_Tables_number   1
_chemical_formula_structural   UTe6(OF5)6
_chemical_formula_sum   'U1 Te6 O6 F30'
_cell_volume   848.36167269
_cell_formula_units_Z   1
loop_
 _symmetry_equiv_pos_site_id
 _symmetry_equiv_pos_as_xyz
  1  'x, y, z'
loop_
 _atom_site_type_symbol
 _atom_site_label
 _atom_site_symmetry_multiplicity
 _atom_site_fract_x
 _atom_site_fract_y
 _atom_site_fract_z
 _atom_site_occupancy
  U  U0  1  0.00000000  0.00000000  0.00000000  1
  Te  Te1  1  0.92062312  0.59730292  0.73521989  1
  Te  Te2  1  0.23529013  0.23529013  0.78585952  1
  Te  Te3  1  0.07937688  0.40269708  0.26478011  1
  Te  Te4  1  0.59730292  0.92062312  0.73521989  1
  Te  Te5  1  0.76470987  0.76470987  0.21414048  1
  Te  Te6  1  0.40269708  0.07937688  0.26478011  1
  O  O7  1  0.21743460  0.04630925  0.12764029  1
  O  O8  1  0.89253522  0.89253522  0.12717323  1
  O  O9  1  0.10746478  0.10746478  0.87282677  1
  O  O10  1  0.04630925  0.21743460  0.12764029  1
  O  O11  1  0.95369075  0.78256540  0.87235971  1
  O  O12  1  0.78256540  0.95369075  0.87235971  1
  F  F13  1  0.26403369  0.41943687  0.91257224  1
  F  F14  1  0.49000418  0.70288085  0.70636063  1
  F  F15  1  0.67224340  0.88012288  0.58985139  1
  F  F16  1  0.29711915  0.50999582  0.29363937  1
  F  F17  1  0.48105688  0.04024767  0.12213510  1
  F  F18  1  0.58279344  0.11053402  0.39811713  1
  F  F19  1  0.94671626  0.79122685  0.34153722  1
  F  F20  1  0.11987712  0.32775660  0.41014861  1
  F  F21  1  0.36038822  0.36038823  0.70179479  1
  F  F22  1  0.41720656  0.88946598  0.60188287  1
  F  F23  1  0.95975233  0.51894312  0.87786490  1
  F  F24  1  0.79122685  0.94671626  0.34153722  1
  F  F25  1  0.50999582  0.29711915  0.29363937  1
  F  F26  1  0.41943687  0.26403369  0.91257224  1
  F  F27  1  0.05328374  0.20877315  0.65846278  1
  F  F28  1  0.63961178  0.63961177  0.29820521  1
  F  F29  1  0.13836734  0.70213326  0.76315046  1
  F  F30  1  0.29786674  0.86163266  0.23684954  1
  F  F31  1  0.73596631  0.58056313  0.08742776  1
  F  F32  1  0.70213326  0.13836734  0.76315046  1
  F  F33  1  0.88012288  0.67224340  0.58985139  1
  F  F34  1  0.86163266  0.29786674  0.23684954  1
  F  F35  1  0.51894312  0.95975233  0.87786490  1
  F  F36  1  0.58056313  0.73596631  0.08742776  1
  F  F37  1  0.88946598  0.41720656  0.60188287  1
  F  F38  1  0.32775660  0.11987712  0.41014861  1
  F  F39  1  0.70288085  0.49000418  0.70636063  1
  F  F40  1  0.20877315  0.05328374  0.65846278  1
  F  F41  1  0.11053402  0.58279344  0.39811713  1
  F  F42  1  0.04024767  0.48105688  0.12213510  1
