# generated using pymatgen
data_Ta2Pt3S8
_symmetry_space_group_name_H-M   'P 1'
_cell_length_a   3.48997505
_cell_length_b   10.53951691
_cell_length_c   14.69120199
_cell_angle_alpha   90.00000000
_cell_angle_beta   90.00000000
_cell_angle_gamma   90.00000000
_symmetry_Int_Tables_number   1
_chemical_formula_structural   Ta2Pt3S8
_chemical_formula_sum   'Ta4 Pt6 S16'
_cell_volume   540.38135638
_cell_formula_units_Z   2
loop_
 _symmetry_equiv_pos_site_id
 _symmetry_equiv_pos_as_xyz
  1  'x, y, z'
loop_
 _atom_site_type_symbol
 _atom_site_label
 _atom_site_symmetry_multiplicity
 _atom_site_fract_x
 _atom_site_fract_y
 _atom_site_fract_z
 _atom_site_occupancy
  Ta  Ta0  1  0.50000000  0.20642879  0.11964674  1
  Ta  Ta1  1  0.50000000  0.29357121  0.61964674  1
  Ta  Ta2  1  0.50000000  0.79357121  0.88035326  1
  Ta  Ta3  1  0.50000000  0.70642879  0.38035326  1
  Pt  Pt4  1  0.00000000  0.87021178  0.27977089  1
  Pt  Pt5  1  0.00000000  0.12978822  0.72022911  1
  Pt  Pt6  1  0.00000000  0.37021178  0.22022911  1
  Pt  Pt7  1  0.00000000  0.62978822  0.77977089  1
  Pt  Pt8  1  0.00000000  0.50000000  0.50000000  1
  Pt  Pt9  1  0.00000000  0.00000000  0.00000000  1
  S  S10  1  0.50000000  0.05949003  0.62278373  1
  S  S11  1  0.00000000  0.22392903  0.99747196  1
  S  S12  1  0.50000000  0.44050997  0.12278373  1
  S  S13  1  0.00000000  0.45974272  0.65710435  1
  S  S14  1  0.00000000  0.27607097  0.49747196  1
  S  S15  1  0.00000000  0.95974272  0.84289565  1
  S  S16  1  0.00000000  0.72392903  0.50252804  1
  S  S17  1  0.00000000  0.04025728  0.15710435  1
  S  S18  1  0.50000000  0.74699054  0.21548273  1
  S  S19  1  0.00000000  0.54025728  0.34289565  1
  S  S20  1  0.50000000  0.55949003  0.87721627  1
  S  S21  1  0.50000000  0.24699054  0.28451727  1
  S  S22  1  0.00000000  0.77607097  0.00252804  1
  S  S23  1  0.50000000  0.25300946  0.78451727  1
  S  S24  1  0.50000000  0.75300946  0.71548273  1
  S  S25  1  0.50000000  0.94050997  0.37721627  1
