# generated using pymatgen
data_AgHgSBr
_symmetry_space_group_name_H-M   'P 1'
_cell_length_a   4.67754365
_cell_length_b   9.80469488
_cell_length_c   9.96308165
_cell_angle_alpha   90.00000000
_cell_angle_beta   90.00000000
_cell_angle_gamma   90.00000000
_symmetry_Int_Tables_number   1
_chemical_formula_structural   AgHgSBr
_chemical_formula_sum   'Ag4 Hg4 S4 Br4'
_cell_volume   456.92573752
_cell_formula_units_Z   4
loop_
 _symmetry_equiv_pos_site_id
 _symmetry_equiv_pos_as_xyz
  1  'x, y, z'
loop_
 _atom_site_type_symbol
 _atom_site_label
 _atom_site_symmetry_multiplicity
 _atom_site_fract_x
 _atom_site_fract_y
 _atom_site_fract_z
 _atom_site_occupancy
  Ag  Ag0  1  0.00000000  0.20932752  0.41521241  1
  Ag  Ag1  1  0.00000000  0.79067248  0.58478759  1
  Ag  Ag2  1  0.00000000  0.20932752  0.08478759  1
  Ag  Ag3  1  0.00000000  0.79067248  0.91521241  1
  Hg  Hg4  1  0.50000000  0.22930016  0.75000000  1
  Hg  Hg5  1  0.50000000  0.77069984  0.25000000  1
  Hg  Hg6  1  0.50000000  0.50000000  0.00000000  1
  Hg  Hg7  1  0.50000000  0.50000000  0.50000000  1
  S  S8  1  0.50000000  0.25425214  0.99167133  1
  S  S9  1  0.50000000  0.74574786  0.00832867  1
  S  S10  1  0.50000000  0.74574786  0.49167133  1
  S  S11  1  0.50000000  0.25425214  0.50832867  1
  Br  Br12  1  0.00000000  0.01243309  0.75000000  1
  Br  Br13  1  0.00000000  0.53521896  0.75000000  1
  Br  Br14  1  0.00000000  0.46478104  0.25000000  1
  Br  Br15  1  0.00000000  0.98756691  0.25000000  1
