# generated using pymatgen
data_CsZr2(PO4)3
_symmetry_space_group_name_H-M   'P 1'
_cell_length_a   9.79488858
_cell_length_b   9.79488847
_cell_length_c   9.79488869
_cell_angle_alpha   53.15988967
_cell_angle_beta   53.15989017
_cell_angle_gamma   53.15989025
_symmetry_Int_Tables_number   1
_chemical_formula_structural   CsZr2(PO4)3
_chemical_formula_sum   'Cs2 Zr4 P6 O24'
_cell_volume   558.00632641
_cell_formula_units_Z   2
loop_
 _symmetry_equiv_pos_site_id
 _symmetry_equiv_pos_as_xyz
  1  'x, y, z'
loop_
 _atom_site_type_symbol
 _atom_site_label
 _atom_site_symmetry_multiplicity
 _atom_site_fract_x
 _atom_site_fract_y
 _atom_site_fract_z
 _atom_site_occupancy
  Cs  Cs0  1  0.00000000  0.00000000  0.00000000  1
  Cs  Cs1  1  0.50000000  0.50000000  0.50000000  1
  Zr  Zr2  1  0.15220446  0.15220446  0.15220446  1
  Zr  Zr3  1  0.65220446  0.65220446  0.65220446  1
  Zr  Zr4  1  0.34779554  0.34779554  0.34779554  1
  Zr  Zr5  1  0.84779554  0.84779554  0.84779554  1
  P  P6  1  0.96669520  0.53330480  0.25000000  1
  P  P7  1  0.25000000  0.96669520  0.53330480  1
  P  P8  1  0.53330480  0.25000000  0.96669520  1
  P  P9  1  0.75000000  0.03330480  0.46669520  1
  P  P10  1  0.03330480  0.46669520  0.75000000  1
  P  P11  1  0.46669520  0.75000000  0.03330480  1
  O  O12  1  0.57605821  0.19405208  0.42467325  1
  O  O13  1  0.42394179  0.80594792  0.57532675  1
  O  O14  1  0.73816586  0.01329485  0.64210382  1
  O  O15  1  0.92394179  0.07532675  0.30594792  1
  O  O16  1  0.64210382  0.73816586  0.01329485  1
  O  O17  1  0.92467325  0.69405208  0.07605821  1
  O  O18  1  0.01329485  0.64210382  0.73816586  1
  O  O19  1  0.42467325  0.57605821  0.19405208  1
  O  O20  1  0.48670515  0.76183414  0.85789618  1
  O  O21  1  0.80594792  0.57532675  0.42394179  1
  O  O22  1  0.23816586  0.14210382  0.51329485  1
  O  O23  1  0.30594792  0.92394179  0.07532675  1
  O  O24  1  0.57532675  0.42394179  0.80594792  1
  O  O25  1  0.85789618  0.48670515  0.76183414  1
  O  O26  1  0.26183414  0.98670515  0.35789618  1
  O  O27  1  0.98670515  0.35789618  0.26183414  1
  O  O28  1  0.35789618  0.26183414  0.98670515  1
  O  O29  1  0.07605821  0.92467325  0.69405208  1
  O  O30  1  0.14210382  0.51329485  0.23816586  1
  O  O31  1  0.69405208  0.07605821  0.92467325  1
  O  O32  1  0.51329485  0.23816586  0.14210382  1
  O  O33  1  0.07532675  0.30594792  0.92394179  1
  O  O34  1  0.76183414  0.85789618  0.48670515  1
  O  O35  1  0.19405208  0.42467325  0.57605821  1
