# generated using pymatgen
data_Li4Be3As3ClO12
_symmetry_space_group_name_H-M   'P 1'
_cell_length_a   8.35570463
_cell_length_b   8.35570463
_cell_length_c   8.35570463
_cell_angle_alpha   90.00000000
_cell_angle_beta   90.00000000
_cell_angle_gamma   90.00000000
_symmetry_Int_Tables_number   1
_chemical_formula_structural   Li4Be3As3ClO12
_chemical_formula_sum   'Li8 Be6 As6 Cl2 O24'
_cell_volume   583.37691358
_cell_formula_units_Z   2
loop_
 _symmetry_equiv_pos_site_id
 _symmetry_equiv_pos_as_xyz
  1  'x, y, z'
loop_
 _atom_site_type_symbol
 _atom_site_label
 _atom_site_symmetry_multiplicity
 _atom_site_fract_x
 _atom_site_fract_y
 _atom_site_fract_z
 _atom_site_occupancy
  Li  Li0  1  0.82918089  0.82918089  0.17081911  1
  Li  Li1  1  0.32918089  0.32918089  0.67081911  1
  Li  Li2  1  0.17081911  0.17081911  0.17081911  1
  Li  Li3  1  0.67081911  0.67081911  0.67081911  1
  Li  Li4  1  0.82918089  0.17081911  0.82918089  1
  Li  Li5  1  0.32918089  0.67081911  0.32918089  1
  Li  Li6  1  0.17081911  0.82918089  0.82918089  1
  Li  Li7  1  0.67081911  0.32918089  0.32918089  1
  Be  Be8  1  0.50000000  0.75000000  0.00000000  1
  Be  Be9  1  0.25000000  0.00000000  0.50000000  1
  Be  Be10  1  0.00000000  0.50000000  0.25000000  1
  Be  Be11  1  0.50000000  0.25000000  0.00000000  1
  Be  Be12  1  0.00000000  0.50000000  0.75000000  1
  Be  Be13  1  0.75000000  0.00000000  0.50000000  1
  As  As14  1  0.50000000  0.00000000  0.25000000  1
  As  As15  1  0.00000000  0.25000000  0.50000000  1
  As  As16  1  0.25000000  0.50000000  0.00000000  1
  As  As17  1  0.00000000  0.75000000  0.50000000  1
  As  As18  1  0.50000000  0.00000000  0.75000000  1
  As  As19  1  0.75000000  0.50000000  0.00000000  1
  Cl  Cl20  1  0.50000000  0.50000000  0.50000000  1
  Cl  Cl21  1  0.00000000  0.00000000  0.00000000  1
  O  O22  1  0.09377155  0.36443830  0.64286360  1
  O  O23  1  0.59377155  0.85713640  0.13556170  1
  O  O24  1  0.13556170  0.40622845  0.14286360  1
  O  O25  1  0.14286360  0.13556170  0.40622845  1
  O  O26  1  0.35713640  0.90622845  0.36443830  1
  O  O27  1  0.86443830  0.59377155  0.14286360  1
  O  O28  1  0.86443830  0.40622845  0.85713640  1
  O  O29  1  0.35713640  0.09377155  0.63556170  1
  O  O30  1  0.85713640  0.86443830  0.40622845  1
  O  O31  1  0.90622845  0.36443830  0.35713640  1
  O  O32  1  0.13556170  0.59377155  0.85713640  1
  O  O33  1  0.36443830  0.35713640  0.90622845  1
  O  O34  1  0.40622845  0.14286360  0.13556170  1
  O  O35  1  0.90622845  0.63556170  0.64286360  1
  O  O36  1  0.40622845  0.85713640  0.86443830  1
  O  O37  1  0.64286360  0.09377155  0.36443830  1
  O  O38  1  0.63556170  0.35713640  0.09377155  1
  O  O39  1  0.85713640  0.13556170  0.59377155  1
  O  O40  1  0.64286360  0.90622845  0.63556170  1
  O  O41  1  0.63556170  0.64286360  0.90622845  1
  O  O42  1  0.59377155  0.14286360  0.86443830  1
  O  O43  1  0.09377155  0.63556170  0.35713640  1
  O  O44  1  0.36443830  0.64286360  0.09377155  1
  O  O45  1  0.14286360  0.86443830  0.59377155  1
