# generated using pymatgen
data_RbSiBiS4
_symmetry_space_group_name_H-M   'P 1'
_cell_length_a   6.58470579
_cell_length_b   6.89040535
_cell_length_c   17.33569681
_cell_angle_alpha   90.00000000
_cell_angle_beta   93.19459286
_cell_angle_gamma   90.00000000
_symmetry_Int_Tables_number   1
_chemical_formula_structural   RbSiBiS4
_chemical_formula_sum   'Rb4 Si4 Bi4 S16'
_cell_volume   785.32069596
_cell_formula_units_Z   4
loop_
 _symmetry_equiv_pos_site_id
 _symmetry_equiv_pos_as_xyz
  1  'x, y, z'
loop_
 _atom_site_type_symbol
 _atom_site_label
 _atom_site_symmetry_multiplicity
 _atom_site_fract_x
 _atom_site_fract_y
 _atom_site_fract_z
 _atom_site_occupancy
  Rb  Rb0  1  0.25421815  0.25324575  0.96399985  1
  Rb  Rb1  1  0.75421815  0.24675425  0.46399985  1
  Rb  Rb2  1  0.24578185  0.75324575  0.53600015  1
  Rb  Rb3  1  0.74578185  0.74675425  0.03600015  1
  Si  Si4  1  0.95703932  0.27082604  0.15937904  1
  Si  Si5  1  0.45703932  0.22917396  0.65937904  1
  Si  Si6  1  0.54296068  0.77082604  0.34062096  1
  Si  Si7  1  0.04296068  0.72917396  0.84062096  1
  Bi  Bi8  1  0.53762312  0.80955430  0.77677353  1
  Bi  Bi9  1  0.46237688  0.19044570  0.22322647  1
  Bi  Bi10  1  0.03762312  0.69044570  0.27677353  1
  Bi  Bi11  1  0.96237688  0.30955430  0.72322647  1
  S  S12  1  0.36315371  0.51544580  0.35407680  1
  S  S13  1  0.37998874  0.18115622  0.77771000  1
  S  S14  1  0.63684629  0.48455420  0.64592320  1
  S  S15  1  0.13684629  0.01544580  0.14592320  1
  S  S16  1  0.87998874  0.31884378  0.27771000  1
  S  S17  1  0.68131082  0.24536286  0.08996020  1
  S  S18  1  0.31868918  0.75463714  0.91003980  1
  S  S19  1  0.62001126  0.81884378  0.22229000  1
  S  S20  1  0.81868918  0.74536286  0.41003980  1
  S  S21  1  0.18131082  0.25463714  0.58996020  1
  S  S22  1  0.14810214  0.50779231  0.13480279  1
  S  S23  1  0.35189786  0.00779231  0.36519721  1
  S  S24  1  0.85189786  0.49220769  0.86519721  1
  S  S25  1  0.86315371  0.98455420  0.85407680  1
  S  S26  1  0.64810214  0.99220769  0.63480279  1
  S  S27  1  0.12001126  0.68115622  0.72229000  1
