# generated using pymatgen
data_Ho2Ge2O7
_symmetry_space_group_name_H-M   'P 1'
_cell_length_a   6.84983449
_cell_length_b   6.84983449
_cell_length_c   12.47712664
_cell_angle_alpha   90.00000000
_cell_angle_beta   90.00000000
_cell_angle_gamma   90.00000000
_symmetry_Int_Tables_number   1
_chemical_formula_structural   Ho2Ge2O7
_chemical_formula_sum   'Ho8 Ge8 O28'
_cell_volume   585.42968338
_cell_formula_units_Z   4
loop_
 _symmetry_equiv_pos_site_id
 _symmetry_equiv_pos_as_xyz
  1  'x, y, z'
loop_
 _atom_site_type_symbol
 _atom_site_label
 _atom_site_symmetry_multiplicity
 _atom_site_fract_x
 _atom_site_fract_y
 _atom_site_fract_z
 _atom_site_occupancy
  Ho  Ho0  1  0.85265178  0.62445115  0.88498257  1
  Ho  Ho1  1  0.35265178  0.87554885  0.86501743  1
  Ho  Ho2  1  0.37554885  0.14734822  0.61501743  1
  Ho  Ho3  1  0.64734822  0.12445115  0.36501743  1
  Ho  Ho4  1  0.14734822  0.37554885  0.38498257  1
  Ho  Ho5  1  0.12445115  0.64734822  0.63498257  1
  Ho  Ho6  1  0.62445115  0.85265178  0.11501743  1
  Ho  Ho7  1  0.87554885  0.35265178  0.13498257  1
  Ge  Ge8  1  0.40096183  0.34773032  0.13085827  1
  Ge  Ge9  1  0.65226968  0.59903817  0.36914173  1
  Ge  Ge10  1  0.59903817  0.65226968  0.63085827  1
  Ge  Ge11  1  0.09903817  0.84773032  0.11914173  1
  Ge  Ge12  1  0.84773032  0.09903817  0.88085827  1
  Ge  Ge13  1  0.15226968  0.90096183  0.38085827  1
  Ge  Ge14  1  0.90096183  0.15226968  0.61914173  1
  Ge  Ge15  1  0.34773032  0.40096183  0.86914173  1
  O  O16  1  0.35743131  0.18317358  0.79460678  1
  O  O17  1  0.07933983  0.96839534  0.62340226  1
  O  O18  1  0.68317358  0.14256869  0.54460678  1
  O  O19  1  0.66105428  0.93536394  0.92914942  1
  O  O20  1  0.33894572  0.06463606  0.42914942  1
  O  O21  1  0.43536394  0.83894572  0.67914942  1
  O  O22  1  0.53160466  0.57933983  0.87340226  1
  O  O23  1  0.42066017  0.46839534  0.62659774  1
  O  O24  1  0.19716331  0.80283669  0.25000000  1
  O  O25  1  0.57933983  0.53160466  0.12659774  1
  O  O26  1  0.30283669  0.30283669  0.00000000  1
  O  O27  1  0.92066017  0.03160466  0.12340226  1
  O  O28  1  0.14256869  0.68317358  0.45539322  1
  O  O29  1  0.93536394  0.66105428  0.07085058  1
  O  O30  1  0.85743131  0.31682642  0.95539322  1
  O  O31  1  0.03160466  0.92066017  0.87659774  1
  O  O32  1  0.16105428  0.56463606  0.82085058  1
  O  O33  1  0.31682642  0.85743131  0.04460678  1
  O  O34  1  0.64256869  0.81682642  0.29460678  1
  O  O35  1  0.18317358  0.35743131  0.20539322  1
  O  O36  1  0.56463606  0.16105428  0.17914942  1
  O  O37  1  0.81682642  0.64256869  0.70539322  1
  O  O38  1  0.96839534  0.07933983  0.37659774  1
  O  O39  1  0.06463606  0.33894572  0.57085058  1
  O  O40  1  0.69716331  0.69716331  0.50000000  1
  O  O41  1  0.83894572  0.43536394  0.32085058  1
  O  O42  1  0.80283669  0.19716331  0.75000000  1
  O  O43  1  0.46839534  0.42066017  0.37340226  1
