# generated using pymatgen
data_Bi24Cl10O31
_symmetry_space_group_name_H-M   'P 1'
_cell_length_a   8.07054907
_cell_length_b   10.25274311
_cell_length_c   29.99864816
_cell_angle_alpha   91.06597467
_cell_angle_beta   90.00000000
_cell_angle_gamma   90.00000000
_symmetry_Int_Tables_number   1
_chemical_formula_structural   Bi24Cl10O31
_chemical_formula_sum   'Bi48 Cl20 O62'
_cell_volume   2481.81654685
_cell_formula_units_Z   2
loop_
 _symmetry_equiv_pos_site_id
 _symmetry_equiv_pos_as_xyz
  1  'x, y, z'
loop_
 _atom_site_type_symbol
 _atom_site_label
 _atom_site_symmetry_multiplicity
 _atom_site_fract_x
 _atom_site_fract_y
 _atom_site_fract_z
 _atom_site_occupancy
  Bi  Bi0  1  0.84868733  0.08389941  0.68612124  1
  Bi  Bi1  1  0.37584140  0.90343480  0.09874101  1
  Bi  Bi2  1  0.62415860  0.09656520  0.90125899  1
  Bi  Bi3  1  0.34296086  0.92327051  0.80401295  1
  Bi  Bi4  1  0.12138820  0.59856697  0.83356230  1
  Bi  Bi5  1  0.15131267  0.08389941  0.18612124  1
  Bi  Bi6  1  0.87861180  0.40143303  0.16643770  1
  Bi  Bi7  1  0.10621299  0.20309824  0.78160450  1
  Bi  Bi8  1  0.62420682  0.55714795  0.54708804  1
  Bi  Bi9  1  0.89378701  0.20309824  0.28160450  1
  Bi  Bi10  1  0.62420682  0.44285205  0.95291196  1
  Bi  Bi11  1  0.11929892  0.75137128  0.42659380  1
  Bi  Bi12  1  0.37579318  0.55714795  0.04708804  1
  Bi  Bi13  1  0.15963380  0.93498633  0.59131599  1
  Bi  Bi14  1  0.37579318  0.44285205  0.45291196  1
  Bi  Bi15  1  0.37584140  0.09656520  0.40125899  1
  Bi  Bi16  1  0.34598981  0.25584259  0.57323820  1
  Bi  Bi17  1  0.65401019  0.25584259  0.07323820  1
  Bi  Bi18  1  0.37497475  0.24351681  0.28329038  1
  Bi  Bi19  1  0.12387105  0.56970352  0.54528301  1
  Bi  Bi20  1  0.61820086  0.60521522  0.83688042  1
  Bi  Bi21  1  0.12138820  0.40143303  0.66643770  1
  Bi  Bi22  1  0.10621299  0.79690176  0.71839550  1
  Bi  Bi23  1  0.34296086  0.07672949  0.69598705  1
  Bi  Bi24  1  0.12387105  0.43029648  0.95471699  1
  Bi  Bi25  1  0.84036620  0.06501367  0.40868401  1
  Bi  Bi26  1  0.38179914  0.60521522  0.33688042  1
  Bi  Bi27  1  0.88070108  0.24862872  0.57340620  1
  Bi  Bi28  1  0.87612895  0.56970352  0.04528301  1
  Bi  Bi29  1  0.87861180  0.59856697  0.33356230  1
  Bi  Bi30  1  0.84036620  0.93498633  0.09131599  1
  Bi  Bi31  1  0.87612895  0.43029648  0.45471699  1
  Bi  Bi32  1  0.65703914  0.92327051  0.30401295  1
  Bi  Bi33  1  0.38179914  0.39478478  0.16311958  1
  Bi  Bi34  1  0.88070108  0.75137128  0.92659380  1
  Bi  Bi35  1  0.61820086  0.39478478  0.66311958  1
  Bi  Bi36  1  0.11929892  0.24862872  0.07340620  1
  Bi  Bi37  1  0.15963380  0.06501367  0.90868401  1
  Bi  Bi38  1  0.15131267  0.91610059  0.31387876  1
  Bi  Bi39  1  0.34598981  0.74415741  0.92676180  1
  Bi  Bi40  1  0.89378701  0.79690176  0.21839550  1
  Bi  Bi41  1  0.84868733  0.91610059  0.81387876  1
  Bi  Bi42  1  0.37497475  0.75648319  0.21670962  1
  Bi  Bi43  1  0.62502525  0.24351681  0.78329038  1
  Bi  Bi44  1  0.65703914  0.07672949  0.19598705  1
  Bi  Bi45  1  0.62502525  0.75648319  0.71670962  1
  Bi  Bi46  1  0.62415860  0.90343480  0.59874101  1
  Bi  Bi47  1  0.65401019  0.74415741  0.42676180  1
  Cl  Cl48  1  0.62588338  0.20277530  0.48853094  1
  Cl  Cl49  1  0.87252387  0.80060971  0.51639161  1
  Cl  Cl50  1  0.11407048  0.50000000  0.25000000  1
  Cl  Cl51  1  0.87252387  0.19939029  0.98360839  1
  Cl  Cl52  1  0.37411662  0.20277530  0.98853094  1
  Cl  Cl53  1  0.62108489  0.33574799  0.37105323  1
  Cl  Cl54  1  0.37891511  0.66425201  0.62894677  1
  Cl  Cl55  1  0.87247579  0.34713901  0.86790741  1
  Cl  Cl56  1  0.87247579  0.65286099  0.63209259  1
  Cl  Cl57  1  0.37411662  0.79722470  0.51146906  1
  Cl  Cl58  1  0.12747613  0.80060971  0.01639161  1
  Cl  Cl59  1  0.12752421  0.34713901  0.36790741  1
  Cl  Cl60  1  0.37891511  0.33574799  0.87105323  1
  Cl  Cl61  1  0.37450084  0.50000000  0.75000000  1
  Cl  Cl62  1  0.62588338  0.79722470  0.01146906  1
  Cl  Cl63  1  0.88592952  0.50000000  0.75000000  1
  Cl  Cl64  1  0.62108489  0.66425201  0.12894677  1
  Cl  Cl65  1  0.12752421  0.65286099  0.13209259  1
  Cl  Cl66  1  0.62549916  0.50000000  0.25000000  1
  Cl  Cl67  1  0.12747613  0.19939029  0.48360839  1
  O  O68  1  0.87369657  0.60756331  0.41210917  1
  O  O69  1  0.63268814  0.30524910  0.14577166  1
  O  O70  1  0.87369657  0.39243669  0.08789083  1
  O  O71  1  0.63121405  0.92418683  0.67027600  1
  O  O72  1  0.39475005  0.85936702  0.73128522  1
  O  O73  1  0.37480926  0.78401653  0.29624785  1
  O  O74  1  0.22164984  0.06903325  0.10580675  1
  O  O75  1  0.12410666  0.47284494  0.02813283  1
  O  O76  1  0.36731186  0.30524910  0.64577166  1
  O  O77  1  0.11430194  0.13800981  0.59138658  1
  O  O78  1  0.40335549  0.97951953  0.90084204  1
  O  O79  1  0.87692336  0.69317070  0.85372967  1
  O  O80  1  0.12307664  0.69317070  0.35372967  1
  O  O81  1  0.85026090  0.86778949  0.73404797  1
  O  O82  1  0.87692336  0.30682930  0.64627033  1
  O  O83  1  0.12368692  0.22384044  0.70511605  1
  O  O84  1  0.87883920  0.94306906  0.16187040  1
  O  O85  1  0.37480926  0.21598347  0.20375215  1
  O  O86  1  0.87589334  0.52715506  0.97186717  1
  O  O87  1  0.22164984  0.93096675  0.39419325  1
  O  O88  1  0.77835016  0.93096675  0.89419325  1
  O  O89  1  0.59664451  0.02048047  0.09915796  1
  O  O90  1  0.62710823  0.46895426  0.02791691  1
  O  O91  1  0.62156470  0.37394410  0.58873245  1
  O  O92  1  0.12116080  0.94306906  0.66187040  1
  O  O93  1  0.62519074  0.78401653  0.79624785  1
  O  O94  1  0.87589334  0.47284494  0.52813283  1
  O  O95  1  0.12630343  0.39243669  0.58789083  1
  O  O96  1  0.87883920  0.05693094  0.33812960  1
  O  O97  1  0.36878595  0.92418683  0.17027600  1
  O  O98  1  0.62519074  0.21598347  0.70375215  1
  O  O99  1  0.59664451  0.97951953  0.40084204  1
  O  O100  1  0.77835016  0.06903325  0.60580675  1
  O  O101  1  0.12630343  0.60756331  0.91210917  1
  O  O102  1  0.62710823  0.53104574  0.47208309  1
  O  O103  1  0.11430194  0.86199019  0.90861342  1
  O  O104  1  0.14973910  0.86778949  0.23404797  1
  O  O105  1  0.63121405  0.07581317  0.82972400  1
  O  O106  1  0.39475005  0.14063298  0.76871478  1
  O  O107  1  0.12368692  0.77615956  0.79488395  1
  O  O108  1  0.37289177  0.46895426  0.52791691  1
  O  O109  1  0.85080261  0.00000000  0.25000000  1
  O  O110  1  0.62156470  0.62605590  0.91126755  1
  O  O111  1  0.36878595  0.07581317  0.32972400  1
  O  O112  1  0.37843530  0.62605590  0.41126755  1
  O  O113  1  0.88569806  0.13800981  0.09138658  1
  O  O114  1  0.12116080  0.05693094  0.83812960  1
  O  O115  1  0.37843530  0.37394410  0.08873245  1
  O  O116  1  0.87631308  0.22384044  0.20511605  1
  O  O117  1  0.12410666  0.52715506  0.47186717  1
  O  O118  1  0.60524995  0.14063298  0.26871478  1
  O  O119  1  0.12307664  0.30682930  0.14627033  1
  O  O120  1  0.88569806  0.86199019  0.40861342  1
  O  O121  1  0.87631308  0.77615956  0.29488395  1
  O  O122  1  0.40335549  0.02048047  0.59915796  1
  O  O123  1  0.63268814  0.69475090  0.35422834  1
  O  O124  1  0.14919739  0.00000000  0.75000000  1
  O  O125  1  0.85026090  0.13221051  0.76595203  1
  O  O126  1  0.60524995  0.85936702  0.23128522  1
  O  O127  1  0.37289177  0.53104574  0.97208309  1
  O  O128  1  0.36731186  0.69475090  0.85422834  1
  O  O129  1  0.14973910  0.13221051  0.26595203  1
