# generated using pymatgen
data_KLaCr2O8
_symmetry_space_group_name_H-M   'P 1'
_cell_length_a   7.59660426
_cell_length_b   8.90803750
_cell_length_c   11.16379623
_cell_angle_alpha   92.48841264
_cell_angle_beta   90.00000000
_cell_angle_gamma   90.00000000
_symmetry_Int_Tables_number   1
_chemical_formula_structural   KLaCr2O8
_chemical_formula_sum   'K4 La4 Cr8 O32'
_cell_volume   754.75103486
_cell_formula_units_Z   4
loop_
 _symmetry_equiv_pos_site_id
 _symmetry_equiv_pos_as_xyz
  1  'x, y, z'
loop_
 _atom_site_type_symbol
 _atom_site_label
 _atom_site_symmetry_multiplicity
 _atom_site_fract_x
 _atom_site_fract_y
 _atom_site_fract_z
 _atom_site_occupancy
  K  K0  1  0.15190004  0.56767053  0.83811227  1
  K  K1  1  0.65190004  0.43232947  0.66188773  1
  K  K2  1  0.84809996  0.43232947  0.16188773  1
  K  K3  1  0.34809996  0.56767053  0.33811227  1
  La  La4  1  0.83711260  0.94055902  0.65507719  1
  La  La5  1  0.33711260  0.05944098  0.84492281  1
  La  La6  1  0.16288740  0.05944098  0.34492281  1
  La  La7  1  0.66288740  0.94055902  0.15507719  1
  Cr  Cr8  1  0.66427487  0.71991451  0.91163407  1
  Cr  Cr9  1  0.16427487  0.28008549  0.58836593  1
  Cr  Cr10  1  0.33572513  0.28008549  0.08836593  1
  Cr  Cr11  1  0.83572513  0.71991451  0.41163407  1
  Cr  Cr12  1  0.83647135  0.18979872  0.89353420  1
  Cr  Cr13  1  0.33647135  0.81020128  0.60646580  1
  Cr  Cr14  1  0.16352865  0.81020128  0.10646580  1
  Cr  Cr15  1  0.66352865  0.18979872  0.39353420  1
  O  O16  1  0.81897765  0.74217169  0.80644172  1
  O  O17  1  0.31897765  0.25782831  0.69355828  1
  O  O18  1  0.18102235  0.25782831  0.19355828  1
  O  O19  1  0.68102235  0.74217169  0.30644172  1
  O  O20  1  0.55895106  0.88466996  0.93861308  1
  O  O21  1  0.05895106  0.11533004  0.56138692  1
  O  O22  1  0.44104894  0.11533004  0.06138692  1
  O  O23  1  0.94104894  0.88466996  0.43861308  1
  O  O24  1  0.75221306  0.69403965  0.04605452  1
  O  O25  1  0.25221306  0.30596035  0.45394548  1
  O  O26  1  0.24778694  0.30596035  0.95394548  1
  O  O27  1  0.74778694  0.69403965  0.54605452  1
  O  O28  1  0.52668663  0.58746226  0.87023441  1
  O  O29  1  0.02668663  0.41253774  0.62976559  1
  O  O30  1  0.47331337  0.41253774  0.12976559  1
  O  O31  1  0.97331337  0.58746226  0.37023441  1
  O  O32  1  0.65932247  0.14452481  0.80845960  1
  O  O33  1  0.15932247  0.85547519  0.69154040  1
  O  O34  1  0.34067753  0.85547519  0.19154040  1
  O  O35  1  0.84067753  0.14452481  0.30845960  1
  O  O36  1  0.00134499  0.09265621  0.82283685  1
  O  O37  1  0.50134499  0.90734379  0.67716315  1
  O  O38  1  0.99865501  0.90734379  0.17716315  1
  O  O39  1  0.49865501  0.09265621  0.32283685  1
  O  O40  1  0.86889231  0.37043506  0.89485504  1
  O  O41  1  0.36889231  0.62956494  0.60514496  1
  O  O42  1  0.13110769  0.62956494  0.10514496  1
  O  O43  1  0.63110769  0.37043506  0.39485504  1
  O  O44  1  0.81052137  0.13646715  0.03299605  1
  O  O45  1  0.31052137  0.86353285  0.46700395  1
  O  O46  1  0.18947863  0.86353285  0.96700395  1
  O  O47  1  0.68947863  0.13646715  0.53299605  1
