# generated using pymatgen
data_RbUSO6F
_symmetry_space_group_name_H-M   'P 1'
_cell_length_a   6.80914175
_cell_length_b   12.06641746
_cell_length_c   25.69676805
_cell_angle_alpha   90.00000000
_cell_angle_beta   90.00000000
_cell_angle_gamma   90.00000000
_symmetry_Int_Tables_number   1
_chemical_formula_structural   RbUSO6F
_chemical_formula_sum   'Rb12 U12 S12 O72 F12'
_cell_volume   2111.29649202
_cell_formula_units_Z   12
loop_
 _symmetry_equiv_pos_site_id
 _symmetry_equiv_pos_as_xyz
  1  'x, y, z'
loop_
 _atom_site_type_symbol
 _atom_site_label
 _atom_site_symmetry_multiplicity
 _atom_site_fract_x
 _atom_site_fract_y
 _atom_site_fract_z
 _atom_site_occupancy
  Rb  Rb0  1  0.71185181  0.78639656  0.40979738  1
  Rb  Rb1  1  0.71185181  0.28639656  0.09020262  1
  Rb  Rb2  1  0.68815570  0.29367875  0.73904654  1
  Rb  Rb3  1  0.65040611  0.78801349  0.07690171  1
  Rb  Rb4  1  0.31184430  0.29367875  0.23904654  1
  Rb  Rb5  1  0.28814819  0.78639656  0.90979738  1
  Rb  Rb6  1  0.28814819  0.28639656  0.59020262  1
  Rb  Rb7  1  0.31184430  0.79367875  0.26095346  1
  Rb  Rb8  1  0.68815570  0.79367875  0.76095346  1
  Rb  Rb9  1  0.34959389  0.28801349  0.92309829  1
  Rb  Rb10  1  0.65040611  0.28801349  0.42309829  1
  Rb  Rb11  1  0.34959389  0.78801349  0.57690171  1
  U  U12  1  0.10144507  0.54170363  0.03885913  1
  U  U13  1  0.10061501  0.49183168  0.37048787  1
  U  U14  1  0.09895259  0.55661994  0.70375133  1
  U  U15  1  0.09895259  0.05661994  0.79624867  1
  U  U16  1  0.10144507  0.04170363  0.46114087  1
  U  U17  1  0.89938499  0.49183168  0.87048787  1
  U  U18  1  0.89855493  0.04170363  0.96114087  1
  U  U19  1  0.90104741  0.05661994  0.29624867  1
  U  U20  1  0.90104741  0.55661994  0.20375133  1
  U  U21  1  0.10061501  0.99183168  0.12951213  1
  U  U22  1  0.89855493  0.54170363  0.53885913  1
  U  U23  1  0.89938499  0.99183168  0.62951213  1
  S  S24  1  0.40409706  0.02800863  0.68147726  1
  S  S25  1  0.40409706  0.52800863  0.81852274  1
  S  S26  1  0.59590294  0.02800863  0.18147726  1
  S  S27  1  0.40784941  0.55018745  0.15304007  1
  S  S28  1  0.59543807  0.04479460  0.51398520  1
  S  S29  1  0.40456193  0.54479460  0.48601480  1
  S  S30  1  0.40784941  0.05018745  0.34695993  1
  S  S31  1  0.59590294  0.52800863  0.31852274  1
  S  S32  1  0.40456193  0.04479460  0.01398520  1
  S  S33  1  0.59543807  0.54479460  0.98601480  1
  S  S34  1  0.59215059  0.05018745  0.84695993  1
  S  S35  1  0.59215059  0.55018745  0.65304007  1
  O  O36  1  0.09211784  0.69660354  0.72842541  1
  O  O37  1  0.09397408  0.91500073  0.81908164  1
  O  O38  1  0.24741384  0.07748838  0.30876421  1
  O  O39  1  0.10413633  0.14144562  0.13007920  1
  O  O40  1  0.56063099  0.66304192  0.97917271  1
  O  O41  1  0.10834366  0.68254854  0.01493679  1
  O  O42  1  0.24694734  0.48997796  0.85552410  1
  O  O43  1  0.43936901  0.66304192  0.47917271  1
  O  O44  1  0.10834366  0.18254854  0.48506321  1
  O  O45  1  0.08974859  0.90118637  0.43757726  1
  O  O46  1  0.44209939  0.14621666  0.67581017  1
  O  O47  1  0.58292572  0.45904401  0.82970469  1
  O  O48  1  0.75305266  0.98997796  0.14447590  1
  O  O49  1  0.65414129  0.48853555  0.93633406  1
  O  O50  1  0.56063099  0.16304192  0.52082729  1
  O  O51  1  0.41501206  0.48458026  0.00420234  1
  O  O52  1  0.34585871  0.48853555  0.43633406  1
  O  O53  1  0.75258616  0.07748838  0.80876421  1
  O  O54  1  0.41501206  0.98458026  0.49579766  1
  O  O55  1  0.55177098  0.93167866  0.84793569  1
  O  O56  1  0.08890597  0.84243130  0.12947264  1
  O  O57  1  0.65775011  0.99807272  0.23569440  1
  O  O58  1  0.44822902  0.93167866  0.34793569  1
  O  O59  1  0.75317495  0.02428217  0.47421795  1
  O  O60  1  0.09211784  0.19660354  0.77157459  1
  O  O61  1  0.24741384  0.57748838  0.19123579  1
  O  O62  1  0.75305266  0.48997796  0.35552410  1
  O  O63  1  0.65775011  0.49807272  0.26430560  1
  O  O64  1  0.89586367  0.64144562  0.86992080  1
  O  O65  1  0.90788216  0.19660354  0.27157459  1
  O  O66  1  0.43936901  0.16304192  0.02082729  1
  O  O67  1  0.41707428  0.45904401  0.32970469  1
  O  O68  1  0.41525029  0.11659553  0.83113968  1
  O  O69  1  0.58474971  0.11659553  0.33113968  1
  O  O70  1  0.44209939  0.64621666  0.82418983  1
  O  O71  1  0.08890597  0.34243130  0.37052736  1
  O  O72  1  0.58474971  0.61659553  0.16886032  1
  O  O73  1  0.75258616  0.57748838  0.69123579  1
  O  O74  1  0.65256258  0.59383667  0.60066833  1
  O  O75  1  0.34743742  0.09383667  0.39933167  1
  O  O76  1  0.55790061  0.64621666  0.32418983  1
  O  O77  1  0.89165634  0.18254854  0.98506321  1
  O  O78  1  0.90602592  0.91500073  0.31908164  1
  O  O79  1  0.24682505  0.02428217  0.97421795  1
  O  O80  1  0.58498794  0.98458026  0.99579766  1
  O  O81  1  0.24694734  0.98997796  0.64447590  1
  O  O82  1  0.09397408  0.41500073  0.68091836  1
  O  O83  1  0.41707428  0.95904401  0.17029531  1
  O  O84  1  0.65414129  0.98853555  0.56366594  1
  O  O85  1  0.34743742  0.59383667  0.10066833  1
  O  O86  1  0.75317495  0.52428217  0.02578205  1
  O  O87  1  0.90602592  0.41500073  0.18091836  1
  O  O88  1  0.89586367  0.14144562  0.63007920  1
  O  O89  1  0.65256258  0.09383667  0.89933167  1
  O  O90  1  0.34224989  0.49807272  0.76430560  1
  O  O91  1  0.44822902  0.43167866  0.15206431  1
  O  O92  1  0.89165634  0.68254854  0.51493679  1
  O  O93  1  0.58292572  0.95904401  0.67029531  1
  O  O94  1  0.08974859  0.40118637  0.06242274  1
  O  O95  1  0.34224989  0.99807272  0.73569440  1
  O  O96  1  0.91025141  0.40118637  0.56242274  1
  O  O97  1  0.55177098  0.43167866  0.65206431  1
  O  O98  1  0.90788216  0.69660354  0.22842541  1
  O  O99  1  0.10413633  0.64144562  0.36992080  1
  O  O100  1  0.91109403  0.34243130  0.87052736  1
  O  O101  1  0.34585871  0.98853555  0.06366594  1
  O  O102  1  0.41525029  0.61659553  0.66886032  1
  O  O103  1  0.55790061  0.14621666  0.17581017  1
  O  O104  1  0.91025141  0.90118637  0.93757726  1
  O  O105  1  0.58498794  0.48458026  0.50420234  1
  O  O106  1  0.24682505  0.52428217  0.52578205  1
  O  O107  1  0.91109403  0.84243130  0.62947264  1
  F  F108  1  0.05515764  0.48931170  0.95167898  1
  F  F109  1  0.94395634  0.59996564  0.11534974  1
  F  F110  1  0.94484236  0.98931170  0.04832102  1
  F  F111  1  0.05515764  0.98931170  0.54832102  1
  F  F112  1  0.05749806  0.49862133  0.28031905  1
  F  F113  1  0.94484236  0.48931170  0.45167898  1
  F  F114  1  0.94250194  0.49862133  0.78031905  1
  F  F115  1  0.94250194  -0.00137867  0.71968095  1
  F  F116  1  0.94395634  0.09996564  0.38465026  1
  F  F117  1  0.05604366  0.09996564  0.88465026  1
  F  F118  1  0.05749806  -0.00137867  0.21968095  1
  F  F119  1  0.05604366  0.59996564  0.61534974  1
