# generated using pymatgen
data_NaZn(PO3)3
_symmetry_space_group_name_H-M   'P 1'
_cell_length_a   12.76595448
_cell_length_b   12.76595470
_cell_length_c   12.76595439
_cell_angle_alpha   109.47121848
_cell_angle_beta   109.47121887
_cell_angle_gamma   109.47122205
_symmetry_Int_Tables_number   1
_chemical_formula_structural   NaZn(PO3)3
_chemical_formula_sum   'Na8 Zn8 P24 O72'
_cell_volume   1601.54078061
_cell_formula_units_Z   8
loop_
 _symmetry_equiv_pos_site_id
 _symmetry_equiv_pos_as_xyz
  1  'x, y, z'
loop_
 _atom_site_type_symbol
 _atom_site_label
 _atom_site_symmetry_multiplicity
 _atom_site_fract_x
 _atom_site_fract_y
 _atom_site_fract_z
 _atom_site_occupancy
  Na  Na0  1  1.00000000  0.78016382  0.50000000  1
  Na  Na1  1  0.50000000  1.00000000  0.28016382  1
  Na  Na2  1  1.00000000  0.28016382  0.50000000  1
  Na  Na3  1  0.50000000  1.00000000  0.78016382  1
  Na  Na4  1  0.71983618  0.71983618  0.71983618  1
  Na  Na5  1  0.28016382  0.50000000  1.00000000  1
  Na  Na6  1  0.78016382  0.50000000  1.00000000  1
  Na  Na7  1  0.21983618  0.21983618  0.21983618  1
  Zn  Zn8  1  0.00000000  0.03009809  0.50000000  1
  Zn  Zn9  1  0.50000000  0.00000000  0.53009809  1
  Zn  Zn10  1  0.46990191  0.46990191  0.46990191  1
  Zn  Zn11  1  0.53009809  0.50000000  0.00000000  1
  Zn  Zn12  1  0.96990191  0.96990191  0.96990191  1
  Zn  Zn13  1  0.03009809  0.50000000  0.00000000  1
  Zn  Zn14  1  0.00000000  0.53009809  0.50000000  1
  Zn  Zn15  1  0.50000000  0.00000000  0.03009809  1
  P  P16  1  0.71964671  0.50553879  0.44219682  1
  P  P17  1  0.05780318  0.56334197  0.27744989  1
  P  P18  1  0.71410792  0.93665803  0.99446121  1
  P  P19  1  0.44219682  0.71964671  0.50553879  1
  P  P20  1  0.00553879  0.21964671  0.94219682  1
  P  P21  1  0.27744989  0.05780318  0.56334197  1
  P  P22  1  0.72255011  0.28035329  0.28589208  1
  P  P23  1  0.21410792  0.49446121  0.43665803  1
  P  P24  1  0.28035329  0.28589208  0.72255011  1
  P  P25  1  0.78035329  0.22255011  0.78589208  1
  P  P26  1  0.56334197  0.27744989  0.05780318  1
  P  P27  1  0.77744989  0.06334197  0.55780318  1
  P  P28  1  0.22255011  0.78589208  0.78035329  1
  P  P29  1  0.94219682  0.00553879  0.21964671  1
  P  P30  1  0.21964671  0.94219682  0.00553879  1
  P  P31  1  0.55780318  0.77744989  0.06334197  1
  P  P32  1  0.28589208  0.72255011  0.28035329  1
  P  P33  1  0.50553879  0.44219682  0.71964671  1
  P  P34  1  0.99446121  0.71410792  0.93665803  1
  P  P35  1  0.49446121  0.43665803  0.21410792  1
  P  P36  1  0.06334197  0.55780318  0.77744989  1
  P  P37  1  0.93665803  0.99446121  0.71410792  1
  P  P38  1  0.78589208  0.78035329  0.22255011  1
  P  P39  1  0.43665803  0.21410792  0.49446121  1
  O  O40  1  0.49794464  0.13545684  0.96932059  1
  O  O41  1  0.52057424  0.32169709  0.64527469  1
  O  O42  1  0.86248780  0.83386375  0.36454316  1
  O  O43  1  0.13961654  0.22678641  0.63354766  1
  O  O44  1  0.30112285  0.12470046  0.47942576  1
  O  O45  1  0.36038346  0.99393112  0.08716987  1
  O  O46  1  0.36645234  0.00606888  0.59323875  1
  O  O47  1  0.85472531  0.17642240  0.87529954  1
  O  O48  1  0.59323875  0.36645234  0.00606888  1
  O  O49  1  0.82169709  0.02057424  0.14527469  1
  O  O50  1  0.47137595  0.50205536  0.13751220  1
  O  O51  1  0.27321359  0.41283013  0.40676125  1
  O  O52  1  0.09323875  0.50606888  0.86645234  1
  O  O53  1  0.00205536  0.97137595  0.63751220  1
  O  O54  1  0.90676125  0.91283013  0.77321359  1
  O  O55  1  0.72678641  0.63961654  0.13354766  1
  O  O56  1  0.50205536  0.13751220  0.47137595  1
  O  O57  1  0.37529954  0.67642240  0.35472531  1
  O  O58  1  0.13751220  0.47137595  0.50205536  1
  O  O59  1  0.83386375  0.36454316  0.86248780  1
  O  O60  1  0.97137595  0.63751220  0.00205536  1
  O  O61  1  0.36454316  0.86248780  0.83386375  1
  O  O62  1  0.14527469  0.82169709  0.02057424  1
  O  O63  1  0.87529954  0.85472531  0.17642240  1
  O  O64  1  0.33386375  0.36248780  0.86454316  1
  O  O65  1  0.36248780  0.86454316  0.33386375  1
  O  O66  1  0.64527469  0.52057424  0.32169709  1
  O  O67  1  0.77321359  0.90676125  0.91283013  1
  O  O68  1  0.03067941  0.02862405  0.16613625  1
  O  O69  1  0.50606888  0.86645234  0.09323875  1
  O  O70  1  0.22678641  0.63354766  0.13961654  1
  O  O71  1  0.63751220  0.00205536  0.97137595  1
  O  O72  1  0.32169709  0.64527469  0.52057424  1
  O  O73  1  0.66613625  0.52862405  0.53067941  1
  O  O74  1  0.99794464  0.46932059  0.63545684  1
  O  O75  1  0.82357760  0.19887715  0.67830291  1
  O  O76  1  0.96932059  0.49794464  0.13545684  1
  O  O77  1  0.67830291  0.82357760  0.19887715  1
  O  O78  1  0.91283013  0.77321359  0.90676125  1
  O  O79  1  0.17830291  0.69887715  0.32357760  1
  O  O80  1  0.08716987  0.36038346  0.99393112  1
  O  O81  1  0.35472531  0.37529954  0.67642240  1
  O  O82  1  0.12470046  0.47942576  0.30112285  1
  O  O83  1  0.46932059  0.63545684  0.99794464  1
  O  O84  1  0.97942576  0.62470046  0.80112285  1
  O  O85  1  0.00606888  0.59323875  0.36645234  1
  O  O86  1  0.49393112  0.86038346  0.58716987  1
  O  O87  1  0.53067941  0.66613625  0.52862405  1
  O  O88  1  0.80112285  0.97942576  0.62470046  1
  O  O89  1  0.99393112  0.08716987  0.36038346  1
  O  O90  1  0.86645234  0.09323875  0.50606888  1
  O  O91  1  0.13354766  0.72678641  0.63961654  1
  O  O92  1  0.47942576  0.30112285  0.12470046  1
  O  O93  1  0.62470046  0.80112285  0.97942576  1
  O  O94  1  0.69887715  0.32357760  0.17830291  1
  O  O95  1  0.52862405  0.53067941  0.66613625  1
  O  O96  1  0.86454316  0.33386375  0.36248780  1
  O  O97  1  0.17642240  0.87529954  0.85472531  1
  O  O98  1  0.02862405  0.16613625  0.03067941  1
  O  O99  1  0.63354766  0.13961654  0.22678641  1
  O  O100  1  0.41283013  0.40676125  0.27321359  1
  O  O101  1  0.32357760  0.17830291  0.69887715  1
  O  O102  1  0.19887715  0.67830291  0.82357760  1
  O  O103  1  0.86038346  0.58716987  0.49393112  1
  O  O104  1  0.63545684  0.99794464  0.46932059  1
  O  O105  1  0.40676125  0.27321359  0.41283013  1
  O  O106  1  0.67642240  0.35472531  0.37529954  1
  O  O107  1  0.16613625  0.03067941  0.02862405  1
  O  O108  1  0.02057424  0.14527469  0.82169709  1
  O  O109  1  0.63961654  0.13354766  0.72678641  1
  O  O110  1  0.58716987  0.49393112  0.86038346  1
  O  O111  1  0.13545684  0.96932059  0.49794464  1
