# generated using pymatgen
data_Ba17Y16Zn8Pt4O57
_symmetry_space_group_name_H-M   'P 1'
_cell_length_a   5.77969673
_cell_length_b   16.63572992
_cell_length_c   16.63572981
_cell_angle_alpha   88.27075979
_cell_angle_beta   79.99621033
_cell_angle_gamma   79.99620623
_symmetry_Int_Tables_number   1
_chemical_formula_structural   Ba17Y16Zn8Pt4O57
_chemical_formula_sum   'Ba17 Y16 Zn8 Pt4 O57'
_cell_volume   1551.24912767
_cell_formula_units_Z   1
loop_
 _symmetry_equiv_pos_site_id
 _symmetry_equiv_pos_as_xyz
  1  'x, y, z'
loop_
 _atom_site_type_symbol
 _atom_site_label
 _atom_site_symmetry_multiplicity
 _atom_site_fract_x
 _atom_site_fract_y
 _atom_site_fract_z
 _atom_site_occupancy
  Ba  Ba0  1  0.44150174  0.62600759  0.49098893  1
  Ba  Ba1  1  0.27654867  0.83560666  0.61129600  1
  Ba  Ba2  1  0.18916426  0.07873851  0.54293297  1
  Ba  Ba3  1  0.11215533  0.61129600  0.16439334  1
  Ba  Ba4  1  0.81083574  0.92126149  0.45706703  1
  Ba  Ba5  1  0.73209723  0.45706703  0.07873851  1
  Ba  Ba6  1  0.55849826  0.37399241  0.50901107  1
  Ba  Ba7  1  0.64980498  0.69196057  0.00842946  1
  Ba  Ba8  1  0.06750933  0.49098893  0.37399241  1
  Ba  Ba9  1  0.26790277  0.54293297  0.92126149  1
  Ba  Ba10  1  0.93249067  0.50901107  0.62600759  1
  Ba  Ba11  1  0.72345133  0.16439334  0.38870400  1
  Ba  Ba12  1  0.35019502  0.30803943  0.99157054  1
  Ba  Ba13  1  0.88784467  0.38870400  0.83560666  1
  Ba  Ba14  1  0.34176556  0.00842946  0.30803943  1
  Ba  Ba15  1  0.65823444  0.99157054  0.69196057  1
  Ba  Ba16  1  0.00000000  0.00000000  0.00000000  1
  Y  Y17  1  0.50662131  0.74372993  0.24302744  1
  Y  Y18  1  0.04948714  0.27682092  0.62420480  1
  Y  Y19  1  0.74964875  0.75697256  0.74372993  1
  Y  Y20  1  0.40019088  0.08801137  0.11160687  1
  Y  Y21  1  0.67369194  0.37579520  0.27682092  1
  Y  Y22  1  0.49337869  0.25627007  0.75697256  1
  Y  Y23  1  0.48820225  0.11160687  0.91198863  1
  Y  Y24  1  0.94758628  0.88036796  0.22445948  1
  Y  Y25  1  0.59980912  0.91198863  0.88839313  1
  Y  Y26  1  0.25035125  0.24302744  0.25627007  1
  Y  Y27  1  0.32630806  0.62420480  0.72317908  1
  Y  Y28  1  0.17204576  0.77554052  0.88036796  1
  Y  Y29  1  0.82795424  0.22445948  0.11963204  1
  Y  Y30  1  0.51179775  0.88839313  0.08801137  1
  Y  Y31  1  0.95051286  0.72317908  0.37579520  1
  Y  Y32  1  0.05241372  0.11963204  0.77554052  1
  Zn  Zn33  1  0.37906330  0.83315926  0.40871414  1
  Zn  Zn34  1  0.78777744  0.59128586  0.83315926  1
  Zn  Zn35  1  0.86623121  0.05774421  0.20979338  1
  Zn  Zn36  1  0.07602458  0.79020662  0.05774421  1
  Zn  Zn37  1  0.62093670  0.16684074  0.59128586  1
  Zn  Zn38  1  0.13376879  0.94225579  0.79020662  1
  Zn  Zn39  1  0.92397542  0.20979338  0.94225579  1
  Zn  Zn40  1  0.21222256  0.40871414  0.16684074  1
  Pt  Pt41  1  0.14422144  0.27271921  0.43883792  1
  Pt  Pt42  1  0.58305936  0.56116208  0.27271921  1
  Pt  Pt43  1  0.85577856  0.72728079  0.56116208  1
  Pt  Pt44  1  0.41694064  0.43883792  0.72728079  1
  O  O45  1  0.39913368  0.47932928  0.23262771  1
  O  O46  1  0.70101087  0.05937149  0.53860678  1
  O  O47  1  0.92502495  0.31045594  0.35557496  1
  O  O48  1  0.28059992  0.64442504  0.31045594  1
  O  O49  1  0.39147453  0.37763925  0.83941170  1
  O  O50  1  0.77968047  0.79587268  0.14787311  1
  O  O51  1  0.23961765  0.46139322  0.05937149  1
  O  O52  1  0.63176139  0.76737229  0.47932928  1
  O  O53  1  0.60852547  0.62236075  0.16058830  1
  O  O54  1  0.66001243  0.15530493  0.02428975  1
  O  O55  1  0.76038235  0.53860678  0.94062851  1
  O  O56  1  0.17737773  0.82412910  0.31948646  1
  O  O57  1  0.84227628  0.31752430  0.99792314  1
  O  O58  1  0.71940008  0.35557496  0.68954406  1
  O  O59  1  0.31569782  0.02428975  0.84469507  1
  O  O60  1  0.99849317  0.68051354  0.82412910  1
  O  O61  1  0.92755358  0.85212689  0.79587268  1
  O  O62  1  0.87846296  0.23262771  0.52067072  1
  O  O63  1  0.43564586  0.50927355  0.61943473  1
  O  O64  1  0.88890933  0.47932928  0.23262771  1
  O  O65  1  0.59105585  0.68954406  0.64442504  1
  O  O66  1  0.16039289  0.15530493  0.02428975  1
  O  O67  1  0.11109067  0.52067072  0.76737229  1
  O  O68  1  0.07244642  0.14787311  0.20412732  1
  O  O69  1  0.76911377  0.83941170  0.62236075  1
  O  O70  1  0.82262227  0.17587090  0.68051354  1
  O  O71  1  0.27657374  0.79587268  0.14787311  1
  O  O72  1  0.67900672  0.82412910  0.31948646  1
  O  O73  1  0.15980058  0.99792314  0.68247570  1
  O  O74  1  0.23548089  0.35557496  0.68954406  1
  O  O75  1  0.49686418  0.68051354  0.82412910  1
  O  O76  1  0.56435414  0.49072645  0.38056527  1
  O  O77  1  0.50313582  0.31948646  0.17587090  1
  O  O78  1  0.22031953  0.20412732  0.85212689  1
  O  O79  1  0.00150683  0.31948646  0.17587090  1
  O  O80  1  0.81531737  0.02428975  0.84469507  1
  O  O81  1  0.32099328  0.17587090  0.68051354  1
  O  O82  1  0.94491941  0.61943473  0.49072645  1
  O  O83  1  0.05508059  0.38056527  0.50927355  1
  O  O84  1  0.40894415  0.31045594  0.35557496  1
  O  O85  1  0.57555314  0.14787311  0.20412732  1
  O  O86  1  0.36823861  0.23262771  0.52067072  1
  O  O87  1  0.23088623  0.16058830  0.37763925  1
  O  O88  1  0.76451911  0.64442504  0.31045594  1
  O  O89  1  0.42444686  0.85212689  0.79587268  1
  O  O90  1  0.33998757  0.84469507  0.97571025  1
  O  O91  1  0.18468263  0.97571025  0.15530493  1
  O  O92  1  0.50000000  0.00000000  0.00000000  1
  O  O93  1  0.07497505  0.68954406  0.64442504  1
  O  O94  1  0.83960711  0.84469507  0.97571025  1
  O  O95  1  0.60086632  0.52067072  0.76737229  1
  O  O96  1  0.29898913  0.94062851  0.46139322  1
  O  O97  1  0.84019942  0.00207686  0.31752430  1
  O  O98  1  0.68430218  0.97571025  0.15530493  1
  O  O99  1  0.15772372  0.68247570  0.00207686  1
  O  O100  1  0.12153704  0.76737229  0.47932928  1
  O  O101  1  0.72342626  0.20412732  0.85212689  1
