# generated using pymatgen
data_Er3O2F5
_symmetry_space_group_name_H-M   'P 1'
_cell_length_a   5.36181742
_cell_length_b   5.61496535
_cell_length_c   17.17577052
_cell_angle_alpha   90.00000000
_cell_angle_beta   90.00000000
_cell_angle_gamma   90.00000000
_symmetry_Int_Tables_number   1
_chemical_formula_structural   Er3O2F5
_chemical_formula_sum   'Er12 O8 F20'
_cell_volume   517.10094438
_cell_formula_units_Z   4
loop_
 _symmetry_equiv_pos_site_id
 _symmetry_equiv_pos_as_xyz
  1  'x, y, z'
loop_
 _atom_site_type_symbol
 _atom_site_label
 _atom_site_symmetry_multiplicity
 _atom_site_fract_x
 _atom_site_fract_y
 _atom_site_fract_z
 _atom_site_occupancy
  Er  Er0  1  0.03899896  0.32520255  0.40260111  1
  Er  Er1  1  0.96100104  0.67479745  0.59739889  1
  Er  Er2  1  0.53899896  0.17479745  0.90260111  1
  Er  Er3  1  0.03899896  0.32520255  0.09739889  1
  Er  Er4  1  0.45675953  0.26140207  0.25000000  1
  Er  Er5  1  0.53899896  0.17479745  0.59739889  1
  Er  Er6  1  0.95675953  0.23859793  0.75000000  1
  Er  Er7  1  0.96100104  0.67479745  0.90260111  1
  Er  Er8  1  0.04324047  0.76140207  0.25000000  1
  Er  Er9  1  0.46100104  0.82520255  0.40260111  1
  Er  Er10  1  0.46100104  0.82520255  0.09739889  1
  Er  Er11  1  0.54324047  0.73859793  0.75000000  1
  O  O12  1  0.70465927  0.46326084  0.66866941  1
  O  O13  1  0.29534073  0.53673916  0.16866941  1
  O  O14  1  0.79534073  0.96326084  0.83133059  1
  O  O15  1  0.20465927  0.03673916  0.16866941  1
  O  O16  1  0.79534073  0.96326084  0.66866941  1
  O  O17  1  0.70465927  0.46326084  0.83133059  1
  O  O18  1  0.20465927  0.03673916  0.33133059  1
  O  O19  1  0.29534073  0.53673916  0.33133059  1
  F  F20  1  0.85741653  0.38842162  0.25000000  1
  F  F21  1  0.35741653  0.11157838  0.75000000  1
  F  F22  1  0.28639603  0.11721482  0.48532906  1
  F  F23  1  0.67598080  0.16151072  0.37443195  1
  F  F24  1  0.32401920  0.83848928  0.62556805  1
  F  F25  1  0.17598080  0.33848928  0.87443195  1
  F  F26  1  0.28639603  0.11721482  0.01467094  1
  F  F27  1  0.71360397  0.88278518  0.51467094  1
  F  F28  1  0.21360397  0.61721482  0.01467094  1
  F  F29  1  0.82401920  0.66151072  0.12556805  1
  F  F30  1  0.71360397  0.88278518  0.98532906  1
  F  F31  1  0.64258347  0.88842162  0.25000000  1
  F  F32  1  0.67598080  0.16151072  0.12556805  1
  F  F33  1  0.78639603  0.38278518  0.98532906  1
  F  F34  1  0.17598080  0.33848928  0.62556805  1
  F  F35  1  0.32401920  0.83848928  0.87443195  1
  F  F36  1  0.78639603  0.38278518  0.51467094  1
  F  F37  1  0.21360397  0.61721482  0.48532906  1
  F  F38  1  0.14258347  0.61157838  0.75000000  1
  F  F39  1  0.82401920  0.66151072  0.37443195  1
