# generated using pymatgen
data_K2RuBr5NO
_symmetry_space_group_name_H-M   'P 1'
_cell_length_a   7.43071358
_cell_length_b   11.06443775
_cell_length_c   14.31798777
_cell_angle_alpha   90.00000000
_cell_angle_beta   90.00000000
_cell_angle_gamma   90.00000000
_symmetry_Int_Tables_number   1
_chemical_formula_structural   K2RuBr5NO
_chemical_formula_sum   'K8 Ru4 Br20 N4 O4'
_cell_volume   1177.17724468
_cell_formula_units_Z   4
loop_
 _symmetry_equiv_pos_site_id
 _symmetry_equiv_pos_as_xyz
  1  'x, y, z'
loop_
 _atom_site_type_symbol
 _atom_site_label
 _atom_site_symmetry_multiplicity
 _atom_site_fract_x
 _atom_site_fract_y
 _atom_site_fract_z
 _atom_site_occupancy
  K  K0  1  0.84736693  0.49951614  0.35537806  1
  K  K1  1  0.65263307  0.49951614  0.85537806  1
  K  K2  1  0.34736693  0.99951614  0.14462194  1
  K  K3  1  0.65263307  0.00048386  0.85537806  1
  K  K4  1  0.15263307  0.99951614  0.64462194  1
  K  K5  1  0.15263307  0.50048386  0.64462194  1
  K  K6  1  0.34736693  0.50048386  0.14462194  1
  K  K7  1  0.84736693  0.00048386  0.35537806  1
  Ru  Ru8  1  0.67883565  0.75000000  0.60913449  1
  Ru  Ru9  1  0.17883565  0.25000000  0.89086551  1
  Ru  Ru10  1  0.32116435  0.25000000  0.39086551  1
  Ru  Ru11  1  0.82116435  0.75000000  0.10913449  1
  Br  Br12  1  0.41402355  0.75000000  0.72411323  1
  Br  Br13  1  0.38621324  0.25000000  0.74980557  1
  Br  Br14  1  0.18882395  0.01913957  0.88640367  1
  Br  Br15  1  0.68882395  0.51913957  0.61359633  1
  Br  Br16  1  0.45819142  0.25000000  0.99587728  1
  Br  Br17  1  0.04180858  0.25000000  0.49587728  1
  Br  Br18  1  0.81117605  0.98086043  0.11359633  1
  Br  Br19  1  0.08597645  0.75000000  0.22411323  1
  Br  Br20  1  0.31117605  0.01913957  0.38640367  1
  Br  Br21  1  0.18882395  0.48086043  0.88640367  1
  Br  Br22  1  0.11378676  0.25000000  0.24980557  1
  Br  Br23  1  0.68882395  0.98086043  0.61359633  1
  Br  Br24  1  0.81117605  0.51913957  0.11359633  1
  Br  Br25  1  0.88621324  0.75000000  0.75019443  1
  Br  Br26  1  0.95819142  0.75000000  0.50412272  1
  Br  Br27  1  0.54180858  0.75000000  0.00412272  1
  Br  Br28  1  0.58597645  0.25000000  0.27588677  1
  Br  Br29  1  0.61378676  0.75000000  0.25019443  1
  Br  Br30  1  0.91402355  0.25000000  0.77588677  1
  Br  Br31  1  0.31117605  0.48086043  0.38640367  1
  N  N32  1  0.97442516  0.75000000  0.01737834  1
  N  N33  1  0.47442516  0.25000000  0.48262166  1
  N  N34  1  0.52557484  0.75000000  0.51737834  1
  N  N35  1  0.02557484  0.25000000  0.98262166  1
  O  O36  1  0.41326876  0.75000000  0.46030361  1
  O  O37  1  0.08673124  0.75000000  0.96030361  1
  O  O38  1  0.58673124  0.25000000  0.53969639  1
  O  O39  1  0.91326876  0.25000000  0.03969639  1
