# generated using pymatgen
data_Nd2SiO5
_symmetry_space_group_name_H-M   'P 1'
_cell_length_a   6.92008613
_cell_length_b   7.39112529
_cell_length_c   9.33078565
_cell_angle_alpha   90.00000000
_cell_angle_beta   108.39960983
_cell_angle_gamma   90.00000000
_symmetry_Int_Tables_number   1
_chemical_formula_structural   Nd2SiO5
_chemical_formula_sum   'Nd8 Si4 O20'
_cell_volume   452.84620063
_cell_formula_units_Z   4
loop_
 _symmetry_equiv_pos_site_id
 _symmetry_equiv_pos_as_xyz
  1  'x, y, z'
loop_
 _atom_site_type_symbol
 _atom_site_label
 _atom_site_symmetry_multiplicity
 _atom_site_fract_x
 _atom_site_fract_y
 _atom_site_fract_z
 _atom_site_occupancy
  Nd  Nd0  1  0.76615143  0.62445112  0.97850779  1
  Nd  Nd1  1  0.73384857  0.12445112  0.02149221  1
  Nd  Nd2  1  0.90794135  0.65403503  0.61066590  1
  Nd  Nd3  1  0.40794135  0.84596497  0.61066590  1
  Nd  Nd4  1  0.59205865  0.15403503  0.38933410  1
  Nd  Nd5  1  0.09205865  0.34596497  0.38933410  1
  Nd  Nd6  1  0.26615143  0.87554888  0.97850779  1
  Nd  Nd7  1  0.23384857  0.37554888  0.02149221  1
  Si  Si8  1  0.95654285  0.08133149  0.70128616  1
  Si  Si9  1  0.54345715  0.58133149  0.29871384  1
  Si  Si10  1  0.45654285  0.41866851  0.70128616  1
  Si  Si11  1  0.04345715  0.91866851  0.29871384  1
  O  O12  1  0.63544479  0.57159249  0.70602811  1
  O  O13  1  0.50674206  0.36515136  0.88175274  1
  O  O14  1  0.95232131  0.37691281  0.11565388  1
  O  O15  1  0.99325794  0.86515136  0.11824726  1
  O  O16  1  0.94256805  0.25302558  0.59101975  1
  O  O17  1  0.05743195  0.74697442  0.40898025  1
  O  O18  1  0.25290920  0.03945670  0.36667587  1
  O  O19  1  0.00674206  0.13484864  0.88175274  1
  O  O20  1  0.75290920  0.46054330  0.36667587  1
  O  O21  1  0.04767869  0.62308719  0.88434612  1
  O  O22  1  0.86455521  0.07159249  0.29397189  1
  O  O23  1  0.45232131  0.12308719  0.11565388  1
  O  O24  1  0.55743195  0.75302558  0.40898025  1
  O  O25  1  0.24709080  0.53945670  0.63332413  1
  O  O26  1  0.74709080  0.96054330  0.63332413  1
  O  O27  1  0.13544479  0.92840751  0.70602811  1
  O  O28  1  0.49325794  0.63484864  0.11824726  1
  O  O29  1  0.54767869  0.87691281  0.88434612  1
  O  O30  1  0.36455521  0.42840751  0.29397189  1
  O  O31  1  0.44256805  0.24697442  0.59101975  1
