# generated using pymatgen
data_Cs2V(PO4)2
_symmetry_space_group_name_H-M   'P 1'
_cell_length_a   7.37288421
_cell_length_b   9.66028489
_cell_length_c   13.63813006
_cell_angle_alpha   90.00000000
_cell_angle_beta   90.00000000
_cell_angle_gamma   90.00000000
_symmetry_Int_Tables_number   1
_chemical_formula_structural   Cs2V(PO4)2
_chemical_formula_sum   'Cs8 V4 P8 O32'
_cell_volume   971.36438381
_cell_formula_units_Z   4
loop_
 _symmetry_equiv_pos_site_id
 _symmetry_equiv_pos_as_xyz
  1  'x, y, z'
loop_
 _atom_site_type_symbol
 _atom_site_label
 _atom_site_symmetry_multiplicity
 _atom_site_fract_x
 _atom_site_fract_y
 _atom_site_fract_z
 _atom_site_occupancy
  Cs  Cs0  1  0.25000000  0.91802401  0.40174377  1
  Cs  Cs1  1  0.75000000  0.08197599  0.59825623  1
  Cs  Cs2  1  0.75000000  0.41802401  0.09825623  1
  Cs  Cs3  1  0.25000000  0.58197599  0.90174377  1
  Cs  Cs4  1  0.25000000  0.12982693  0.09153465  1
  Cs  Cs5  1  0.75000000  0.87017307  0.90846535  1
  Cs  Cs6  1  0.75000000  0.62982693  0.40846535  1
  Cs  Cs7  1  0.25000000  0.37017307  0.59153465  1
  V  V8  1  0.25000000  0.48512421  0.28851808  1
  V  V9  1  0.75000000  0.51487579  0.71148192  1
  V  V10  1  0.75000000  0.98512421  0.21148192  1
  V  V11  1  0.25000000  0.01487579  0.78851808  1
  P  P12  1  0.04796514  0.73186988  0.15910415  1
  P  P13  1  0.54796514  0.26813012  0.84089585  1
  P  P14  1  0.95203486  0.23186988  0.34089585  1
  P  P15  1  0.45203486  0.76813012  0.65910415  1
  P  P16  1  0.95203486  0.26813012  0.84089585  1
  P  P17  1  0.45203486  0.73186988  0.15910415  1
  P  P18  1  0.04796514  0.76813012  0.65910415  1
  P  P19  1  0.54796514  0.23186988  0.34089585  1
  O  O20  1  0.25000000  0.54497983  0.40111824  1
  O  O21  1  0.75000000  0.45502017  0.59888176  1
  O  O22  1  0.75000000  0.04497983  0.09888176  1
  O  O23  1  0.25000000  0.95502017  0.90111824  1
  O  O24  1  0.93502162  0.83373650  0.22095873  1
  O  O25  1  0.43502162  0.16626350  0.77904127  1
  O  O26  1  0.06497838  0.33373650  0.27904127  1
  O  O27  1  0.56497838  0.66626350  0.72095873  1
  O  O28  1  0.06497838  0.16626350  0.77904127  1
  O  O29  1  0.56497838  0.83373650  0.22095873  1
  O  O30  1  0.93502162  0.66626350  0.72095873  1
  O  O31  1  0.43502162  0.33373650  0.27904127  1
  O  O32  1  0.98999264  0.71130284  0.05461525  1
  O  O33  1  0.48999264  0.28869716  0.94538475  1
  O  O34  1  0.01000736  0.21130284  0.44538475  1
  O  O35  1  0.51000736  0.78869716  0.55461525  1
  O  O36  1  0.01000736  0.28869716  0.94538475  1
  O  O37  1  0.51000736  0.71130284  0.05461525  1
  O  O38  1  0.98999264  0.78869716  0.55461525  1
  O  O39  1  0.48999264  0.21130284  0.44538475  1
  O  O40  1  0.06323759  0.59342819  0.21654538  1
  O  O41  1  0.56323759  0.40657181  0.78345462  1
  O  O42  1  0.93676241  0.09342819  0.28345462  1
  O  O43  1  0.43676241  0.90657181  0.71654538  1
  O  O44  1  0.93676241  0.40657181  0.78345462  1
  O  O45  1  0.43676241  0.59342819  0.21654538  1
  O  O46  1  0.06323759  0.90657181  0.71654538  1
  O  O47  1  0.56323759  0.09342819  0.28345462  1
  O  O48  1  0.25000000  0.80367964  0.16325459  1
  O  O49  1  0.75000000  0.19632036  0.83674541  1
  O  O50  1  0.75000000  0.30367964  0.33674541  1
  O  O51  1  0.25000000  0.69632036  0.66325459  1
