# generated using pymatgen
data_BaUTiO6
_symmetry_space_group_name_H-M   'P 1'
_cell_length_a   6.62332285
_cell_length_b   8.65235707
_cell_length_c   10.29983763
_cell_angle_alpha   90.00000000
_cell_angle_beta   103.11277290
_cell_angle_gamma   90.00000000
_symmetry_Int_Tables_number   1
_chemical_formula_structural   BaUTiO6
_chemical_formula_sum   'Ba4 U4 Ti4 O24'
_cell_volume   574.86575267
_cell_formula_units_Z   4
loop_
 _symmetry_equiv_pos_site_id
 _symmetry_equiv_pos_as_xyz
  1  'x, y, z'
loop_
 _atom_site_type_symbol
 _atom_site_label
 _atom_site_symmetry_multiplicity
 _atom_site_fract_x
 _atom_site_fract_y
 _atom_site_fract_z
 _atom_site_occupancy
  Ba  Ba0  1  0.53524855  0.76582060  0.34221948  1
  Ba  Ba1  1  0.46475145  0.23417940  0.65778052  1
  Ba  Ba2  1  0.46475145  0.26582060  0.15778052  1
  Ba  Ba3  1  0.53524855  0.73417940  0.84221948  1
  U  U4  1  0.02256389  0.48171125  0.32195074  1
  U  U5  1  0.02256389  0.01828875  0.82195074  1
  U  U6  1  0.97743611  0.51828875  0.67804926  1
  U  U7  1  0.97743611  0.98171125  0.17804926  1
  Ti  Ti8  1  0.11484316  0.84931597  0.54993133  1
  Ti  Ti9  1  0.88515684  0.34931597  0.95006867  1
  Ti  Ti10  1  0.88515684  0.15068403  0.45006867  1
  Ti  Ti11  1  0.11484316  0.65068403  0.04993133  1
  O  O12  1  0.73399735  0.98965363  0.76366325  1
  O  O13  1  0.07156997  0.43760903  0.11275085  1
  O  O14  1  0.68917090  0.95539707  0.12653125  1
  O  O15  1  0.31082910  0.45539707  0.37346875  1
  O  O16  1  0.08227720  0.71383090  0.22351831  1
  O  O17  1  0.26600265  0.01034637  0.23633675  1
  O  O18  1  0.99606823  0.85016590  0.98793115  1
  O  O19  1  0.00393177  0.35016590  0.51206885  1
  O  O20  1  0.08227720  0.78616910  0.72351831  1
  O  O21  1  0.92843003  0.93760903  0.38724915  1
  O  O22  1  0.00393177  0.14983410  0.01206885  1
  O  O23  1  0.07156997  0.06239097  0.61275085  1
  O  O24  1  0.62303647  0.34059518  0.94566592  1
  O  O25  1  0.31082910  0.04460293  0.87346875  1
  O  O26  1  0.62303647  0.15940482  0.44566592  1
  O  O27  1  0.37696353  0.65940482  0.05433408  1
  O  O28  1  0.37696353  0.84059518  0.55433408  1
  O  O29  1  0.99606823  0.64983410  0.48793115  1
  O  O30  1  0.91772280  0.28616910  0.77648169  1
  O  O31  1  0.68917090  0.54460293  0.62653125  1
  O  O32  1  0.92843003  0.56239097  0.88724915  1
  O  O33  1  0.91772280  0.21383090  0.27648169  1
  O  O34  1  0.26600265  0.48965363  0.73633675  1
  O  O35  1  0.73399735  0.51034637  0.26366325  1
