# generated using pymatgen
data_NaLi2BO3
_symmetry_space_group_name_H-M   'P 1'
_cell_length_a   4.97813542
_cell_length_b   9.62073468
_cell_length_c   12.18007555
_cell_angle_alpha   90.00000000
_cell_angle_beta   90.00000000
_cell_angle_gamma   104.12012536
_symmetry_Int_Tables_number   1
_chemical_formula_structural   NaLi2BO3
_chemical_formula_sum   'Na8 Li16 B8 O24'
_cell_volume   565.71931801
_cell_formula_units_Z   8
loop_
 _symmetry_equiv_pos_site_id
 _symmetry_equiv_pos_as_xyz
  1  'x, y, z'
loop_
 _atom_site_type_symbol
 _atom_site_label
 _atom_site_symmetry_multiplicity
 _atom_site_fract_x
 _atom_site_fract_y
 _atom_site_fract_z
 _atom_site_occupancy
  Na  Na0  1  0.74192454  0.39664761  0.11483293  1
  Na  Na1  1  0.20232084  0.17592200  0.80201260  1
  Na  Na2  1  0.29767916  0.32407800  0.30201260  1
  Na  Na3  1  0.24192454  0.89664761  0.38516707  1
  Na  Na4  1  0.79767916  0.82407800  0.19798740  1
  Na  Na5  1  0.75807546  0.10335239  0.61483293  1
  Na  Na6  1  0.25807546  0.60335239  0.88516707  1
  Na  Na7  1  0.70232084  0.67592200  0.69798740  1
  Li  Li8  1  0.73871236  0.97930085  0.99618940  1
  Li  Li9  1  0.58382067  0.35560073  0.65296053  1
  Li  Li10  1  0.87188309  0.05945578  0.35121814  1
  Li  Li11  1  0.62811691  0.44054422  0.85121814  1
  Li  Li12  1  0.72498813  0.20219946  0.89766471  1
  Li  Li13  1  0.77501187  0.29780054  0.39766471  1
  Li  Li14  1  0.23871236  0.47930085  0.50381060  1
  Li  Li15  1  0.26128764  0.02069915  0.00381060  1
  Li  Li16  1  0.91617933  0.14439927  0.15296053  1
  Li  Li17  1  0.27501187  0.79780054  0.10233529  1
  Li  Li18  1  0.08382067  0.85560073  0.84703947  1
  Li  Li19  1  0.37188309  0.55945578  0.14878186  1
  Li  Li20  1  0.22498813  0.70219946  0.60233529  1
  Li  Li21  1  0.41617933  0.64439927  0.34703947  1
  Li  Li22  1  0.76128764  0.52069915  0.49618940  1
  Li  Li23  1  0.12811691  0.94054422  0.64878186  1
  B  B24  1  0.43579763  0.07633294  0.21147859  1
  B  B25  1  0.06420237  0.42366706  0.71147859  1
  B  B26  1  0.93579763  0.57633294  0.28852141  1
  B  B27  1  0.73326352  0.78070499  0.47816485  1
  B  B28  1  0.23326352  0.28070499  0.02183515  1
  B  B29  1  0.76673648  0.71929501  0.97816485  1
  B  B30  1  0.56420237  0.92366706  0.78852141  1
  B  B31  1  0.26673648  0.21929501  0.52183515  1
  O  O32  1  0.52203438  0.65998845  0.50748814  1
  O  O33  1  0.31027337  0.13873771  0.61185787  1
  O  O34  1  0.14292533  0.67779865  0.23389563  1
  O  O35  1  0.84071405  0.94713721  0.75917866  1
  O  O36  1  0.48191902  0.00304275  0.87327528  1
  O  O37  1  0.97796562  0.84001155  0.00748814  1
  O  O38  1  0.01983422  0.19244169  0.46448981  1
  O  O39  1  0.47796562  0.34001155  0.49251186  1
  O  O40  1  0.64292533  0.17779865  0.26610437  1
  O  O41  1  0.51983422  0.69244169  0.03551019  1
  O  O42  1  0.35707467  0.82220135  0.73389563  1
  O  O43  1  0.51808098  0.99695725  0.12672472  1
  O  O44  1  0.98191902  0.50304275  0.62672472  1
  O  O45  1  0.65928595  0.55286279  0.25917866  1
  O  O46  1  0.85707467  0.32220135  0.76610437  1
  O  O47  1  0.81027337  0.63873771  0.88814213  1
  O  O48  1  0.02203438  0.15998845  0.99251186  1
  O  O49  1  0.34071405  0.44713721  0.74082134  1
  O  O50  1  0.01808098  0.49695725  0.37327528  1
  O  O51  1  0.18972663  0.36126229  0.11185787  1
  O  O52  1  0.48016578  0.30755831  0.96448981  1
  O  O53  1  0.68972663  0.86126229  0.38814213  1
  O  O54  1  0.15928595  0.05286279  0.24082134  1
  O  O55  1  0.98016578  0.80755831  0.53551019  1
