# generated using pymatgen
data_EuHSO5
_symmetry_space_group_name_H-M   'P 1'
_cell_length_a   4.52402770
_cell_length_b   6.97700714
_cell_length_c   12.49186945
_cell_angle_alpha   90.00000000
_cell_angle_beta   90.00000000
_cell_angle_gamma   106.48444285
_symmetry_Int_Tables_number   1
_chemical_formula_structural   EuHSO5
_chemical_formula_sum   'Eu4 H4 S4 O20'
_cell_volume   378.08873355
_cell_formula_units_Z   4
loop_
 _symmetry_equiv_pos_site_id
 _symmetry_equiv_pos_as_xyz
  1  'x, y, z'
loop_
 _atom_site_type_symbol
 _atom_site_label
 _atom_site_symmetry_multiplicity
 _atom_site_fract_x
 _atom_site_fract_y
 _atom_site_fract_z
 _atom_site_occupancy
  Eu  Eu0  1  0.86242801  0.69908920  0.43846558  1
  Eu  Eu1  1  0.13757199  0.30091080  0.56153442  1
  Eu  Eu2  1  0.36242801  0.19908920  0.06153442  1
  Eu  Eu3  1  0.63757199  0.80091080  0.93846558  1
  H  H4  1  0.73064931  0.51575306  0.65512354  1
  H  H5  1  0.26935069  0.48424694  0.34487646  1
  H  H6  1  0.76935069  0.98424694  0.15512354  1
  H  H7  1  0.23064931  0.01575306  0.84487646  1
  S  S8  1  0.02011324  0.60815405  0.14763014  1
  S  S9  1  0.47988676  0.89184595  0.64763014  1
  S  S10  1  0.52011324  0.10815405  0.35236986  1
  S  S11  1  0.97988676  0.39184595  0.85236986  1
  O  O12  1  0.74922191  0.95028588  0.57107958  1
  O  O13  1  0.75822231  0.27867395  0.40001594  1
  O  O14  1  0.41157709  0.17172093  0.25020575  1
  O  O15  1  0.24922191  0.45028588  0.92892042  1
  O  O16  1  0.19287993  0.95608127  0.91665629  1
  O  O17  1  0.25822231  0.77867395  0.09998406  1
  O  O18  1  0.75077809  0.54971412  0.07107958  1
  O  O19  1  0.13848298  0.43533985  0.16666189  1
  O  O20  1  0.58842291  0.82827907  0.74979425  1
  O  O21  1  0.30712007  0.54391873  0.41665629  1
  O  O22  1  0.25077809  0.04971412  0.42892042  1
  O  O23  1  0.69287993  0.45608127  0.58334371  1
  O  O24  1  0.86151702  0.56466015  0.83333811  1
  O  O25  1  0.36151702  0.06466015  0.66666189  1
  O  O26  1  0.63848298  0.93533985  0.33333811  1
  O  O27  1  0.08842291  0.32827907  0.75020575  1
  O  O28  1  0.80712007  0.04391873  0.08334371  1
  O  O29  1  0.74177769  0.22132605  0.90001594  1
  O  O30  1  0.24177769  0.72132605  0.59998406  1
  O  O31  1  0.91157709  0.67172093  0.24979425  1
