# generated using pymatgen
data_Na2Pd(NO3)4
_symmetry_space_group_name_H-M   'P 1'
_cell_length_a   7.23896485
_cell_length_b   7.96496401
_cell_length_c   9.15966251
_cell_angle_alpha   90.00000000
_cell_angle_beta   91.76681065
_cell_angle_gamma   90.00000000
_symmetry_Int_Tables_number   1
_chemical_formula_structural   Na2Pd(NO3)4
_chemical_formula_sum   'Na4 Pd2 N8 O24'
_cell_volume   527.87760718
_cell_formula_units_Z   2
loop_
 _symmetry_equiv_pos_site_id
 _symmetry_equiv_pos_as_xyz
  1  'x, y, z'
loop_
 _atom_site_type_symbol
 _atom_site_label
 _atom_site_symmetry_multiplicity
 _atom_site_fract_x
 _atom_site_fract_y
 _atom_site_fract_z
 _atom_site_occupancy
  Na  Na0  1  0.77694810  0.93635884  0.38206479  1
  Na  Na1  1  0.22305190  0.06364116  0.61793521  1
  Na  Na2  1  0.77694810  0.56364116  0.88206479  1
  Na  Na3  1  0.22305190  0.43635884  0.11793521  1
  Pd  Pd4  1  0.50000000  0.00000000  0.00000000  1
  Pd  Pd5  1  0.50000000  0.50000000  0.50000000  1
  N  N6  1  0.35432565  0.10512490  0.27724602  1
  N  N7  1  0.35432565  0.39487510  0.77724602  1
  N  N8  1  0.18275115  0.71292714  0.43564455  1
  N  N9  1  0.64567435  0.89487510  0.72275398  1
  N  N10  1  0.81724885  0.21292714  0.06435545  1
  N  N11  1  0.81724885  0.28707286  0.56435545  1
  N  N12  1  0.64567435  0.60512490  0.22275398  1
  N  N13  1  0.18275115  0.78707286  0.93564455  1
  O  O14  1  0.64695960  0.85262459  0.86288782  1
  O  O15  1  0.84801112  0.10684684  0.16084503  1
  O  O16  1  0.44766428  0.98299920  0.32095556  1
  O  O17  1  0.67759973  0.30496106  0.46961771  1
  O  O18  1  0.15198888  0.60684684  0.33915497  1
  O  O19  1  0.08745789  0.65744193  0.95232770  1
  O  O20  1  0.64695960  0.64737541  0.36288782  1
  O  O21  1  0.55233572  0.01700080  0.67904444  1
  O  O22  1  0.25801626  0.30560227  0.85634688  1
  O  O23  1  0.32240027  0.80496106  0.03038229  1
  O  O24  1  0.25801626  0.19439773  0.35634688  1
  O  O25  1  0.15198888  0.89315316  0.83915497  1
  O  O26  1  0.67759973  0.19503894  0.96961771  1
  O  O27  1  0.44766428  0.51700080  0.82095556  1
  O  O28  1  0.35304040  0.35262459  0.63711218  1
  O  O29  1  0.84801112  0.39315316  0.66084503  1
  O  O30  1  0.32240027  0.69503894  0.53038229  1
  O  O31  1  0.35304040  0.14737541  0.13711218  1
  O  O32  1  0.91254211  0.34255807  0.04767230  1
  O  O33  1  0.74198374  0.80560227  0.64365312  1
  O  O34  1  0.55233572  0.48299920  0.17904444  1
  O  O35  1  0.08745789  0.84255807  0.45232770  1
  O  O36  1  0.91254211  0.15744193  0.54767230  1
  O  O37  1  0.74198374  0.69439773  0.14365312  1
