# generated using pymatgen
data_Cs2GeP4O13
_symmetry_space_group_name_H-M   'P 1'
_cell_length_a   5.05580251
_cell_length_b   8.02060792
_cell_length_c   16.22953869
_cell_angle_alpha   84.53636035
_cell_angle_beta   84.30805763
_cell_angle_gamma   80.84309197
_symmetry_Int_Tables_number   1
_chemical_formula_structural   Cs2GeP4O13
_chemical_formula_sum   'Cs4 Ge2 P8 O26'
_cell_volume   644.41051594
_cell_formula_units_Z   2
loop_
 _symmetry_equiv_pos_site_id
 _symmetry_equiv_pos_as_xyz
  1  'x, y, z'
loop_
 _atom_site_type_symbol
 _atom_site_label
 _atom_site_symmetry_multiplicity
 _atom_site_fract_x
 _atom_site_fract_y
 _atom_site_fract_z
 _atom_site_occupancy
  Cs  Cs0  1  0.27177610  0.29487299  0.02895758  1
  Cs  Cs1  1  0.67446717  0.74331432  0.48859695  1
  Cs  Cs2  1  0.72822390  0.70512701  0.97104242  1
  Cs  Cs3  1  0.32553283  0.25668568  0.51140305  1
  Ge  Ge4  1  0.55086822  0.93825343  0.24173478  1
  Ge  Ge5  1  0.44913178  0.06174657  0.75826522  1
  P  P6  1  0.66337344  0.40686848  0.69647810  1
  P  P7  1  0.31505198  0.68390461  0.78656470  1
  P  P8  1  0.33662656  0.59313152  0.30352190  1
  P  P9  1  0.68494802  0.31609539  0.21343530  1
  P  P10  1  0.98303952  0.08757021  0.33522545  1
  P  P11  1  0.01696048  0.91242979  0.66477455  1
  P  P12  1  0.11491428  0.78454044  0.15285073  1
  P  P13  1  0.88508572  0.21545956  0.84714927  1
  O  O14  1  0.80805294  0.42022605  0.61267526  1
  O  O15  1  0.55117959  0.71171174  0.29044885  1
  O  O16  1  0.20444561  0.70780158  0.07273107  1
  O  O17  1  0.88733235  0.15227764  0.41767723  1
  O  O18  1  0.94689417  0.24135695  0.26059023  1
  O  O19  1  0.44633489  0.83485810  0.80642386  1
  O  O20  1  0.27729933  0.92446907  0.17161812  1
  O  O21  1  0.82668971  0.94930775  0.31144174  1
  O  O22  1  0.28983244  0.02164646  0.32835613  1
  O  O23  1  0.14298559  0.63822743  0.23013385  1
  O  O24  1  0.74510183  0.43321458  0.14054952  1
  O  O25  1  0.71016756  0.97835354  0.67164387  1
  O  O26  1  0.48796248  0.40527403  0.28652687  1
  O  O27  1  0.18928767  0.14184122  0.84382575  1
  O  O28  1  0.51203752  0.59472597  0.71347313  1
  O  O29  1  0.11266765  0.84772236  0.58232277  1
  O  O30  1  0.72270067  0.07553093  0.82838188  1
  O  O31  1  0.05310583  0.75864305  0.73940977  1
  O  O32  1  0.19194706  0.57977395  0.38732474  1
  O  O33  1  0.81071233  0.85815878  0.15617425  1
  O  O34  1  0.25489817  0.56678542  0.85945048  1
  O  O35  1  0.17331029  0.05069225  0.68855826  1
  O  O36  1  0.85701441  0.36177257  0.76986615  1
  O  O37  1  0.55366511  0.16514190  0.19357614  1
  O  O38  1  0.79555439  0.29219842  0.92726893  1
  O  O39  1  0.44882041  0.28828826  0.70955115  1
