# generated using pymatgen
data_CeAg6(NO3)9
_symmetry_space_group_name_H-M   'P 1'
_cell_length_a   10.83501322
_cell_length_b   10.83501236
_cell_length_c   10.83501289
_cell_angle_alpha   100.68433404
_cell_angle_beta   100.68433313
_cell_angle_gamma   100.68433288
_symmetry_Int_Tables_number   1
_chemical_formula_structural   CeAg6(NO3)9
_chemical_formula_sum   'Ce2 Ag12 N18 O54'
_cell_volume   1196.04698225
_cell_formula_units_Z   2
loop_
 _symmetry_equiv_pos_site_id
 _symmetry_equiv_pos_as_xyz
  1  'x, y, z'
loop_
 _atom_site_type_symbol
 _atom_site_label
 _atom_site_symmetry_multiplicity
 _atom_site_fract_x
 _atom_site_fract_y
 _atom_site_fract_z
 _atom_site_occupancy
  Ce  Ce0  1  0.00000000  0.00000000  0.00000000  1
  Ce  Ce1  1  0.50000000  0.50000000  0.50000000  1
  Ag  Ag2  1  0.86727995  0.25000000  0.63272005  1
  Ag  Ag3  1  0.25000000  0.45821648  0.04178352  1
  Ag  Ag4  1  0.63272005  0.86727995  0.25000000  1
  Ag  Ag5  1  0.13272005  0.75000000  0.36727995  1
  Ag  Ag6  1  0.95821648  0.75000000  0.54178352  1
  Ag  Ag7  1  0.45821648  0.04178352  0.25000000  1
  Ag  Ag8  1  0.04178352  0.25000000  0.45821648  1
  Ag  Ag9  1  0.75000000  0.36727995  0.13272005  1
  Ag  Ag10  1  0.54178352  0.95821648  0.75000000  1
  Ag  Ag11  1  0.25000000  0.63272005  0.86727995  1
  Ag  Ag12  1  0.75000000  0.54178352  0.95821648  1
  Ag  Ag13  1  0.36727995  0.13272005  0.75000000  1
  N  N14  1  0.21313411  0.50679950  0.43145727  1
  N  N15  1  0.18382247  0.31617753  0.75000000  1
  N  N16  1  0.49320050  0.56854273  0.78686589  1
  N  N17  1  0.99320050  0.28686589  0.06854273  1
  N  N18  1  0.75000000  0.18382247  0.31617753  1
  N  N19  1  0.71313411  0.93145727  0.00679950  1
  N  N20  1  0.56854273  0.78686589  0.49320050  1
  N  N21  1  0.25000000  0.81617753  0.68382247  1
  N  N22  1  0.68382247  0.25000000  0.81617753  1
  N  N23  1  0.00679950  0.71313411  0.93145727  1
  N  N24  1  0.50679950  0.43145727  0.21313411  1
  N  N25  1  0.06854273  0.99320050  0.28686589  1
  N  N26  1  0.81617753  0.68382247  0.25000000  1
  N  N27  1  0.78686589  0.49320050  0.56854273  1
  N  N28  1  0.28686589  0.06854273  0.99320050  1
  N  N29  1  0.93145727  0.00679950  0.71313411  1
  N  N30  1  0.43145727  0.21313411  0.50679950  1
  N  N31  1  0.31617753  0.75000000  0.18382247  1
  O  O32  1  0.44718619  0.24724448  0.40210686  1
  O  O33  1  0.40210686  0.44718619  0.24724448  1
  O  O34  1  0.51120722  0.40424009  0.09765588  1
  O  O35  1  0.25275552  0.05281381  0.09789314  1
  O  O36  1  0.84741079  0.27610235  0.32984957  1
  O  O37  1  0.65258921  0.17015043  0.22389765  1
  O  O38  1  0.90234412  0.48879278  0.59575991  1
  O  O39  1  0.09765588  0.51120722  0.40424009  1
  O  O40  1  0.15258921  0.72389765  0.67015043  1
  O  O41  1  0.09575991  0.98879278  0.40234412  1
  O  O42  1  0.89402534  0.19629642  0.05482277  1
  O  O43  1  0.82984957  0.77610235  0.34741079  1
  O  O44  1  0.77610235  0.34741079  0.82984957  1
  O  O45  1  0.40234412  0.09575991  0.98879278  1
  O  O46  1  0.05482277  0.89402534  0.19629642  1
  O  O47  1  0.72389765  0.67015043  0.15258921  1
  O  O48  1  0.74724448  0.94718619  0.90210686  1
  O  O49  1  0.44517723  0.30370358  0.60597466  1
  O  O50  1  0.69629642  0.39402534  0.55482277  1
  O  O51  1  0.24724448  0.40210686  0.44718619  1
  O  O52  1  0.05281381  0.09789314  0.25275552  1
  O  O53  1  0.98879278  0.40234412  0.09575991  1
  O  O54  1  0.94718619  0.90210686  0.74724448  1
  O  O55  1  0.32984957  0.84741079  0.27610235  1
  O  O56  1  0.90210686  0.74724448  0.94718619  1
  O  O57  1  0.10597466  0.80370358  0.94517723  1
  O  O58  1  0.40424009  0.09765588  0.51120722  1
  O  O59  1  0.59575991  0.90234412  0.48879278  1
  O  O60  1  0.09789314  0.25275552  0.05281381  1
  O  O61  1  0.59765588  0.90424009  0.01120722  1
  O  O62  1  0.39175800  0.75000000  0.10824200  1
  O  O63  1  0.75275552  0.59789314  0.55281381  1
  O  O64  1  0.55281381  0.75275552  0.59789314  1
  O  O65  1  0.80370358  0.94517723  0.10597466  1
  O  O66  1  0.55482277  0.69629642  0.39402534  1
  O  O67  1  0.67015043  0.15258921  0.72389765  1
  O  O68  1  0.22389765  0.65258921  0.17015043  1
  O  O69  1  0.90424009  0.01120722  0.59765588  1
  O  O70  1  0.48879278  0.59575991  0.90234412  1
  O  O71  1  0.30370358  0.60597466  0.44517723  1
  O  O72  1  0.59789314  0.55281381  0.75275552  1
  O  O73  1  0.94517723  0.10597466  0.80370358  1
  O  O74  1  0.34741079  0.82984957  0.77610235  1
  O  O75  1  0.19629642  0.05482277  0.89402534  1
  O  O76  1  0.89175800  0.60824200  0.25000000  1
  O  O77  1  0.10824200  0.39175800  0.75000000  1
  O  O78  1  0.60824200  0.25000000  0.89175800  1
  O  O79  1  0.27610235  0.32984957  0.84741079  1
  O  O80  1  0.01120722  0.59765588  0.90424009  1
  O  O81  1  0.39402534  0.55482277  0.69629642  1
  O  O82  1  0.60597466  0.44517723  0.30370358  1
  O  O83  1  0.75000000  0.10824200  0.39175800  1
  O  O84  1  0.17015043  0.22389765  0.65258921  1
  O  O85  1  0.25000000  0.89175800  0.60824200  1
