# generated using pymatgen
data_Cr3AgO8
_symmetry_space_group_name_H-M   'P 1'
_cell_length_a   5.17029233
_cell_length_b   5.17028773
_cell_length_c   7.22526241
_cell_angle_alpha   86.72219695
_cell_angle_beta   86.72207872
_cell_angle_gamma   65.05147650
_symmetry_Int_Tables_number   1
_chemical_formula_structural   Cr3AgO8
_chemical_formula_sum   'Cr3 Ag1 O8'
_cell_volume   174.71892218
_cell_formula_units_Z   1
loop_
 _symmetry_equiv_pos_site_id
 _symmetry_equiv_pos_as_xyz
  1  'x, y, z'
loop_
 _atom_site_type_symbol
 _atom_site_label
 _atom_site_symmetry_multiplicity
 _atom_site_fract_x
 _atom_site_fract_y
 _atom_site_fract_z
 _atom_site_occupancy
  Cr  Cr0  1  0.00001030  0.00001397  0.50004586  1
  Cr  Cr1  1  0.65511057  0.65510809  0.28293115  1
  Cr  Cr2  1  0.34484033  0.34483583  0.71714489  1
  Ag  Ag3  1  1.00000301  1.00000271  0.00000152  1
  O  O4  1  0.79533760  0.29191721  0.30110925  1
  O  O5  1  0.29191615  0.79533691  0.30111015  1
  O  O6  1  0.25098088  0.25097902  0.92006541  1
  O  O7  1  0.22101310  0.22101021  0.55260151  1
  O  O8  1  0.77897494  0.77897804  0.44738232  1
  O  O9  1  0.74906056  0.74906134  0.07984973  1
  O  O10  1  0.20464298  0.70811309  0.69887916  1
  O  O11  1  0.70811057  0.20464557  0.69887903  1
