# generated using pymatgen
data_Na2ZnFeF7
_symmetry_space_group_name_H-M   'P 1'
_cell_length_a   7.41292258
_cell_length_b   7.41292259
_cell_length_c   24.92823873
_cell_angle_alpha   81.76709681
_cell_angle_beta   81.76709681
_cell_angle_gamma   60.55546935
_symmetry_Int_Tables_number   1
_chemical_formula_structural   Na2ZnFeF7
_chemical_formula_sum   'Na16 Zn8 Fe8 F56'
_cell_volume   1176.38869889
_cell_formula_units_Z   8
loop_
 _symmetry_equiv_pos_site_id
 _symmetry_equiv_pos_as_xyz
  1  'x, y, z'
loop_
 _atom_site_type_symbol
 _atom_site_label
 _atom_site_symmetry_multiplicity
 _atom_site_fract_x
 _atom_site_fract_y
 _atom_site_fract_z
 _atom_site_occupancy
  F  F0  1  0.36370894  0.81417320  0.45452805  1
  F  F1  1  0.18582680  0.63629106  0.04547195  1
  F  F2  1  0.63629106  0.18582680  0.54547195  1
  F  F3  1  0.81417320  0.36370894  0.95452805  1
  F  F4  1  0.36048594  0.96963559  0.29568083  1
  F  F5  1  0.03036441  0.63951406  0.20431917  1
  F  F6  1  0.63951406  0.03036441  0.70431917  1
  F  F7  1  0.96963559  0.36048594  0.79568083  1
  F  F8  1  0.02597097  0.13907245  0.20954310  1
  F  F9  1  0.86092755  0.97402903  0.29045690  1
  F  F10  1  0.97402903  0.86092755  0.79045690  1
  F  F11  1  0.13907245  0.02597097  0.70954310  1
  F  F12  1  0.86652661  0.79360005  0.46821861  1
  F  F13  1  0.20639995  0.13347339  0.03178139  1
  F  F14  1  0.13347339  0.20639995  0.53178139  1
  F  F15  1  0.79360005  0.86652661  0.96821861  1
  F  F16  1  0.64213586  0.30682778  0.39998593  1
  F  F17  1  0.69317222  0.35786414  0.10001407  1
  F  F18  1  0.35786414  0.69317222  0.60001407  1
  F  F19  1  0.30682778  0.64213586  0.89998593  1
  F  F20  1  0.09469965  0.45640896  0.34606410  1
  F  F21  1  0.86182108  0.36180398  0.29419305  1
  F  F22  1  0.54359104  0.90530035  0.15393590  1
  F  F23  1  0.45640896  0.09469965  0.84606410  1
  F  F24  1  0.66090233  0.69849599  0.35995153  1
  F  F25  1  0.30150401  0.33909767  0.14004847  1
  F  F26  1  0.33909767  0.30150401  0.64004847  1
  F  F27  1  0.69849599  0.66090233  0.85995153  1
  F  F28  1  0.06589800  0.07382646  0.39118723  1
  F  F29  1  0.92617354  0.93410200  0.10881277  1
  F  F30  1  0.93410200  0.92617354  0.60881277  1
  F  F31  1  0.07382646  0.06589800  0.89118723  1
  F  F32  1  0.42095324  0.25524639  0.95264062  1
  F  F33  1  0.74475361  0.57904676  0.54735938  1
  F  F34  1  0.57904676  0.74475361  0.04735938  1
  F  F35  1  0.25524639  0.42095324  0.45264062  1
  F  F36  1  0.36208803  0.47427289  0.79044442  1
  F  F37  1  0.52572711  0.63791197  0.70955558  1
  F  F38  1  0.63791197  0.52572711  0.20955558  1
  F  F39  1  0.47427289  0.36208803  0.29044442  1
  F  F40  1  0.69854283  0.27017922  0.85837364  1
  F  F41  1  0.72982078  0.30145717  0.64162636  1
  F  F42  1  0.30145717  0.72982078  0.14162636  1
  F  F43  1  0.27017922  0.69854283  0.35837364  1
  F  F44  1  0.07538007  0.46179611  0.89011146  1
  F  F45  1  0.53820389  0.92461993  0.60988854  1
  F  F46  1  0.92461993  0.53820389  0.10988854  1
  F  F47  1  0.46179611  0.07538007  0.39011146  1
  F  F48  1  0.41680428  0.86354855  0.95483027  1
  F  F49  1  0.13645145  0.58319572  0.54516973  1
  F  F50  1  0.58319572  0.13645145  0.04516973  1
  F  F51  1  0.86354855  0.41680428  0.45483027  1
  F  F52  1  0.36180398  0.86182108  0.79419305  1
  F  F53  1  0.13817892  0.63819602  0.70580695  1
  F  F54  1  0.63819602  0.13817892  0.20580695  1
  F  F55  1  0.90530035  0.54359104  0.65393590  1
  Na  Na56  1  0.00000000  0.00000000  0.00000000  1
  Na  Na57  1  0.00000000  0.00000000  0.50000000  1
  Na  Na58  1  0.50000000  0.50000000  0.00000000  1
  Na  Na59  1  0.50000000  0.50000000  0.50000000  1
  Na  Na60  1  0.50000000  0.00000000  0.50000000  1
  Na  Na61  1  0.00000000  0.50000000  0.00000000  1
  Na  Na62  1  0.78636326  0.21363674  0.75000000  1
  Na  Na63  1  0.21363674  0.78636326  0.25000000  1
  Na  Na64  1  0.30064341  0.20345577  0.75153249  1
  Na  Na65  1  0.79654423  0.69935659  0.74846751  1
  Na  Na66  1  0.69935659  0.79654423  0.24846751  1
  Na  Na67  1  0.20345577  0.30064341  0.25153249  1
  Na  Na68  1  0.88709786  0.86134931  0.87844695  1
  Na  Na69  1  0.13865069  0.11290214  0.62155305  1
  Na  Na70  1  0.11290214  0.13865069  0.12155305  1
  Na  Na71  1  0.86134931  0.88709786  0.37844695  1
  Fe  Fe72  1  0.36357757  0.88825987  0.37484832  1
  Fe  Fe73  1  0.11174013  0.63642243  0.12515168  1
  Fe  Fe74  1  0.63642243  0.11174013  0.62515168  1
  Fe  Fe75  1  0.88825987  0.36357757  0.87484832  1
  Fe  Fe76  1  0.75285482  0.24714518  0.25000000  1
  Fe  Fe77  1  0.24714518  0.75285482  0.75000000  1
  Fe  Fe78  1  0.00000000  0.50000000  0.50000000  1
  Fe  Fe79  1  0.50000000  0.00000000  0.00000000  1
  Zn  Zn80  1  0.86539920  0.38669396  0.37446051  1
  Zn  Zn81  1  0.61330604  0.13460080  0.12553949  1
  Zn  Zn82  1  0.13460080  0.61330604  0.62553949  1
  Zn  Zn83  1  0.38669396  0.86539920  0.87446051  1
  Zn  Zn84  1  0.36923771  0.38576933  0.37197942  1
  Zn  Zn85  1  0.61423067  0.63076229  0.12802058  1
  Zn  Zn86  1  0.63076229  0.61423067  0.62802058  1
  Zn  Zn87  1  0.38576933  0.36923771  0.87197942  1
