# generated using pymatgen
data_K9Sm3Si12(O16F)2
_symmetry_space_group_name_H-M   'P 1'
_cell_length_a   6.99729860
_cell_length_b   11.54121661
_cell_length_c   11.63635241
_cell_angle_alpha   87.63283503
_cell_angle_beta   89.48081840
_cell_angle_gamma   80.16708250
_symmetry_Int_Tables_number   1
_chemical_formula_structural   K9Sm3Si12(O16F)2
_chemical_formula_sum   'K9 Sm3 Si12 O32 F2'
_cell_volume   925.12426387
_cell_formula_units_Z   1
loop_
 _symmetry_equiv_pos_site_id
 _symmetry_equiv_pos_as_xyz
  1  'x, y, z'
loop_
 _atom_site_type_symbol
 _atom_site_label
 _atom_site_symmetry_multiplicity
 _atom_site_fract_x
 _atom_site_fract_y
 _atom_site_fract_z
 _atom_site_occupancy
  K  K0  1  0.83151393  0.15333862  0.78659857  1
  K  K1  1  0.26505525  0.61537868  0.01705514  1
  K  K2  1  0.73494475  0.38462132  0.98294486  1
  K  K3  1  0.16848607  0.84666138  0.21340143  1
  K  K4  1  0.83155215  0.19069807  0.22092115  1
  K  K5  1  0.98346123  0.66913929  0.49022646  1
  K  K6  1  0.50000000  0.00000000  0.00000000  1
  K  K7  1  0.16844785  0.80930193  0.77907885  1
  K  K8  1  0.01653877  0.33086071  0.50977354  1
  Sm  Sm9  1  0.48581285  0.48592732  0.33431360  1
  Sm  Sm10  1  0.00000000  0.00000000  0.50000000  1
  Sm  Sm11  1  0.51418715  0.51407268  0.66568640  1
  Si  Si12  1  0.68852950  0.69588915  0.15946468  1
  Si  Si13  1  0.55265503  0.23301336  0.51111156  1
  Si  Si14  1  0.71524416  0.66686123  0.88267936  1
  Si  Si15  1  0.33874800  0.13837321  0.31090469  1
  Si  Si16  1  0.34306025  0.09022312  0.69609007  1
  Si  Si17  1  0.01758896  0.51538345  0.74356796  1
  Si  Si18  1  0.98241104  0.48461655  0.25643204  1
  Si  Si19  1  0.31147050  0.30411085  0.84053532  1
  Si  Si20  1  0.28475584  0.33313877  0.11732064  1
  Si  Si21  1  0.65693975  0.90977688  0.30390993  1
  Si  Si22  1  0.66125200  0.86162679  0.68909531  1
  Si  Si23  1  0.44734497  0.76698664  0.48888844  1
  O  O24  1  0.10301406  0.37589999  0.78742435  1
  O  O25  1  0.71602419  0.79643253  0.81682631  1
  O  O26  1  0.70787036  0.69028213  0.01984524  1
  O  O27  1  0.51124364  0.78791068  0.62522649  1
  O  O28  1  0.85398495  0.87233006  0.61814216  1
  O  O29  1  0.84377506  0.51068136  0.65438485  1
  O  O30  1  0.31258287  0.16336391  0.81649554  1
  O  O31  1  0.49953519  0.35117370  0.79001467  1
  O  O32  1  0.46021017  0.00814682  0.27662298  1
  O  O33  1  0.47396884  0.62441972  0.48236386  1
  O  O34  1  0.68741713  0.83663609  0.18350446  1
  O  O35  1  0.06797800  0.41600178  0.13684707  1
  O  O36  1  0.48875636  0.21208932  0.37477351  1
  O  O37  1  0.84468302  0.96588204  0.33020254  1
  O  O38  1  0.15622494  0.48931864  0.34561515  1
  O  O39  1  0.29212964  0.30971787  0.98015476  1
  O  O40  1  0.54218951  0.60293340  0.84369753  1
  O  O41  1  0.61443464  0.81640407  0.40734235  1
  O  O42  1  0.89698594  0.62410001  0.21257565  1
  O  O43  1  0.18766617  0.57968530  0.69071990  1
  O  O44  1  0.52603116  0.37558028  0.51763614  1
  O  O45  1  0.14601505  0.12766994  0.38185784  1
  O  O46  1  0.81233383  0.42031470  0.30928010  1
  O  O47  1  0.53978983  0.99185318  0.72337702  1
  O  O48  1  0.93202200  0.58399822  0.86315293  1
  O  O49  1  0.38556536  0.18359593  0.59265765  1
  O  O50  1  0.50046481  0.64882630  0.20998533  1
  O  O51  1  0.15531698  0.03411796  0.66979746  1
  O  O52  1  0.28397581  0.20356747  0.18317369  1
  O  O53  1  0.76743081  0.16410834  0.54034404  1
  O  O54  1  0.45781049  0.39706660  0.15630247  1
  O  O55  1  0.23256919  0.83589166  0.45965596  1
  F  F56  1  0.75502450  0.15611280  0.00411524  1
  F  F57  1  0.24497550  0.84388720  0.99588476  1
