# generated using pymatgen
data_NaNd(Si3O7)2
_symmetry_space_group_name_H-M   'P 1'
_cell_length_a   7.74791380
_cell_length_b   13.22856473
_cell_length_c   13.22856480
_cell_angle_alpha   72.22559238
_cell_angle_beta   72.97146693
_cell_angle_gamma   72.97146830
_symmetry_Int_Tables_number   1
_chemical_formula_structural   NaNd(Si3O7)2
_chemical_formula_sum   'Na4 Nd4 Si24 O56'
_cell_volume   1203.30842495
_cell_formula_units_Z   4
loop_
 _symmetry_equiv_pos_site_id
 _symmetry_equiv_pos_as_xyz
  1  'x, y, z'
loop_
 _atom_site_type_symbol
 _atom_site_label
 _atom_site_symmetry_multiplicity
 _atom_site_fract_x
 _atom_site_fract_y
 _atom_site_fract_z
 _atom_site_occupancy
  Na  Na0  1  0.25000000  0.75000000  0.75000000  1
  Na  Na1  1  0.00000000  0.50000000  0.50000000  1
  Na  Na2  1  0.75000000  0.25000000  0.25000000  1
  Na  Na3  1  0.50000000  0.00000000  0.00000000  1
  Nd  Nd4  1  0.25000000  0.97854938  0.52145062  1
  Nd  Nd5  1  0.75000000  0.02145062  0.47854938  1
  Nd  Nd6  1  0.75000000  0.47854938  0.02145062  1
  Nd  Nd7  1  0.25000000  0.52145062  0.97854938  1
  Si  Si8  1  0.29896576  0.47207045  0.23288339  1
  Si  Si9  1  0.88548183  0.93163646  0.77506245  1
  Si  Si10  1  0.70103424  0.52792955  0.76711661  1
  Si  Si11  1  0.61451817  0.72493755  0.56836354  1
  Si  Si12  1  0.73198868  0.33390629  0.66609371  1
  Si  Si13  1  0.50391961  0.02792955  0.26711661  1
  Si  Si14  1  0.90781925  0.43163646  0.27506245  1
  Si  Si15  1  0.09218075  0.56836354  0.72493755  1
  Si  Si16  1  0.20103424  0.26711661  0.02792955  1
  Si  Si17  1  0.40781925  0.77506245  0.93163646  1
  Si  Si18  1  0.76801132  0.83390629  0.16609371  1
  Si  Si19  1  0.11451817  0.06836354  0.22493755  1
  Si  Si20  1  0.67818824  0.63357679  0.36642321  1
  Si  Si21  1  0.59218075  0.22493755  0.06836354  1
  Si  Si22  1  0.26801132  0.66609371  0.33390629  1
  Si  Si23  1  0.49608039  0.97207045  0.73288339  1
  Si  Si24  1  0.82181176  0.13357679  0.86642321  1
  Si  Si25  1  0.32181176  0.36642321  0.63357679  1
  Si  Si26  1  0.00391961  0.76711661  0.52792955  1
  Si  Si27  1  0.23198868  0.16609371  0.83390629  1
  Si  Si28  1  0.38548183  0.27506245  0.43163646  1
  Si  Si29  1  0.79896576  0.73288339  0.97207045  1
  Si  Si30  1  0.17818824  0.86642321  0.13357679  1
  Si  Si31  1  0.99608039  0.23288339  0.47207045  1
  O  O32  1  0.73184206  0.81023287  0.06076604  1
  O  O33  1  0.41383830  0.79875098  0.56496601  1
  O  O34  1  0.69118957  0.64252693  0.48405070  1
  O  O35  1  0.42735325  0.50759355  0.11517663  1
  O  O36  1  0.95353884  0.30910329  0.35531907  1
  O  O37  1  0.18223280  0.48405070  0.64252693  1
  O  O38  1  0.94987657  0.11517663  0.50759355  1
  O  O39  1  0.10907249  0.46310349  0.20430306  1
  O  O40  1  0.11796120  0.19089671  0.14468093  1
  O  O41  1  0.53091079  0.36323466  0.63676534  1
  O  O42  1  0.76815794  0.43923396  0.68976713  1
  O  O43  1  0.07264675  0.38482337  0.99240645  1
  O  O44  1  0.44987657  0.00759355  0.61517663  1
  O  O45  1  0.03091079  0.13676534  0.86323466  1
  O  O46  1  0.46908921  0.63676534  0.36323466  1
  O  O47  1  0.26815794  0.18976713  0.93923396  1
  O  O48  1  0.58616170  0.20124902  0.43503399  1
  O  O49  1  0.60284097  0.93923396  0.18976713  1
  O  O50  1  0.96908921  0.86323466  0.13676534  1
  O  O51  1  0.08616170  0.93503399  0.70124902  1
  O  O52  1  0.75799249  0.73008976  0.26991024  1
  O  O53  1  0.61796120  0.64468093  0.69089671  1
  O  O54  1  0.88203880  0.80910329  0.85531907  1
  O  O55  1  0.30881043  0.35747307  0.51594930  1
  O  O56  1  0.68223280  0.14252693  0.98405070  1
  O  O57  1  0.22244470  0.56496601  0.79875098  1
  O  O58  1  0.77647904  0.79569694  0.53689651  1
  O  O59  1  0.57264675  0.49240645  0.88482337  1
  O  O60  1  0.25799249  0.76991024  0.23008976  1
  O  O61  1  0.81776720  0.51594930  0.35747307  1
  O  O62  1  0.54646116  0.14468093  0.19089671  1
  O  O63  1  0.80881043  0.01594930  0.85747307  1
  O  O64  1  0.24200751  0.26991024  0.73008976  1
  O  O65  1  0.72352096  0.96310349  0.70430306  1
  O  O66  1  0.19118957  0.98405070  0.14252693  1
  O  O67  1  0.55012343  0.99240645  0.38482337  1
  O  O68  1  0.27755530  0.70124902  0.93503399  1
  O  O69  1  0.60907249  0.70430306  0.96310349  1
  O  O70  1  0.92735325  0.61517663  0.00759355  1
  O  O71  1  0.72244470  0.29875098  0.06496601  1
  O  O72  1  0.89715903  0.31023287  0.56076604  1
  O  O73  1  0.10284097  0.68976713  0.43923396  1
  O  O74  1  0.89092751  0.53689651  0.79569694  1
  O  O75  1  0.05012343  0.88482337  0.49240645  1
  O  O76  1  0.22352096  0.20430306  0.46310349  1
  O  O77  1  0.23184206  0.56076604  0.31023287  1
  O  O78  1  0.39715903  0.06076604  0.81023287  1
  O  O79  1  0.77755530  0.43503399  0.20124902  1
  O  O80  1  0.91383830  0.06496601  0.29875098  1
  O  O81  1  0.31776720  0.85747307  0.01594930  1
  O  O82  1  0.74200751  0.23008976  0.76991024  1
  O  O83  1  0.38203880  0.35531907  0.30910329  1
  O  O84  1  0.39092751  0.29569694  0.03689651  1
  O  O85  1  0.27647904  0.03689651  0.29569694  1
  O  O86  1  0.04646116  0.69089671  0.64468093  1
  O  O87  1  0.45353884  0.85531907  0.80910329  1
