# generated using pymatgen
data_K3NbAs2O9
_symmetry_space_group_name_H-M   'P 1'
_cell_length_a   5.53984250
_cell_length_b   8.02328571
_cell_length_c   22.94852161
_cell_angle_alpha   90.00000000
_cell_angle_beta   90.00000000
_cell_angle_gamma   90.00000000
_symmetry_Int_Tables_number   1
_chemical_formula_structural   K3NbAs2O9
_chemical_formula_sum   'K12 Nb4 As8 O36'
_cell_volume   1020.00990276
_cell_formula_units_Z   4
loop_
 _symmetry_equiv_pos_site_id
 _symmetry_equiv_pos_as_xyz
  1  'x, y, z'
loop_
 _atom_site_type_symbol
 _atom_site_label
 _atom_site_symmetry_multiplicity
 _atom_site_fract_x
 _atom_site_fract_y
 _atom_site_fract_z
 _atom_site_occupancy
  K  K0  1  0.25000000  0.47895070  0.79711085  1
  K  K1  1  0.75000000  0.84779620  0.40112130  1
  K  K2  1  0.75000000  0.12187231  0.03285839  1
  K  K3  1  0.75000000  0.37812769  0.53285839  1
  K  K4  1  0.75000000  0.52104930  0.20288915  1
  K  K5  1  0.25000000  0.15220380  0.59887870  1
  K  K6  1  0.25000000  0.02104930  0.29711085  1
  K  K7  1  0.25000000  0.62187231  0.46714161  1
  K  K8  1  0.75000000  0.97895070  0.70288915  1
  K  K9  1  0.75000000  0.65220380  0.90112130  1
  K  K10  1  0.25000000  0.87812769  0.96714161  1
  K  K11  1  0.25000000  0.34779620  0.09887870  1
  Nb  Nb12  1  0.25000000  0.81757741  0.14593272  1
  Nb  Nb13  1  0.25000000  0.68242259  0.64593272  1
  Nb  Nb14  1  0.75000000  0.31757741  0.35406728  1
  Nb  Nb15  1  0.75000000  0.18242259  0.85406728  1
  As  As16  1  0.75000000  0.85753103  0.56176236  1
  As  As17  1  0.75000000  0.45279965  0.70912274  1
  As  As18  1  0.25000000  0.54720035  0.29087726  1
  As  As19  1  0.75000000  0.04720035  0.20912274  1
  As  As20  1  0.25000000  0.35753103  0.93823764  1
  As  As21  1  0.25000000  0.14246897  0.43823764  1
  As  As22  1  0.75000000  0.64246897  0.06176236  1
  As  As23  1  0.25000000  0.95279965  0.79087726  1
  O  O24  1  0.75000000  0.29809710  0.65930048  1
  O  O25  1  0.25000000  0.90063805  0.71849559  1
  O  O26  1  0.99589152  0.66593432  0.11063663  1
  O  O27  1  0.25000000  0.97985531  0.09352887  1
  O  O28  1  0.75000000  0.47985531  0.40647113  1
  O  O29  1  0.00321522  0.08712265  0.79835537  1
  O  O30  1  0.50321522  0.91287735  0.20164463  1
  O  O31  1  0.99678478  0.91287735  0.20164463  1
  O  O32  1  0.49678478  0.41287735  0.29835537  1
  O  O33  1  0.75000000  0.20190290  0.15930048  1
  O  O34  1  0.75000000  0.70590716  0.51085339  1
  O  O35  1  0.00410848  0.16593432  0.38936337  1
  O  O36  1  0.50321522  0.58712265  0.70164463  1
  O  O37  1  0.25000000  0.52014469  0.59352887  1
  O  O38  1  0.75000000  0.40063805  0.78150441  1
  O  O39  1  0.50410848  0.83406568  0.61063663  1
  O  O40  1  0.49589152  0.33406568  0.88936337  1
  O  O41  1  0.99589152  0.83406568  0.61063663  1
  O  O42  1  0.00321522  0.41287735  0.29835537  1
  O  O43  1  0.75000000  0.09936195  0.28150441  1
  O  O44  1  0.00410848  0.33406568  0.88936337  1
  O  O45  1  0.25000000  0.79809710  0.84069952  1
  O  O46  1  0.99678478  0.58712265  0.70164463  1
  O  O47  1  0.75000000  0.02014469  0.90647113  1
  O  O48  1  0.49589152  0.16593432  0.38936337  1
  O  O49  1  0.75000000  0.79409284  0.01085339  1
  O  O50  1  0.75000000  0.44184776  0.04149944  1
  O  O51  1  0.25000000  0.70190290  0.34069952  1
  O  O52  1  0.25000000  0.20590716  0.98914661  1
  O  O53  1  0.25000000  0.94184776  0.45850056  1
  O  O54  1  0.25000000  0.59936195  0.21849559  1
  O  O55  1  0.25000000  0.55815224  0.95850056  1
  O  O56  1  0.49678478  0.08712265  0.79835537  1
  O  O57  1  0.50410848  0.66593432  0.11063663  1
  O  O58  1  0.25000000  0.29409284  0.48914661  1
  O  O59  1  0.75000000  0.05815224  0.54149944  1
