# generated using pymatgen
data_Na3SO4F
_symmetry_space_group_name_H-M   'P 1'
_cell_length_a   7.03847073
_cell_length_b   11.64202972
_cell_length_c   18.32510440
_cell_angle_alpha   107.38733868
_cell_angle_beta   90.00000000
_cell_angle_gamma   90.00000000
_symmetry_Int_Tables_number   1
_chemical_formula_structural   Na3SO4F
_chemical_formula_sum   'Na36 S12 O48 F12'
_cell_volume   1432.98386696
_cell_formula_units_Z   12
loop_
 _symmetry_equiv_pos_site_id
 _symmetry_equiv_pos_as_xyz
  1  'x, y, z'
loop_
 _atom_site_type_symbol
 _atom_site_label
 _atom_site_symmetry_multiplicity
 _atom_site_fract_x
 _atom_site_fract_y
 _atom_site_fract_z
 _atom_site_occupancy
  Na  Na0  1  0.50000000  0.50000000  0.50000000  1
  Na  Na1  1  0.00000000  0.50000000  0.50000000  1
  Na  Na2  1  0.25000000  0.30292050  0.35038742  1
  Na  Na3  1  0.75000000  0.69707950  0.64961258  1
  Na  Na4  1  0.25000000  0.87354046  0.11730629  1
  Na  Na5  1  0.75000000  0.12645954  0.88269371  1
  Na  Na6  1  0.25000000  0.39567590  0.61576634  1
  Na  Na7  1  0.75000000  0.60432410  0.38423366  1
  Na  Na8  1  0.25000000  0.81531710  0.85269807  1
  Na  Na9  1  0.75000000  0.18468290  0.14730193  1
  Na  Na10  1  0.25000000  0.90877166  0.39328376  1
  Na  Na11  1  0.75000000  0.09122834  0.60671624  1
  Na  Na12  1  0.50000000  0.00000000  0.00000000  1
  Na  Na13  1  0.00000000  0.00000000  0.00000000  1
  Na  Na14  1  0.25000000  0.43710464  0.89284917  1
  Na  Na15  1  0.75000000  0.56289536  0.10715083  1
  Na  Na16  1  0.47348366  0.03240247  0.27948841  1
  Na  Na17  1  0.97348366  0.96759753  0.72051159  1
  Na  Na18  1  0.52651634  0.96759753  0.72051159  1
  Na  Na19  1  0.02651634  0.03240247  0.27948841  1
  Na  Na20  1  0.48180415  0.19091581  0.46547524  1
  Na  Na21  1  0.98180415  0.80908419  0.53452476  1
  Na  Na22  1  0.51819585  0.80908419  0.53452476  1
  Na  Na23  1  0.01819585  0.19091581  0.46547524  1
  Na  Na24  1  0.49938394  0.73470140  0.24529616  1
  Na  Na25  1  0.99938394  0.26529860  0.75470384  1
  Na  Na26  1  0.50061606  0.26529860  0.75470384  1
  Na  Na27  1  0.00061606  0.73470140  0.24529616  1
  Na  Na28  1  0.47736980  0.55120415  0.77424135  1
  Na  Na29  1  0.97736980  0.44879585  0.22575865  1
  Na  Na30  1  0.52263020  0.44879585  0.22575865  1
  Na  Na31  1  0.02263020  0.55120415  0.77424135  1
  Na  Na32  1  0.47695518  0.70796831  0.97025576  1
  Na  Na33  1  0.97695518  0.29203169  0.02974424  1
  Na  Na34  1  0.52304482  0.29203169  0.02974424  1
  Na  Na35  1  0.02304482  0.70796831  0.97025576  1
  S  S36  1  0.25000000  0.19333086  0.16161518  1
  S  S37  1  0.75000000  0.80666914  0.83838482  1
  S  S38  1  0.25000000  0.08072469  0.59673625  1
  S  S39  1  0.75000000  0.91927531  0.40326375  1
  S  S40  1  0.25000000  0.70095581  0.65357801  1
  S  S41  1  0.75000000  0.29904419  0.34642199  1
  S  S42  1  0.25000000  0.54412391  0.08543872  1
  S  S43  1  0.75000000  0.45587609  0.91456128  1
  S  S44  1  0.25000000  0.61333312  0.37474719  1
  S  S45  1  0.75000000  0.38666688  0.62525281  1
  S  S46  1  0.25000000  0.11941687  0.86982636  1
  S  S47  1  0.75000000  0.88058313  0.13017364  1
  O  O48  1  0.42274424  0.18008619  0.11267881  1
  O  O49  1  0.92274424  0.81991381  0.88732119  1
  O  O50  1  0.57725576  0.81991381  0.88732119  1
  O  O51  1  0.07725576  0.18008619  0.11267881  1
  O  O52  1  0.42348776  0.09255503  0.64553070  1
  O  O53  1  0.92348776  0.90744497  0.35446930  1
  O  O54  1  0.57651224  0.90744497  0.35446930  1
  O  O55  1  0.07651224  0.09255503  0.64553070  1
  O  O56  1  0.42352013  0.77435919  0.65277645  1
  O  O57  1  0.92352013  0.22564081  0.34722355  1
  O  O58  1  0.57647987  0.22564081  0.34722355  1
  O  O59  1  0.07647987  0.77435919  0.65277645  1
  O  O60  1  0.42322699  0.55411411  0.13384231  1
  O  O61  1  0.92322699  0.44588589  0.86615769  1
  O  O62  1  0.57677301  0.44588589  0.86615769  1
  O  O63  1  0.07677301  0.55411411  0.13384231  1
  O  O64  1  0.25000000  0.09866273  0.20130844  1
  O  O65  1  0.75000000  0.90133727  0.79869156  1
  O  O66  1  0.25000000  0.17835672  0.55934342  1
  O  O67  1  0.75000000  0.82164328  0.44065658  1
  O  O68  1  0.25000000  0.66255124  0.72449855  1
  O  O69  1  0.75000000  0.33744876  0.27550145  1
  O  O70  1  0.25000000  0.64209356  0.04826993  1
  O  O71  1  0.75000000  0.35790644  0.95173007  1
  O  O72  1  0.25000000  0.31558056  0.21960864  1
  O  O73  1  0.75000000  0.68441944  0.78039136  1
  O  O74  1  0.25000000  0.96093771  0.53722982  1
  O  O75  1  0.75000000  0.03906229  0.46277018  1
  O  O76  1  0.25000000  0.59411823  0.58466435  1
  O  O77  1  0.75000000  0.40588177  0.41533565  1
  O  O78  1  0.25000000  0.42402475  0.02497482  1
  O  O79  1  0.75000000  0.57597525  0.97502518  1
  O  O80  1  0.42295646  0.12839097  0.91829399  1
  O  O81  1  0.92295646  0.87160903  0.08170601  1
  O  O82  1  0.57704354  0.87160903  0.08170601  1
  O  O83  1  0.07704354  0.12839097  0.91829399  1
  O  O84  1  0.25000000  0.00086925  0.80841907  1
  O  O85  1  0.75000000  0.99913075  0.19158093  1
  O  O86  1  0.25000000  0.21909251  0.83401288  1
  O  O87  1  0.75000000  0.78090749  0.16598712  1
  O  O88  1  0.42286343  0.53876017  0.37527483  1
  O  O89  1  0.92286343  0.46123983  0.62472517  1
  O  O90  1  0.57713657  0.46123983  0.62472517  1
  O  O91  1  0.07713657  0.53876017  0.37527483  1
  O  O92  1  0.25000000  0.72216220  0.44308232  1
  O  O93  1  0.75000000  0.27783780  0.55691768  1
  O  O94  1  0.25000000  0.65114842  0.30355556  1
  O  O95  1  0.75000000  0.34885158  0.69644444  1
  F  F96  1  0.25000000  0.35712068  0.48017134  1
  F  F97  1  0.75000000  0.64287932  0.51982866  1
  F  F98  1  0.25000000  0.09582811  0.37776613  1
  F  F99  1  0.75000000  0.90417189  0.62223387  1
  F  F100  1  0.25000000  0.86524856  0.23900310  1
  F  F101  1  0.75000000  0.13475144  0.76099690  1
  F  F102  1  0.25000000  0.87588113  0.99046912  1
  F  F103  1  0.75000000  0.12411887  0.00953088  1
  F  F104  1  0.25000000  0.39443127  0.74372357  1
  F  F105  1  0.75000000  0.60556873  0.25627643  1
  F  F106  1  0.25000000  0.62684309  0.87565376  1
  F  F107  1  0.75000000  0.37315691  0.12434624  1
