# generated using pymatgen
data_RbP2WO8
_symmetry_space_group_name_H-M   'P 1'
_cell_length_a   5.20395325
_cell_length_b   11.91428025
_cell_length_c   12.21013614
_cell_angle_alpha   90.00000000
_cell_angle_beta   90.00000000
_cell_angle_gamma   90.82958621
_symmetry_Int_Tables_number   1
_chemical_formula_structural   RbP2WO8
_chemical_formula_sum   'Rb4 P8 W4 O32'
_cell_volume   756.96566269
_cell_formula_units_Z   4
loop_
 _symmetry_equiv_pos_site_id
 _symmetry_equiv_pos_as_xyz
  1  'x, y, z'
loop_
 _atom_site_type_symbol
 _atom_site_label
 _atom_site_symmetry_multiplicity
 _atom_site_fract_x
 _atom_site_fract_y
 _atom_site_fract_z
 _atom_site_occupancy
  Rb  Rb0  1  0.24011321  0.53874164  0.87731459  1
  Rb  Rb1  1  0.25988679  0.96125836  0.37731459  1
  Rb  Rb2  1  0.75988679  0.46125836  0.12268541  1
  Rb  Rb3  1  0.74011321  0.03874164  0.62268541  1
  P  P4  1  0.24388341  0.62700562  0.57115123  1
  P  P5  1  0.25611659  0.87299438  0.07115123  1
  P  P6  1  0.75611659  0.37299438  0.42884877  1
  P  P7  1  0.74388341  0.12700562  0.92884877  1
  P  P8  1  0.23265974  0.83514500  0.70486979  1
  P  P9  1  0.26734026  0.66485500  0.20486979  1
  P  P10  1  0.76734026  0.16485500  0.29513021  1
  P  P11  1  0.73265974  0.33514500  0.79513021  1
  W  W12  1  0.74106251  0.82925643  0.89211450  1
  W  W13  1  0.75893749  0.67074357  0.39211450  1
  W  W14  1  0.25893749  0.17074357  0.10788550  1
  W  W15  1  0.24106251  0.32925643  0.60788550  1
  O  O16  1  0.70094665  0.68258865  0.89403054  1
  O  O17  1  0.79905335  0.81741135  0.39403054  1
  O  O18  1  0.29905335  0.31741135  0.10596946  1
  O  O19  1  0.20094665  0.18258865  0.60596946  1
  O  O20  1  0.95599434  0.83900916  0.75140547  1
  O  O21  1  0.54400566  0.66099084  0.25140547  1
  O  O22  1  0.04400566  0.16099084  0.24859453  1
  O  O23  1  0.45599434  0.33900916  0.74859453  1
  O  O24  1  0.42854826  0.86304250  0.79563736  1
  O  O25  1  0.07145174  0.63695750  0.29563736  1
  O  O26  1  0.57145174  0.13695750  0.20436264  1
  O  O27  1  0.92854826  0.36304250  0.70436264  1
  O  O28  1  0.06888908  0.82767114  0.98551586  1
  O  O29  1  0.43111092  0.67232886  0.48551586  1
  O  O30  1  0.93111092  0.17232886  0.01448414  1
  O  O31  1  0.56888908  0.32767114  0.51448414  1
  O  O32  1  0.53549676  0.85947899  0.03354914  1
  O  O33  1  0.96450324  0.64052101  0.53354914  1
  O  O34  1  0.46450324  0.14052101  0.96645086  1
  O  O35  1  0.03549676  0.35947899  0.46645086  1
  O  O36  1  0.79913851  0.00875788  0.88955832  1
  O  O37  1  0.70086149  0.49124212  0.38955832  1
  O  O38  1  0.20086149  0.99124212  0.11044168  1
  O  O39  1  0.29913851  0.50875788  0.61044168  1
  O  O40  1  0.27883701  0.70116800  0.68099355  1
  O  O41  1  0.22116299  0.79883200  0.18099355  1
  O  O42  1  0.72116299  0.29883200  0.31900645  1
  O  O43  1  0.77883701  0.20116800  0.81900645  1
  O  O44  1  0.26160486  0.90335109  0.60303734  1
  O  O45  1  0.23839514  0.59664891  0.10303734  1
  O  O46  1  0.73839514  0.09664891  0.39696266  1
  O  O47  1  0.76160486  0.40335109  0.89696266  1
