# generated using pymatgen
data_TaBiO4
_symmetry_space_group_name_H-M   'P 1'
_cell_length_a   5.61772361
_cell_length_b   7.79847306
_cell_length_c   7.83890447
_cell_angle_alpha   102.04865692
_cell_angle_beta   89.99810447
_cell_angle_gamma   93.36876741
_symmetry_Int_Tables_number   1
_chemical_formula_structural   TaBiO4
_chemical_formula_sum   'Ta4 Bi4 O16'
_cell_volume   335.24781030
_cell_formula_units_Z   4
loop_
 _symmetry_equiv_pos_site_id
 _symmetry_equiv_pos_as_xyz
  1  'x, y, z'
loop_
 _atom_site_type_symbol
 _atom_site_label
 _atom_site_symmetry_multiplicity
 _atom_site_fract_x
 _atom_site_fract_y
 _atom_site_fract_z
 _atom_site_occupancy
  Ta  Ta0  1  0.74382866  0.82752697  0.19095382  1
  Ta  Ta1  1  0.27687901  0.15665411  0.30834043  1
  Ta  Ta2  1  0.72312099  0.84334589  0.69165957  1
  Ta  Ta3  1  0.25617134  0.17247303  0.80904618  1
  Bi  Bi4  1  0.26799372  0.61823350  0.38045196  1
  Bi  Bi5  1  0.20799249  0.66591258  0.88498613  1
  Bi  Bi6  1  0.73200628  0.38176650  0.61954804  1
  Bi  Bi7  1  0.79200751  0.33408742  0.11501387  1
  O  O8  1  0.57826197  0.05063156  0.22386669  1
  O  O9  1  0.49025965  0.60782770  0.67884449  1
  O  O10  1  0.04354952  0.34569355  0.35956293  1
  O  O11  1  0.65331856  0.81942928  0.44652120  1
  O  O12  1  0.34668144  0.18057072  0.55347880  1
  O  O13  1  0.80362795  0.83060486  0.94971918  1
  O  O14  1  0.05890455  0.38937037  0.82564596  1
  O  O15  1  0.54203775  0.32777302  0.86578498  1
  O  O16  1  0.42173803  0.94936844  0.77613331  1
  O  O17  1  0.94011077  0.04381998  0.71537054  1
  O  O18  1  0.50974035  0.39217230  0.32115551  1
  O  O19  1  0.19637205  0.16939514  0.05028082  1
  O  O20  1  0.94109545  0.61062963  0.17435404  1
  O  O21  1  0.05988923  0.95618002  0.28462946  1
  O  O22  1  0.95645048  0.65430645  0.64043707  1
  O  O23  1  0.45796225  0.67222698  0.13421502  1
