# generated using pymatgen
data_LiUP(H4O5)2
_symmetry_space_group_name_H-M   'P 1'
_cell_length_a   6.98057368
_cell_length_b   6.98057368
_cell_length_c   9.26482900
_cell_angle_alpha   90.00000000
_cell_angle_beta   90.00000000
_cell_angle_gamma   90.00000000
_symmetry_Int_Tables_number   1
_chemical_formula_structural   LiUP(H4O5)2
_chemical_formula_sum   'Li2 U2 P2 H16 O20'
_cell_volume   451.46037592
_cell_formula_units_Z   2
loop_
 _symmetry_equiv_pos_site_id
 _symmetry_equiv_pos_as_xyz
  1  'x, y, z'
loop_
 _atom_site_type_symbol
 _atom_site_label
 _atom_site_symmetry_multiplicity
 _atom_site_fract_x
 _atom_site_fract_y
 _atom_site_fract_z
 _atom_site_occupancy
  Li  Li0  1  0.75000000  0.25000000  0.50000000  1
  Li  Li1  1  0.25000000  0.75000000  0.50000000  1
  U  U2  1  0.25000000  0.25000000  0.09868889  1
  U  U3  1  0.75000000  0.75000000  0.90131111  1
  P  P4  1  0.75000000  0.25000000  0.00000000  1
  P  P5  1  0.25000000  0.75000000  0.00000000  1
  H  H6  1  0.33825270  0.58022225  0.72885238  1
  H  H7  1  0.92026264  0.60393204  0.37974648  1
  H  H8  1  0.39606796  0.42026264  0.62025352  1
  H  H9  1  0.66174730  0.41977775  0.27114762  1
  H  H10  1  0.89606796  0.92026264  0.37974648  1
  H  H11  1  0.91977775  0.33825270  0.72885238  1
  H  H12  1  0.58022225  0.16174730  0.72885238  1
  H  H13  1  0.42026264  0.10393204  0.62025352  1
  H  H14  1  0.16174730  0.91977775  0.72885238  1
  H  H15  1  0.60393204  0.57973736  0.37974648  1
  H  H16  1  0.07973736  0.39606796  0.62025352  1
  H  H17  1  0.08022225  0.66174730  0.27114762  1
  H  H18  1  0.83825270  0.08022225  0.27114762  1
  H  H19  1  0.41977775  0.83825270  0.27114762  1
  H  H20  1  0.10393204  0.07973736  0.62025352  1
  H  H21  1  0.57973736  0.89606796  0.37974648  1
  O  O22  1  0.20331044  0.57824559  0.10064124  1
  O  O23  1  0.25000000  0.25000000  0.90325210  1
  O  O24  1  0.92175441  0.20331044  0.10064124  1
  O  O25  1  0.29668956  0.92175441  0.10064124  1
  O  O26  1  0.19125617  0.96839323  0.63104367  1
  O  O27  1  0.42175441  0.70331044  0.89935876  1
  O  O28  1  0.53160677  0.19125617  0.63104367  1
  O  O29  1  0.75000000  0.75000000  0.09674790  1
  O  O30  1  0.30874383  0.53160677  0.63104367  1
  O  O31  1  0.96839323  0.30874383  0.63104367  1
  O  O32  1  0.57824559  0.29668956  0.10064124  1
  O  O33  1  0.75000000  0.75000000  0.70549198  1
  O  O34  1  0.25000000  0.25000000  0.29450802  1
  O  O35  1  0.46839323  0.80874383  0.36895633  1
  O  O36  1  0.69125617  0.46839323  0.36895633  1
  O  O37  1  0.03160677  0.69125617  0.36895633  1
  O  O38  1  0.07824559  0.79668956  0.89935876  1
  O  O39  1  0.80874383  0.03160677  0.36895633  1
  O  O40  1  0.70331044  0.07824559  0.89935876  1
  O  O41  1  0.79668956  0.42175441  0.89935876  1
