# generated using pymatgen
data_NbPCl8O
_symmetry_space_group_name_H-M   'P 1'
_cell_length_a   8.62233621
_cell_length_b   9.27970027
_cell_length_c   17.12484940
_cell_angle_alpha   90.00000000
_cell_angle_beta   90.00000000
_cell_angle_gamma   90.00000000
_symmetry_Int_Tables_number   1
_chemical_formula_structural   NbPCl8O
_chemical_formula_sum   'Nb4 P4 Cl32 O4'
_cell_volume   1370.20536320
_cell_formula_units_Z   4
loop_
 _symmetry_equiv_pos_site_id
 _symmetry_equiv_pos_as_xyz
  1  'x, y, z'
loop_
 _atom_site_type_symbol
 _atom_site_label
 _atom_site_symmetry_multiplicity
 _atom_site_fract_x
 _atom_site_fract_y
 _atom_site_fract_z
 _atom_site_occupancy
  Nb  Nb0  1  0.25000000  0.08415416  0.85238097  1
  Nb  Nb1  1  0.75000000  0.58415416  0.64761903  1
  Nb  Nb2  1  0.25000000  0.41584584  0.35238097  1
  Nb  Nb3  1  0.75000000  0.91584584  0.14761903  1
  P  P4  1  0.75000000  0.28353954  0.07654801  1
  P  P5  1  0.25000000  0.71646046  0.92345199  1
  P  P6  1  0.25000000  0.78353954  0.42345199  1
  P  P7  1  0.75000000  0.21646046  0.57654801  1
  Cl  Cl8  1  0.93381891  0.13095946  0.62878516  1
  Cl  Cl9  1  0.25000000  0.64063379  0.03172940  1
  Cl  Cl10  1  0.47962917  0.55747727  0.63967584  1
  Cl  Cl11  1  0.97962917  0.44252273  0.36032416  1
  Cl  Cl12  1  0.97962917  0.05747727  0.86032416  1
  Cl  Cl13  1  0.06618109  0.86904054  0.37121484  1
  Cl  Cl14  1  0.02037083  0.55747727  0.63967584  1
  Cl  Cl15  1  0.25000000  0.92869411  0.74113334  1
  Cl  Cl16  1  0.75000000  0.35936621  0.96827060  1
  Cl  Cl17  1  0.75000000  0.70222470  0.52627628  1
  Cl  Cl18  1  0.75000000  0.79777530  0.02627628  1
  Cl  Cl19  1  0.43381891  0.63095946  0.87121484  1
  Cl  Cl20  1  0.25000000  0.57130589  0.24113334  1
  Cl  Cl21  1  0.52037083  0.05747727  0.86032416  1
  Cl  Cl22  1  0.75000000  0.07130589  0.25886666  1
  Cl  Cl23  1  0.25000000  0.21070429  0.27802124  1
  Cl  Cl24  1  0.25000000  0.85936621  0.53172940  1
  Cl  Cl25  1  0.75000000  0.42869411  0.75886666  1
  Cl  Cl26  1  0.43381891  0.86904054  0.37121484  1
  Cl  Cl27  1  0.25000000  0.29777530  0.47372372  1
  Cl  Cl28  1  0.52037083  0.44252273  0.36032416  1
  Cl  Cl29  1  0.56618109  0.13095946  0.62878516  1
  Cl  Cl30  1  0.75000000  0.78929571  0.72197876  1
  Cl  Cl31  1  0.02037083  0.94252273  0.13967584  1
  Cl  Cl32  1  0.93381891  0.36904054  0.12878516  1
  Cl  Cl33  1  0.06618109  0.63095946  0.87121484  1
  Cl  Cl34  1  0.25000000  0.28929571  0.77802124  1
  Cl  Cl35  1  0.25000000  0.20222470  0.97372372  1
  Cl  Cl36  1  0.75000000  0.14063379  0.46827060  1
  Cl  Cl37  1  0.56618109  0.36904054  0.12878516  1
  Cl  Cl38  1  0.47962917  0.94252273  0.13967584  1
  Cl  Cl39  1  0.75000000  0.71070429  0.22197876  1
  O  O40  1  0.75000000  0.37683440  0.57703728  1
  O  O41  1  0.25000000  0.62316560  0.42296272  1
  O  O42  1  0.25000000  0.87683440  0.92296272  1
  O  O43  1  0.75000000  0.12316560  0.07703728  1
