# generated using pymatgen
data_Pr4Se3(O5F3)2
_symmetry_space_group_name_H-M   'P 1'
_cell_length_a   7.19982554
_cell_length_b   8.44072296
_cell_length_c   11.87695905
_cell_angle_alpha   98.67372077
_cell_angle_beta   107.64392429
_cell_angle_gamma   90.00000350
_symmetry_Int_Tables_number   1
_chemical_formula_structural   Pr4Se3(O5F3)2
_chemical_formula_sum   'Pr8 Se6 O20 F12'
_cell_volume   679.16217851
_cell_formula_units_Z   2
loop_
 _symmetry_equiv_pos_site_id
 _symmetry_equiv_pos_as_xyz
  1  'x, y, z'
loop_
 _atom_site_type_symbol
 _atom_site_label
 _atom_site_symmetry_multiplicity
 _atom_site_fract_x
 _atom_site_fract_y
 _atom_site_fract_z
 _atom_site_occupancy
  Pr  Pr0  1  0.14444874  0.66960126  0.42538808  1
  Pr  Pr1  1  0.45622841  0.46935632  0.74174508  1
  Pr  Pr2  1  0.54377159  0.53064368  0.25825492  1
  Pr  Pr3  1  0.28093934  0.16960126  0.42538808  1
  Pr  Pr4  1  0.71448333  0.03064368  0.25825492  1
  Pr  Pr5  1  0.85555126  0.33039874  0.57461192  1
  Pr  Pr6  1  0.71906066  0.83039874  0.57461192  1
  Pr  Pr7  1  0.28551667  0.96935632  0.74174508  1
  Se  Se8  1  0.01588326  0.36638738  0.18577632  1
  Se  Se9  1  0.61038085  0.75000000  1.00000000  1
  Se  Se10  1  0.83010693  0.13361262  0.81422368  1
  Se  Se11  1  0.16989307  0.86638738  0.18577632  1
  Se  Se12  1  0.98411674  0.63361262  0.81422368  1
  Se  Se13  1  0.38961915  0.25000000  0.00000000  1
  O  O14  1  0.41791612  0.75637340  0.87746977  1
  O  O15  1  0.25094595  0.08019839  0.96065703  1
  O  O16  1  0.96051522  0.09966912  0.71061202  1
  O  O17  1  0.58208388  0.24362660  0.12253023  1
  O  O18  1  0.89254858  0.50845027  0.25532211  1
  O  O19  1  0.10745142  0.49154973  0.74467789  1
  O  O20  1  0.36277353  0.00845027  0.25532211  1
  O  O21  1  0.24990319  0.40033088  0.28938798  1
  O  O22  1  0.74905405  0.91980161  0.03934297  1
  O  O23  1  0.25680026  0.69084982  0.23269594  1
  O  O24  1  0.74319974  0.30915018  0.76730406  1
  O  O25  1  0.63722647  0.99154973  0.74467789  1
  O  O26  1  0.97589568  0.19084982  0.23269594  1
  O  O27  1  0.45955365  0.25637340  0.87746977  1
  O  O28  1  0.29028892  0.41980161  0.03934297  1
  O  O29  1  0.54044635  0.74362660  0.12253023  1
  O  O30  1  0.70971108  0.58019839  0.96065703  1
  O  O31  1  0.03948478  0.90033088  0.28938798  1
  O  O32  1  0.02410432  0.80915018  0.76730406  1
  O  O33  1  0.75009681  0.59966912  0.71061202  1
  F  F34  1  0.48123777  0.63275707  0.44627756  1
  F  F35  1  0.35411245  0.70202148  0.64231246  1
  F  F36  1  0.64588755  0.29797852  0.35768754  1
  F  F37  1  0.35616249  0.91971414  0.50790641  1
  F  F38  1  0.15174392  0.41971414  0.50790641  1
  F  F39  1  0.03496021  0.86724293  0.55372244  1
  F  F40  1  0.28820001  0.20202148  0.64231246  1
  F  F41  1  0.64383751  0.08028586  0.49209359  1
  F  F42  1  0.51876223  0.36724293  0.55372244  1
  F  F43  1  0.96503979  0.13275707  0.44627756  1
  F  F44  1  0.71179999  0.79797852  0.35768754  1
  F  F45  1  0.84825608  0.58028586  0.49209359  1
