# generated using pymatgen
data_Nd3CuSnS7
_symmetry_space_group_name_H-M   'P 1'
_cell_length_a   10.16437286
_cell_length_b   10.16437291
_cell_length_c   6.12937758
_cell_angle_alpha   90.00000000
_cell_angle_beta   90.00000000
_cell_angle_gamma   119.99999986
_symmetry_Int_Tables_number   1
_chemical_formula_structural   Nd3CuSnS7
_chemical_formula_sum   'Nd6 Cu2 Sn2 S14'
_cell_volume   548.41356139
_cell_formula_units_Z   2
loop_
 _symmetry_equiv_pos_site_id
 _symmetry_equiv_pos_as_xyz
  1  'x, y, z'
loop_
 _atom_site_type_symbol
 _atom_site_label
 _atom_site_symmetry_multiplicity
 _atom_site_fract_x
 _atom_site_fract_y
 _atom_site_fract_z
 _atom_site_occupancy
  Nd  Nd0  1  0.86210395  0.21926684  0.26086997  1
  Nd  Nd1  1  0.35716289  0.13789605  0.26086997  1
  Nd  Nd2  1  0.13789605  0.78073316  0.76086997  1
  Nd  Nd3  1  0.21926684  0.35716289  0.76086997  1
  Nd  Nd4  1  0.64283711  0.86210395  0.76086997  1
  Nd  Nd5  1  0.78073316  0.64283711  0.26086997  1
  Cu  Cu6  1  0.00000000  0.00000000  0.70169729  1
  Cu  Cu7  1  0.00000000  0.00000000  0.20169729  1
  Sn  Sn8  1  0.66666700  0.33333300  0.83296753  1
  Sn  Sn9  1  0.33333300  0.66666700  0.33296753  1
  S  S10  1  0.57169982  0.08771882  0.00540526  1
  S  S11  1  0.25458288  0.10100749  0.71802468  1
  S  S12  1  0.91228118  0.48398099  0.00540526  1
  S  S13  1  0.15357540  0.25458288  0.21802468  1
  S  S14  1  0.48398099  0.57169982  0.50540526  1
  S  S15  1  0.42830018  0.91228118  0.50540526  1
  S  S16  1  0.33333300  0.66666700  0.94443546  1
  S  S17  1  0.66666700  0.33333300  0.44443546  1
  S  S18  1  0.84642460  0.74541712  0.71802468  1
  S  S19  1  0.74541712  0.89899251  0.21802468  1
  S  S20  1  0.08771882  0.51601901  0.50540526  1
  S  S21  1  0.10100749  0.84642460  0.21802468  1
  S  S22  1  0.51601901  0.42830018  0.00540526  1
  S  S23  1  0.89899251  0.15357540  0.71802468  1
