# generated using pymatgen
data_Ca3Ta4(O6F)2
_symmetry_space_group_name_H-M   'P 1'
_cell_length_a   10.53827726
_cell_length_b   10.53827726
_cell_length_c   10.53827726
_cell_angle_alpha   90.00000000
_cell_angle_beta   90.00000000
_cell_angle_gamma   90.00000000
_symmetry_Int_Tables_number   1
_chemical_formula_structural   Ca3Ta4(O6F)2
_chemical_formula_sum   'Ca12 Ta16 O48 F8'
_cell_volume   1170.33141201
_cell_formula_units_Z   4
loop_
 _symmetry_equiv_pos_site_id
 _symmetry_equiv_pos_as_xyz
  1  'x, y, z'
loop_
 _atom_site_type_symbol
 _atom_site_label
 _atom_site_symmetry_multiplicity
 _atom_site_fract_x
 _atom_site_fract_y
 _atom_site_fract_z
 _atom_site_occupancy
  Ca  Ca0  1  0.38702933  0.37500000  0.63702933  1
  Ca  Ca1  1  0.63702933  0.38702933  0.37500000  1
  Ca  Ca2  1  0.61297067  0.87500000  0.86297067  1
  Ca  Ca3  1  0.37500000  0.63702933  0.38702933  1
  Ca  Ca4  1  0.87500000  0.86297067  0.61297067  1
  Ca  Ca5  1  0.12500000  0.36297067  0.88702933  1
  Ca  Ca6  1  0.86297067  0.61297067  0.87500000  1
  Ca  Ca7  1  0.88702933  0.12500000  0.36297067  1
  Ca  Ca8  1  0.62500000  0.13702933  0.11297067  1
  Ca  Ca9  1  0.13702933  0.11297067  0.62500000  1
  Ca  Ca10  1  0.11297067  0.62500000  0.13702933  1
  Ca  Ca11  1  0.36297067  0.88702933  0.12500000  1
  Ta  Ta12  1  0.87630554  0.37369446  0.62500000  1
  Ta  Ta13  1  0.37369446  0.62500000  0.87630554  1
  Ta  Ta14  1  0.12500000  0.12500000  0.12500000  1
  Ta  Ta15  1  0.12369446  0.87369446  0.87500000  1
  Ta  Ta16  1  0.87369446  0.87500000  0.12369446  1
  Ta  Ta17  1  0.87500000  0.12369446  0.87369446  1
  Ta  Ta18  1  0.12500000  0.62369446  0.62630554  1
  Ta  Ta19  1  0.37500000  0.87500000  0.62500000  1
  Ta  Ta20  1  0.12630554  0.37500000  0.37630554  1
  Ta  Ta21  1  0.37630554  0.12630554  0.37500000  1
  Ta  Ta22  1  0.62369446  0.62630554  0.12500000  1
  Ta  Ta23  1  0.62630554  0.12500000  0.62369446  1
  Ta  Ta24  1  0.37500000  0.37630554  0.12630554  1
  Ta  Ta25  1  0.62500000  0.37500000  0.87500000  1
  Ta  Ta26  1  0.62500000  0.87630554  0.37369446  1
  Ta  Ta27  1  0.87500000  0.62500000  0.37500000  1
  O  O28  1  0.24212750  0.25967117  0.06261430  1
  O  O29  1  0.75787250  0.75967117  0.43738570  1
  O  O30  1  0.30385126  0.50161045  0.00429913  1
  O  O31  1  0.99032883  0.00787250  0.18738570  1
  O  O32  1  0.74212750  0.24032883  0.93738570  1
  O  O33  1  0.49570087  0.69614874  0.00161045  1
  O  O34  1  0.49838955  0.50429913  0.19614874  1
  O  O35  1  0.81261430  0.49032883  0.49212750  1
  O  O36  1  0.50967117  0.99212750  0.68738570  1
  O  O37  1  0.49032883  0.49212750  0.81261430  1
  O  O38  1  0.25787250  0.74032883  0.56261430  1
  O  O39  1  0.31261430  0.00967117  0.50787250  1
  O  O40  1  0.69614874  0.00161045  0.49570087  1
  O  O41  1  0.99212750  0.68738570  0.50967117  1
  O  O42  1  0.00161045  0.49570087  0.69614874  1
  O  O43  1  0.24032883  0.93738570  0.74212750  1
  O  O44  1  0.80385126  0.99838955  0.99570087  1
  O  O45  1  0.50429913  0.19614874  0.49838955  1
  O  O46  1  0.24838955  0.55385126  0.75429913  1
  O  O47  1  0.00429913  0.30385126  0.50161045  1
  O  O48  1  0.19614874  0.49838955  0.50429913  1
  O  O49  1  0.50161045  0.00429913  0.30385126  1
  O  O50  1  0.24570087  0.74838955  0.94614874  1
  O  O51  1  0.93738570  0.74212750  0.24032883  1
  O  O52  1  0.43738570  0.75787250  0.75967117  1
  O  O53  1  0.05385126  0.74570087  0.75161045  1
  O  O54  1  0.75161045  0.05385126  0.74570087  1
  O  O55  1  0.49212750  0.81261430  0.49032883  1
  O  O56  1  0.75967117  0.43738570  0.75787250  1
  O  O57  1  0.74032883  0.56261430  0.25787250  1
  O  O58  1  0.99570087  0.80385126  0.99838955  1
  O  O59  1  0.55385126  0.75429913  0.24838955  1
  O  O60  1  0.68738570  0.50967117  0.99212750  1
  O  O61  1  0.25429913  0.25161045  0.44614874  1
  O  O62  1  0.18738570  0.99032883  0.00787250  1
  O  O63  1  0.75429913  0.24838955  0.55385126  1
  O  O64  1  0.00967117  0.50787250  0.31261430  1
  O  O65  1  0.56261430  0.25787250  0.74032883  1
  O  O66  1  0.50787250  0.31261430  0.00967117  1
  O  O67  1  0.25967117  0.06261430  0.24212750  1
  O  O68  1  0.25161045  0.44614874  0.25429913  1
  O  O69  1  0.44614874  0.25429913  0.25161045  1
  O  O70  1  0.74570087  0.75161045  0.05385126  1
  O  O71  1  0.74838955  0.94614874  0.24570087  1
  O  O72  1  0.94614874  0.24570087  0.74838955  1
  O  O73  1  0.06261430  0.24212750  0.25967117  1
  O  O74  1  0.00787250  0.18738570  0.99032883  1
  O  O75  1  0.99838955  0.99570087  0.80385126  1
  F  F76  1  0.98810443  0.01189557  0.51189557  1
  F  F77  1  0.01189557  0.51189557  0.98810443  1
  F  F78  1  0.23810443  0.26189557  0.73810443  1
  F  F79  1  0.51189557  0.98810443  0.01189557  1
  F  F80  1  0.73810443  0.23810443  0.26189557  1
  F  F81  1  0.48810443  0.48810443  0.48810443  1
  F  F82  1  0.26189557  0.73810443  0.23810443  1
  F  F83  1  0.76189557  0.76189557  0.76189557  1
