# generated using pymatgen
data_KEu(PO3)4
_symmetry_space_group_name_H-M   'P 1'
_cell_length_a   7.37955727
_cell_length_b   8.14656299
_cell_length_c   8.60602287
_cell_angle_alpha   90.00000000
_cell_angle_beta   90.00000000
_cell_angle_gamma   91.81297072
_symmetry_Int_Tables_number   1
_chemical_formula_structural   KEu(PO3)4
_chemical_formula_sum   'K2 Eu2 P8 O24'
_cell_volume   517.11813850
_cell_formula_units_Z   2
loop_
 _symmetry_equiv_pos_site_id
 _symmetry_equiv_pos_as_xyz
  1  'x, y, z'
loop_
 _atom_site_type_symbol
 _atom_site_label
 _atom_site_symmetry_multiplicity
 _atom_site_fract_x
 _atom_site_fract_y
 _atom_site_fract_z
 _atom_site_occupancy
  Eu  Eu0  1  0.76458824  0.75675540  0.74755362  1
  Eu  Eu1  1  0.23541176  0.24324460  0.24755362  1
  K  K2  1  0.27362043  0.71875994  0.55509901  1
  K  K3  1  0.72637957  0.28124006  0.05509901  1
  P  P4  1  0.56482961  0.89980298  0.12525994  1
  P  P5  1  0.43517039  0.10019702  0.62525994  1
  P  P6  1  0.37716282  0.60416618  0.99462994  1
  P  P7  1  0.10316739  0.10609170  0.82531938  1
  P  P8  1  0.89683261  0.89390830  0.32531938  1
  P  P9  1  0.99875997  0.61905875  0.10036565  1
  P  P10  1  0.00124003  0.38094125  0.60036565  1
  P  P11  1  0.62283718  0.39583382  0.49462994  1
  O  O12  1  0.56095678  0.96191065  0.65690276  1
  O  O13  1  0.31327462  0.13058104  0.77784277  1
  O  O14  1  0.53866655  0.34967119  0.34161454  1
  O  O15  1  0.46133345  0.65032881  0.84161454  1
  O  O16  1  0.99143473  0.21690430  0.70445027  1
  O  O17  1  0.31753103  0.07556169  0.48280493  1
  O  O18  1  0.38836222  0.43241141  0.05392398  1
  O  O19  1  0.83032357  0.61387210  0.00117749  1
  O  O20  1  0.61163778  0.56758859  0.55392398  1
  O  O21  1  0.68246897  0.92443831  0.98280493  1
  O  O22  1  0.16783029  0.65606507  0.98666980  1
  O  O23  1  0.08507790  0.17641055  0.98557574  1
  O  O24  1  0.45324009  0.72798900  0.12977408  1
  O  O25  1  0.02944297  0.47109350  0.19991553  1
  O  O26  1  0.54675991  0.27201100  0.62977408  1
  O  O27  1  0.97055703  0.52890650  0.69991553  1
  O  O28  1  0.16967643  0.38612790  0.50117749  1
  O  O29  1  0.43904322  0.03808935  0.15690276  1
  O  O30  1  0.91492210  0.82358945  0.48557574  1
  O  O31  1  0.68672538  0.86941896  0.27784277  1
  O  O32  1  0.96229134  0.06844736  0.29512054  1
  O  O33  1  0.03770866  0.93155264  0.79512054  1
  O  O34  1  0.83216971  0.34393493  0.48666980  1
  O  O35  1  0.00856527  0.78309570  0.20445027  1
