# generated using pymatgen
data_NaMnF3
_symmetry_space_group_name_H-M   'P 1'
_cell_length_a   5.61993819
_cell_length_b   5.83364959
_cell_length_c   8.12383958
_cell_angle_alpha   90.00000000
_cell_angle_beta   90.00000000
_cell_angle_gamma   90.00000000
_symmetry_Int_Tables_number   1
_chemical_formula_structural   NaMnF3
_chemical_formula_sum   'Na4 Mn4 F12'
_cell_volume   266.33805063
_cell_formula_units_Z   4
loop_
 _symmetry_equiv_pos_site_id
 _symmetry_equiv_pos_as_xyz
  1  'x, y, z'
loop_
 _atom_site_type_symbol
 _atom_site_label
 _atom_site_symmetry_multiplicity
 _atom_site_fract_x
 _atom_site_fract_y
 _atom_site_fract_z
 _atom_site_occupancy
  F  F0  1  0.61908317  0.55382467  0.25000000  1
  F  F1  1  0.11908317  0.94617533  0.75000000  1
  F  F2  1  0.88091683  0.05382467  0.25000000  1
  F  F3  1  0.38091683  0.44617533  0.75000000  1
  F  F4  1  0.80858837  0.30444078  0.93688648  1
  F  F5  1  0.30858837  0.19555922  0.06311352  1
  F  F6  1  0.69141163  0.80444078  0.56311352  1
  F  F7  1  0.19141163  0.69555922  0.43688648  1
  F  F8  1  0.80858837  0.30444078  0.56311352  1
  F  F9  1  0.30858837  0.19555922  0.43688648  1
  F  F10  1  0.69141163  0.80444078  0.93688648  1
  F  F11  1  0.19141163  0.69555922  0.06311352  1
  Na  Na12  1  0.48458405  0.94376459  0.25000000  1
  Na  Na13  1  0.98458405  0.55623541  0.75000000  1
  Na  Na14  1  0.01541595  0.44376459  0.25000000  1
  Na  Na15  1  0.51541595  0.05623541  0.75000000  1
  Mn  Mn16  1  0.50000000  0.50000000  0.00000000  1
  Mn  Mn17  1  0.00000000  0.00000000  0.00000000  1
  Mn  Mn18  1  0.00000000  0.00000000  0.50000000  1
  Mn  Mn19  1  0.50000000  0.50000000  0.50000000  1
