# generated using pymatgen
data_CsLa(SO4)2
_symmetry_space_group_name_H-M   'P 1'
_cell_length_a   5.55149485
_cell_length_b   8.13149505
_cell_length_c   17.41002187
_cell_angle_alpha   92.03016801
_cell_angle_beta   90.00000000
_cell_angle_gamma   90.00000000
_symmetry_Int_Tables_number   1
_chemical_formula_structural   CsLa(SO4)2
_chemical_formula_sum   'Cs4 La4 S8 O32'
_cell_volume   785.42907400
_cell_formula_units_Z   4
loop_
 _symmetry_equiv_pos_site_id
 _symmetry_equiv_pos_as_xyz
  1  'x, y, z'
loop_
 _atom_site_type_symbol
 _atom_site_label
 _atom_site_symmetry_multiplicity
 _atom_site_fract_x
 _atom_site_fract_y
 _atom_site_fract_z
 _atom_site_occupancy
  Cs  Cs0  1  0.73370499  0.86210471  0.88439293  1
  Cs  Cs1  1  0.23370499  0.63789529  0.61560707  1
  Cs  Cs2  1  0.26629501  0.13789529  0.11560707  1
  Cs  Cs3  1  0.76629501  0.36210471  0.38439293  1
  La  La4  1  0.31250939  0.86848767  0.36381573  1
  La  La5  1  0.81250939  0.63151233  0.13618427  1
  La  La6  1  0.18749061  0.36848767  0.86381573  1
  La  La7  1  0.68749061  0.13151233  0.63618427  1
  S  S8  1  0.73610984  0.45399858  0.75423858  1
  S  S9  1  0.24449006  0.17371231  0.52136642  1
  S  S10  1  0.74449006  0.32628769  0.97863358  1
  S  S11  1  0.23610984  0.04600142  0.74576142  1
  S  S12  1  0.26389016  0.54600142  0.24576142  1
  S  S13  1  0.25550994  0.67371231  0.02136642  1
  S  S14  1  0.76389016  0.95399858  0.25423858  1
  S  S15  1  0.75550994  0.82628769  0.47863358  1
  O  O16  1  0.56206232  0.70178181  0.46242674  1
  O  O17  1  0.71444500  0.44200542  0.66888864  1
  O  O18  1  0.77664316  0.86402589  0.56264082  1
  O  O19  1  0.48932232  0.47963284  0.21097800  1
  O  O20  1  0.21444500  0.05799458  0.83111136  1
  O  O21  1  0.94660053  0.55854678  0.77764062  1
  O  O22  1  0.28555500  0.55799458  0.33111136  1
  O  O23  1  0.68567404  0.97598837  0.43666419  1
  O  O24  1  0.99231537  0.76154525  0.44995091  1
  O  O25  1  0.22335684  0.13597411  0.43735918  1
  O  O26  1  0.78555500  0.94200542  0.16888864  1
  O  O27  1  0.18567404  0.52401163  0.06333581  1
  O  O28  1  0.78614868  0.28259470  0.78115419  1
  O  O29  1  0.27664316  0.63597411  0.93735918  1
  O  O30  1  0.44660053  0.94145322  0.72235938  1
  O  O31  1  0.21385132  0.71740530  0.21884581  1
  O  O32  1  0.00768463  0.23845475  0.55004909  1
  O  O33  1  0.93793768  0.20178181  0.96242674  1
  O  O34  1  0.05339947  0.44145322  0.22235938  1
  O  O35  1  0.31432596  0.02401163  0.56333581  1
  O  O36  1  0.98932232  0.02036716  0.28902200  1
  O  O37  1  0.28614868  0.21740530  0.71884581  1
  O  O38  1  0.81432596  0.47598837  0.93666419  1
  O  O39  1  0.43793768  0.29821819  0.53757326  1
  O  O40  1  0.71385132  0.78259470  0.28115419  1
  O  O41  1  0.51067768  0.52036716  0.78902200  1
  O  O42  1  0.49231537  0.73845475  0.05004909  1
  O  O43  1  0.06206232  0.79821819  0.03757326  1
  O  O44  1  0.50768463  0.26154525  0.94995091  1
  O  O45  1  0.01067768  0.97963284  0.71097800  1
  O  O46  1  0.55339947  0.05854678  0.27764062  1
  O  O47  1  0.72335684  0.36402589  0.06264082  1
