# generated using pymatgen
data_K2SbPO6
_symmetry_space_group_name_H-M   'P 1'
_cell_length_a   5.98601024
_cell_length_b   9.57660046
_cell_length_c   11.25444063
_cell_angle_alpha   90.00000000
_cell_angle_beta   90.00000000
_cell_angle_gamma   90.00000000
_symmetry_Int_Tables_number   1
_chemical_formula_structural   K2SbPO6
_chemical_formula_sum   'K8 Sb4 P4 O24'
_cell_volume   645.16788161
_cell_formula_units_Z   4
loop_
 _symmetry_equiv_pos_site_id
 _symmetry_equiv_pos_as_xyz
  1  'x, y, z'
loop_
 _atom_site_type_symbol
 _atom_site_label
 _atom_site_symmetry_multiplicity
 _atom_site_fract_x
 _atom_site_fract_y
 _atom_site_fract_z
 _atom_site_occupancy
  K  K0  1  0.25000000  0.61774435  0.83973441  1
  K  K1  1  0.25000000  0.67040222  0.19248751  1
  K  K2  1  0.25000000  0.17040222  0.30751249  1
  K  K3  1  0.25000000  0.11774435  0.66026559  1
  K  K4  1  0.75000000  0.32959778  0.80751249  1
  K  K5  1  0.75000000  0.82959778  0.69248751  1
  K  K6  1  0.75000000  0.88225565  0.33973441  1
  K  K7  1  0.75000000  0.38225565  0.16026559  1
  Sb  Sb8  1  0.00000000  0.50000000  0.50000000  1
  Sb  Sb9  1  0.50000000  0.00000000  0.00000000  1
  Sb  Sb10  1  0.50000000  0.50000000  0.50000000  1
  Sb  Sb11  1  0.00000000  0.00000000  0.00000000  1
  P  P12  1  0.75000000  0.69666832  0.00901551  1
  P  P13  1  0.25000000  0.80333168  0.50901551  1
  P  P14  1  0.75000000  0.19666832  0.49098449  1
  P  P15  1  0.25000000  0.30333168  0.99098449  1
  O  O16  1  0.46489613  0.71097934  0.47268219  1
  O  O17  1  0.75000000  0.03429683  0.88295116  1
  O  O18  1  0.25000000  0.96570317  0.11704884  1
  O  O19  1  0.75000000  0.16969251  0.35791671  1
  O  O20  1  0.75000000  0.57014962  0.92784945  1
  O  O21  1  0.96489613  0.78902066  0.97268219  1
  O  O22  1  0.25000000  0.33030749  0.85791671  1
  O  O23  1  0.25000000  0.42985038  0.07215055  1
  O  O24  1  0.75000000  0.66969251  0.14208329  1
  O  O25  1  0.25000000  0.83030749  0.64208329  1
  O  O26  1  0.75000000  0.49968830  0.38243118  1
  O  O27  1  0.75000000  0.07014962  0.57215055  1
  O  O28  1  0.96489613  0.28902066  0.52731781  1
  O  O29  1  0.75000000  0.99968830  0.11756882  1
  O  O30  1  0.25000000  0.00031170  0.88243118  1
  O  O31  1  0.46489613  0.21097934  0.02731781  1
  O  O32  1  0.25000000  0.46570317  0.38295116  1
  O  O33  1  0.25000000  0.50031170  0.61756882  1
  O  O34  1  0.03510387  0.71097934  0.47268219  1
  O  O35  1  0.25000000  0.92985038  0.42784945  1
  O  O36  1  0.53510387  0.28902066  0.52731781  1
  O  O37  1  0.03510387  0.21097934  0.02731781  1
  O  O38  1  0.53510387  0.78902066  0.97268219  1
  O  O39  1  0.75000000  0.53429683  0.61704884  1
