# generated using pymatgen
data_Na3Mn4(TeO6)2
_symmetry_space_group_name_H-M   'P 1'
_cell_length_a   9.35416098
_cell_length_b   9.61633181
_cell_length_c   11.21181009
_cell_angle_alpha   90.00000000
_cell_angle_beta   90.00000000
_cell_angle_gamma   90.00000000
_symmetry_Int_Tables_number   1
_chemical_formula_structural   Na3Mn4(TeO6)2
_chemical_formula_sum   'Na12 Mn16 Te8 O48'
_cell_volume   1008.53276649
_cell_formula_units_Z   4
loop_
 _symmetry_equiv_pos_site_id
 _symmetry_equiv_pos_as_xyz
  1  'x, y, z'
loop_
 _atom_site_type_symbol
 _atom_site_label
 _atom_site_symmetry_multiplicity
 _atom_site_fract_x
 _atom_site_fract_y
 _atom_site_fract_z
 _atom_site_occupancy
  Na  Na0  1  0.08251738  0.75212468  0.35399218  1
  Na  Na1  1  0.58251738  0.24787532  0.64600782  1
  Na  Na2  1  0.25000000  0.23800015  0.65498263  1
  Na  Na3  1  0.41748262  0.75212468  0.35399218  1
  Na  Na4  1  0.75000000  0.26199985  0.15498263  1
  Na  Na5  1  0.91748262  0.74787532  0.85399218  1
  Na  Na6  1  0.41748262  0.25212468  0.14600782  1
  Na  Na7  1  0.08251738  0.25212468  0.14600782  1
  Na  Na8  1  0.25000000  0.73800015  0.84501737  1
  Na  Na9  1  0.58251738  0.74787532  0.85399218  1
  Na  Na10  1  0.75000000  0.76199985  0.34501737  1
  Na  Na11  1  0.91748262  0.24787532  0.64600782  1
  Mn  Mn12  1  0.91331456  0.57006955  0.61240692  1
  Mn  Mn13  1  0.91331456  0.07006955  0.88759308  1
  Mn  Mn14  1  0.08310342  0.41596793  0.89216237  1
  Mn  Mn15  1  0.41331456  0.42993045  0.38759308  1
  Mn  Mn16  1  0.58310342  0.08403207  0.39216237  1
  Mn  Mn17  1  0.58668544  0.07006955  0.88759308  1
  Mn  Mn18  1  0.91689658  0.08403207  0.39216237  1
  Mn  Mn19  1  0.08668544  0.42993045  0.38759308  1
  Mn  Mn20  1  0.58310342  0.58403207  0.10783763  1
  Mn  Mn21  1  0.41331456  0.92993045  0.11240692  1
  Mn  Mn22  1  0.08310342  0.91596793  0.60783763  1
  Mn  Mn23  1  0.91689658  0.58403207  0.10783763  1
  Mn  Mn24  1  0.08668544  0.92993045  0.11240692  1
  Mn  Mn25  1  0.41689658  0.91596793  0.60783763  1
  Mn  Mn26  1  0.58668544  0.57006955  0.61240692  1
  Mn  Mn27  1  0.41689658  0.41596793  0.89216237  1
  Te  Te28  1  0.75000000  0.44287849  0.38409884  1
  Te  Te29  1  0.25000000  0.58367620  0.10332095  1
  Te  Te30  1  0.75000000  0.91632380  0.60332095  1
  Te  Te31  1  0.25000000  0.05712151  0.88409884  1
  Te  Te32  1  0.75000000  0.94287849  0.11590116  1
  Te  Te33  1  0.25000000  0.08367620  0.39667905  1
  Te  Te34  1  0.75000000  0.41632380  0.89667905  1
  Te  Te35  1  0.25000000  0.55712151  0.61590116  1
  O  O36  1  0.09300058  0.62607491  0.99198582  1
  O  O37  1  0.25000000  0.89718429  0.47307488  1
  O  O38  1  0.75000000  0.01323491  0.28363675  1
  O  O39  1  0.09658025  0.42380994  0.58297267  1
  O  O40  1  0.59658025  0.07619006  0.08297267  1
  O  O41  1  0.40699942  0.12607491  0.50801418  1
  O  O42  1  0.90341975  0.57619006  0.41702733  1
  O  O43  1  0.90699942  0.37392509  0.00801418  1
  O  O44  1  0.75000000  0.41198675  0.55741529  1
  O  O45  1  0.75000000  0.51323491  0.21636325  1
  O  O46  1  0.90418222  0.47322991  0.78798810  1
  O  O47  1  0.40418222  0.52677009  0.21201190  1
  O  O48  1  0.25000000  0.98676509  0.71636325  1
  O  O49  1  0.40418222  0.02677009  0.28798810  1
  O  O50  1  0.75000000  0.22550207  0.83370749  1
  O  O51  1  0.59300058  0.87392509  0.49198582  1
  O  O52  1  0.90341975  0.07619006  0.08297267  1
  O  O53  1  0.59581778  0.97322991  0.71201190  1
  O  O54  1  0.25000000  0.58801325  0.44258471  1
  O  O55  1  0.60123170  0.30570863  0.34391584  1
  O  O56  1  0.39876830  0.19429137  0.84391584  1
  O  O57  1  0.40699942  0.62607491  0.99198582  1
  O  O58  1  0.25000000  0.39718429  0.02692512  1
  O  O59  1  0.90699942  0.87392509  0.49198582  1
  O  O60  1  0.09581778  0.52677009  0.21201190  1
  O  O61  1  0.25000000  0.27449793  0.33370749  1
  O  O62  1  0.40341975  0.42380994  0.58297267  1
  O  O63  1  0.39876830  0.69429137  0.65608416  1
  O  O64  1  0.59581778  0.47322991  0.78798810  1
  O  O65  1  0.59658025  0.57619006  0.41702733  1
  O  O66  1  0.09581778  0.02677009  0.28798810  1
  O  O67  1  0.25000000  0.48676509  0.78363675  1
  O  O68  1  0.90418222  0.97322991  0.71201190  1
  O  O69  1  0.09658025  0.92380994  0.91702733  1
  O  O70  1  0.75000000  0.72550207  0.66629251  1
  O  O71  1  0.75000000  0.60281571  0.97307488  1
  O  O72  1  0.89876830  0.80570863  0.15608416  1
  O  O73  1  0.09300058  0.12607491  0.50801418  1
  O  O74  1  0.10123170  0.19429137  0.84391584  1
  O  O75  1  0.40341975  0.92380994  0.91702733  1
  O  O76  1  0.25000000  0.77449793  0.16629251  1
  O  O77  1  0.75000000  0.91198675  0.94258471  1
  O  O78  1  0.25000000  0.08801325  0.05741529  1
  O  O79  1  0.10123170  0.69429137  0.65608416  1
  O  O80  1  0.75000000  0.10281571  0.52692512  1
  O  O81  1  0.89876830  0.30570863  0.34391584  1
  O  O82  1  0.60123170  0.80570863  0.15608416  1
  O  O83  1  0.59300058  0.37392509  0.00801418  1
