# generated using pymatgen
data_Na3Li3Fe2F12
_symmetry_space_group_name_H-M   'P 1'
_cell_length_a   10.90553724
_cell_length_b   10.90553723
_cell_length_c   10.90553723
_cell_angle_alpha   109.47122065
_cell_angle_beta   109.47122064
_cell_angle_gamma   109.47122062
_symmetry_Int_Tables_number   1
_chemical_formula_structural   Na3Li3Fe2F12
_chemical_formula_sum   'Na12 Li12 Fe8 F48'
_cell_volume   998.43386624
_cell_formula_units_Z   4
loop_
 _symmetry_equiv_pos_site_id
 _symmetry_equiv_pos_as_xyz
  1  'x, y, z'
loop_
 _atom_site_type_symbol
 _atom_site_label
 _atom_site_symmetry_multiplicity
 _atom_site_fract_x
 _atom_site_fract_y
 _atom_site_fract_z
 _atom_site_occupancy
  Li  Li0  1  0.25000000  0.62500000  0.37500000  1
  Li  Li1  1  0.87500000  0.25000000  0.12500000  1
  Li  Li2  1  0.12500000  0.75000000  0.87500000  1
  Li  Li3  1  0.87500000  0.12500000  0.75000000  1
  Li  Li4  1  0.62500000  0.37500000  0.25000000  1
  Li  Li5  1  0.75000000  0.87500000  0.12500000  1
  Li  Li6  1  0.12500000  0.87500000  0.25000000  1
  Li  Li7  1  0.37500000  0.62500000  0.75000000  1
  Li  Li8  1  0.62500000  0.75000000  0.37500000  1
  Li  Li9  1  0.75000000  0.37500000  0.62500000  1
  Li  Li10  1  0.25000000  0.12500000  0.87500000  1
  Li  Li11  1  0.37500000  0.25000000  0.62500000  1
  F  F12  1  0.80688273  0.42323994  0.82527854  1
  F  F13  1  0.51839581  0.40203860  0.82527854  1
  F  F14  1  0.67472146  0.07676006  0.69311727  1
  F  F15  1  0.42323994  0.09796140  0.61635721  1
  F  F16  1  0.82527854  0.51839581  0.40203860  1
  F  F17  1  0.40203860  0.07676006  0.88364279  1
  F  F18  1  0.09796140  0.98160419  0.67472146  1
  F  F19  1  0.42323994  0.82527854  0.80688273  1
  F  F20  1  0.07676006  0.69311727  0.67472146  1
  F  F21  1  0.98160419  0.80688273  0.88364279  1
  F  F22  1  0.88364279  0.98160419  0.80688273  1
  F  F23  1  0.40203860  0.82527854  0.51839581  1
  F  F24  1  0.61635721  0.69311727  0.51839581  1
  F  F25  1  0.09796140  0.61635721  0.42323994  1
  F  F26  1  0.51839581  0.61635721  0.69311727  1
  F  F27  1  0.69311727  0.67472146  0.07676006  1
  F  F28  1  0.69311727  0.51839581  0.61635721  1
  F  F29  1  0.61635721  0.42323994  0.09796140  1
  F  F30  1  0.67472146  0.09796140  0.98160419  1
  F  F31  1  0.07676006  0.88364279  0.40203860  1
  F  F32  1  0.19311727  0.11635721  0.01839581  1
  F  F33  1  0.11635721  0.59796140  0.92323994  1
  F  F34  1  0.17472146  0.19311727  0.57676006  1
  F  F35  1  0.57676006  0.17472146  0.19311727  1
  F  F36  1  0.01839581  0.32527854  0.90203860  1
  F  F37  1  0.90203860  0.01839581  0.32527854  1
  F  F38  1  0.59796140  0.92323994  0.11635721  1
  F  F39  1  0.17472146  0.48160419  0.59796140  1
  F  F40  1  0.57676006  0.90203860  0.38364279  1
  F  F41  1  0.32527854  0.92323994  0.30688273  1
  F  F42  1  0.48160419  0.59796140  0.17472146  1
  F  F43  1  0.38364279  0.57676006  0.90203860  1
  F  F44  1  0.92323994  0.30688273  0.32527854  1
  F  F45  1  0.01839581  0.19311727  0.11635721  1
  F  F46  1  0.11635721  0.01839581  0.19311727  1
  F  F47  1  0.59796140  0.17472146  0.48160419  1
  F  F48  1  0.38364279  0.30688273  0.48160419  1
  F  F49  1  0.90203860  0.38364279  0.57676006  1
  F  F50  1  0.48160419  0.38364279  0.30688273  1
  F  F51  1  0.30688273  0.32527854  0.92323994  1
  F  F52  1  0.30688273  0.48160419  0.38364279  1
  F  F53  1  0.32527854  0.90203860  0.01839581  1
  F  F54  1  0.92323994  0.11635721  0.59796140  1
  F  F55  1  0.19311727  0.57676006  0.17472146  1
  F  F56  1  0.80688273  0.88364279  0.98160419  1
  F  F57  1  0.88364279  0.40203860  0.07676006  1
  F  F58  1  0.82527854  0.80688273  0.42323994  1
  F  F59  1  0.98160419  0.67472146  0.09796140  1
  Na  Na60  1  0.62500000  0.87500000  0.75000000  1
  Na  Na61  1  0.87500000  0.62500000  0.25000000  1
  Na  Na62  1  0.62500000  0.25000000  0.87500000  1
  Na  Na63  1  0.25000000  0.87500000  0.62500000  1
  Na  Na64  1  0.75000000  0.62500000  0.87500000  1
  Na  Na65  1  0.87500000  0.75000000  0.62500000  1
  Na  Na66  1  0.37500000  0.12500000  0.25000000  1
  Na  Na67  1  0.12500000  0.37500000  0.75000000  1
  Na  Na68  1  0.37500000  0.75000000  0.12500000  1
  Na  Na69  1  0.75000000  0.12500000  0.37500000  1
  Na  Na70  1  0.12500000  0.25000000  0.37500000  1
  Na  Na71  1  0.25000000  0.37500000  0.12500000  1
  Fe  Fe72  1  0.50000000  0.50000000  0.50000000  1
  Fe  Fe73  1  0.50000000  0.50000000  0.00000000  1
  Fe  Fe74  1  0.50000000  0.00000000  0.50000000  1
  Fe  Fe75  1  0.00000000  0.50000000  0.50000000  1
  Fe  Fe76  1  0.50000000  0.00000000  0.00000000  1
  Fe  Fe77  1  0.00000000  0.00000000  0.50000000  1
  Fe  Fe78  1  0.00000000  0.50000000  0.00000000  1
  Fe  Fe79  1  0.00000000  0.00000000  0.00000000  1
