# generated using pymatgen
data_Na2SrVP2O9
_symmetry_space_group_name_H-M   'P 1'
_cell_length_a   6.72136202
_cell_length_b   10.38060364
_cell_length_c   10.80425317
_cell_angle_alpha   90.00000000
_cell_angle_beta   90.00000000
_cell_angle_gamma   90.00000000
_symmetry_Int_Tables_number   1
_chemical_formula_structural   Na2SrVP2O9
_chemical_formula_sum   'Na8 Sr4 V4 P8 O36'
_cell_volume   753.83213785
_cell_formula_units_Z   4
loop_
 _symmetry_equiv_pos_site_id
 _symmetry_equiv_pos_as_xyz
  1  'x, y, z'
loop_
 _atom_site_type_symbol
 _atom_site_label
 _atom_site_symmetry_multiplicity
 _atom_site_fract_x
 _atom_site_fract_y
 _atom_site_fract_z
 _atom_site_occupancy
  Na  Na0  1  0.99990013  0.36531572  0.78271432  1
  Na  Na1  1  0.99990013  0.13468428  0.28271432  1
  Na  Na2  1  0.50009987  0.13468428  0.28271432  1
  Na  Na3  1  0.50009987  0.36531572  0.78271432  1
  Na  Na4  1  0.49990013  0.63468428  0.21728568  1
  Na  Na5  1  0.00009987  0.86531572  0.71728568  1
  Na  Na6  1  0.00009987  0.63468428  0.21728568  1
  Na  Na7  1  0.49990013  0.86531572  0.71728568  1
  Sr  Sr8  1  0.75000000  0.09559544  0.94271944  1
  Sr  Sr9  1  0.25000000  0.59559544  0.55728056  1
  Sr  Sr10  1  0.75000000  0.40440456  0.44271944  1
  Sr  Sr11  1  0.25000000  0.90440456  0.05728056  1
  V  V12  1  0.25000000  0.18781710  0.52818270  1
  V  V13  1  0.75000000  0.68781710  0.97181730  1
  V  V14  1  0.25000000  0.31218290  0.02818270  1
  V  V15  1  0.75000000  0.81218290  0.47181730  1
  P  P16  1  0.75000000  0.36827425  0.08648886  1
  P  P17  1  0.25000000  0.41490417  0.31610724  1
  P  P18  1  0.75000000  0.13172575  0.58648886  1
  P  P19  1  0.25000000  0.08509583  0.81610724  1
  P  P20  1  0.75000000  0.58509583  0.68389276  1
  P  P21  1  0.75000000  0.91490417  0.18389276  1
  P  P22  1  0.25000000  0.86827425  0.41351114  1
  P  P23  1  0.25000000  0.63172575  0.91351114  1
  O  O24  1  0.75000000  0.51734322  0.09565164  1
  O  O25  1  0.75000000  0.56915108  0.82748476  1
  O  O26  1  0.25000000  0.80299087  0.28481687  1
  O  O27  1  0.93327455  0.51514644  0.63138871  1
  O  O28  1  0.06672545  0.48485356  0.36861129  1
  O  O29  1  0.75000000  0.73018095  0.64741055  1
  O  O30  1  0.93463624  0.31920124  0.00801938  1
  O  O31  1  0.56672545  0.98485356  0.13138871  1
  O  O32  1  0.06536376  0.81920124  0.49198062  1
  O  O33  1  0.43463624  0.81920124  0.49198062  1
  O  O34  1  0.56536376  0.31920124  0.00801938  1
  O  O35  1  0.93463624  0.18079876  0.50801938  1
  O  O36  1  0.75000000  0.98265678  0.59565164  1
  O  O37  1  0.25000000  0.32749699  0.60345402  1
  O  O38  1  0.25000000  0.23018095  0.85258945  1
  O  O39  1  0.25000000  0.43084892  0.17251524  1
  O  O40  1  0.25000000  0.06915108  0.67251524  1
  O  O41  1  0.25000000  0.26981905  0.35258945  1
  O  O42  1  0.43463624  0.68079876  0.99198062  1
  O  O43  1  0.75000000  0.93084892  0.32748476  1
  O  O44  1  0.06536376  0.68079876  0.99198062  1
  O  O45  1  0.06672545  0.01514644  0.86861129  1
  O  O46  1  0.25000000  0.48265678  0.90434836  1
  O  O47  1  0.43327455  0.01514644  0.86861129  1
  O  O48  1  0.75000000  0.67250301  0.39654598  1
  O  O49  1  0.25000000  0.69700913  0.78481687  1
  O  O50  1  0.75000000  0.30299087  0.21518313  1
  O  O51  1  0.93327455  0.98485356  0.13138871  1
  O  O52  1  0.75000000  0.76981905  0.14741055  1
  O  O53  1  0.75000000  0.19700913  0.71518313  1
  O  O54  1  0.75000000  0.82749699  0.89654598  1
  O  O55  1  0.25000000  0.01734322  0.40434836  1
  O  O56  1  0.43327455  0.48485356  0.36861129  1
  O  O57  1  0.56672545  0.51514644  0.63138871  1
  O  O58  1  0.25000000  0.17250301  0.10345402  1
  O  O59  1  0.56536376  0.18079876  0.50801938  1
