# generated using pymatgen
data_K5In(MoO4)4
_symmetry_space_group_name_H-M   'P 1'
_cell_length_a   9.67587507
_cell_length_b   9.67587528
_cell_length_c   10.72814879
_cell_angle_alpha   71.82441468
_cell_angle_beta   71.82441429
_cell_angle_gamma   79.10671958
_symmetry_Int_Tables_number   1
_chemical_formula_structural   K5In(MoO4)4
_chemical_formula_sum   'K10 In2 Mo8 O32'
_cell_volume   901.98038486
_cell_formula_units_Z   2
loop_
 _symmetry_equiv_pos_site_id
 _symmetry_equiv_pos_as_xyz
  1  'x, y, z'
loop_
 _atom_site_type_symbol
 _atom_site_label
 _atom_site_symmetry_multiplicity
 _atom_site_fract_x
 _atom_site_fract_y
 _atom_site_fract_z
 _atom_site_occupancy
  K  K0  1  0.34240341  0.07584849  0.42545908  1
  K  K1  1  0.18148278  0.38231050  0.56018765  1
  K  K2  1  0.81627455  0.61594958  0.43416025  1
  K  K3  1  0.61594958  0.81627455  0.93416025  1
  K  K4  1  0.66256246  0.92271191  0.56811531  1
  K  K5  1  0.92271191  0.66256246  0.06811531  1
  K  K6  1  0.07584849  0.34240341  0.92545908  1
  K  K7  1  0.38231050  0.18148278  0.06018765  1
  K  K8  1  0.60949928  0.39107286  0.24699665  1
  K  K9  1  0.39107286  0.60949928  0.74699665  1
  In  In10  1  0.88476712  0.11502714  0.74754265  1
  In  In11  1  0.11502714  0.88476712  0.24754265  1
  Mo  Mo12  1  0.78214894  0.04417019  0.12872429  1
  Mo  Mo13  1  0.53035066  0.26226739  0.65737308  1
  Mo  Mo14  1  0.21902578  0.95450278  0.86470385  1
  Mo  Mo15  1  0.95450278  0.21902578  0.36470385  1
  Mo  Mo16  1  0.46784560  0.73657325  0.33847395  1
  Mo  Mo17  1  0.26226739  0.53035066  0.15737308  1
  Mo  Mo18  1  0.73657325  0.46784560  0.83847395  1
  Mo  Mo19  1  0.04417019  0.78214894  0.62872429  1
  O  O20  1  0.21051689  0.47888527  0.03333911  1
  O  O21  1  0.38282201  0.57301667  0.41911859  1
  O  O22  1  0.52184762  0.78747790  0.46165448  1
  O  O23  1  0.06187290  0.59303055  0.71489770  1
  O  O24  1  0.63319108  0.70018974  0.21290774  1
  O  O25  1  0.70018974  0.63319108  0.71290774  1
  O  O26  1  0.40808022  0.93665160  0.77792125  1
  O  O27  1  0.93665160  0.40808022  0.27792125  1
  O  O28  1  0.42708826  0.61322440  0.07700522  1
  O  O29  1  0.88937661  0.90033993  0.22858238  1
  O  O30  1  0.57301667  0.38282201  0.91911859  1
  O  O31  1  0.99119157  0.19706002  0.52825997  1
  O  O32  1  0.80512154  0.00468738  0.96620716  1
  O  O33  1  0.47888527  0.21051689  0.53333911  1
  O  O34  1  0.61322440  0.42708826  0.57700522  1
  O  O35  1  0.84816739  0.21261657  0.09402543  1
  O  O36  1  0.90033993  0.88937661  0.72858238  1
  O  O37  1  0.09844177  0.11111504  0.26565342  1
  O  O38  1  0.12222367  0.66372283  0.23338842  1
  O  O39  1  0.66372283  0.12222367  0.73338842  1
  O  O40  1  0.59303055  0.06187290  0.21489770  1
  O  O41  1  0.78747790  0.52184762  0.96165448  1
  O  O42  1  0.33531552  0.87831184  0.26288620  1
  O  O43  1  0.87831184  0.33531552  0.76288620  1
  O  O44  1  0.00468738  0.80512154  0.46620716  1
  O  O45  1  0.11111504  0.09844177  0.76565342  1
  O  O46  1  0.19706002  0.99119157  0.02825997  1
  O  O47  1  0.78632358  0.15319034  0.39775499  1
  O  O48  1  0.36394042  0.29710420  0.78258120  1
  O  O49  1  0.21261657  0.84816739  0.59402543  1
  O  O50  1  0.15319034  0.78632358  0.89775499  1
  O  O51  1  0.29710420  0.36394042  0.28258120  1
