# generated using pymatgen
data_Eu3OsO7
_symmetry_space_group_name_H-M   'P 1'
_cell_length_a   6.63457404
_cell_length_b   6.63457404
_cell_length_c   7.54007783
_cell_angle_alpha   90.00000000
_cell_angle_beta   90.00000000
_cell_angle_gamma   110.32159784
_symmetry_Int_Tables_number   1
_chemical_formula_structural   Eu3OsO7
_chemical_formula_sum   'Eu6 Os2 O14'
_cell_volume   311.23808714
_cell_formula_units_Z   2
loop_
 _symmetry_equiv_pos_site_id
 _symmetry_equiv_pos_as_xyz
  1  'x, y, z'
loop_
 _atom_site_type_symbol
 _atom_site_label
 _atom_site_symmetry_multiplicity
 _atom_site_fract_x
 _atom_site_fract_y
 _atom_site_fract_z
 _atom_site_occupancy
  Eu  Eu0  1  -0.00000000  -0.00000000  0.00000000  1
  Eu  Eu1  1  -0.00000000  -0.00000000  0.50000000  1
  Eu  Eu2  1  0.51482659  0.04590581  0.24999900  1
  Eu  Eu3  1  0.48517241  0.95409319  0.75000000  1
  Eu  Eu4  1  0.95409319  0.48517241  0.75000000  1
  Eu  Eu5  1  0.04590581  0.51482659  0.24999900  1
  Os  Os6  1  0.50000000  0.50000000  0.00000000  1
  Os  Os7  1  0.50000000  0.50000000  0.50000000  1
  O  O8  1  0.44945534  0.44945534  0.24999900  1
  O  O9  1  0.55054366  0.55054366  0.75000000  1
  O  O10  1  0.14970364  0.88267821  0.24999900  1
  O  O11  1  0.85029836  0.11732379  0.75000000  1
  O  O12  1  0.11732379  0.85029836  0.75000000  1
  O  O13  1  0.88267821  0.14970364  0.24999900  1
  O  O14  1  0.44406967  0.19574071  0.97217655  1
  O  O15  1  0.55593133  0.80426029  0.47217755  1
  O  O16  1  0.80426029  0.55593133  0.02782245  1
  O  O17  1  0.19574071  0.44406967  0.52782245  1
  O  O18  1  0.55593133  0.80426029  0.02782245  1
  O  O19  1  0.44406967  0.19574071  0.52782245  1
  O  O20  1  0.19574071  0.44406967  0.97217655  1
  O  O21  1  0.80426029  0.55593133  0.47217755  1
