# generated using pymatgen
data_K2Ni2(MoO4)3
_symmetry_space_group_name_H-M   'P 1'
_cell_length_a   7.05872218
_cell_length_b   9.10349500
_cell_length_c   19.14917854
_cell_angle_alpha   90.00000000
_cell_angle_beta   92.45234021
_cell_angle_gamma   90.00000000
_symmetry_Int_Tables_number   1
_chemical_formula_structural   K2Ni2(MoO4)3
_chemical_formula_sum   'K8 Ni8 Mo12 O48'
_cell_volume   1229.38092104
_cell_formula_units_Z   4
loop_
 _symmetry_equiv_pos_site_id
 _symmetry_equiv_pos_as_xyz
  1  'x, y, z'
loop_
 _atom_site_type_symbol
 _atom_site_label
 _atom_site_symmetry_multiplicity
 _atom_site_fract_x
 _atom_site_fract_y
 _atom_site_fract_z
 _atom_site_occupancy
  K  K0  1  0.26973027  0.48932806  0.77257372  1
  K  K1  1  0.78150092  0.95557573  0.59366405  1
  K  K2  1  0.76973027  0.01067194  0.27257372  1
  K  K3  1  0.21849908  0.04442427  0.40633595  1
  K  K4  1  0.73026973  0.51067194  0.22742628  1
  K  K5  1  0.28150092  0.54442427  0.09366405  1
  K  K6  1  0.71849908  0.45557573  0.90633595  1
  K  K7  1  0.23026973  0.98932806  0.72742628  1
  Ni  Ni8  1  0.08821754  0.65166240  0.36464744  1
  Ni  Ni9  1  0.86303624  0.07405850  0.94167656  1
  Ni  Ni10  1  0.41178246  0.15166240  0.13535256  1
  Ni  Ni11  1  0.58821754  0.84833760  0.86464744  1
  Ni  Ni12  1  0.91178246  0.34833760  0.63535256  1
  Ni  Ni13  1  0.13696376  0.92594150  0.05832344  1
  Ni  Ni14  1  0.36303624  0.42594150  0.44167656  1
  Ni  Ni15  1  0.63696376  0.57405850  0.55832344  1
  Mo  Mo16  1  0.90234334  0.23103046  0.09821518  1
  Mo  Mo17  1  0.72406648  0.15758306  0.77146599  1
  Mo  Mo18  1  0.87238435  0.33747499  0.46007276  1
  Mo  Mo19  1  0.37238435  0.16252501  0.96007276  1
  Mo  Mo20  1  0.59765666  0.73103046  0.40178482  1
  Mo  Mo21  1  0.22406648  0.34241694  0.27146599  1
  Mo  Mo22  1  0.40234334  0.26896954  0.59821518  1
  Mo  Mo23  1  0.12761565  0.66252501  0.53992724  1
  Mo  Mo24  1  0.62761565  0.83747499  0.03992724  1
  Mo  Mo25  1  0.77593352  0.65758306  0.72853401  1
  Mo  Mo26  1  0.27593352  0.84241694  0.22853401  1
  Mo  Mo27  1  0.09765666  0.76896954  0.90178482  1
  O  O28  1  0.61879158  0.37999190  0.61221935  1
  O  O29  1  0.60623357  0.98223597  0.77900123  1
  O  O30  1  0.86262921  0.19356056  0.85140439  1
  O  O31  1  0.92924436  0.54310317  0.56603606  1
  O  O32  1  0.70309637  0.16502619  0.14554101  1
  O  O33  1  0.37526257  0.33754016  0.19600847  1
  O  O34  1  0.65147264  0.44368976  0.46256613  1
  O  O35  1  0.34587389  0.29802585  0.89616450  1
  O  O36  1  0.84476658  0.25160631  0.00575164  1
  O  O37  1  0.38120842  0.62000810  0.38778065  1
  O  O38  1  0.07075564  0.45689683  0.43396394  1
  O  O39  1  0.57075564  0.04310317  0.93396394  1
  O  O40  1  0.45570768  0.09031113  0.62773400  1
  O  O41  1  0.34852736  0.55631024  0.53743387  1
  O  O42  1  0.13737079  0.80643944  0.14859561  1
  O  O43  1  0.65523342  0.75160631  0.49424836  1
  O  O44  1  0.63737079  0.69356056  0.64859561  1
  O  O45  1  0.54712549  0.29330448  0.76300818  1
  O  O46  1  0.12473743  0.83754016  0.30399153  1
  O  O47  1  0.15412611  0.79802585  0.60383550  1
  O  O48  1  0.29690363  0.83497381  0.85445899  1
  O  O49  1  0.10623357  0.51776403  0.27900123  1
  O  O50  1  0.04429232  0.59031113  0.87226600  1
  O  O51  1  0.58511391  0.73587320  0.96012607  1
  O  O52  1  0.88120842  0.87999190  0.88778065  1
  O  O53  1  0.08511391  0.76412680  0.46012607  1
  O  O54  1  0.95287451  0.79330448  0.73699182  1
  O  O55  1  0.34476658  0.24839369  0.50575164  1
  O  O56  1  0.54429232  0.90968887  0.37226600  1
  O  O57  1  0.39376643  0.01776403  0.22099877  1
  O  O58  1  0.42924436  0.95689683  0.06603606  1
  O  O59  1  0.65412611  0.70197415  0.10383550  1
  O  O60  1  0.95570768  0.40968887  0.12773400  1
  O  O61  1  0.15523342  0.74839369  0.99424836  1
  O  O62  1  0.45287451  0.70669552  0.23699182  1
  O  O63  1  0.79690363  0.66502619  0.35445899  1
  O  O64  1  0.91488609  0.23587320  0.53987393  1
  O  O65  1  0.36262921  0.30643944  0.35140439  1
  O  O66  1  0.84587389  0.20197415  0.39616450  1
  O  O67  1  0.11879158  0.12000810  0.11221935  1
  O  O68  1  0.84852736  0.94368976  0.03743387  1
  O  O69  1  0.87526257  0.16245984  0.69600847  1
  O  O70  1  0.04712549  0.20669552  0.26300818  1
  O  O71  1  0.15147264  0.05631024  0.96256613  1
  O  O72  1  0.89376643  0.48223597  0.72099877  1
  O  O73  1  0.62473743  0.66245984  0.80399153  1
  O  O74  1  0.41488609  0.26412680  0.03987393  1
  O  O75  1  0.20309637  0.33497381  0.64554101  1
