# generated using pymatgen
data_Mn2O3
_symmetry_space_group_name_H-M   'P 1'
_cell_length_a   9.59898265
_cell_length_b   9.61929216
_cell_length_c   9.62191805
_cell_angle_alpha   90.00000000
_cell_angle_beta   90.00000000
_cell_angle_gamma   90.00000000
_symmetry_Int_Tables_number   1
_chemical_formula_structural   Mn2O3
_chemical_formula_sum   'Mn32 O48'
_cell_volume   888.44383039
_cell_formula_units_Z   16
loop_
 _symmetry_equiv_pos_site_id
 _symmetry_equiv_pos_as_xyz
  1  'x, y, z'
loop_
 _atom_site_type_symbol
 _atom_site_label
 _atom_site_symmetry_multiplicity
 _atom_site_fract_x
 _atom_site_fract_y
 _atom_site_fract_z
 _atom_site_occupancy
  Mn  Mn0  1  0.75287411  0.28582353  0.49884047  1
  Mn  Mn1  1  0.00521856  0.24498966  0.28527793  1
  Mn  Mn2  1  0.50521856  0.25501034  0.71472207  1
  Mn  Mn3  1  0.24712589  0.78582353  1.00115953  1
  Mn  Mn4  1  0.00000000  0.00000000  0.50000000  1
  Mn  Mn5  1  0.25287411  0.28582353  1.00115953  1
  Mn  Mn6  1  0.50521856  0.24498966  0.21472207  1
  Mn  Mn7  1  0.00521856  0.25501034  0.78527793  1
  Mn  Mn8  1  0.74712589  0.78582353  0.49884047  1
  Mn  Mn9  1  0.24712589  0.71417647  0.50115953  1
  Mn  Mn10  1  0.00000000  0.00000000  0.00000000  1
  Mn  Mn11  1  0.49478144  0.74498966  0.28527793  1
  Mn  Mn12  1  0.75287411  0.21417647  -0.00115953  1
  Mn  Mn13  1  0.74712589  0.71417647  -0.00115953  1
  Mn  Mn14  1  0.28448849  0.99346101  0.25222781  1
  Mn  Mn15  1  0.28448849  0.50653899  0.75222781  1
  Mn  Mn16  1  0.21551151  0.49346101  0.25222781  1
  Mn  Mn17  1  0.78448849  0.50653899  0.74777219  1
  Mn  Mn18  1  0.99478144  0.75501034  0.71472207  1
  Mn  Mn19  1  0.99478144  0.74498966  0.21472207  1
  Mn  Mn20  1  0.71551151  0.49346101  0.24777219  1
  Mn  Mn21  1  0.00000000  0.50000000  0.00000000  1
  Mn  Mn22  1  0.00000000  0.50000000  0.50000000  1
  Mn  Mn23  1  0.21551151  0.00653899  0.75222781  1
  Mn  Mn24  1  0.78448849  0.99346101  0.24777219  1
  Mn  Mn25  1  0.50000000  0.50000000  0.00000000  1
  Mn  Mn26  1  0.71551151  0.00653899  0.74777219  1
  Mn  Mn27  1  0.50000000  0.00000000  0.00000000  1
  Mn  Mn28  1  0.25287411  0.21417647  0.50115953  1
  Mn  Mn29  1  0.49478144  0.75501034  0.78527793  1
  Mn  Mn30  1  0.50000000  0.50000000  0.50000000  1
  Mn  Mn31  1  0.50000000  0.00000000  0.50000000  1
  O  O32  1  0.86423774  0.64971324  0.58744375  1
  O  O33  1  0.59095813  0.13657623  0.85350578  1
  O  O34  1  0.86423774  0.85028676  0.08744375  1
  O  O35  1  0.87488081  0.35892644  0.91541021  1
  O  O36  1  0.35916155  0.08776224  0.62981082  1
  O  O37  1  0.91786748  0.12420151  0.14368370  1
  O  O38  1  0.40904187  0.63657623  0.64649422  1
  O  O39  1  0.35916155  0.41223776  0.12981082  1
  O  O40  1  0.14660709  0.41816622  0.87180951  1
  O  O41  1  0.58213252  0.62420151  0.14368370  1
  O  O42  1  0.85916155  0.41223776  0.37018918  1
  O  O43  1  0.13576226  0.35028676  0.41255625  1
  O  O44  1  0.09095813  0.36342377  0.14649422  1
  O  O45  1  0.14083845  0.91223776  0.12981082  1
  O  O46  1  0.85339291  0.91816622  0.62819049  1
  O  O47  1  0.14660709  0.08183378  0.37180951  1
  O  O48  1  0.64083845  0.58776224  0.87018918  1
  O  O49  1  0.90904187  0.86342377  0.35350578  1
  O  O50  1  0.09095813  0.13657623  0.64649422  1
  O  O51  1  0.63576226  0.35028676  0.08744375  1
  O  O52  1  0.64083845  0.91223776  0.37018918  1
  O  O53  1  0.87488081  0.14107356  0.41541021  1
  O  O54  1  0.08213252  0.62420151  0.35631630  1
  O  O55  1  0.58213252  0.87579849  0.64368370  1
  O  O56  1  0.35339291  0.58183378  0.37180951  1
  O  O57  1  0.35339291  0.91816622  0.87180951  1
  O  O58  1  0.85339291  0.58183378  0.12819049  1
  O  O59  1  0.90904187  0.63657623  0.85350578  1
  O  O60  1  0.41786748  0.12420151  0.35631630  1
  O  O61  1  0.14083845  0.58776224  0.62981082  1
  O  O62  1  0.63576226  0.14971324  0.58744375  1
  O  O63  1  0.85916155  0.08776224  0.87018918  1
  O  O64  1  0.12511919  0.85892644  0.58458979  1
  O  O65  1  0.62511919  0.64107356  0.41541021  1
  O  O66  1  0.62511919  0.85892644  0.91541021  1
  O  O67  1  0.37488081  0.35892644  0.58458979  1
  O  O68  1  0.64660709  0.08183378  0.12819049  1
  O  O69  1  0.40904187  0.86342377  0.14649422  1
  O  O70  1  0.59095813  0.36342377  0.35350578  1
  O  O71  1  0.91786748  0.37579849  0.64368370  1
  O  O72  1  0.13576226  0.14971324  0.91255625  1
  O  O73  1  0.41786748  0.37579849  0.85631630  1
  O  O74  1  0.36423774  0.85028676  0.41255625  1
  O  O75  1  0.12511919  0.64107356  0.08458979  1
  O  O76  1  0.37488081  0.14107356  0.08458979  1
  O  O77  1  0.64660709  0.41816622  0.62819049  1
  O  O78  1  0.08213252  0.87579849  0.85631630  1
  O  O79  1  0.36423774  0.64971324  0.91255625  1
