# generated using pymatgen
data_Nd3BWO9
_symmetry_space_group_name_H-M   'P 1'
_cell_length_a   8.79891796
_cell_length_b   8.79891811
_cell_length_c   5.59337370
_cell_angle_alpha   90.00000000
_cell_angle_beta   90.00000000
_cell_angle_gamma   119.99999556
_symmetry_Int_Tables_number   1
_chemical_formula_structural   Nd3BWO9
_chemical_formula_sum   'Nd6 B2 W2 O18'
_cell_volume   375.02742795
_cell_formula_units_Z   2
loop_
 _symmetry_equiv_pos_site_id
 _symmetry_equiv_pos_as_xyz
  1  'x, y, z'
loop_
 _atom_site_type_symbol
 _atom_site_label
 _atom_site_symmetry_multiplicity
 _atom_site_fract_x
 _atom_site_fract_y
 _atom_site_fract_z
 _atom_site_occupancy
  Nd  Nd0  1  0.72413742  0.64370449  0.20358338  1
  Nd  Nd1  1  0.08043393  0.72413742  0.70358338  1
  Nd  Nd2  1  0.35629551  0.08043393  0.20358338  1
  Nd  Nd3  1  0.91956607  0.27586258  0.20358338  1
  Nd  Nd4  1  0.64370449  0.91956607  0.70358338  1
  Nd  Nd5  1  0.27586258  0.35629551  0.70358338  1
  B  B6  1  0.00000000  0.00000000  0.36885133  1
  B  B7  1  0.00000000  0.00000000  0.86885133  1
  W  W8  1  0.66666700  0.33333300  0.74711279  1
  W  W9  1  0.33333300  0.66666700  0.24711279  1
  O  O10  1  0.17554867  0.04806119  0.86061968  1
  O  O11  1  0.79396265  0.53374524  0.54446436  1
  O  O12  1  0.12748748  0.17554867  0.36061968  1
  O  O13  1  0.73978260  0.20603735  0.54446436  1
  O  O14  1  0.13522424  0.51978218  0.47077821  1
  O  O15  1  0.61544206  0.13522424  0.97077821  1
  O  O16  1  0.26021740  0.79396265  0.04446436  1
  O  O17  1  0.95193881  0.12748748  0.86061968  1
  O  O18  1  0.20603735  0.46625476  0.04446436  1
  O  O19  1  0.86477576  0.48021782  0.97077821  1
  O  O20  1  0.87251252  0.82445133  0.86061968  1
  O  O21  1  0.53374524  0.73978260  0.04446436  1
  O  O22  1  0.51978218  0.38455794  0.97077821  1
  O  O23  1  0.38455794  0.86477576  0.47077821  1
  O  O24  1  0.04806119  0.87251252  0.36061968  1
  O  O25  1  0.48021782  0.61544206  0.47077821  1
  O  O26  1  0.46625476  0.26021740  0.54446436  1
  O  O27  1  0.82445133  0.95193881  0.36061968  1
