# generated using pymatgen
data_Ba2NiMoO6
_symmetry_space_group_name_H-M   'P 1'
_cell_length_a   5.78523272
_cell_length_b   5.78523238
_cell_length_c   5.78523216
_cell_angle_alpha   60.00011318
_cell_angle_beta   60.00015998
_cell_angle_gamma   60.00013844
_symmetry_Int_Tables_number   1
_chemical_formula_structural   Ba2NiMoO6
_chemical_formula_sum   'Ba2 Ni1 Mo1 O6'
_cell_volume   136.91429256
_cell_formula_units_Z   1
loop_
 _symmetry_equiv_pos_site_id
 _symmetry_equiv_pos_as_xyz
  1  'x, y, z'
loop_
 _atom_site_type_symbol
 _atom_site_label
 _atom_site_symmetry_multiplicity
 _atom_site_fract_x
 _atom_site_fract_y
 _atom_site_fract_z
 _atom_site_occupancy
  Ba  Ba0  1  0.74999972  0.75000023  0.75000011  1
  Ba  Ba1  1  0.24999860  0.24999948  0.24999903  1
  Ni  Ni2  1  0.00000908  0.99999967  1.00000012  1
  Mo  Mo3  1  0.49999958  0.49999966  0.49999958  1
  O  O4  1  0.26050618  0.26050731  0.73949211  1
  O  O5  1  0.73949124  0.26050797  0.73949278  1
  O  O6  1  0.73949083  0.26050708  0.26050743  1
  O  O7  1  0.73949148  0.73949239  0.26050792  1
  O  O8  1  0.26050627  0.73949157  0.26050744  1
  O  O9  1  0.26050702  0.73949264  0.73949249  1
