# generated using pymatgen
data_K2Mo3(AsO5)4
_symmetry_space_group_name_H-M   'P 1'
_cell_length_a   9.11875663
_cell_length_b   10.04204204
_cell_length_c   12.33041619
_cell_angle_alpha   110.43233077
_cell_angle_beta   90.00000000
_cell_angle_gamma   117.00247581
_symmetry_Int_Tables_number   1
_chemical_formula_structural   K2Mo3(AsO5)4
_chemical_formula_sum   'K4 Mo6 As8 O40'
_cell_volume   925.58346234
_cell_formula_units_Z   2
loop_
 _symmetry_equiv_pos_site_id
 _symmetry_equiv_pos_as_xyz
  1  'x, y, z'
loop_
 _atom_site_type_symbol
 _atom_site_label
 _atom_site_symmetry_multiplicity
 _atom_site_fract_x
 _atom_site_fract_y
 _atom_site_fract_z
 _atom_site_occupancy
  K  K0  1  0.34842634  0.19189799  0.10059660  1
  K  K1  1  0.15652836  0.80810201  0.39940340  1
  K  K2  1  0.84347164  0.19189799  0.60059660  1
  K  K3  1  0.65157366  0.80810201  0.89940340  1
  Mo  Mo4  1  0.66921139  0.33716964  0.86054062  1
  Mo  Mo5  1  0.33204176  0.66283036  0.63945938  1
  Mo  Mo6  1  0.07424748  0.00000000  0.75000000  1
  Mo  Mo7  1  0.33078861  0.66283036  0.13945938  1
  Mo  Mo8  1  0.66795824  0.33716964  0.36054062  1
  Mo  Mo9  1  0.92575252  0.00000000  0.25000000  1
  As  As10  1  0.70693082  0.71958330  0.53852710  1
  As  As11  1  0.97883981  0.63918687  0.76939536  1
  As  As12  1  0.66034706  0.63918687  0.26939536  1
  As  As13  1  0.01265248  0.71958330  0.03852710  1
  As  As14  1  0.29306918  0.28041670  0.46147290  1
  As  As15  1  0.98734752  0.28041670  0.96147290  1
  As  As16  1  0.33965294  0.36081313  0.73060464  1
  As  As17  1  0.02116019  0.36081313  0.23060464  1
  O  O18  1  0.14341405  0.21881714  0.73710055  1
  O  O19  1  0.22697243  0.06683953  0.86808954  1
  O  O20  1  0.20468787  0.40090456  0.51314626  1
  O  O21  1  0.40661040  0.83833904  0.26541405  1
  O  O22  1  0.50484670  0.59859769  0.16557273  1
  O  O23  1  0.43172865  0.83833904  0.76541405  1
  O  O24  1  0.34070633  0.53653275  0.75524230  1
  O  O25  1  0.19621669  0.40090456  0.01314626  1
  O  O26  1  0.10962697  0.72844953  0.91065417  1
  O  O27  1  0.92459691  0.78118286  0.76289945  1
  O  O28  1  0.83986710  0.06683953  0.36808954  1
  O  O29  1  0.79531213  0.59909544  0.48685374  1
  O  O30  1  0.80378331  0.59909544  0.98685374  1
  O  O31  1  0.07540309  0.21881714  0.23710055  1
  O  O32  1  0.16013290  0.93316047  0.63191046  1
  O  O33  1  0.84304495  0.91639742  0.62562261  1
  O  O34  1  0.49515330  0.40140231  0.83442727  1
  O  O35  1  0.09375100  0.59859769  0.66557273  1
  O  O36  1  0.45533489  0.35700480  0.39122384  1
  O  O37  1  0.09833009  0.64299520  0.10877616  1
  O  O38  1  0.89037303  0.27155047  0.08934583  1
  O  O39  1  0.77302757  0.93316047  0.13191046  1
  O  O40  1  0.15695505  0.08360258  0.37437739  1
  O  O41  1  0.65929367  0.46346725  0.24475770  1
  O  O42  1  0.90166991  0.35700480  0.89122384  1
  O  O43  1  0.85658595  0.78118286  0.26289945  1
  O  O44  1  0.67423878  0.26870129  0.46959902  1
  O  O45  1  0.92664753  0.08360258  0.87437739  1
  O  O46  1  0.61882257  0.72844953  0.41065417  1
  O  O47  1  0.56827135  0.16166096  0.23458595  1
  O  O48  1  0.59338960  0.16166096  0.73458595  1
  O  O49  1  0.80417358  0.46346725  0.74475770  1
  O  O50  1  0.07335247  0.91639742  0.12562261  1
  O  O51  1  0.38117743  0.27155047  0.58934583  1
  O  O52  1  0.32576122  0.73129871  0.53040098  1
  O  O53  1  0.54466511  0.64299520  0.60877616  1
  O  O54  1  0.59446250  0.26870129  0.96959902  1
  O  O55  1  0.19582642  0.53653275  0.25524230  1
  O  O56  1  0.40553750  0.73129871  0.03040098  1
  O  O57  1  0.90624900  0.40140231  0.33442727  1
