# generated using pymatgen
data_Dy2Hf2(MoO4)7
_symmetry_space_group_name_H-M   'P 1'
_cell_length_a   9.96295404
_cell_length_b   11.68564782
_cell_length_c   14.04043769
_cell_angle_alpha   110.43725490
_cell_angle_beta   90.00000000
_cell_angle_gamma   115.23235553
_symmetry_Int_Tables_number   1
_chemical_formula_structural   Dy2Hf2(MoO4)7
_chemical_formula_sum   'Dy4 Hf4 Mo14 O56'
_cell_volume   1364.06495064
_cell_formula_units_Z   2
loop_
 _symmetry_equiv_pos_site_id
 _symmetry_equiv_pos_as_xyz
  1  'x, y, z'
loop_
 _atom_site_type_symbol
 _atom_site_label
 _atom_site_symmetry_multiplicity
 _atom_site_fract_x
 _atom_site_fract_y
 _atom_site_fract_z
 _atom_site_occupancy
  Dy  Dy0  1  0.35217312  0.72782267  0.06396437  1
  Dy  Dy1  1  0.64782688  0.27217733  0.93603563  1
  Dy  Dy2  1  0.37564955  0.72782267  0.56396437  1
  Dy  Dy3  1  0.62435045  0.27217733  0.43603563  1
  Hf  Hf4  1  0.91782053  0.76596956  0.81202889  1
  Hf  Hf5  1  0.15185098  0.23403044  0.68797111  1
  Hf  Hf6  1  0.08217947  0.23403044  0.18797111  1
  Hf  Hf7  1  0.84814902  0.76596956  0.31202889  1
  Mo  Mo8  1  0.27456582  0.31855540  0.97654955  1
  Mo  Mo9  1  0.04398959  0.31855540  0.47654955  1
  Mo  Mo10  1  0.56725948  0.87887961  0.35342912  1
  Mo  Mo11  1  0.51357254  0.51240702  0.67078993  1
  Mo  Mo12  1  0.79421539  0.00000000  0.75000000  1
  Mo  Mo13  1  0.00116552  0.48759298  0.82921007  1
  Mo  Mo14  1  0.48642746  0.48759298  0.32921007  1
  Mo  Mo15  1  0.72543418  0.68144460  0.02345045  1
  Mo  Mo16  1  0.20578461  0.00000000  0.25000000  1
  Mo  Mo17  1  0.31162012  0.87887961  0.85342912  1
  Mo  Mo18  1  0.99883448  0.51240702  0.17078993  1
  Mo  Mo19  1  0.43274052  0.12112039  0.64657088  1
  Mo  Mo20  1  0.95601041  0.68144460  0.52345045  1
  Mo  Mo21  1  0.68837988  0.12112039  0.14657088  1
  O  O22  1  0.30118260  0.79263177  0.71925015  1
  O  O23  1  0.46854703  0.04251382  0.89713589  1
  O  O24  1  0.57396679  0.04251382  0.39713589  1
  O  O25  1  0.63192176  0.87706456  0.65595358  1
  O  O26  1  0.94082725  0.08420229  0.68459460  1
  O  O27  1  0.49144917  0.79263177  0.21925015  1
  O  O28  1  0.75485721  0.12293544  0.84404642  1
  O  O29  1  0.62669936  0.61171438  0.28466249  1
  O  O30  1  0.86975171  0.76375804  0.95514286  1
  O  O31  1  0.05303579  0.25086265  0.33985151  1
  O  O32  1  0.05917275  0.91579771  0.31540540  1
  O  O33  1  0.08140560  0.38711357  0.74159444  1
  O  O34  1  0.37330064  0.38828562  0.71533751  1
  O  O35  1  0.98501502  0.61171438  0.78466249  1
  O  O36  1  0.85662496  0.91579771  0.81540540  1
  O  O37  1  0.10599367  0.23624196  0.54485714  1
  O  O38  1  0.56755445  0.70954567  0.00584941  1
  O  O39  1  0.23750421  0.09862326  0.62668283  1
  O  O40  1  0.80217314  0.74913735  0.16014849  1
  O  O41  1  0.13024829  0.23624196  0.04485714  1
  O  O42  1  0.16678636  0.49570974  0.52736207  1
  O  O43  1  0.45803367  0.57362878  0.45240030  1
  O  O44  1  0.36807824  0.12293544  0.34404642  1
  O  O45  1  0.44804796  0.78191156  0.42049472  1
  O  O46  1  0.44486494  0.62461850  0.66167508  1
  O  O47  1  0.50855083  0.20736823  0.78074985  1
  O  O48  1  0.42603321  0.95748618  0.60286411  1
  O  O49  1  0.14337504  0.08420229  0.18459460  1
  O  O50  1  0.89400633  0.76375804  0.45514286  1
  O  O51  1  0.67107662  0.50429026  0.97263793  1
  O  O52  1  0.43244555  0.29045433  0.99415059  1
  O  O53  1  0.55513506  0.37538150  0.33832492  1
  O  O54  1  0.86111905  0.09862326  0.12668283  1
  O  O55  1  0.55195204  0.21808844  0.57950528  1
  O  O56  1  0.32892338  0.49570974  0.02736207  1
  O  O57  1  0.88440488  0.42637122  0.04759970  1
  O  O58  1  0.82024643  0.37538150  0.83832492  1
  O  O59  1  0.54196633  0.42637122  0.54759970  1
  O  O60  1  0.14199122  0.70954567  0.50584941  1
  O  O61  1  0.01498498  0.38828562  0.21533751  1
  O  O62  1  0.30570797  0.38711357  0.24159444  1
  O  O63  1  0.69429203  0.61288643  0.75840556  1
  O  O64  1  0.19782686  0.25086265  0.83985151  1
  O  O65  1  0.91859440  0.61288643  0.25840556  1
  O  O66  1  0.85800878  0.29045433  0.49415059  1
  O  O67  1  0.53145297  0.95748618  0.10286411  1
  O  O68  1  0.11559512  0.57362878  0.95240030  1
  O  O69  1  0.66613640  0.21808844  0.07950528  1
  O  O70  1  0.17975357  0.62461850  0.16167508  1
  O  O71  1  0.13888095  0.90137674  0.87331717  1
  O  O72  1  0.76249579  0.90137674  0.37331717  1
  O  O73  1  0.33386360  0.78191156  0.92049472  1
  O  O74  1  0.94696421  0.74913735  0.66014849  1
  O  O75  1  0.24514279  0.87706456  0.15595358  1
  O  O76  1  0.83321364  0.50429026  0.47263793  1
  O  O77  1  0.69881740  0.20736823  0.28074985  1
