# generated using pymatgen
data_Mn2Ni6Te3PbO18
_symmetry_space_group_name_H-M   'P 1'
_cell_length_a   9.41064353
_cell_length_b   9.41064381
_cell_length_c   8.93088166
_cell_angle_alpha   90.00000000
_cell_angle_beta   90.00000000
_cell_angle_gamma   119.99999904
_symmetry_Int_Tables_number   1
_chemical_formula_structural   Mn2Ni6Te3PbO18
_chemical_formula_sum   'Mn4 Ni12 Te6 Pb2 O36'
_cell_volume   684.95750629
_cell_formula_units_Z   2
loop_
 _symmetry_equiv_pos_site_id
 _symmetry_equiv_pos_as_xyz
  1  'x, y, z'
loop_
 _atom_site_type_symbol
 _atom_site_label
 _atom_site_symmetry_multiplicity
 _atom_site_fract_x
 _atom_site_fract_y
 _atom_site_fract_z
 _atom_site_occupancy
  Mn  Mn0  1  0.66666700  0.33333300  0.56051009  1
  Mn  Mn1  1  0.33333300  0.66666700  0.43948991  1
  Mn  Mn2  1  0.33333300  0.66666700  0.06051009  1
  Mn  Mn3  1  0.66666700  0.33333300  0.93948991  1
  Ni  Ni4  1  0.98862956  0.34869297  0.58863058  1
  Ni  Ni5  1  0.65130703  0.63993660  0.91136942  1
  Ni  Ni6  1  0.36006340  0.01137044  0.58863058  1
  Ni  Ni7  1  0.34869297  0.36006340  0.41136942  1
  Ni  Ni8  1  0.34869297  0.36006340  0.08863058  1
  Ni  Ni9  1  0.63993660  0.98862956  0.41136942  1
  Ni  Ni10  1  0.01137044  0.65130703  0.08863058  1
  Ni  Ni11  1  0.36006340  0.01137044  0.91136942  1
  Ni  Ni12  1  0.65130703  0.63993660  0.58863058  1
  Ni  Ni13  1  0.63993660  0.98862956  0.08863058  1
  Ni  Ni14  1  0.98862956  0.34869297  0.91136942  1
  Ni  Ni15  1  0.01137044  0.65130703  0.41136942  1
  Te  Te16  1  0.36259683  0.02611394  0.25000000  1
  Te  Te17  1  0.97388606  0.33648289  0.25000000  1
  Te  Te18  1  0.33648289  0.36259683  0.75000000  1
  Te  Te19  1  0.02611394  0.66351711  0.75000000  1
  Te  Te20  1  0.63740317  0.97388606  0.75000000  1
  Te  Te21  1  0.66351711  0.63740317  0.25000000  1
  Pb  Pb22  1  0.00000000  0.00000000  0.00000000  1
  Pb  Pb23  1  0.00000000  0.00000000  0.50000000  1
  O  O24  1  0.44763665  0.86718014  0.25000000  1
  O  O25  1  0.39344408  0.52275836  0.58693393  1
  O  O26  1  0.47724164  0.87068572  0.58693393  1
  O  O27  1  0.87068572  0.39344408  0.41306607  1
  O  O28  1  0.20495756  0.90077103  0.40882999  1
  O  O29  1  0.20495756  0.90077103  0.09117001  1
  O  O30  1  0.90077103  0.69581346  0.90882999  1
  O  O31  1  0.18774066  0.89415705  0.75000000  1
  O  O32  1  0.70641639  0.81225934  0.75000000  1
  O  O33  1  0.79504244  0.09922897  0.59117001  1
  O  O34  1  0.52275836  0.12931428  0.41306607  1
  O  O35  1  0.90077103  0.69581346  0.59117001  1
  O  O36  1  0.09922897  0.30418654  0.09117001  1
  O  O37  1  0.30418654  0.20495756  0.59117001  1
  O  O38  1  0.87068572  0.39344408  0.08693393  1
  O  O39  1  0.81225934  0.10584295  0.25000000  1
  O  O40  1  0.60655592  0.47724164  0.41306607  1
  O  O41  1  0.69581346  0.79504244  0.40882999  1
  O  O42  1  0.12931428  0.60655592  0.58693393  1
  O  O43  1  0.41954348  0.55236335  0.25000000  1
  O  O44  1  0.12931428  0.60655592  0.91306607  1
  O  O45  1  0.86718014  0.41954348  0.75000000  1
  O  O46  1  0.13281986  0.58045652  0.25000000  1
  O  O47  1  0.58045652  0.44763665  0.75000000  1
  O  O48  1  0.30418654  0.20495756  0.90882999  1
  O  O49  1  0.79504244  0.09922897  0.90882999  1
  O  O50  1  0.60655592  0.47724164  0.08693393  1
  O  O51  1  0.55236335  0.13281986  0.75000000  1
  O  O52  1  0.52275836  0.12931428  0.08693393  1
  O  O53  1  0.29358361  0.18774066  0.25000000  1
  O  O54  1  0.09922897  0.30418654  0.40882999  1
  O  O55  1  0.10584295  0.29358361  0.75000000  1
  O  O56  1  0.89415705  0.70641639  0.25000000  1
  O  O57  1  0.47724164  0.87068572  0.91306607  1
  O  O58  1  0.39344408  0.52275836  0.91306607  1
  O  O59  1  0.69581346  0.79504244  0.09117001  1
