# generated using pymatgen
data_SrFe2(SeO3)4
_symmetry_space_group_name_H-M   'P 1'
_cell_length_a   5.46158879
_cell_length_b   7.23799899
_cell_length_c   7.32742521
_cell_angle_alpha   91.83729212
_cell_angle_beta   90.00000000
_cell_angle_gamma   90.00000000
_symmetry_Int_Tables_number   1
_chemical_formula_structural   SrFe2(SeO3)4
_chemical_formula_sum   'Sr1 Fe2 Se4 O12'
_cell_volume   289.51134318
_cell_formula_units_Z   1
loop_
 _symmetry_equiv_pos_site_id
 _symmetry_equiv_pos_as_xyz
  1  'x, y, z'
loop_
 _atom_site_type_symbol
 _atom_site_label
 _atom_site_symmetry_multiplicity
 _atom_site_fract_x
 _atom_site_fract_y
 _atom_site_fract_z
 _atom_site_occupancy
  Sr  Sr0  1  0.50000000  0.50000000  0.50000000  1
  Fe  Fe1  1  0.00000000  0.00000000  0.50000000  1
  Fe  Fe2  1  0.50000000  0.50000000  0.00000000  1
  Se  Se3  1  0.50000000  0.91021152  0.27644592  1
  Se  Se4  1  0.00000000  0.29788777  0.11499344  1
  Se  Se5  1  0.00000000  0.70211223  0.88500656  1
  Se  Se6  1  0.50000000  0.08978848  0.72355408  1
  O  O7  1  0.75473215  0.56617008  0.80494235  1
  O  O8  1  0.50000000  0.23177143  0.91602696  1
  O  O9  1  0.73506772  0.18195020  0.59236844  1
  O  O10  1  0.24526785  0.56617008  0.80494235  1
  O  O11  1  0.00000000  0.11498071  0.25542956  1
  O  O12  1  0.50000000  0.76822857  0.08397304  1
  O  O13  1  0.26493228  0.18195020  0.59236844  1
  O  O14  1  0.73506772  0.81804980  0.40763156  1
  O  O15  1  0.00000000  0.88501929  0.74457044  1
  O  O16  1  0.26493228  0.81804980  0.40763156  1
  O  O17  1  0.75473215  0.43382992  0.19505765  1
  O  O18  1  0.24526785  0.43382992  0.19505765  1
