# generated using pymatgen
data_Ga2Mo(SeO5)2
_symmetry_space_group_name_H-M   'P 1'
_cell_length_a   6.14544859
_cell_length_b   8.94747357
_cell_length_c   15.31776498
_cell_angle_alpha   90.00000000
_cell_angle_beta   90.00000000
_cell_angle_gamma   90.00000000
_symmetry_Int_Tables_number   1
_chemical_formula_structural   Ga2Mo(SeO5)2
_chemical_formula_sum   'Ga8 Mo4 Se8 O40'
_cell_volume   842.26628361
_cell_formula_units_Z   4
loop_
 _symmetry_equiv_pos_site_id
 _symmetry_equiv_pos_as_xyz
  1  'x, y, z'
loop_
 _atom_site_type_symbol
 _atom_site_label
 _atom_site_symmetry_multiplicity
 _atom_site_fract_x
 _atom_site_fract_y
 _atom_site_fract_z
 _atom_site_occupancy
  Ga  Ga0  1  0.49348124  0.50584708  0.14781883  1
  Ga  Ga1  1  0.50651876  0.49415292  0.85218117  1
  Ga  Ga2  1  0.99348124  0.99415292  0.64781883  1
  Ga  Ga3  1  0.00651876  0.00584708  0.35218117  1
  Ga  Ga4  1  0.50651876  0.99415292  0.64781883  1
  Ga  Ga5  1  0.49348124  0.00584708  0.35218117  1
  Ga  Ga6  1  0.00651876  0.50584708  0.14781883  1
  Ga  Ga7  1  0.99348124  0.49415292  0.85218117  1
  Mo  Mo8  1  0.25000000  0.33702563  0.33724331  1
  Mo  Mo9  1  0.75000000  0.66297437  0.66275669  1
  Mo  Mo10  1  0.75000000  0.16297437  0.83724331  1
  Mo  Mo11  1  0.25000000  0.83702563  0.16275669  1
  Se  Se12  1  0.25000000  0.27381219  0.00879389  1
  Se  Se13  1  0.25000000  0.30634134  0.69382615  1
  Se  Se14  1  0.75000000  0.72618781  0.99120611  1
  Se  Se15  1  0.75000000  0.69365866  0.30617385  1
  Se  Se16  1  0.75000000  0.19365866  0.19382615  1
  Se  Se17  1  0.75000000  0.22618781  0.50879389  1
  Se  Se18  1  0.25000000  0.80634134  0.80617385  1
  Se  Se19  1  0.25000000  0.77381219  0.49120611  1
  O  O20  1  0.52861353  0.66167842  0.93428476  1
  O  O21  1  0.47141745  0.83419508  0.73833528  1
  O  O22  1  0.47202194  0.92045343  0.11323198  1
  O  O23  1  0.02858255  0.33419508  0.76166472  1
  O  O24  1  0.47202194  0.42045343  0.38676802  1
  O  O25  1  0.25000000  0.40523716  0.91986002  1
  O  O26  1  0.02861353  0.33832158  0.06571524  1
  O  O27  1  0.75000000  0.09476284  0.41986002  1
  O  O28  1  0.75000000  0.59476284  0.08013998  1
  O  O29  1  0.75000000  0.36586347  0.88977340  1
  O  O30  1  0.75000000  0.89498754  0.29859707  1
  O  O31  1  0.97202194  0.07954657  0.88676802  1
  O  O32  1  0.25000000  0.63413653  0.11022660  1
  O  O33  1  0.97138647  0.16167842  0.56571524  1
  O  O34  1  0.75000000  0.58475692  0.77894665  1
  O  O35  1  0.97141745  0.66580492  0.23833528  1
  O  O36  1  0.47138647  0.33832158  0.06571524  1
  O  O37  1  0.75000000  0.86586347  0.61022660  1
  O  O38  1  0.02797806  0.92045343  0.11323198  1
  O  O39  1  0.97138647  0.66167842  0.93428476  1
  O  O40  1  0.25000000  0.10501246  0.70140293  1
  O  O41  1  0.52858255  0.16580492  0.26166472  1
  O  O42  1  0.75000000  0.08475692  0.72105335  1
  O  O43  1  0.25000000  0.13413653  0.38977340  1
  O  O44  1  0.52797806  0.07954657  0.88676802  1
  O  O45  1  0.02861353  0.83832158  0.43428476  1
  O  O46  1  0.02797806  0.42045343  0.38676802  1
  O  O47  1  0.52858255  0.66580492  0.23833528  1
  O  O48  1  0.25000000  0.41524308  0.22105335  1
  O  O49  1  0.25000000  0.91524308  0.27894665  1
  O  O50  1  0.97141745  0.16580492  0.26166472  1
  O  O51  1  0.52797806  0.57954657  0.61323198  1
  O  O52  1  0.25000000  0.90523716  0.58013998  1
  O  O53  1  0.25000000  0.60501246  0.79859707  1
  O  O54  1  0.47141745  0.33419508  0.76166472  1
  O  O55  1  0.52861353  0.16167842  0.56571524  1
  O  O56  1  0.75000000  0.39498754  0.20140293  1
  O  O57  1  0.97202194  0.57954657  0.61323198  1
  O  O58  1  0.02858255  0.83419508  0.73833528  1
  O  O59  1  0.47138647  0.83832158  0.43428476  1
