# generated using pymatgen
data_KNi3As3O11
_symmetry_space_group_name_H-M   'P 1'
_cell_length_a   9.84319092
_cell_length_b   10.25603988
_cell_length_c   10.37056094
_cell_angle_alpha   119.34590214
_cell_angle_beta   90.00000000
_cell_angle_gamma   90.00000000
_symmetry_Int_Tables_number   1
_chemical_formula_structural   KNi3As3O11
_chemical_formula_sum   'K4 Ni12 As12 O44'
_cell_volume   912.58517254
_cell_formula_units_Z   4
loop_
 _symmetry_equiv_pos_site_id
 _symmetry_equiv_pos_as_xyz
  1  'x, y, z'
loop_
 _atom_site_type_symbol
 _atom_site_label
 _atom_site_symmetry_multiplicity
 _atom_site_fract_x
 _atom_site_fract_y
 _atom_site_fract_z
 _atom_site_occupancy
  K  K0  1  0.23261871  0.50090324  0.91004208  1
  K  K1  1  0.26738129  0.00090324  0.41004208  1
  K  K2  1  0.76738129  0.49909676  0.08995792  1
  K  K3  1  0.73261871  0.99909676  0.58995792  1
  Ni  Ni4  1  0.63215808  0.67577503  0.76348704  1
  Ni  Ni5  1  0.36301544  0.14332613  0.88148920  1
  Ni  Ni6  1  0.12894102  0.00829862  0.09940490  1
  Ni  Ni7  1  0.62894102  0.49170138  0.40059510  1
  Ni  Ni8  1  0.63698456  0.85667387  0.11851080  1
  Ni  Ni9  1  0.37105898  0.50829862  0.59940490  1
  Ni  Ni10  1  0.13215808  0.82422497  0.73651296  1
  Ni  Ni11  1  0.36784192  0.32422497  0.23651296  1
  Ni  Ni12  1  0.86784192  0.17577503  0.26348704  1
  Ni  Ni13  1  0.13698456  0.64332613  0.38148920  1
  Ni  Ni14  1  0.86301544  0.35667387  0.61851080  1
  Ni  Ni15  1  0.87105898  0.99170138  0.90059510  1
  As  As16  1  0.65709828  0.16699729  0.06846200  1
  As  As17  1  0.57381513  0.18597875  0.41438509  1
  As  As18  1  0.55676853  0.35215907  0.75929953  1
  As  As19  1  0.05676853  0.14784093  0.74070047  1
  As  As20  1  0.92618487  0.68597875  0.91438509  1
  As  As21  1  0.44323147  0.64784093  0.24070047  1
  As  As22  1  0.15709828  0.33300271  0.43153800  1
  As  As23  1  0.07381513  0.31402125  0.08561491  1
  As  As24  1  0.84290172  0.66699729  0.56846200  1
  As  As25  1  0.42618487  0.81402125  0.58561491  1
  As  As26  1  0.94323147  0.85215907  0.25929953  1
  As  As27  1  0.34290172  0.83300271  0.93153800  1
  O  O28  1  0.75896842  0.52190595  0.58577377  1
  O  O29  1  0.98361631  0.52273408  0.77674325  1
  O  O30  1  0.98759920  0.69205877  0.07885609  1
  O  O31  1  0.72708649  0.31413410  0.22887803  1
  O  O32  1  0.74718725  0.19808382  0.43548650  1
  O  O33  1  0.50233995  0.50839757  0.75067923  1
  O  O34  1  0.51674139  0.83125309  0.93531154  1
  O  O35  1  0.76386966  0.65037171  0.41537052  1
  O  O36  1  0.49698324  0.34080766  0.41407287  1
  O  O37  1  0.00233995  0.99160243  0.74932077  1
  O  O38  1  0.53344217  0.67487217  0.11790448  1
  O  O39  1  0.24718725  0.30191618  0.06451350  1
  O  O40  1  0.50301676  0.65919234  0.58592713  1
  O  O41  1  0.74103158  0.02190595  0.08577377  1
  O  O42  1  0.27174503  0.64839962  0.22951821  1
  O  O43  1  0.51240080  0.19205877  0.57885609  1
  O  O44  1  0.01638369  0.47726592  0.22325675  1
  O  O45  1  0.99766005  0.00839757  0.25067923  1
  O  O46  1  0.49766005  0.49160243  0.24932077  1
  O  O47  1  0.25281275  0.80191618  0.56451350  1
  O  O48  1  0.03344217  0.82512783  0.38209552  1
  O  O49  1  0.48361631  0.97726592  0.72325675  1
  O  O50  1  0.27291351  0.68586590  0.77112197  1
  O  O51  1  0.98325861  0.33125309  0.43531154  1
  O  O52  1  0.96655783  0.17487217  0.61790448  1
  O  O53  1  0.75281275  0.69808382  0.93548650  1
  O  O54  1  0.72825497  0.35160038  0.77048179  1
  O  O55  1  0.24103158  0.47809405  0.41422623  1
  O  O56  1  0.22825497  0.14839962  0.72951821  1
  O  O57  1  0.00301676  0.84080766  0.91407287  1
  O  O58  1  0.99698324  0.15919234  0.08592713  1
  O  O59  1  0.77291351  0.81413410  0.72887803  1
  O  O60  1  0.48325861  0.16874691  0.06468846  1
  O  O61  1  0.23613034  0.34962829  0.58462948  1
  O  O62  1  0.48759920  0.80794123  0.42114391  1
  O  O63  1  0.01240080  0.30794123  0.92114391  1
  O  O64  1  0.46655783  0.32512783  0.88209552  1
  O  O65  1  0.26386966  0.84962829  0.08462948  1
  O  O66  1  0.51638369  0.02273408  0.27674325  1
  O  O67  1  0.22708649  0.18586590  0.27112197  1
  O  O68  1  0.25896842  0.97809405  0.91422623  1
  O  O69  1  0.73613034  0.15037171  0.91537052  1
  O  O70  1  0.01674139  0.66874691  0.56468846  1
  O  O71  1  0.77174503  0.85160038  0.27048179  1
