# generated using pymatgen
data_Na2MnO2
_symmetry_space_group_name_H-M   'P 1'
_cell_length_a   6.20893096
_cell_length_b   8.82497803
_cell_length_c   8.82497815
_cell_angle_alpha   87.96459744
_cell_angle_beta   70.13788669
_cell_angle_gamma   70.13788881
_symmetry_Int_Tables_number   1
_chemical_formula_structural   Na2MnO2
_chemical_formula_sum   'Na12 Mn6 O12'
_cell_volume   425.98463234
_cell_formula_units_Z   6
loop_
 _symmetry_equiv_pos_site_id
 _symmetry_equiv_pos_as_xyz
  1  'x, y, z'
loop_
 _atom_site_type_symbol
 _atom_site_label
 _atom_site_symmetry_multiplicity
 _atom_site_fract_x
 _atom_site_fract_y
 _atom_site_fract_z
 _atom_site_occupancy
  Na  Na0  1  0.25000000  0.93952887  0.06047113  1
  Na  Na1  1  0.75000000  0.06047113  0.93952887  1
  Na  Na2  1  0.73793676  0.40293078  0.99737978  1
  Na  Na3  1  0.76206324  0.00262022  0.59706922  1
  Na  Na4  1  0.22924919  0.32555895  0.46837512  1
  Na  Na5  1  0.77075081  0.67444105  0.53162488  1
  Na  Na6  1  0.26206324  0.59706922  0.00262022  1
  Na  Na7  1  0.72924919  0.46837512  0.32555895  1
  Na  Na8  1  0.27075081  0.53162488  0.67444105  1
  Na  Na9  1  0.75000000  0.80427271  0.19572729  1
  Na  Na10  1  0.23793676  0.99737978  0.40293078  1
  Na  Na11  1  0.25000000  0.19572729  0.80427271  1
  Mn  Mn12  1  0.75000000  0.31595056  0.68404944  1
  Mn  Mn13  1  0.74333437  0.70773243  0.86796645  1
  Mn  Mn14  1  0.25666563  0.29226757  0.13203355  1
  Mn  Mn15  1  0.25000000  0.68404944  0.31595056  1
  Mn  Mn16  1  0.24333437  0.86796645  0.70773243  1
  Mn  Mn17  1  0.75666563  0.13203355  0.29226757  1
  O  O18  1  0.46646183  0.32813402  0.90083081  1
  O  O19  1  0.51754826  0.89277900  0.77936706  1
  O  O20  1  0.59885787  0.28456762  0.51248398  1
  O  O21  1  0.98245174  0.22063294  0.10722100  1
  O  O22  1  0.90114213  0.48751602  0.71543238  1
  O  O23  1  0.01754826  0.77936706  0.89277900  1
  O  O24  1  0.03353817  0.09916919  0.67186598  1
  O  O25  1  0.09885787  0.51248398  0.28456762  1
  O  O26  1  0.48245174  0.10722100  0.22063294  1
  O  O27  1  0.40114213  0.71543238  0.48751602  1
  O  O28  1  0.53353817  0.67186598  0.09916919  1
  O  O29  1  0.96646183  0.90083081  0.32813402  1
