# generated using pymatgen
data_Sr2MnP3O11
_symmetry_space_group_name_H-M   'P 1'
_cell_length_a   6.74933828
_cell_length_b   6.93932394
_cell_length_c   19.44562405
_cell_angle_alpha   90.00000000
_cell_angle_beta   99.44697875
_cell_angle_gamma   90.00000000
_symmetry_Int_Tables_number   1
_chemical_formula_structural   Sr2MnP3O11
_chemical_formula_sum   'Sr8 Mn4 P12 O44'
_cell_volume   898.40052825
_cell_formula_units_Z   4
loop_
 _symmetry_equiv_pos_site_id
 _symmetry_equiv_pos_as_xyz
  1  'x, y, z'
loop_
 _atom_site_type_symbol
 _atom_site_label
 _atom_site_symmetry_multiplicity
 _atom_site_fract_x
 _atom_site_fract_y
 _atom_site_fract_z
 _atom_site_occupancy
  Sr  Sr0  1  0.66219603  0.04315365  0.76702376  1
  Sr  Sr1  1  0.31924060  0.64092179  0.42702601  1
  Sr  Sr2  1  0.68075940  0.35907821  0.57297399  1
  Sr  Sr3  1  0.33780397  0.54315365  0.73297624  1
  Sr  Sr4  1  0.68075940  0.14092179  0.07297399  1
  Sr  Sr5  1  0.33780397  0.95684635  0.23297624  1
  Sr  Sr6  1  0.31924060  0.85907821  0.92702601  1
  Sr  Sr7  1  0.66219603  0.45684635  0.26702376  1
  Mn  Mn8  1  0.96034127  0.62888839  0.12351561  1
  Mn  Mn9  1  0.03965873  0.37111161  0.87648439  1
  Mn  Mn10  1  0.03965873  0.12888839  0.37648439  1
  Mn  Mn11  1  0.96034127  0.87111161  0.62351561  1
  P  P12  1  0.17741358  0.04387018  0.77132452  1
  P  P13  1  0.17819090  0.31011759  0.04310099  1
  P  P14  1  0.82258642  0.95612982  0.22867548  1
  P  P15  1  0.55886677  0.36198606  0.90805486  1
  P  P16  1  0.44113323  0.63801394  0.09194514  1
  P  P17  1  0.82180910  0.68988241  0.95689901  1
  P  P18  1  0.44113323  0.86198606  0.59194514  1
  P  P19  1  0.82180910  0.81011759  0.45689901  1
  P  P20  1  0.17819090  0.18988241  0.54310099  1
  P  P21  1  0.17741358  0.45612982  0.27132452  1
  P  P22  1  0.82258642  0.54387018  0.72867548  1
  P  P23  1  0.55886677  0.13801394  0.40805486  1
  O  O24  1  0.68925011  0.50110403  0.96787857  1
  O  O25  1  0.29608448  0.68184618  0.14313121  1
  O  O26  1  0.29608448  0.81815382  0.64313121  1
  O  O27  1  0.07748681  0.11361969  0.83565678  1
  O  O28  1  0.37240256  0.02235087  0.37538731  1
  O  O29  1  0.68969385  0.80497678  0.25454763  1
  O  O30  1  0.50941048  0.31204112  0.44954493  1
  O  O31  1  0.00024199  0.37705686  0.07961681  1
  O  O32  1  0.68925011  0.99889597  0.46787857  1
  O  O33  1  0.30812315  0.16173542  0.08504633  1
  O  O34  1  0.70391552  0.31815382  0.85686879  1
  O  O35  1  0.69187685  0.66173542  0.41495367  1
  O  O36  1  0.31074989  0.00110403  0.53212143  1
  O  O37  1  0.30565360  0.86662954  0.79750227  1
  O  O38  1  0.50941048  0.18795888  0.94954493  1
  O  O39  1  0.00915950  0.01135445  0.28421873  1
  O  O40  1  0.62759744  0.97764913  0.62461269  1
  O  O41  1  0.30812315  0.33826458  0.58504633  1
  O  O42  1  0.09154388  0.24085733  0.96823038  1
  O  O43  1  0.99975801  0.62294314  0.92038319  1
  O  O44  1  0.68969385  0.69502322  0.75454763  1
  O  O45  1  0.07748681  0.38638031  0.33565678  1
  O  O46  1  0.31030615  0.30497678  0.24545237  1
  O  O47  1  0.69434640  0.13337046  0.20249773  1
  O  O48  1  0.49058952  0.68795888  0.55045507  1
  O  O49  1  0.31074989  0.49889597  0.03212143  1
  O  O50  1  0.92251319  0.88638031  0.16434322  1
  O  O51  1  0.90845612  0.74085733  0.53176962  1
  O  O52  1  0.30565360  0.63337046  0.29750227  1
  O  O53  1  0.99084050  0.98864555  0.71578127  1
  O  O54  1  0.49058952  0.81204112  0.05045507  1
  O  O55  1  0.00915950  0.48864555  0.78421873  1
  O  O56  1  0.70391552  0.18184618  0.35686879  1
  O  O57  1  0.37240256  0.47764913  0.87538731  1
  O  O58  1  0.00024199  0.12294314  0.57961681  1
  O  O59  1  0.99975801  0.87705686  0.42038319  1
  O  O60  1  0.69434640  0.36662954  0.70249773  1
  O  O61  1  0.62759744  0.52235087  0.12461269  1
  O  O62  1  0.92251319  0.61361969  0.66434322  1
  O  O63  1  0.99084050  0.51135445  0.21578127  1
  O  O64  1  0.69187685  0.83826458  0.91495367  1
  O  O65  1  0.09154388  0.25914267  0.46823038  1
  O  O66  1  0.90845612  0.75914267  0.03176962  1
  O  O67  1  0.31030615  0.19502322  0.74545237  1
