# generated using pymatgen
data_Na2SrV3O9
_symmetry_space_group_name_H-M   'P 1'
_cell_length_a   5.51257397
_cell_length_b   10.25788006
_cell_length_c   15.21247961
_cell_angle_alpha   90.00000000
_cell_angle_beta   90.00000000
_cell_angle_gamma   97.74248492
_symmetry_Int_Tables_number   1
_chemical_formula_structural   Na2SrV3O9
_chemical_formula_sum   'Na8 Sr4 V12 O36'
_cell_volume   852.38281591
_cell_formula_units_Z   4
loop_
 _symmetry_equiv_pos_site_id
 _symmetry_equiv_pos_as_xyz
  1  'x, y, z'
loop_
 _atom_site_type_symbol
 _atom_site_label
 _atom_site_symmetry_multiplicity
 _atom_site_fract_x
 _atom_site_fract_y
 _atom_site_fract_z
 _atom_site_occupancy
  Na  Na0  1  0.23464209  0.53051145  0.29182483  1
  Na  Na1  1  0.24841605  0.97762795  0.93338497  1
  Na  Na2  1  0.23464209  0.03051145  0.20817517  1
  Na  Na3  1  0.76535791  0.96948855  0.79182483  1
  Na  Na4  1  0.75158395  0.02237205  0.06661503  1
  Na  Na5  1  0.75158395  0.52237205  0.43338497  1
  Na  Na6  1  0.24841605  0.47762795  0.56661503  1
  Na  Na7  1  0.76535791  0.46948855  0.70817517  1
  Sr  Sr8  1  0.74068318  0.46793464  0.11390864  1
  Sr  Sr9  1  0.74068318  0.96793464  0.38609136  1
  Sr  Sr10  1  0.25931682  0.53206536  0.88609136  1
  Sr  Sr11  1  0.25931682  0.03206536  0.61390864  1
  V  V12  1  0.29082899  0.21553366  0.40068541  1
  V  V13  1  0.29082899  0.71553366  0.09931459  1
  V  V14  1  0.78882894  0.70449739  0.95257060  1
  V  V15  1  0.21449014  0.25555552  0.76328380  1
  V  V16  1  0.70917101  0.28446634  0.90068541  1
  V  V17  1  0.78550986  0.74444448  0.23671620  1
  V  V18  1  0.21449014  0.75555552  0.73671620  1
  V  V19  1  0.21117106  0.79550261  0.45257060  1
  V  V20  1  0.78882894  0.20449739  0.54742940  1
  V  V21  1  0.21117106  0.29550261  0.04742940  1
  V  V22  1  0.78550986  0.24444448  0.26328380  1
  V  V23  1  0.70917101  0.78446634  0.59931459  1
  O  O24  1  0.34503402  0.87868580  0.08975097  1
  O  O25  1  0.48280294  0.84223859  0.68730448  1
  O  O26  1  0.25003193  0.77796584  0.84707047  1
  O  O27  1  0.17548948  0.12961450  0.06033845  1
  O  O28  1  0.96959476  0.35389679  0.98483531  1
  O  O29  1  0.34503402  0.37868580  0.41024903  1
  O  O30  1  0.65496598  0.12131420  0.91024903  1
  O  O31  1  0.74996807  0.22203416  0.15292953  1
  O  O32  1  0.03040524  0.64610321  0.01516469  1
  O  O33  1  0.25025786  0.88812333  0.35877407  1
  O  O34  1  0.74974214  0.61187667  0.85877407  1
  O  O35  1  0.74974214  0.11187667  0.64122593  1
  O  O36  1  0.25003193  0.27796584  0.65292953  1
  O  O37  1  0.03040524  0.14610321  0.48483531  1
  O  O38  1  0.51719706  0.15776141  0.31269552  1
  O  O39  1  0.51665527  0.64904816  0.01378552  1
  O  O40  1  0.65496598  0.62131420  0.58975097  1
  O  O41  1  0.96584252  0.32960210  0.80905525  1
  O  O42  1  0.48280294  0.34223859  0.81269552  1
  O  O43  1  0.51665527  0.14904816  0.48621448  1
  O  O44  1  0.81021566  0.40983756  0.28201299  1
  O  O45  1  0.82451052  0.87038550  0.93966155  1
  O  O46  1  0.18978434  0.59016244  0.71798701  1
  O  O47  1  0.81021566  0.90983756  0.21798701  1
  O  O48  1  0.48334473  0.35095184  0.98621448  1
  O  O49  1  0.96959476  0.85389679  0.51516469  1
  O  O50  1  0.17548948  0.62961450  0.43966155  1
  O  O51  1  0.03415748  0.17039790  0.30905525  1
  O  O52  1  0.25025786  0.38812333  0.14122593  1
  O  O53  1  0.18978434  0.09016244  0.78201299  1
  O  O54  1  0.03415748  0.67039790  0.19094475  1
  O  O55  1  0.51719706  0.65776141  0.18730448  1
  O  O56  1  0.82451052  0.37038550  0.56033845  1
  O  O57  1  0.48334473  0.85095184  0.51378552  1
  O  O58  1  0.74996807  0.72203416  0.34707047  1
  O  O59  1  0.96584252  0.82960210  0.69094475  1
