# generated using pymatgen
data_Nd2W2O9
_symmetry_space_group_name_H-M   'P 1'
_cell_length_a   7.79134392
_cell_length_b   9.36813610
_cell_length_c   10.00434952
_cell_angle_alpha   90.00000000
_cell_angle_beta   90.00000000
_cell_angle_gamma   107.70675484
_symmetry_Int_Tables_number   1
_chemical_formula_structural   Nd2W2O9
_chemical_formula_sum   'Nd8 W8 O36'
_cell_volume   695.62740797
_cell_formula_units_Z   4
loop_
 _symmetry_equiv_pos_site_id
 _symmetry_equiv_pos_as_xyz
  1  'x, y, z'
loop_
 _atom_site_type_symbol
 _atom_site_label
 _atom_site_symmetry_multiplicity
 _atom_site_fract_x
 _atom_site_fract_y
 _atom_site_fract_z
 _atom_site_occupancy
  Nd  Nd0  1  0.71251402  0.42522046  0.44925287  1
  Nd  Nd1  1  0.71251402  0.92522046  0.05074713  1
  Nd  Nd2  1  0.22660134  0.15228650  0.55452040  1
  Nd  Nd3  1  0.77339866  0.34771350  0.05452040  1
  Nd  Nd4  1  0.22660134  0.65228650  0.94547960  1
  Nd  Nd5  1  0.77339866  0.84771350  0.44547960  1
  Nd  Nd6  1  0.28748598  0.07477954  0.94925287  1
  Nd  Nd7  1  0.28748598  0.57477954  0.55074713  1
  W  W8  1  0.07162152  0.73827593  0.25112273  1
  W  W9  1  0.57866917  0.96648518  0.73053934  1
  W  W10  1  0.92837848  0.26172407  0.74887727  1
  W  W11  1  0.57866917  0.46648518  0.76946066  1
  W  W12  1  0.07162152  0.23827593  0.24887727  1
  W  W13  1  0.92837848  0.76172407  0.75112273  1
  W  W14  1  0.42133083  0.03351482  0.26946066  1
  W  W15  1  0.42133083  0.53351482  0.23053934  1
  O  O16  1  0.05644008  0.34647862  0.59225699  1
  O  O17  1  0.73479890  0.63810052  0.63443253  1
  O  O18  1  0.26520110  0.86189948  0.13443253  1
  O  O19  1  0.40963965  0.06984974  0.70820649  1
  O  O20  1  0.55427789  0.60881247  0.39593247  1
  O  O21  1  0.59036035  0.93015026  0.29179351  1
  O  O22  1  0.00578828  0.90373345  0.61840476  1
  O  O23  1  0.77463514  0.08254401  0.62224310  1
  O  O24  1  0.89831383  0.83700936  0.21752313  1
  O  O25  1  0.89831383  0.33700936  0.28247687  1
  O  O26  1  0.44572211  0.39118753  0.60406753  1
  O  O27  1  0.55427789  0.10881247  0.10406753  1
  O  O28  1  0.77463514  0.58254401  0.87775690  1
  O  O29  1  0.94355992  0.15352138  0.09225699  1
  O  O30  1  0.94355992  0.65352138  0.40774301  1
  O  O31  1  0.22536486  0.41745599  0.12224310  1
  O  O32  1  0.49878318  0.17546489  0.40233750  1
  O  O33  1  0.22536486  0.91745599  0.37775690  1
  O  O34  1  0.49878318  0.67546489  0.09766250  1
  O  O35  1  0.50121682  0.82453511  0.59766250  1
  O  O36  1  0.99421172  0.59626655  0.11840476  1
  O  O37  1  0.05644008  0.84647862  0.90774301  1
  O  O38  1  0.74393855  0.36090984  0.68514717  1
  O  O39  1  0.59036035  0.43015026  0.20820649  1
  O  O40  1  0.73479890  0.13810052  0.86556747  1
  O  O41  1  0.26520110  0.36189948  0.36556747  1
  O  O42  1  0.25606145  0.63909016  0.31485283  1
  O  O43  1  0.50121682  0.32453511  0.90233750  1
  O  O44  1  0.74393855  0.86090984  0.81485283  1
  O  O45  1  0.44572211  0.89118753  0.89593247  1
  O  O46  1  0.40963965  0.56984974  0.79179351  1
  O  O47  1  0.00578828  0.40373345  0.88159524  1
  O  O48  1  0.10168617  0.66299064  0.71752313  1
  O  O49  1  0.99421172  0.09626655  0.38159524  1
  O  O50  1  0.10168617  0.16299064  0.78247687  1
  O  O51  1  0.25606145  0.13909016  0.18514717  1
