# generated using pymatgen
data_YbBO3
_symmetry_space_group_name_H-M   'P 1'
_cell_length_a   6.64858343
_cell_length_b   6.64858275
_cell_length_c   9.08342050
_cell_angle_alpha   90.00000000
_cell_angle_beta   90.00000000
_cell_angle_gamma   120.00000344
_symmetry_Int_Tables_number   1
_chemical_formula_structural   YbBO3
_chemical_formula_sum   'Yb6 B6 O18'
_cell_volume   347.72685885
_cell_formula_units_Z   6
loop_
 _symmetry_equiv_pos_site_id
 _symmetry_equiv_pos_as_xyz
  1  'x, y, z'
loop_
 _atom_site_type_symbol
 _atom_site_label
 _atom_site_symmetry_multiplicity
 _atom_site_fract_x
 _atom_site_fract_y
 _atom_site_fract_z
 _atom_site_occupancy
  Yb  Yb0  1  -0.00000000  0.00000000  0.50000000  1
  Yb  Yb1  1  -0.00000000  0.00000000  0.00000000  1
  Yb  Yb2  1  0.66666700  0.33333300  0.50000000  1
  Yb  Yb3  1  0.66666700  0.33333300  0.00000000  1
  Yb  Yb4  1  0.33333300  0.66666700  0.50000000  1
  Yb  Yb5  1  0.33333300  0.66666700  0.00000000  1
  B  B6  1  0.33350528  0.27429080  0.75000000  1
  B  B7  1  0.72570920  0.05921449  0.75000000  1
  B  B8  1  0.94078551  0.66649471  0.75000000  1
  B  B9  1  0.94078551  0.27429080  0.25000000  1
  B  B10  1  0.72570920  0.66649471  0.25000000  1
  B  B11  1  0.33350529  0.05921449  0.25000000  1
  O  O12  1  0.65094294  0.98402067  0.89067795  1
  O  O13  1  0.33307773  0.34905706  0.89067795  1
  O  O14  1  0.65094294  0.98402067  0.60932205  1
  O  O15  1  0.33307773  0.34905706  0.60932205  1
  O  O16  1  0.33307773  0.98402067  0.39067795  1
  O  O17  1  0.01597933  0.66692227  0.60932205  1
  O  O18  1  0.33415863  0.26562369  0.25000000  1
  O  O19  1  0.93146506  0.66584137  0.25000000  1
  O  O20  1  0.73437631  0.06853494  0.25000000  1
  O  O21  1  0.73437631  0.66584137  0.75000000  1
  O  O22  1  0.93146506  0.26562369  0.75000000  1
  O  O23  1  0.33415863  0.06853494  0.75000000  1
  O  O24  1  0.33307773  0.98402067  0.10932205  1
  O  O25  1  0.65094294  0.66692227  0.39067795  1
  O  O26  1  0.01597933  0.34905706  0.39067795  1
  O  O27  1  0.01597933  0.34905706  0.10932205  1
  O  O28  1  0.65094294  0.66692227  0.10932205  1
  O  O29  1  0.01597933  0.66692227  0.89067795  1
