# generated using pymatgen
data_V2Ge(O2F)2
_symmetry_space_group_name_H-M   'P 1'
_cell_length_a   4.97762606
_cell_length_b   9.14849704
_cell_length_c   9.50379180
_cell_angle_alpha   90.00000000
_cell_angle_beta   90.00000000
_cell_angle_gamma   90.00000000
_symmetry_Int_Tables_number   1
_chemical_formula_structural   V2Ge(O2F)2
_chemical_formula_sum   'V8 Ge4 O16 F8'
_cell_volume   432.78174434
_cell_formula_units_Z   4
loop_
 _symmetry_equiv_pos_site_id
 _symmetry_equiv_pos_as_xyz
  1  'x, y, z'
loop_
 _atom_site_type_symbol
 _atom_site_label
 _atom_site_symmetry_multiplicity
 _atom_site_fract_x
 _atom_site_fract_y
 _atom_site_fract_z
 _atom_site_occupancy
  V  V0  1  0.40421444  0.91598201  0.87022850  1
  V  V1  1  0.59578556  0.08401799  0.12977150  1
  V  V2  1  0.90421444  0.41598201  0.62977150  1
  V  V3  1  0.09578556  0.58401799  0.37022850  1
  V  V4  1  0.40421444  0.58401799  0.87022850  1
  V  V5  1  0.90421444  0.08401799  0.62977150  1
  V  V6  1  0.09578556  0.91598201  0.37022850  1
  V  V7  1  0.59578556  0.41598201  0.12977150  1
  Ge  Ge8  1  0.60459632  0.75000000  0.56187654  1
  Ge  Ge9  1  0.89540368  0.75000000  0.06187654  1
  Ge  Ge10  1  0.10459632  0.25000000  0.93812346  1
  Ge  Ge11  1  0.39540368  0.25000000  0.43812346  1
  O  O12  1  0.71463001  0.90953277  0.00781612  1
  O  O13  1  0.78536999  0.90953277  0.50781612  1
  O  O14  1  0.78536999  0.59046723  0.50781612  1
  O  O15  1  0.20985939  0.75000000  0.97366082  1
  O  O16  1  0.28536999  0.09046723  0.99218388  1
  O  O17  1  0.28536999  0.40953277  0.99218388  1
  O  O18  1  0.95020716  0.75000000  0.24841885  1
  O  O19  1  0.29014061  0.75000000  0.47366082  1
  O  O20  1  0.21463001  0.09046723  0.49218388  1
  O  O21  1  0.54979284  0.75000000  0.74841885  1
  O  O22  1  0.79014061  0.25000000  0.02633918  1
  O  O23  1  0.21463001  0.40953277  0.49218388  1
  O  O24  1  0.71463001  0.59046723  0.00781612  1
  O  O25  1  0.70985939  0.25000000  0.52633918  1
  O  O26  1  0.04979284  0.25000000  0.75158115  1
  O  O27  1  0.45020716  0.25000000  0.25158115  1
  F  F28  1  0.08874120  0.93595180  0.74859771  1
  F  F29  1  0.08874120  0.56404820  0.74859771  1
  F  F30  1  0.91125880  0.43595180  0.25140229  1
  F  F31  1  0.41125880  0.93595180  0.24859771  1
  F  F32  1  0.58874120  0.06404820  0.75140229  1
  F  F33  1  0.58874120  0.43595180  0.75140229  1
  F  F34  1  0.41125880  0.56404820  0.24859771  1
  F  F35  1  0.91125880  0.06404820  0.25140229  1
