# generated using pymatgen
data_Cr2B(PO4)3
_symmetry_space_group_name_H-M   'P 1'
_cell_length_a   8.08600587
_cell_length_b   8.08600623
_cell_length_c   7.52777836
_cell_angle_alpha   90.00000000
_cell_angle_beta   90.00000000
_cell_angle_gamma   119.99999850
_symmetry_Int_Tables_number   1
_chemical_formula_structural   Cr2B(PO4)3
_chemical_formula_sum   'Cr4 B2 P6 O24'
_cell_volume   426.25117165
_cell_formula_units_Z   2
loop_
 _symmetry_equiv_pos_site_id
 _symmetry_equiv_pos_as_xyz
  1  'x, y, z'
loop_
 _atom_site_type_symbol
 _atom_site_label
 _atom_site_symmetry_multiplicity
 _atom_site_fract_x
 _atom_site_fract_y
 _atom_site_fract_z
 _atom_site_occupancy
  Cr  Cr0  1  0.00000000  0.00000000  0.56168830  1
  Cr  Cr1  1  0.66666700  0.33333300  0.44736619  1
  Cr  Cr2  1  0.66666700  0.33333300  0.06133090  1
  Cr  Cr3  1  0.00000000  0.00000000  0.94784955  1
  B  B4  1  0.33333300  0.66666700  0.75450487  1
  B  B5  1  0.33333300  0.66666700  0.25439070  1
  P  P6  1  0.01860657  0.71623687  0.25467148  1
  P  P7  1  0.38283803  0.03106955  0.75439738  1
  P  P8  1  0.64823153  0.61716197  0.75439738  1
  P  P9  1  0.96893045  0.35176847  0.75439738  1
  P  P10  1  0.28376313  0.30236970  0.25467148  1
  P  P11  1  0.69763030  0.98139343  0.25467148  1
  O  O12  1  0.19663629  0.47776343  0.75448470  1
  O  O13  1  0.28112714  0.80336371  0.75448470  1
  O  O14  1  0.60579100  0.50307340  0.92497398  1
  O  O15  1  0.49692660  0.10271760  0.92497398  1
  O  O16  1  0.14440154  0.61430339  0.25440133  1
  O  O17  1  0.76911343  0.93943022  0.42561879  1
  O  O18  1  0.49613167  0.10269306  0.58343540  1
  O  O19  1  0.72969939  0.18910317  0.25436754  1
  O  O20  1  0.76928326  0.93895090  0.08412196  1
  O  O21  1  0.89730694  0.39343861  0.58343540  1
  O  O22  1  0.81089683  0.54059622  0.25436754  1
  O  O23  1  0.20715438  0.06305902  0.75478391  1
  O  O24  1  0.85590464  0.79284562  0.75478391  1
  O  O25  1  0.60656139  0.50386833  0.58343540  1
  O  O26  1  0.17031679  0.23088657  0.42561879  1
  O  O27  1  0.16966764  0.23071674  0.08412196  1
  O  O28  1  0.38569661  0.53009815  0.25440133  1
  O  O29  1  0.52223657  0.71887286  0.75448470  1
  O  O30  1  0.89728240  0.39420900  0.92497398  1
  O  O31  1  0.06056978  0.82968321  0.42561879  1
  O  O32  1  0.93694098  0.14409536  0.75478391  1
  O  O33  1  0.45940378  0.27030061  0.25436754  1
  O  O34  1  0.46990185  0.85559846  0.25440133  1
  O  O35  1  0.06104910  0.83033236  0.08412196  1
