# generated using pymatgen
data_SrMn(SeO3)2
_symmetry_space_group_name_H-M   'P 1'
_cell_length_a   4.50411112
_cell_length_b   9.78123578
_cell_length_c   15.09303399
_cell_angle_alpha   90.00000000
_cell_angle_beta   90.00000000
_cell_angle_gamma   94.11221978
_symmetry_Int_Tables_number   1
_chemical_formula_structural   SrMn(SeO3)2
_chemical_formula_sum   'Sr4 Mn4 Se8 O24'
_cell_volume   663.22340863
_cell_formula_units_Z   4
loop_
 _symmetry_equiv_pos_site_id
 _symmetry_equiv_pos_as_xyz
  1  'x, y, z'
loop_
 _atom_site_type_symbol
 _atom_site_label
 _atom_site_symmetry_multiplicity
 _atom_site_fract_x
 _atom_site_fract_y
 _atom_site_fract_z
 _atom_site_occupancy
  Sr  Sr0  1  0.75769038  0.46499840  0.11667390  1
  Sr  Sr1  1  0.74230962  0.03500160  0.61667390  1
  Sr  Sr2  1  0.24230962  0.53500160  0.88332610  1
  Sr  Sr3  1  0.25769038  0.96499840  0.38332610  1
  Mn  Mn4  1  0.22364723  0.70879061  0.65294159  1
  Mn  Mn5  1  0.77635277  0.29120939  0.34705841  1
  Mn  Mn6  1  0.72364723  0.20879061  0.84705841  1
  Mn  Mn7  1  0.27635277  0.79120939  0.15294159  1
  Se  Se8  1  0.72102049  0.07782409  0.20099886  1
  Se  Se9  1  0.27897951  0.92217591  0.79900114  1
  Se  Se10  1  0.76320097  0.71934481  0.50016284  1
  Se  Se11  1  0.26320097  0.21934481  -0.00016284  1
  Se  Se12  1  0.22102049  0.57782409  0.29900114  1
  Se  Se13  1  0.77897951  0.42217591  0.70099886  1
  Se  Se14  1  0.23679903  0.28065519  0.49983716  1
  Se  Se15  1  0.73679903  0.78065519  1.00016284  1
  O  O16  1  0.13290908  0.50364762  0.69978798  1
  O  O17  1  0.35576472  0.78470142  0.00996510  1
  O  O18  1  0.20628597  0.93323993  0.68516877  1
  O  O19  1  0.14423528  0.71529858  0.50996510  1
  O  O20  1  0.19218099  0.22970472  0.88548937  1
  O  O21  1  0.83954141  0.24972234  0.70393844  1
  O  O22  1  0.79371403  0.06676007  0.31483123  1
  O  O23  1  0.16045859  0.75027766  0.29606156  1
  O  O24  1  0.23508234  0.38820165  0.03173344  1
  O  O25  1  0.26491766  0.11179835  0.53173344  1
  O  O26  1  0.33954141  0.74972234  0.79606156  1
  O  O27  1  0.73508234  0.88820165  0.46826656  1
  O  O28  1  0.76491766  0.61179835  0.96826656  1
  O  O29  1  0.86709092  0.49635238  0.30021202  1
  O  O30  1  0.63290908  0.00364762  0.80021202  1
  O  O31  1  0.64423528  0.21529858  0.99003490  1
  O  O32  1  0.80781901  0.77029528  0.11451063  1
  O  O33  1  0.30781901  0.27029528  0.38548937  1
  O  O34  1  0.36709092  0.99635238  0.19978798  1
  O  O35  1  0.66045859  0.25027766  0.20393844  1
  O  O36  1  0.69218099  0.72970472  0.61451063  1
  O  O37  1  0.29371403  0.56676007  0.18516877  1
  O  O38  1  0.70628597  0.43323993  0.81483123  1
  O  O39  1  0.85576472  0.28470142  0.49003490  1
