# generated using pymatgen
data_TbVO3
_symmetry_space_group_name_H-M   'P 1'
_cell_length_a   5.35105393
_cell_length_b   5.75067188
_cell_length_c   7.66421097
_cell_angle_alpha   90.00007026
_cell_angle_beta   89.99996377
_cell_angle_gamma   89.99996716
_symmetry_Int_Tables_number   1
_chemical_formula_structural   TbVO3
_chemical_formula_sum   'Tb4 V4 O12'
_cell_volume   235.84429071
_cell_formula_units_Z   4
loop_
 _symmetry_equiv_pos_site_id
 _symmetry_equiv_pos_as_xyz
  1  'x, y, z'
loop_
 _atom_site_type_symbol
 _atom_site_label
 _atom_site_symmetry_multiplicity
 _atom_site_fract_x
 _atom_site_fract_y
 _atom_site_fract_z
 _atom_site_occupancy
  Tb  Tb0  1  0.51967967  0.56896341  0.24999978  1
  Tb  Tb1  1  0.98032122  0.06896376  0.24999983  1
  Tb  Tb2  1  0.48032044  0.43103680  0.75000005  1
  Tb  Tb3  1  0.01967927  0.93103676  0.74999991  1
  V  V4  1  -0.00000071  0.49999924  0.49999958  1
  V  V5  1  0.50000053  -0.00000086  -0.00000151  1
  V  V6  1  0.00000110  0.50000081  -0.00000090  1
  V  V7  1  0.50000006  -0.00000050  0.50000077  1
  O  O8  1  0.69575622  0.31042390  0.44193854  1
  O  O9  1  0.30424376  0.68957625  0.94193824  1
  O  O10  1  0.80424390  0.81042379  0.05806230  1
  O  O11  1  0.19575576  0.18957624  0.94193854  1
  O  O12  1  0.69575637  0.31042378  0.05806184  1
  O  O13  1  0.88422818  0.54496391  0.75000034  1
  O  O14  1  0.19575585  0.18957598  0.55806242  1
  O  O15  1  0.38422748  0.95503639  0.24999993  1
  O  O16  1  0.80424427  0.81042410  0.44193820  1
  O  O17  1  0.61577190  0.04496460  0.75000015  1
  O  O18  1  0.30424347  0.68957623  0.55806202  1
  O  O19  1  0.11577126  0.45503543  0.24999996  1
