# generated using pymatgen
data_KFeAs2O7
_symmetry_space_group_name_H-M   'P 1'
_cell_length_a   7.83032255
_cell_length_b   8.58273107
_cell_length_c   10.30905000
_cell_angle_alpha   89.80741452
_cell_angle_beta   89.60140865
_cell_angle_gamma   73.36068282
_symmetry_Int_Tables_number   1
_chemical_formula_structural   KFeAs2O7
_chemical_formula_sum   'K4 Fe4 As8 O28'
_cell_volume   663.79750152
_cell_formula_units_Z   4
loop_
 _symmetry_equiv_pos_site_id
 _symmetry_equiv_pos_as_xyz
  1  'x, y, z'
loop_
 _atom_site_type_symbol
 _atom_site_label
 _atom_site_symmetry_multiplicity
 _atom_site_fract_x
 _atom_site_fract_y
 _atom_site_fract_z
 _atom_site_occupancy
  K  K0  1  0.16399293  0.46041655  0.67619594  1
  K  K1  1  0.82417431  0.06140723  0.17471869  1
  K  K2  1  0.83600707  0.53958345  0.32380406  1
  K  K3  1  0.17582569  0.93859277  0.82528131  1
  Fe  Fe4  1  0.76593284  0.26447781  0.59536420  1
  Fe  Fe5  1  0.23406716  0.73552219  0.40463580  1
  Fe  Fe6  1  0.76477526  0.77026391  0.90086457  1
  Fe  Fe7  1  0.23522474  0.22973609  0.09913543  1
  As  As8  1  0.12449622  0.66469706  0.10285278  1
  As  As9  1  0.55852998  0.67973578  0.64511424  1
  As  As10  1  0.44596138  0.79697329  0.13032356  1
  As  As11  1  0.87550378  0.33530294  0.89714722  1
  As  As12  1  0.84758519  0.84886978  0.57964549  1
  As  As13  1  0.44147002  0.32026422  0.35488576  1
  As  As14  1  0.55403862  0.20302671  0.86967644  1
  As  As15  1  0.15241481  0.15113022  0.42035451  1
  O  O16  1  0.32661062  0.98199436  0.07350432  1
  O  O17  1  0.10798328  0.47383827  0.12113732  1
  O  O18  1  0.44613266  0.75707419  0.29313124  1
  O  O19  1  0.28161729  0.49973240  0.37417256  1
  O  O20  1  0.89201672  0.52616173  0.87886268  1
  O  O21  1  0.66250674  0.73800512  0.07798108  1
  O  O22  1  0.08030202  0.77823107  0.24239558  1
  O  O23  1  0.45361147  0.24137746  0.20128986  1
  O  O24  1  0.18434749  0.95811806  0.47174484  1
  O  O25  1  0.71838271  0.50026760  0.62582744  1
  O  O26  1  0.36304725  0.18512040  0.45743706  1
  O  O27  1  0.63695275  0.81487960  0.54256294  1
  O  O28  1  0.99119105  0.78308632  0.98849004  1
  O  O29  1  0.10183512  0.19208381  0.26106214  1
  O  O30  1  0.81565251  0.04188194  0.52825516  1
  O  O31  1  0.35414954  0.68106304  0.59085852  1
  O  O32  1  0.65354212  0.34400322  0.94865610  1
  O  O33  1  0.33749326  0.26199488  0.92201892  1
  O  O34  1  0.91969798  0.22176893  0.75760442  1
  O  O35  1  0.64585046  0.31893696  0.40914148  1
  O  O36  1  0.34645788  0.65599678  0.05134390  1
  O  O37  1  0.55386734  0.24292581  0.70686876  1
  O  O38  1  0.00209325  0.71056847  0.48964788  1
  O  O39  1  0.00880895  0.21691368  0.01150996  1
  O  O40  1  0.89816488  0.80791619  0.73893786  1
  O  O41  1  0.54638853  0.75862254  0.79871014  1
  O  O42  1  0.67338938  0.01800564  0.92649568  1
  O  O43  1  0.99790675  0.28943153  0.51035212  1
