# generated using pymatgen
data_V2Zn3TeO10
_symmetry_space_group_name_H-M   'P 1'
_cell_length_a   5.34145460
_cell_length_b   5.64010998
_cell_length_c   30.85591065
_cell_angle_alpha   90.00000000
_cell_angle_beta   90.00000000
_cell_angle_gamma   98.54976672
_symmetry_Int_Tables_number   1
_chemical_formula_structural   V2Zn3TeO10
_chemical_formula_sum   'V8 Zn12 Te4 O40'
_cell_volume   919.24694543
_cell_formula_units_Z   4
loop_
 _symmetry_equiv_pos_site_id
 _symmetry_equiv_pos_as_xyz
  1  'x, y, z'
loop_
 _atom_site_type_symbol
 _atom_site_label
 _atom_site_symmetry_multiplicity
 _atom_site_fract_x
 _atom_site_fract_y
 _atom_site_fract_z
 _atom_site_occupancy
  V  V0  1  0.24755660  0.21808885  0.44447072  1
  V  V1  1  0.07045671  0.72762878  0.20529016  1
  V  V2  1  0.24755660  0.71808885  0.05552928  1
  V  V3  1  0.92954329  0.27237122  0.79470984  1
  V  V4  1  0.07045671  0.22762878  0.29470984  1
  V  V5  1  0.92954329  0.77237122  0.70529016  1
  V  V6  1  0.75244340  0.78191115  0.55552928  1
  V  V7  1  0.75244340  0.28191115  0.94447072  1
  Zn  Zn8  1  0.77976253  0.73189022  0.87031194  1
  Zn  Zn9  1  0.69441548  0.35716506  0.05792357  1
  Zn  Zn10  1  0.22023747  0.26810978  0.12968806  1
  Zn  Zn11  1  0.42109190  0.27948109  0.72683570  1
  Zn  Zn12  1  0.77976253  0.23189022  0.62968806  1
  Zn  Zn13  1  0.30558452  0.64283494  0.94207643  1
  Zn  Zn14  1  0.69441548  0.85716506  0.44207643  1
  Zn  Zn15  1  0.30558452  0.14283494  0.55792357  1
  Zn  Zn16  1  0.57890810  0.72051891  0.27316430  1
  Zn  Zn17  1  0.57890810  0.22051891  0.22683570  1
  Zn  Zn18  1  0.42109190  0.77948109  0.77316430  1
  Zn  Zn19  1  0.22023747  0.76810978  0.37031194  1
  Te  Te20  1  0.67033877  0.93125800  0.13094218  1
  Te  Te21  1  0.32966123  0.06874200  0.86905782  1
  Te  Te22  1  0.67033877  0.43125800  0.36905782  1
  Te  Te23  1  0.32966123  0.56874200  0.63094218  1
  O  O24  1  0.11695887  0.82687179  0.90053825  1
  O  O25  1  0.31721796  0.73763553  0.00188984  1
  O  O26  1  0.11695887  0.32687179  0.59946175  1
  O  O27  1  0.07134564  0.83196830  0.56494018  1
  O  O28  1  0.68770480  0.14497370  0.76039963  1
  O  O29  1  0.79866653  0.06777597  0.26896206  1
  O  O30  1  0.31721796  0.23763553  0.49811016  1
  O  O31  1  0.48691344  0.34113819  0.66424038  1
  O  O32  1  0.81728019  0.45105770  0.83181046  1
  O  O33  1  0.03245084  0.02765046  0.82476893  1
  O  O34  1  0.68278204  0.26236447  0.99811016  1
  O  O35  1  0.51308656  0.15886181  0.16424038  1
  O  O36  1  0.61375609  0.51686440  0.92049127  1
  O  O37  1  0.79866653  0.56777597  0.23103794  1
  O  O38  1  0.81728019  0.95105770  0.66818954  1
  O  O39  1  0.39183121  0.98435121  0.08506608  1
  O  O40  1  0.39183121  0.48435121  0.41493392  1
  O  O41  1  0.31229520  0.85502630  0.23960037  1
  O  O42  1  0.18271981  0.04894230  0.33181046  1
  O  O43  1  0.60816879  0.01564879  0.91493392  1
  O  O44  1  0.96754916  0.47234954  0.32476893  1
  O  O45  1  0.38624391  0.98313560  0.42049127  1
  O  O46  1  0.20133347  0.93222403  0.73103794  1
  O  O47  1  0.38624391  0.48313560  0.07950873  1
  O  O48  1  0.96754916  0.97234954  0.17523107  1
  O  O49  1  0.31229520  0.35502630  0.26039963  1
  O  O50  1  0.20133347  0.43222403  0.76896206  1
  O  O51  1  0.92865436  0.66803170  0.06494018  1
  O  O52  1  0.03245084  0.52765046  0.67523107  1
  O  O53  1  0.48691344  0.84113819  0.83575962  1
  O  O54  1  0.60816879  0.51564879  0.58506608  1
  O  O55  1  0.68770480  0.64497370  0.73960037  1
  O  O56  1  0.61375609  0.01686440  0.57950873  1
  O  O57  1  0.18271981  0.54894230  0.16818954  1
  O  O58  1  0.92865436  0.16803170  0.43505982  1
  O  O59  1  0.51308656  0.65886181  0.33575962  1
  O  O60  1  0.07134564  0.33196830  0.93505982  1
  O  O61  1  0.68278204  0.76236447  0.50188984  1
  O  O62  1  0.88304113  0.17312821  0.09946175  1
  O  O63  1  0.88304113  0.67312821  0.40053825  1
