# generated using pymatgen
data_FeTe6O13
_symmetry_space_group_name_H-M   'P 1'
_cell_length_a   8.82009546
_cell_length_b   8.82009535
_cell_length_c   8.82009530
_cell_angle_alpha   72.09594132
_cell_angle_beta   72.09594155
_cell_angle_gamma   72.09593818
_symmetry_Int_Tables_number   1
_chemical_formula_structural   FeTe6O13
_chemical_formula_sum   'Fe2 Te12 O26'
_cell_volume   603.88339954
_cell_formula_units_Z   2
loop_
 _symmetry_equiv_pos_site_id
 _symmetry_equiv_pos_as_xyz
  1  'x, y, z'
loop_
 _atom_site_type_symbol
 _atom_site_label
 _atom_site_symmetry_multiplicity
 _atom_site_fract_x
 _atom_site_fract_y
 _atom_site_fract_z
 _atom_site_occupancy
  Fe  Fe0  1  0.74375032  0.74375032  0.74375032  1
  Fe  Fe1  1  0.25624968  0.25624968  0.25624968  1
  Te  Te2  1  0.05726576  0.66658653  0.98915347  1
  Te  Te3  1  0.17653313  0.46866560  0.57760991  1
  Te  Te4  1  0.57760991  0.17653313  0.46866560  1
  Te  Te5  1  0.01084653  0.94273424  0.33341347  1
  Te  Te6  1  0.53133440  0.42239009  0.82346687  1
  Te  Te7  1  0.82346687  0.53133440  0.42239009  1
  Te  Te8  1  0.42239009  0.82346687  0.53133440  1
  Te  Te9  1  0.98915347  0.05726576  0.66658653  1
  Te  Te10  1  0.94273424  0.33341347  0.01084653  1
  Te  Te11  1  0.33341347  0.01084653  0.94273424  1
  Te  Te12  1  0.66658653  0.98915347  0.05726576  1
  Te  Te13  1  0.46866560  0.57760991  0.17653313  1
  O  O14  1  0.70114977  0.38732282  0.62526008  1
  O  O15  1  0.91164916  0.91164916  0.91164916  1
  O  O16  1  0.91987134  0.89921814  0.60080013  1
  O  O17  1  0.61267718  0.37473992  0.29885023  1
  O  O18  1  0.88542186  0.63616439  0.54358404  1
  O  O19  1  0.69741911  0.20054960  0.94388984  1
  O  O20  1  0.10078186  0.39919987  0.08012866  1
  O  O21  1  0.08835084  0.08835084  0.08835084  1
  O  O22  1  0.05611016  0.30258089  0.79945040  1
  O  O23  1  0.36383561  0.45641596  0.11457814  1
  O  O24  1  0.29885023  0.61267718  0.37473992  1
  O  O25  1  0.11457814  0.36383561  0.45641596  1
  O  O26  1  0.54358404  0.88542186  0.63616439  1
  O  O27  1  0.20054960  0.94388984  0.69741911  1
  O  O28  1  0.89921814  0.60080013  0.91987134  1
  O  O29  1  0.60080013  0.91987134  0.89921814  1
  O  O30  1  0.08012866  0.10078186  0.39919987  1
  O  O31  1  0.94388984  0.69741911  0.20054960  1
  O  O32  1  0.62526008  0.70114977  0.38732282  1
  O  O33  1  0.79945040  0.05611016  0.30258089  1
  O  O34  1  0.39919987  0.08012866  0.10078186  1
  O  O35  1  0.63616439  0.54358404  0.88542186  1
  O  O36  1  0.38732282  0.62526008  0.70114977  1
  O  O37  1  0.37473992  0.29885023  0.61267718  1
  O  O38  1  0.30258089  0.79945040  0.05611016  1
  O  O39  1  0.45641596  0.11457814  0.36383561  1
