# generated using pymatgen
data_GdMoClO4
_symmetry_space_group_name_H-M   'P 1'
_cell_length_a   6.39144915
_cell_length_b   6.39144903
_cell_length_c   6.98552620
_cell_angle_alpha   76.12740099
_cell_angle_beta   76.12740128
_cell_angle_gamma   71.00706547
_symmetry_Int_Tables_number   1
_chemical_formula_structural   GdMoClO4
_chemical_formula_sum   'Gd2 Mo2 Cl2 O8'
_cell_volume   257.85933362
_cell_formula_units_Z   2
loop_
 _symmetry_equiv_pos_site_id
 _symmetry_equiv_pos_as_xyz
  1  'x, y, z'
loop_
 _atom_site_type_symbol
 _atom_site_label
 _atom_site_symmetry_multiplicity
 _atom_site_fract_x
 _atom_site_fract_y
 _atom_site_fract_z
 _atom_site_occupancy
  Gd  Gd0  1  0.22130979  0.22130979  0.88585939  1
  Gd  Gd1  1  0.77869021  0.77869021  0.11414061  1
  Mo  Mo2  1  0.63768935  0.63768935  0.73177398  1
  Mo  Mo3  1  0.36231065  0.36231065  0.26822602  1
  Cl  Cl4  1  0.01077705  0.01077705  0.23328023  1
  Cl  Cl5  1  0.98922295  0.98922295  0.76671977  1
  O  O6  1  0.29380688  0.29380688  0.53235788  1
  O  O7  1  0.50941609  0.88710452  0.84674194  1
  O  O8  1  0.70619312  0.70619312  0.46764212  1
  O  O9  1  0.49058391  0.11289548  0.15325806  1
  O  O10  1  0.11289548  0.49058391  0.15325806  1
  O  O11  1  0.54110679  0.54110679  0.20352955  1
  O  O12  1  0.88710452  0.50941609  0.84674194  1
  O  O13  1  0.45889321  0.45889321  0.79647045  1
