# generated using pymatgen
data_Na2GaNiF7
_symmetry_space_group_name_H-M   'P 1'
_cell_length_a   7.23166909
_cell_length_b   7.34864822
_cell_length_c   7.34864869
_cell_angle_alpha   61.56906454
_cell_angle_beta   60.52519493
_cell_angle_gamma   60.52519783
_symmetry_Int_Tables_number   1
_chemical_formula_structural   Na2GaNiF7
_chemical_formula_sum   'Na4 Ga2 Ni2 F14'
_cell_volume   281.52049104
_cell_formula_units_Z   2
loop_
 _symmetry_equiv_pos_site_id
 _symmetry_equiv_pos_as_xyz
  1  'x, y, z'
loop_
 _atom_site_type_symbol
 _atom_site_label
 _atom_site_symmetry_multiplicity
 _atom_site_fract_x
 _atom_site_fract_y
 _atom_site_fract_z
 _atom_site_occupancy
  Na  Na0  1  0.50000000  0.50000000  0.00000000  1
  Na  Na1  1  0.00000000  0.00000000  0.00000000  1
  Na  Na2  1  0.00000000  0.50000000  0.00000000  1
  Na  Na3  1  0.50000000  0.50000000  0.50000000  1
  Ga  Ga4  1  0.50000000  0.00000000  0.00000000  1
  Ga  Ga5  1  0.00000000  0.50000000  0.50000000  1
  Ni  Ni6  1  0.00000000  0.00000000  0.50000000  1
  Ni  Ni7  1  0.50000000  0.00000000  0.50000000  1
  F  F8  1  0.75000000  0.10913988  0.39086012  1
  F  F9  1  0.58872246  0.68381319  0.13874189  1
  F  F10  1  0.18821747  0.05177486  0.17856378  1
  F  F11  1  0.08144389  0.67856378  0.55177486  1
  F  F12  1  0.91127754  0.36125811  0.81618681  1
  F  F13  1  0.31178253  0.32143622  0.44822514  1
  F  F14  1  0.58144389  0.05177486  0.17856378  1
  F  F15  1  0.68821747  0.67856378  0.55177486  1
  F  F16  1  0.25000000  0.89086012  0.60913988  1
  F  F17  1  0.41855611  0.94822514  0.82143622  1
  F  F18  1  0.41127754  0.31618681  0.86125811  1
  F  F19  1  0.81178253  0.94822514  0.82143622  1
  F  F20  1  0.91855611  0.32143622  0.44822514  1
  F  F21  1  0.08872246  0.63874189  0.18381319  1
