# generated using pymatgen
data_KCa10V7O28
_symmetry_space_group_name_H-M   'P 1'
_cell_length_a   14.23949845
_cell_length_b   14.23949875
_cell_length_c   14.23949811
_cell_angle_alpha   45.55360665
_cell_angle_beta   45.55360542
_cell_angle_gamma   45.55360631
_symmetry_Int_Tables_number   1
_chemical_formula_structural   KCa10V7O28
_chemical_formula_sum   'K2 Ca20 V14 O56'
_cell_volume   1340.92573554
_cell_formula_units_Z   2
loop_
 _symmetry_equiv_pos_site_id
 _symmetry_equiv_pos_as_xyz
  1  'x, y, z'
loop_
 _atom_site_type_symbol
 _atom_site_label
 _atom_site_symmetry_multiplicity
 _atom_site_fract_x
 _atom_site_fract_y
 _atom_site_fract_z
 _atom_site_occupancy
  K  K0  1  0.29688554  0.29688554  0.29688554  1
  K  K1  1  0.79688554  0.79688554  0.79688554  1
  Ca  Ca2  1  0.48027684  0.48027684  0.48027684  1
  Ca  Ca3  1  0.07477787  0.63705886  0.02728695  1
  Ca  Ca4  1  0.32440700  0.91124283  0.91452108  1
  Ca  Ca5  1  0.63705886  0.02728695  0.07477787  1
  Ca  Ca6  1  0.91124283  0.91452108  0.32440700  1
  Ca  Ca7  1  0.00225846  0.41919805  0.04473879  1
  Ca  Ca8  1  0.41124283  0.82440700  0.41452108  1
  Ca  Ca9  1  0.41452108  0.41124283  0.82440700  1
  Ca  Ca10  1  0.02728695  0.07477787  0.63705886  1
  Ca  Ca11  1  0.91452108  0.32440700  0.91124283  1
  Ca  Ca12  1  0.98027684  0.98027684  0.98027684  1
  Ca  Ca13  1  0.13705886  0.57477787  0.52728695  1
  Ca  Ca14  1  0.57477787  0.52728695  0.13705886  1
  Ca  Ca15  1  0.52728695  0.13705886  0.57477787  1
  Ca  Ca16  1  0.54473879  0.91919805  0.50225846  1
  Ca  Ca17  1  0.04473879  0.00225846  0.41919805  1
  Ca  Ca18  1  0.91919805  0.50225846  0.54473879  1
  Ca  Ca19  1  0.82440700  0.41452108  0.41124283  1
  Ca  Ca20  1  0.41919805  0.04473879  0.00225846  1
  Ca  Ca21  1  0.50225846  0.54473879  0.91919805  1
  V  V22  1  0.71116378  0.66956413  0.15752859  1
  V  V23  1  0.16956413  0.21116378  0.65752859  1
  V  V24  1  0.24762189  0.30197535  0.79682777  1
  V  V25  1  0.66956413  0.15752859  0.71116378  1
  V  V26  1  0.80197535  0.74762189  0.29682777  1
  V  V27  1  0.29682777  0.80197535  0.74762189  1
  V  V28  1  0.30197535  0.79682777  0.24762189  1
  V  V29  1  0.71184850  0.71184850  0.71184850  1
  V  V30  1  0.79682777  0.24762189  0.30197535  1
  V  V31  1  0.21116378  0.65752859  0.16956413  1
  V  V32  1  0.65752859  0.16956413  0.21116378  1
  V  V33  1  0.74762189  0.29682777  0.80197535  1
  V  V34  1  0.15752859  0.71116378  0.66956413  1
  V  V35  1  0.21184850  0.21184850  0.21184850  1
  O  O36  1  0.35985584  0.62089410  0.80322113  1
  O  O37  1  0.85658644  0.07205023  0.64235943  1
  O  O38  1  0.60065027  0.08313331  0.72537681  1
  O  O39  1  0.11608393  0.10386491  0.84323768  1
  O  O40  1  0.85027101  0.06192429  0.40436822  1
  O  O41  1  0.57931447  0.88183752  0.71543628  1
  O  O42  1  0.16619757  0.16619757  0.16619757  1
  O  O43  1  0.83238203  0.10826709  0.87080961  1
  O  O44  1  0.58313331  0.10065027  0.22537681  1
  O  O45  1  0.22537681  0.58313331  0.10065027  1
  O  O46  1  0.10386491  0.84323768  0.11608393  1
  O  O47  1  0.57205023  0.35658644  0.14235943  1
  O  O48  1  0.07205023  0.64235943  0.85658644  1
  O  O49  1  0.34323768  0.60386491  0.61608393  1
  O  O50  1  0.80025972  0.36734126  0.81210166  1
  O  O51  1  0.60826709  0.33238203  0.37080961  1
  O  O52  1  0.38514051  0.64821705  0.07676835  1
  O  O53  1  0.07676835  0.38514051  0.64821705  1
  O  O54  1  0.12089410  0.85985584  0.30322113  1
  O  O55  1  0.66619757  0.66619757  0.66619757  1
  O  O56  1  0.72537681  0.60065027  0.08313331  1
  O  O57  1  0.33238203  0.37080961  0.60826709  1
  O  O58  1  0.88183752  0.71543628  0.57931447  1
  O  O59  1  0.80322113  0.35985584  0.62089410  1
  O  O60  1  0.40436822  0.85027101  0.06192429  1
  O  O61  1  0.08313331  0.72537681  0.60065027  1
  O  O62  1  0.30322113  0.12089410  0.85985584  1
  O  O63  1  0.62089410  0.80322113  0.35985584  1
  O  O64  1  0.71543628  0.57931447  0.88183752  1
  O  O65  1  0.56192429  0.35027101  0.90436822  1
  O  O66  1  0.21543628  0.38183752  0.07931447  1
  O  O67  1  0.87080961  0.83238203  0.10826709  1
  O  O68  1  0.81210166  0.80025972  0.36734126  1
  O  O69  1  0.37080961  0.60826709  0.33238203  1
  O  O70  1  0.31210166  0.86734126  0.30025972  1
  O  O71  1  0.36734126  0.81210166  0.80025972  1
  O  O72  1  0.35658644  0.14235943  0.57205023  1
  O  O73  1  0.61608393  0.34323768  0.60386491  1
  O  O74  1  0.06192429  0.40436822  0.85027101  1
  O  O75  1  0.57676835  0.14821705  0.88514051  1
  O  O76  1  0.60386491  0.61608393  0.34323768  1
  O  O77  1  0.14821705  0.88514051  0.57676835  1
  O  O78  1  0.64235943  0.85658644  0.07205023  1
  O  O79  1  0.90436822  0.56192429  0.35027101  1
  O  O80  1  0.88514051  0.57676835  0.14821705  1
  O  O81  1  0.07931447  0.21543628  0.38183752  1
  O  O82  1  0.85985584  0.30322113  0.12089410  1
  O  O83  1  0.86734126  0.30025972  0.31210166  1
  O  O84  1  0.10065027  0.22537681  0.58313331  1
  O  O85  1  0.10826709  0.87080961  0.83238203  1
  O  O86  1  0.30025972  0.31210166  0.86734126  1
  O  O87  1  0.38183752  0.07931447  0.21543628  1
  O  O88  1  0.64821705  0.07676835  0.38514051  1
  O  O89  1  0.84323768  0.11608393  0.10386491  1
  O  O90  1  0.14235943  0.57205023  0.35658644  1
  O  O91  1  0.35027101  0.90436822  0.56192429  1
