# generated using pymatgen
data_K2Ni(MoO4)2
_symmetry_space_group_name_H-M   'P 1'
_cell_length_a   8.59385677
_cell_length_b   10.59217843
_cell_length_c   11.06808709
_cell_angle_alpha   90.00000000
_cell_angle_beta   90.00000000
_cell_angle_gamma   113.93311580
_symmetry_Int_Tables_number   1
_chemical_formula_structural   K2Ni(MoO4)2
_chemical_formula_sum   'K8 Ni4 Mo8 O32'
_cell_volume   920.87672006
_cell_formula_units_Z   4
loop_
 _symmetry_equiv_pos_site_id
 _symmetry_equiv_pos_as_xyz
  1  'x, y, z'
loop_
 _atom_site_type_symbol
 _atom_site_label
 _atom_site_symmetry_multiplicity
 _atom_site_fract_x
 _atom_site_fract_y
 _atom_site_fract_z
 _atom_site_occupancy
  K  K0  1  0.03623086  0.57246172  0.25000000  1
  K  K1  1  0.63145516  0.26291033  0.06969941  1
  K  K2  1  0.13145516  0.26291033  0.43030059  1
  K  K3  1  0.96376914  0.42753828  0.75000000  1
  K  K4  1  0.46376914  0.42753828  0.75000000  1
  K  K5  1  0.86854484  0.73708967  0.56969941  1
  K  K6  1  0.53623086  0.57246172  0.25000000  1
  K  K7  1  0.36854484  0.73708967  0.93030059  1
  Ni  Ni8  1  0.17841933  0.00000000  0.00000000  1
  Ni  Ni9  1  0.67841933  0.00000000  0.50000000  1
  Ni  Ni10  1  0.82158067  0.00000000  0.00000000  1
  Ni  Ni11  1  0.32158067  0.00000000  0.50000000  1
  Mo  Mo12  1  0.46859993  0.93719986  0.21644850  1
  Mo  Mo13  1  0.53140007  0.06280014  0.78355150  1
  Mo  Mo14  1  0.65683159  0.31366318  0.46505138  1
  Mo  Mo15  1  0.96859993  0.93719986  0.28355150  1
  Mo  Mo16  1  0.34316841  0.68633682  0.53494862  1
  Mo  Mo17  1  0.03140007  0.06280014  0.71644850  1
  Mo  Mo18  1  0.84316841  0.68633682  0.96505138  1
  Mo  Mo19  1  0.15683159  0.31366318  0.03494862  1
  O  O20  1  0.16456272  0.00307305  0.36463355  1
  O  O21  1  0.43262743  0.21765607  0.49936429  1
  O  O22  1  0.00087781  0.00175562  0.12665993  1
  O  O23  1  0.83543728  0.99692695  0.63536645  1
  O  O24  1  0.12303585  0.24607170  0.70631771  1
  O  O25  1  0.62303585  0.24607170  0.79368229  1
  O  O26  1  0.16148966  0.99692695  0.63536645  1
  O  O27  1  0.73254172  0.46508345  0.55743357  1
  O  O28  1  0.66148966  0.99692695  0.86463355  1
  O  O29  1  0.78502864  0.21765607  0.49936429  1
  O  O30  1  0.76745828  0.53491655  0.05743357  1
  O  O31  1  0.31537829  0.63075659  0.68955620  1
  O  O32  1  0.37696415  0.75392830  0.20631771  1
  O  O33  1  0.93262743  0.21765607  0.00063571  1
  O  O34  1  0.83851034  0.00307305  0.36463355  1
  O  O35  1  0.87696415  0.75392830  0.29368229  1
  O  O36  1  0.21497136  0.78234393  0.50063571  1
  O  O37  1  0.28502864  0.21765607  0.00063571  1
  O  O38  1  0.49912219  0.99824438  0.62665993  1
  O  O39  1  0.06737257  0.78234393  0.99936429  1
  O  O40  1  0.99912219  0.99824438  0.87334007  1
  O  O41  1  0.18462171  0.36924341  0.18955620  1
  O  O42  1  0.23254172  0.46508345  0.94256643  1
  O  O43  1  0.33543728  0.99692695  0.86463355  1
  O  O44  1  0.50087781  0.00175562  0.37334007  1
  O  O45  1  0.81537829  0.63075659  0.81044380  1
  O  O46  1  0.66456272  0.00307305  0.13536645  1
  O  O47  1  0.68462171  0.36924341  0.31044380  1
  O  O48  1  0.71497136  0.78234393  0.99936429  1
  O  O49  1  0.26745828  0.53491655  0.44256643  1
  O  O50  1  0.56737257  0.78234393  0.50063571  1
  O  O51  1  0.33851034  0.00307305  0.13536645  1
