# generated using pymatgen
data_RbMnPO4
_symmetry_space_group_name_H-M   'P 1'
_cell_length_a   5.54663703
_cell_length_b   9.11035069
_cell_length_c   9.34112154
_cell_angle_alpha   90.24050680
_cell_angle_beta   90.00000000
_cell_angle_gamma   90.00000000
_symmetry_Int_Tables_number   1
_chemical_formula_structural   RbMnPO4
_chemical_formula_sum   'Rb4 Mn4 P4 O16'
_cell_volume   472.01960652
_cell_formula_units_Z   4
loop_
 _symmetry_equiv_pos_site_id
 _symmetry_equiv_pos_as_xyz
  1  'x, y, z'
loop_
 _atom_site_type_symbol
 _atom_site_label
 _atom_site_symmetry_multiplicity
 _atom_site_fract_x
 _atom_site_fract_y
 _atom_site_fract_z
 _atom_site_occupancy
  Rb  Rb0  1  0.88013799  0.99175607  0.80151006  1
  Rb  Rb1  1  0.41308022  0.50923551  0.31013758  1
  Rb  Rb2  1  0.38013799  0.00824393  0.19848994  1
  Rb  Rb3  1  0.91308022  0.49076449  0.68986242  1
  Mn  Mn4  1  0.90770407  0.32784582  0.09341273  1
  Mn  Mn5  1  0.40770407  0.67215418  0.90658727  1
  Mn  Mn6  1  0.86310142  0.83799459  0.43011331  1
  Mn  Mn7  1  0.36310142  0.16200541  0.56988669  1
  P  P8  1  0.40136961  0.79440598  0.57210822  1
  P  P9  1  0.90136961  0.20559402  0.42789178  1
  P  P10  1  0.40825332  0.29819994  0.90089641  1
  P  P11  1  0.90825332  0.70180006  0.09910359  1
  O  O12  1  0.17763195  0.73962830  0.06758733  1
  O  O13  1  0.80741588  0.81139815  0.21209316  1
  O  O14  1  0.68617125  0.26468452  0.51679462  1
  O  O15  1  0.62649202  0.69533145  0.54625428  1
  O  O16  1  0.38759179  0.45712913  0.84187094  1
  O  O17  1  0.83076605  0.19682448  0.26723812  1
  O  O18  1  0.76200445  0.71730728  0.95736286  1
  O  O19  1  0.88759179  0.54287087  0.15812906  1
  O  O20  1  0.30741588  0.18860185  0.78790684  1
  O  O21  1  0.67763195  0.26037170  0.93241267  1
  O  O22  1  0.98398100  0.05050332  0.48196709  1
  O  O23  1  0.12649202  0.30466855  0.45374572  1
  O  O24  1  0.33076605  0.80317552  0.73276188  1
  O  O25  1  0.18617125  0.73531548  0.48320538  1
  O  O26  1  0.26200445  0.28269272  0.04263714  1
  O  O27  1  0.48398100  0.94949668  0.51803291  1
