# generated using pymatgen
data_Ti2Fe(PO5)2
_symmetry_space_group_name_H-M   'P 1'
_cell_length_a   7.44637097
_cell_length_b   7.50816845
_cell_length_c   7.50984501
_cell_angle_alpha   90.00000000
_cell_angle_beta   119.59715308
_cell_angle_gamma   90.00000000
_symmetry_Int_Tables_number   1
_chemical_formula_structural   Ti2Fe(PO5)2
_chemical_formula_sum   'Ti4 Fe2 P4 O20'
_cell_volume   365.08077304
_cell_formula_units_Z   2
loop_
 _symmetry_equiv_pos_site_id
 _symmetry_equiv_pos_as_xyz
  1  'x, y, z'
loop_
 _atom_site_type_symbol
 _atom_site_label
 _atom_site_symmetry_multiplicity
 _atom_site_fract_x
 _atom_site_fract_y
 _atom_site_fract_z
 _atom_site_occupancy
  Ti  Ti0  1  0.97221991  0.27627607  0.70840826  1
  Ti  Ti1  1  0.02778009  0.72372393  0.29159174  1
  Ti  Ti2  1  0.47221991  0.22372393  0.20840826  1
  Ti  Ti3  1  0.52778009  0.77627607  0.79159174  1
  Fe  Fe4  1  0.00000000  0.00000000  0.00000000  1
  Fe  Fe5  1  0.50000000  0.50000000  0.50000000  1
  P  P6  1  0.25011695  0.61804047  0.00210902  1
  P  P7  1  0.75011695  0.88195953  0.50210902  1
  P  P8  1  0.74988305  0.38195953  0.99789098  1
  P  P9  1  0.24988305  0.11804047  0.49789098  1
  O  O10  1  0.36844967  0.73195163  0.92398010  1
  O  O11  1  0.63155033  0.26804837  0.07601990  1
  O  O12  1  0.73527875  0.34185346  0.50330931  1
  O  O13  1  0.13155033  0.23195163  0.57601990  1
  O  O14  1  0.39966650  0.49363176  0.17964138  1
  O  O15  1  0.64726119  0.75401564  0.58683797  1
  O  O16  1  0.76472125  0.84185346  0.99669069  1
  O  O17  1  0.08642002  0.50446973  0.82477010  1
  O  O18  1  0.14726119  0.74598436  0.08683797  1
  O  O19  1  0.35273881  0.24598436  0.41316203  1
  O  O20  1  0.89966650  0.00636824  0.67964138  1
  O  O21  1  0.23527875  0.15814654  0.00330931  1
  O  O22  1  0.86844967  0.76804837  0.42398010  1
  O  O23  1  0.58642002  0.99553027  0.32477010  1
  O  O24  1  0.26472125  0.65814654  0.49669069  1
  O  O25  1  0.60033350  0.50636824  0.82035862  1
  O  O26  1  0.91357998  0.49553027  0.17522990  1
  O  O27  1  0.85273881  0.25401564  0.91316203  1
  O  O28  1  0.10033350  0.99363176  0.32035862  1
  O  O29  1  0.41357998  0.00446973  0.67522990  1
