# generated using pymatgen
data_KTbCr2O8
_symmetry_space_group_name_H-M   'P 1'
_cell_length_a   5.81185680
_cell_length_b   9.21366546
_cell_length_c   13.91026094
_cell_angle_alpha   90.00000000
_cell_angle_beta   90.00000000
_cell_angle_gamma   90.00000000
_symmetry_Int_Tables_number   1
_chemical_formula_structural   KTbCr2O8
_chemical_formula_sum   'K4 Tb4 Cr8 O32'
_cell_volume   744.87366716
_cell_formula_units_Z   4
loop_
 _symmetry_equiv_pos_site_id
 _symmetry_equiv_pos_as_xyz
  1  'x, y, z'
loop_
 _atom_site_type_symbol
 _atom_site_label
 _atom_site_symmetry_multiplicity
 _atom_site_fract_x
 _atom_site_fract_y
 _atom_site_fract_z
 _atom_site_occupancy
  Tb  Tb0  1  0.22315935  0.04208222  0.85784547  1
  Tb  Tb1  1  0.72315935  0.45791778  0.14215453  1
  Tb  Tb2  1  0.27684065  0.95791778  0.35784547  1
  Tb  Tb3  1  0.77684065  0.54208222  0.64215453  1
  K  K4  1  0.73715474  0.09102256  0.58737460  1
  K  K5  1  0.76284526  0.90897744  0.08737460  1
  K  K6  1  0.26284526  0.59102256  0.91262540  1
  K  K7  1  0.23715474  0.40897744  0.41262540  1
  Cr  Cr8  1  0.73258983  0.15295580  0.33775255  1
  Cr  Cr9  1  0.26741017  0.65295580  0.16224745  1
  Cr  Cr10  1  0.27174523  0.81570735  0.61737007  1
  Cr  Cr11  1  0.72825477  0.31570735  0.88262993  1
  Cr  Cr12  1  0.23258983  0.34704420  0.66224745  1
  Cr  Cr13  1  0.76741017  0.84704420  0.83775255  1
  Cr  Cr14  1  0.22825477  0.18429265  0.11737007  1
  Cr  Cr15  1  0.77174523  0.68429265  0.38262993  1
  O  O16  1  0.48404709  0.69690353  0.60382021  1
  O  O17  1  0.98049083  0.23208664  0.89274661  1
  O  O18  1  0.01595291  0.30309647  0.10382021  1
  O  O19  1  0.25403831  0.19080588  0.72076474  1
  O  O20  1  0.79288550  0.55499945  0.46624514  1
  O  O21  1  0.98404709  0.80309647  0.39617979  1
  O  O22  1  0.17210742  0.48473405  0.73343102  1
  O  O23  1  0.29288550  0.94500055  0.53375486  1
  O  O24  1  0.79465175  0.61041752  0.27394326  1
  O  O25  1  0.32789258  0.51526595  0.23343102  1
  O  O26  1  0.75403831  0.30919412  0.27923526  1
  O  O27  1  0.67210742  0.01526595  0.26656898  1
  O  O28  1  0.20711450  0.05499945  0.03375486  1
  O  O29  1  0.49515968  0.65672028  0.08741137  1
  O  O30  1  0.02823818  0.62031563  0.09813066  1
  O  O31  1  0.70534825  0.38958248  0.77394326  1
  O  O32  1  0.01950917  0.73208664  0.60725339  1
  O  O33  1  0.51950917  0.76791336  0.39274661  1
  O  O34  1  0.50484032  0.15672028  0.41258863  1
  O  O35  1  0.20534825  0.11041752  0.22605674  1
  O  O36  1  0.00484032  0.34327972  0.58741137  1
  O  O37  1  0.51595291  0.19690353  0.89617979  1
  O  O38  1  0.70711450  0.44500055  0.96624514  1
  O  O39  1  0.74596169  0.69080588  0.77923526  1
  O  O40  1  0.97176182  0.12031563  0.40186934  1
  O  O41  1  0.99515968  0.84327972  0.91258863  1
  O  O42  1  0.29465175  0.88958248  0.72605674  1
  O  O43  1  0.47176182  0.37968437  0.59813066  1
  O  O44  1  0.24596169  0.80919412  0.22076474  1
  O  O45  1  0.82789258  0.98473405  0.76656898  1
  O  O46  1  0.48049083  0.26791336  0.10725339  1
  O  O47  1  0.52823818  0.87968437  0.90186934  1
