# generated using pymatgen
data_Nd2Te3MoO12
_symmetry_space_group_name_H-M   'P 1'
_cell_length_a   5.39578578
_cell_length_b   11.42417846
_cell_length_c   18.25076203
_cell_angle_alpha   90.00000000
_cell_angle_beta   90.00000000
_cell_angle_gamma   90.00000000
_symmetry_Int_Tables_number   1
_chemical_formula_structural   Nd2Te3MoO12
_chemical_formula_sum   'Nd8 Te12 Mo4 O48'
_cell_volume   1125.02113258
_cell_formula_units_Z   4
loop_
 _symmetry_equiv_pos_site_id
 _symmetry_equiv_pos_as_xyz
  1  'x, y, z'
loop_
 _atom_site_type_symbol
 _atom_site_label
 _atom_site_symmetry_multiplicity
 _atom_site_fract_x
 _atom_site_fract_y
 _atom_site_fract_z
 _atom_site_occupancy
  Nd  Nd0  1  0.25635322  0.92289096  0.06252898  1
  Nd  Nd1  1  0.75635322  0.42289096  0.43747102  1
  Nd  Nd2  1  0.74364678  0.42289096  0.93747102  1
  Nd  Nd3  1  0.74364678  0.07710904  0.93747102  1
  Nd  Nd4  1  0.75635322  0.07710904  0.43747102  1
  Nd  Nd5  1  0.24364678  0.92289096  0.56252898  1
  Nd  Nd6  1  0.25635322  0.57710904  0.06252898  1
  Nd  Nd7  1  0.24364678  0.57710904  0.56252898  1
  Te  Te8  1  0.22694428  0.58881230  0.83057478  1
  Te  Te9  1  0.71367720  0.75000000  0.45368690  1
  Te  Te10  1  0.21367720  0.25000000  0.04631310  1
  Te  Te11  1  0.72694428  0.41118770  0.66942522  1
  Te  Te12  1  0.78632280  0.75000000  0.95368690  1
  Te  Te13  1  0.27305572  0.58881230  0.33057478  1
  Te  Te14  1  0.27305572  0.91118770  0.33057478  1
  Te  Te15  1  0.77305572  0.08881230  0.16942522  1
  Te  Te16  1  0.77305572  0.41118770  0.16942522  1
  Te  Te17  1  0.22694428  0.91118770  0.83057478  1
  Te  Te18  1  0.72694428  0.08881230  0.66942522  1
  Te  Te19  1  0.28632280  0.25000000  0.54631310  1
  Mo  Mo20  1  0.74121528  0.75000000  0.68076875  1
  Mo  Mo21  1  0.25878472  0.25000000  0.31923125  1
  Mo  Mo22  1  0.75878472  0.75000000  0.18076875  1
  Mo  Mo23  1  0.24121528  0.25000000  0.81923125  1
  O  O24  1  0.51637185  0.25000000  0.46539952  1
  O  O25  1  0.95352104  0.87927422  0.17168844  1
  O  O26  1  0.60571706  0.61736144  0.99009892  1
  O  O27  1  0.35665553  0.25000000  0.72920003  1
  O  O28  1  0.98362815  0.25000000  0.96539952  1
  O  O29  1  0.96738392  0.98480018  0.34069368  1
  O  O30  1  0.04647896  0.12072578  0.82831156  1
  O  O31  1  0.39428294  0.11736144  0.00990108  1
  O  O32  1  0.54647896  0.87927422  0.67168844  1
  O  O33  1  0.41585247  0.93306009  0.42634458  1
  O  O34  1  0.51786364  0.25000000  0.87773351  1
  O  O35  1  0.60571706  0.88263856  0.99009892  1
  O  O36  1  0.01786364  0.75000000  0.62226649  1
  O  O37  1  0.58414753  0.06693991  0.57365542  1
  O  O38  1  0.46738392  0.48480018  0.15930632  1
  O  O39  1  0.14672361  0.75000000  0.35577388  1
  O  O40  1  0.39428294  0.38263856  0.00990108  1
  O  O41  1  0.41585247  0.56693991  0.42634458  1
  O  O42  1  0.54647896  0.62072578  0.67168844  1
  O  O43  1  0.04647896  0.37927422  0.82831156  1
  O  O44  1  0.03261608  0.48480018  0.65930532  1
  O  O45  1  0.64334447  0.75000000  0.27079997  1
  O  O46  1  0.91585247  0.43306009  0.07365542  1
  O  O47  1  0.89428294  0.88263856  0.49009892  1
  O  O48  1  0.14334447  0.25000000  0.22920003  1
  O  O49  1  0.03261608  0.01519982  0.65930532  1
  O  O50  1  0.53261608  0.51519982  0.84069468  1
  O  O51  1  0.08414753  0.56693991  0.92634458  1
  O  O52  1  0.45352104  0.37927422  0.32831156  1
  O  O53  1  0.10571706  0.11736144  0.50990108  1
  O  O54  1  0.46738392  0.01519982  0.15930632  1
  O  O55  1  0.10571706  0.38263856  0.50990108  1
  O  O56  1  0.53261608  0.98480018  0.84069468  1
  O  O57  1  0.85665553  0.75000000  0.77079997  1
  O  O58  1  0.45352104  0.12072578  0.32831156  1
  O  O59  1  0.95352104  0.62072578  0.17168844  1
  O  O60  1  0.98213636  0.25000000  0.37773351  1
  O  O61  1  0.91585247  0.06693991  0.07365542  1
  O  O62  1  0.89428294  0.61736144  0.49009892  1
  O  O63  1  0.85327639  0.25000000  0.64422612  1
  O  O64  1  0.64672361  0.25000000  0.14422612  1
  O  O65  1  0.48213636  0.75000000  0.12226649  1
  O  O66  1  0.35327639  0.75000000  0.85577388  1
  O  O67  1  0.01637185  0.75000000  0.03460048  1
  O  O68  1  0.96738392  0.51519982  0.34069368  1
  O  O69  1  0.08414753  0.93306009  0.92634458  1
  O  O70  1  0.58414753  0.43306009  0.57365542  1
  O  O71  1  0.48362815  0.75000000  0.53460048  1
