# generated using pymatgen
data_Mn4Bi3NO15
_symmetry_space_group_name_H-M   'P 1'
_cell_length_a   5.06738339
_cell_length_b   5.06738294
_cell_length_c   13.35117127
_cell_angle_alpha   90.00000000
_cell_angle_beta   90.00000000
_cell_angle_gamma   120.00000292
_symmetry_Int_Tables_number   1
_chemical_formula_structural   Mn4Bi3NO15
_chemical_formula_sum   'Mn4 Bi3 N1 O15'
_cell_volume   296.90497501
_cell_formula_units_Z   1
loop_
 _symmetry_equiv_pos_site_id
 _symmetry_equiv_pos_as_xyz
  1  'x, y, z'
loop_
 _atom_site_type_symbol
 _atom_site_label
 _atom_site_symmetry_multiplicity
 _atom_site_fract_x
 _atom_site_fract_y
 _atom_site_fract_z
 _atom_site_occupancy
  Mn  Mn0  1  0.33333300  0.66666700  0.21659064  1
  Mn  Mn1  1  0.66666700  0.33333300  0.21625096  1
  Mn  Mn2  1  0.66666700  0.33333300  0.84793923  1
  Mn  Mn3  1  0.33333300  0.66666700  0.84753346  1
  Bi  Bi4  1  0.00000000  0.00000000  0.03150004  1
  Bi  Bi5  1  0.00000000  0.00000000  0.38315062  1
  Bi  Bi6  1  0.00000000  0.00000000  0.68052341  1
  N  N7  1  0.66666700  0.33333300  0.53523602  1
  O  O8  1  0.37446281  0.99971522  0.92464695  1
  O  O9  1  0.52083814  0.47648911  0.53529391  1
  O  O10  1  0.63503976  0.63440954  0.30005417  1
  O  O11  1  0.00024598  0.62595232  0.13982159  1
  O  O12  1  0.62525241  0.62553719  0.92464695  1
  O  O13  1  0.00028478  0.37474759  0.92464695  1
  O  O14  1  0.36510935  0.36443091  0.76460791  1
  O  O15  1  0.99936978  0.36496024  0.30005417  1
  O  O16  1  0.52351089  0.04434902  0.53529391  1
  O  O17  1  0.99932155  0.63489065  0.76460791  1
  O  O18  1  0.36559046  0.00063022  0.30005417  1
  O  O19  1  0.63556909  0.00067845  0.76460791  1
  O  O20  1  0.37404768  0.37429366  0.13982159  1
  O  O21  1  0.62570634  0.99975402  0.13982159  1
  O  O22  1  0.95565098  0.47916186  0.53529391  1
