# generated using pymatgen
data_Y2(MoO4)3
_symmetry_space_group_name_H-M   'P 1'
_cell_length_a   10.13750010
_cell_length_b   10.26133003
_cell_length_c   14.19811588
_cell_angle_alpha   90.00000000
_cell_angle_beta   90.00000000
_cell_angle_gamma   90.00000000
_symmetry_Int_Tables_number   1
_chemical_formula_structural   Y2(MoO4)3
_chemical_formula_sum   'Y8 Mo12 O48'
_cell_volume   1476.94813157
_cell_formula_units_Z   4
loop_
 _symmetry_equiv_pos_site_id
 _symmetry_equiv_pos_as_xyz
  1  'x, y, z'
loop_
 _atom_site_type_symbol
 _atom_site_label
 _atom_site_symmetry_multiplicity
 _atom_site_fract_x
 _atom_site_fract_y
 _atom_site_fract_z
 _atom_site_occupancy
  Y  Y0  1  0.74932505  0.03092526  0.88246610  1
  Y  Y1  1  0.25067495  0.53092526  0.88246610  1
  Y  Y2  1  0.24932505  0.46907474  0.38246610  1
  Y  Y3  1  0.25067495  0.96907474  0.11753390  1
  Y  Y4  1  0.75067495  0.53092526  0.61753390  1
  Y  Y5  1  0.74932505  0.46907474  0.11753390  1
  Y  Y6  1  0.24932505  0.03092526  0.61753390  1
  Y  Y7  1  0.75067495  0.96907474  0.38246610  1
  Mo  Mo8  1  0.89071031  0.11551486  0.14319783  1
  Mo  Mo9  1  0.60928969  0.88448514  0.64319783  1
  Mo  Mo10  1  0.47197821  0.25000000  0.00000000  1
  Mo  Mo11  1  0.10928969  0.61551486  0.14319783  1
  Mo  Mo12  1  0.60928969  0.61551486  0.35680217  1
  Mo  Mo13  1  0.39071031  0.38448514  0.64319783  1
  Mo  Mo14  1  0.02802179  0.75000000  0.50000000  1
  Mo  Mo15  1  0.97197821  0.25000000  0.50000000  1
  Mo  Mo16  1  0.52802179  0.75000000  0.00000000  1
  Mo  Mo17  1  0.39071031  0.11551486  0.35680217  1
  Mo  Mo18  1  0.10928969  0.88448514  0.85680217  1
  Mo  Mo19  1  0.89071031  0.38448514  0.85680217  1
  O  O20  1  0.81915532  0.43218690  0.96671081  1
  O  O21  1  0.31915532  0.43218690  0.53328919  1
  O  O22  1  0.85766553  0.21478823  0.83742496  1
  O  O23  1  0.36965813  0.35999617  0.93472412  1
  O  O24  1  0.68084468  0.56781310  0.46671081  1
  O  O25  1  0.57436641  0.16041109  0.91991265  1
  O  O26  1  0.56550285  0.08896021  0.36116024  1
  O  O27  1  0.14233447  0.78521177  0.16257504  1
  O  O28  1  0.67987402  0.51993278  0.26368194  1
  O  O29  1  0.86965813  0.35999617  0.56527588  1
  O  O30  1  0.18084468  0.56781310  0.03328919  1
  O  O31  1  0.86965813  0.14000383  0.43472412  1
  O  O32  1  0.32012598  0.01993278  0.26368194  1
  O  O33  1  0.32012598  0.48006722  0.73631806  1
  O  O34  1  0.92563359  0.83958891  0.41991265  1
  O  O35  1  0.64233447  0.71478823  0.66257504  1
  O  O36  1  0.13034187  0.85999617  0.56527588  1
  O  O37  1  0.35766553  0.28521177  0.33742496  1
  O  O38  1  0.13034187  0.64000383  0.43472412  1
  O  O39  1  0.43449715  0.58896021  0.36116024  1
  O  O40  1  0.36965813  0.14000383  0.06527588  1
  O  O41  1  0.93449715  0.91103979  0.86116024  1
  O  O42  1  0.92563359  0.66041109  0.58008735  1
  O  O43  1  0.42563359  0.66041109  0.91991265  1
  O  O44  1  0.43449715  0.91103979  0.63883976  1
  O  O45  1  0.31915532  0.06781310  0.46671081  1
  O  O46  1  0.85766553  0.28521177  0.16257504  1
  O  O47  1  0.35766553  0.21478823  0.66257504  1
  O  O48  1  0.82012598  0.01993278  0.23631806  1
  O  O49  1  0.18084468  0.93218690  0.96671081  1
  O  O50  1  0.82012598  0.48006722  0.76368194  1
  O  O51  1  0.06550285  0.08896021  0.13883976  1
  O  O52  1  0.14233447  0.71478823  0.83742496  1
  O  O53  1  0.64233447  0.78521177  0.33742496  1
  O  O54  1  0.63034187  0.64000383  0.06527588  1
  O  O55  1  0.81915532  0.06781310  0.03328919  1
  O  O56  1  0.42563359  0.83958891  0.08008735  1
  O  O57  1  0.56550285  0.41103979  0.63883976  1
  O  O58  1  0.68084468  0.93218690  0.53328919  1
  O  O59  1  0.17987402  0.51993278  0.23631806  1
  O  O60  1  0.93449715  0.58896021  0.13883976  1
  O  O61  1  0.67987402  0.98006722  0.73631806  1
  O  O62  1  0.63034187  0.85999617  0.93472412  1
  O  O63  1  0.07436641  0.33958891  0.41991265  1
  O  O64  1  0.17987402  0.98006722  0.76368194  1
  O  O65  1  0.06550285  0.41103979  0.86116024  1
  O  O66  1  0.07436641  0.16041109  0.58008735  1
  O  O67  1  0.57436641  0.33958891  0.08008735  1
