# generated using pymatgen
data_ThV4O12
_symmetry_space_group_name_H-M   'P 1'
_cell_length_a   8.75699716
_cell_length_b   8.75699738
_cell_length_c   16.05387709
_cell_angle_alpha   105.82724638
_cell_angle_beta   105.82724682
_cell_angle_gamma   89.99999799
_symmetry_Int_Tables_number   1
_chemical_formula_structural   ThV4O12
_chemical_formula_sum   'Th4 V16 O48'
_cell_volume   1135.83007344
_cell_formula_units_Z   4
loop_
 _symmetry_equiv_pos_site_id
 _symmetry_equiv_pos_as_xyz
  1  'x, y, z'
loop_
 _atom_site_type_symbol
 _atom_site_label
 _atom_site_symmetry_multiplicity
 _atom_site_fract_x
 _atom_site_fract_y
 _atom_site_fract_z
 _atom_site_occupancy
  Th  Th0  1  0.37533544  0.12533544  0.25067088  1
  Th  Th1  1  0.12533544  0.37533544  0.75067088  1
  Th  Th2  1  0.62466456  0.87466456  0.74932912  1
  Th  Th3  1  0.87466456  0.62466456  0.24932912  1
  V  V4  1  0.40626715  0.15980589  0.60088381  1
  V  V5  1  0.94376193  0.19319955  0.10125916  1
  V  V6  1  0.30538334  0.55892208  0.39911619  1
  V  V7  1  0.80680045  0.34250278  0.39874084  1
  V  V8  1  0.05623807  0.80680045  0.89874084  1
  V  V9  1  0.65749722  0.90805961  0.10125916  1
  V  V10  1  0.09194039  0.05623807  0.39874084  1
  V  V11  1  0.34250278  0.09194039  0.89874084  1
  V  V12  1  0.44107792  0.40626715  0.10088381  1
  V  V13  1  0.69461666  0.44107792  0.60088381  1
  V  V14  1  0.90805961  0.94376193  0.60125916  1
  V  V15  1  0.19319955  0.65749722  0.60125916  1
  V  V16  1  0.59373285  0.84019411  0.39911619  1
  V  V17  1  0.15980589  0.69461666  0.10088381  1
  V  V18  1  0.55892208  0.59373285  0.89911619  1
  V  V19  1  0.84019411  0.30538334  0.89911619  1
  O  O20  1  0.14937939  0.59345504  0.32047132  1
  O  O21  1  0.43388927  0.24703001  0.00082802  1
  O  O22  1  0.24703001  0.06693875  0.50082802  1
  O  O23  1  0.62442183  0.50551261  0.14135304  1
  O  O24  1  0.99043940  0.87407385  0.35853642  1
  O  O25  1  0.67109192  0.72701627  0.32047132  1
  O  O26  1  0.00956060  0.12592615  0.64146358  1
  O  O27  1  0.82611469  0.91288947  0.67910614  1
  O  O28  1  0.46242144  0.71242144  0.42484288  1
  O  O29  1  0.96062009  0.21062009  0.42124019  1
  O  O30  1  0.87407385  0.86809702  0.85853642  1
  O  O31  1  0.75296999  0.93306125  0.49917198  1
  O  O32  1  0.32890808  0.27298373  0.67952868  1
  O  O33  1  0.08711053  0.64700856  0.82089386  1
  O  O34  1  0.35299144  0.76621666  0.67910614  1
  O  O35  1  0.71242144  0.46242144  0.92484288  1
  O  O36  1  0.93306125  0.24620199  0.99917198  1
  O  O37  1  0.40654496  0.32890808  0.17952868  1
  O  O38  1  0.86809702  0.48446258  0.35853642  1
  O  O39  1  0.59345504  0.67109192  0.82047132  1
  O  O40  1  0.85062061  0.40654496  0.67952868  1
  O  O41  1  0.98306879  0.36415957  0.85864696  1
  O  O42  1  0.53757856  0.28757856  0.57515712  1
  O  O43  1  0.27298373  0.85062061  0.17952868  1
  O  O44  1  0.36415957  0.37557817  0.35864696  1
  O  O45  1  0.91288947  0.35299144  0.17910614  1
  O  O46  1  0.37557817  0.49448739  0.85864696  1
  O  O47  1  0.63584043  0.62442183  0.64135304  1
  O  O48  1  0.48446258  0.99043940  0.85853642  1
  O  O49  1  0.21062009  0.96062009  0.92124019  1
  O  O50  1  0.72701627  0.14937939  0.82047132  1
  O  O51  1  0.24620199  0.56611073  0.49917198  1
  O  O52  1  0.17388531  0.08711053  0.32089386  1
  O  O53  1  0.03937991  0.78937991  0.57875981  1
  O  O54  1  0.49448739  0.98306879  0.35864696  1
  O  O55  1  0.78937991  0.03937991  0.07875981  1
  O  O56  1  0.56611073  0.75296999  0.99917198  1
  O  O57  1  0.12592615  0.13190298  0.14146358  1
  O  O58  1  0.13190298  0.51553742  0.64146358  1
  O  O59  1  0.06693875  0.75379801  0.00082802  1
  O  O60  1  0.64700856  0.23378334  0.32089386  1
  O  O61  1  0.01693121  0.63584043  0.14135304  1
  O  O62  1  0.51553742  0.00956060  0.14146358  1
  O  O63  1  0.75379801  0.43388927  0.50082802  1
  O  O64  1  0.28757856  0.53757856  0.07515712  1
  O  O65  1  0.76621666  0.82611469  0.17910614  1
  O  O66  1  0.50551261  0.01693121  0.64135304  1
  O  O67  1  0.23378334  0.17388531  0.82089386  1
