# generated using pymatgen
data_K2MoCl5O
_symmetry_space_group_name_H-M   'P 1'
_cell_length_a   7.12981469
_cell_length_b   10.03862826
_cell_length_c   13.83302991
_cell_angle_alpha   90.00000000
_cell_angle_beta   90.00000000
_cell_angle_gamma   90.00000000
_symmetry_Int_Tables_number   1
_chemical_formula_structural   K2MoCl5O
_chemical_formula_sum   'K8 Mo4 Cl20 O4'
_cell_volume   990.07918567
_cell_formula_units_Z   4
loop_
 _symmetry_equiv_pos_site_id
 _symmetry_equiv_pos_as_xyz
  1  'x, y, z'
loop_
 _atom_site_type_symbol
 _atom_site_label
 _atom_site_symmetry_multiplicity
 _atom_site_fract_x
 _atom_site_fract_y
 _atom_site_fract_z
 _atom_site_occupancy
  K  K0  1  0.67774675  0.50216795  0.14447280  1
  K  K1  1  0.17774675  0.49783205  0.35552720  1
  K  K2  1  0.32225325  0.00216795  0.85552720  1
  K  K3  1  0.32225325  0.49783205  0.85552720  1
  K  K4  1  0.17774675  0.00216795  0.35552720  1
  K  K5  1  0.67774675  0.99783205  0.14447280  1
  K  K6  1  0.82225325  0.99783205  0.64447280  1
  K  K7  1  0.82225325  0.50216795  0.64447280  1
  Mo  Mo8  1  0.31742284  0.25000000  0.59709130  1
  Mo  Mo9  1  0.18257716  0.25000000  0.09709130  1
  Mo  Mo10  1  0.81742284  0.75000000  0.90290870  1
  Mo  Mo11  1  0.68257716  0.75000000  0.40290870  1
  Cl  Cl12  1  0.56373929  0.25000000  0.71991476  1
  Cl  Cl13  1  0.29692321  0.49104320  0.60966188  1
  Cl  Cl14  1  0.97188326  0.75000000  0.49758727  1
  Cl  Cl15  1  0.79692321  0.50895680  0.89033812  1
  Cl  Cl16  1  0.06373929  0.75000000  0.78008524  1
  Cl  Cl17  1  0.29692321  0.00895680  0.60966188  1
  Cl  Cl18  1  0.93626071  0.25000000  0.21991476  1
  Cl  Cl19  1  0.20307679  0.00895680  0.10966188  1
  Cl  Cl20  1  0.70307679  0.99104320  0.39033812  1
  Cl  Cl21  1  0.52811674  0.75000000  0.99758727  1
  Cl  Cl22  1  0.09371357  0.25000000  0.74563186  1
  Cl  Cl23  1  0.90628643  0.75000000  0.25436814  1
  Cl  Cl24  1  0.79692321  0.99104320  0.89033812  1
  Cl  Cl25  1  0.47188326  0.25000000  0.00241273  1
  Cl  Cl26  1  0.43626071  0.75000000  0.28008524  1
  Cl  Cl27  1  0.20307679  0.49104320  0.10966188  1
  Cl  Cl28  1  0.40628643  0.25000000  0.24563186  1
  Cl  Cl29  1  0.70307679  0.50895680  0.39033812  1
  Cl  Cl30  1  0.02811674  0.25000000  0.50241273  1
  Cl  Cl31  1  0.59371357  0.75000000  0.75436814  1
  O  O32  1  0.46622526  0.25000000  0.50039360  1
  O  O33  1  0.03377474  0.25000000  0.00039360  1
  O  O34  1  0.53377474  0.75000000  0.49960640  1
  O  O35  1  0.96622526  0.75000000  0.99960640  1
