# generated using pymatgen
data_K2Mn2(SO4)3
_symmetry_space_group_name_H-M   'P 1'
_cell_length_a   10.22437599
_cell_length_b   10.23606248
_cell_length_c   10.27934599
_cell_angle_alpha   90.00000000
_cell_angle_beta   90.00000000
_cell_angle_gamma   90.00000000
_symmetry_Int_Tables_number   1
_chemical_formula_structural   K2Mn2(SO4)3
_chemical_formula_sum   'K8 Mn8 S12 O48'
_cell_volume   1075.80912598
_cell_formula_units_Z   4
loop_
 _symmetry_equiv_pos_site_id
 _symmetry_equiv_pos_as_xyz
  1  'x, y, z'
loop_
 _atom_site_type_symbol
 _atom_site_label
 _atom_site_symmetry_multiplicity
 _atom_site_fract_x
 _atom_site_fract_y
 _atom_site_fract_z
 _atom_site_occupancy
  K  K0  1  0.69054291  0.17199215  0.31296105  1
  K  K1  1  0.80945709  0.82800785  0.81296105  1
  K  K2  1  0.44108065  0.96256608  0.55709660  1
  K  K3  1  0.94108065  0.53743392  0.44290340  1
  K  K4  1  0.19054291  0.32800785  0.68703895  1
  K  K5  1  0.05891935  0.03743392  0.05709660  1
  K  K6  1  0.30945709  0.67199215  0.18703895  1
  K  K7  1  0.55891935  0.46256608  0.94290340  1
  Mn  Mn8  1  0.66262428  0.81361597  0.15428984  1
  Mn  Mn9  1  0.33737572  0.31361597  0.34571016  1
  Mn  Mn10  1  0.58085347  0.60851689  0.59453012  1
  Mn  Mn11  1  0.83737572  0.18638403  0.65428984  1
  Mn  Mn12  1  0.41914653  0.10851689  0.90546988  1
  Mn  Mn13  1  0.16262428  0.68638403  0.84571016  1
  Mn  Mn14  1  0.91914653  0.39148311  0.09453012  1
  Mn  Mn15  1  0.08085347  0.89148311  0.40546988  1
  S  S16  1  0.63082421  0.50295666  0.28729451  1
  S  S17  1  0.26171950  0.61662529  0.51332371  1
  S  S18  1  0.97339271  0.71155452  0.12805668  1
  S  S19  1  0.86917579  0.49704334  0.78729451  1
  S  S20  1  0.02660729  0.21155452  0.37194332  1
  S  S21  1  0.73828050  0.11662529  0.98667629  1
  S  S22  1  0.76171950  0.88337471  0.48667629  1
  S  S23  1  0.52660729  0.28844548  0.62805668  1
  S  S24  1  0.47339271  0.78844548  0.87194332  1
  S  S25  1  0.36917579  0.00295666  0.21270549  1
  S  S26  1  0.13082421  0.99704334  0.71270549  1
  S  S27  1  0.23828050  0.38337471  0.01332371  1
  O  O28  1  0.33188090  0.30183759  0.93664203  1
  O  O29  1  0.99850646  0.07395237  0.33208360  1
  O  O30  1  0.06968203  0.75420311  0.02775424  1
  O  O31  1  0.97650581  0.59363692  0.80145438  1
  O  O32  1  0.16205858  0.22118924  0.42428187  1
  O  O33  1  0.75329902  0.01896441  0.53985609  1
  O  O34  1  0.17635034  0.95127352  0.58236149  1
  O  O35  1  0.33794142  0.77881076  0.92428187  1
  O  O36  1  0.22240169  0.61271138  0.65253085  1
  O  O37  1  0.43031797  0.24579689  0.52775424  1
  O  O38  1  0.98714585  0.79911515  0.24159526  1
  O  O39  1  0.51285415  0.20088485  0.74159526  1
  O  O40  1  0.66811910  0.80183759  0.56335797  1
  O  O41  1  0.56968203  0.74579689  0.97224576  1
  O  O42  1  0.58258048  0.61627092  0.20951792  1
  O  O43  1  0.24670098  0.51896441  0.96014391  1
  O  O44  1  0.72240169  0.88728862  0.34746915  1
  O  O45  1  0.10388811  0.32979649  0.99554639  1
  O  O46  1  0.16811910  0.69816241  0.43664203  1
  O  O47  1  0.00149354  0.57395237  0.16791640  1
  O  O48  1  0.50149354  0.92604763  0.83208360  1
  O  O49  1  0.24231112  0.06227325  0.77925427  1
  O  O50  1  0.77759831  0.11271138  0.84746915  1
  O  O51  1  0.02349419  0.09363692  0.69854562  1
  O  O52  1  0.41741952  0.11627092  0.29048208  1
  O  O53  1  0.08258048  0.88372908  0.79048208  1
  O  O54  1  0.52349419  0.40636308  0.30145438  1
  O  O55  1  0.82364966  0.45127352  0.91763851  1
  O  O56  1  0.39611189  0.67020351  0.49554639  1
  O  O57  1  0.27759831  0.38728862  0.15253085  1
  O  O58  1  0.93031797  0.25420311  0.47224576  1
  O  O59  1  0.89611189  0.82979649  0.50445361  1
  O  O60  1  0.49850646  0.42604763  0.66791640  1
  O  O61  1  0.74670098  0.98103559  0.03985609  1
  O  O62  1  0.67635034  0.54872648  0.41763851  1
  O  O63  1  0.01285415  0.29911515  0.25840474  1
  O  O64  1  0.32364966  0.04872648  0.08236149  1
  O  O65  1  0.25768888  0.93772675  0.27925427  1
  O  O66  1  0.75768888  0.56227325  0.72074573  1
  O  O67  1  0.60388811  0.17020351  0.00445361  1
  O  O68  1  0.83188090  0.19816241  0.06335797  1
  O  O69  1  0.25329902  0.48103559  0.46014391  1
  O  O70  1  0.48714585  0.70088485  0.75840474  1
  O  O71  1  0.91741952  0.38372908  0.70951792  1
  O  O72  1  0.83794142  0.72118924  0.07571813  1
  O  O73  1  0.47650581  0.90636308  0.19854562  1
  O  O74  1  0.74231112  0.43772675  0.22074573  1
  O  O75  1  0.66205858  0.27881076  0.57571813  1
