# generated using pymatgen
data_CaMn6SiO12
_symmetry_space_group_name_H-M   'P 1'
_cell_length_a   9.63012317
_cell_length_b   9.63012358
_cell_length_c   11.76467620
_cell_angle_alpha   114.15969226
_cell_angle_beta   114.15969335
_cell_angle_gamma   89.99999997
_symmetry_Int_Tables_number   1
_chemical_formula_structural   CaMn6SiO12
_chemical_formula_sum   'Ca4 Mn24 Si4 O48'
_cell_volume   889.70743639
_cell_formula_units_Z   4
loop_
 _symmetry_equiv_pos_site_id
 _symmetry_equiv_pos_as_xyz
  1  'x, y, z'
loop_
 _atom_site_type_symbol
 _atom_site_label
 _atom_site_symmetry_multiplicity
 _atom_site_fract_x
 _atom_site_fract_y
 _atom_site_fract_z
 _atom_site_occupancy
  Ca  Ca0  1  0.12500000  0.37500000  0.25000000  1
  Ca  Ca1  1  0.62500000  0.87500000  0.25000000  1
  Ca  Ca2  1  0.87500000  0.62500000  0.75000000  1
  Ca  Ca3  1  0.37500000  0.12500000  0.75000000  1
  Mn  Mn4  1  0.77811714  0.25000000  0.50000000  1
  Mn  Mn5  1  0.00000000  0.00000000  0.50000000  1
  Mn  Mn6  1  0.25000000  0.72188286  0.00000000  1
  Mn  Mn7  1  0.50000000  0.00000000  0.50000000  1
  Mn  Mn8  1  0.25000000  0.22188286  0.00000000  1
  Mn  Mn9  1  0.50000000  0.50000000  0.50000000  1
  Mn  Mn10  1  0.00000000  0.00000000  0.00000000  1
  Mn  Mn11  1  0.38777348  0.11222652  0.25000000  1
  Mn  Mn12  1  0.63777348  0.38777348  0.75000000  1
  Mn  Mn13  1  0.11222652  0.86222652  0.75000000  1
  Mn  Mn14  1  0.27811714  0.25000000  0.50000000  1
  Mn  Mn15  1  0.00000000  0.50000000  0.50000000  1
  Mn  Mn16  1  0.75000000  0.77811714  1.00000000  1
  Mn  Mn17  1  0.86222652  0.63777348  0.25000000  1
  Mn  Mn18  1  0.61222652  0.88777348  0.75000000  1
  Mn  Mn19  1  0.13777348  0.36222652  0.75000000  1
  Mn  Mn20  1  0.50000000  0.50000000  0.00000000  1
  Mn  Mn21  1  0.00000000  0.50000000  0.00000000  1
  Mn  Mn22  1  0.36222652  0.61222652  0.25000000  1
  Mn  Mn23  1  0.75000000  0.27811714  1.00000000  1
  Mn  Mn24  1  0.72188286  0.75000000  0.50000000  1
  Mn  Mn25  1  0.22188286  0.75000000  0.50000000  1
  Mn  Mn26  1  0.88777348  0.13777348  0.25000000  1
  Mn  Mn27  1  0.50000000  0.00000000  0.00000000  1
  Si  Si28  1  0.12500000  0.87500000  0.25000000  1
  Si  Si29  1  0.37500000  0.62500000  0.75000000  1
  Si  Si30  1  0.87500000  0.12500000  0.75000000  1
  Si  Si31  1  0.62500000  0.37500000  0.25000000  1
  O  O32  1  0.00857794  0.06391161  0.84861542  1
  O  O33  1  0.13780506  0.91549257  0.61375836  1
  O  O34  1  0.63780506  0.69826579  0.61375836  1
  O  O35  1  0.97595330  0.41549257  0.61375836  1
  O  O36  1  0.69826579  0.97595330  0.11375836  1
  O  O37  1  0.02404670  0.58450743  0.38624164  1
  O  O38  1  0.68443565  0.39993940  0.60331663  1
  O  O39  1  0.79662277  0.58111902  0.89668337  1
  O  O40  1  0.31556435  0.60006060  0.39668337  1
  O  O41  1  0.41888098  0.89993940  0.60331663  1
  O  O42  1  0.58111902  0.10006060  0.39668337  1
  O  O43  1  0.28470382  0.00857794  0.34861542  1
  O  O44  1  0.20337723  0.41888098  0.10331663  1
  O  O45  1  0.50857794  0.78470382  0.84861542  1
  O  O46  1  0.56391161  0.50857794  0.34861542  1
  O  O47  1  0.43608839  0.49142206  0.65138458  1
  O  O48  1  0.15996251  0.71529618  0.15138458  1
  O  O49  1  0.06391161  0.84003749  0.34861542  1
  O  O50  1  0.21529618  0.65996251  0.65138458  1
  O  O51  1  0.47595330  0.19826579  0.61375836  1
  O  O52  1  0.93608839  0.15996251  0.65138458  1
  O  O53  1  0.91888098  0.70337723  0.60331663  1
  O  O54  1  0.99142206  0.93608839  0.15138458  1
  O  O55  1  0.86219494  0.08450743  0.38624164  1
  O  O56  1  0.19826579  0.13780506  0.11375836  1
  O  O57  1  0.70337723  0.68443565  0.10331663  1
  O  O58  1  0.89993940  0.18443565  0.10331663  1
  O  O59  1  0.91549257  0.47595330  0.11375836  1
  O  O60  1  0.36219494  0.30173421  0.38624164  1
  O  O61  1  0.18443565  0.20337723  0.60331663  1
  O  O62  1  0.10006060  0.81556435  0.89668337  1
  O  O63  1  0.81556435  0.79662277  0.39668337  1
  O  O64  1  0.52404670  0.80173421  0.38624164  1
  O  O65  1  0.08111902  0.29662277  0.39668337  1
  O  O66  1  0.84003749  0.28470382  0.84861542  1
  O  O67  1  0.39993940  0.91888098  0.10331663  1
  O  O68  1  0.60006060  0.08111902  0.89668337  1
  O  O69  1  0.41549257  0.63780506  0.11375836  1
  O  O70  1  0.71529618  0.99142206  0.65138458  1
  O  O71  1  0.30173421  0.02404670  0.88624164  1
  O  O72  1  0.29662277  0.31556435  0.89668337  1
  O  O73  1  0.65996251  0.43608839  0.15138458  1
  O  O74  1  0.49142206  0.21529618  0.15138458  1
  O  O75  1  0.08450743  0.52404670  0.88624164  1
  O  O76  1  0.78470382  0.34003749  0.34861542  1
  O  O77  1  0.58450743  0.36219494  0.88624164  1
  O  O78  1  0.34003749  0.56391161  0.84861542  1
  O  O79  1  0.80173421  0.86219494  0.88624164  1
