# generated using pymatgen
data_RbZrMnF7
_symmetry_space_group_name_H-M   'P 1'
_cell_length_a   6.54021609
_cell_length_b   6.54729234
_cell_length_c   8.42406288
_cell_angle_alpha   90.00000000
_cell_angle_beta   90.00000000
_cell_angle_gamma   117.66158000
_symmetry_Int_Tables_number   1
_chemical_formula_structural   RbZrMnF7
_chemical_formula_sum   'Rb2 Zr2 Mn2 F14'
_cell_volume   319.49538574
_cell_formula_units_Z   2
loop_
 _symmetry_equiv_pos_site_id
 _symmetry_equiv_pos_as_xyz
  1  'x, y, z'
loop_
 _atom_site_type_symbol
 _atom_site_label
 _atom_site_symmetry_multiplicity
 _atom_site_fract_x
 _atom_site_fract_y
 _atom_site_fract_z
 _atom_site_occupancy
  Rb  Rb0  1  0.00000000  0.50000000  0.50000000  1
  Rb  Rb1  1  0.00000000  0.50000000  0.00000000  1
  Zr  Zr2  1  0.30903701  0.19455846  0.25000000  1
  Zr  Zr3  1  0.69096299  0.80544154  0.75000000  1
  Mn  Mn4  1  0.69121406  0.81364965  0.25000000  1
  Mn  Mn5  1  0.30878594  0.18635035  0.75000000  1
  F  F6  1  0.34115276  0.55399574  0.75000000  1
  F  F7  1  0.65884724  0.44600426  0.25000000  1
  F  F8  1  0.66373766  0.46665923  0.75000000  1
  F  F9  1  0.29992154  0.20035937  0.49427563  1
  F  F10  1  0.94524469  0.15485380  0.75000000  1
  F  F11  1  0.29992154  0.20035937  0.00572437  1
  F  F12  1  0.70007846  0.79964063  0.99427563  1
  F  F13  1  0.33626234  0.53334077  0.25000000  1
  F  F14  1  0.05475531  0.84514620  0.25000000  1
  F  F15  1  0.49371381  0.00810005  0.25000000  1
  F  F16  1  0.50628619  0.99189995  0.75000000  1
  F  F17  1  0.70007846  0.79964063  0.50572437  1
  F  F18  1  0.02951079  0.83046600  0.75000000  1
  F  F19  1  0.97048921  0.16953400  0.25000000  1
