# generated using pymatgen
data_CsFe(SO4)2
_symmetry_space_group_name_H-M   'P 1'
_cell_length_a   4.97558946
_cell_length_b   4.97558963
_cell_length_c   9.07018068
_cell_angle_alpha   90.00000000
_cell_angle_beta   90.00000000
_cell_angle_gamma   120.00000635
_symmetry_Int_Tables_number   1
_chemical_formula_structural   CsFe(SO4)2
_chemical_formula_sum   'Cs1 Fe1 S2 O8'
_cell_volume   194.46239745
_cell_formula_units_Z   1
loop_
 _symmetry_equiv_pos_site_id
 _symmetry_equiv_pos_as_xyz
  1  'x, y, z'
loop_
 _atom_site_type_symbol
 _atom_site_label
 _atom_site_symmetry_multiplicity
 _atom_site_fract_x
 _atom_site_fract_y
 _atom_site_fract_z
 _atom_site_occupancy
  Cs  Cs0  1  0.00000000  0.00000000  0.50000000  1
  Fe  Fe1  1  0.00000000  0.00000000  0.00000000  1
  S  S2  1  0.33333300  0.66666700  0.18705434  1
  S  S3  1  0.66666700  0.33333300  0.81294566  1
  O  O4  1  0.71906693  0.07976251  0.86822034  1
  O  O5  1  0.36069558  0.28093307  0.86822034  1
  O  O6  1  0.07976251  0.36069558  0.13177966  1
  O  O7  1  0.66666700  0.33333300  0.65148625  1
  O  O8  1  0.33333300  0.66666700  0.34851375  1
  O  O9  1  0.28093307  0.92023749  0.13177966  1
  O  O10  1  0.92023749  0.63930442  0.86822034  1
  O  O11  1  0.63930442  0.71906693  0.13177966  1
