# generated using pymatgen
data_SrV2(PO5)2
_symmetry_space_group_name_H-M   'P 1'
_cell_length_a   7.04206927
_cell_length_b   7.04206854
_cell_length_c   8.90573068
_cell_angle_alpha   102.44613885
_cell_angle_beta   102.44613751
_cell_angle_gamma   117.05735264
_symmetry_Int_Tables_number   1
_chemical_formula_structural   SrV2(PO5)2
_chemical_formula_sum   'Sr2 V4 P4 O20'
_cell_volume   358.22691918
_cell_formula_units_Z   2
loop_
 _symmetry_equiv_pos_site_id
 _symmetry_equiv_pos_as_xyz
  1  'x, y, z'
loop_
 _atom_site_type_symbol
 _atom_site_label
 _atom_site_symmetry_multiplicity
 _atom_site_fract_x
 _atom_site_fract_y
 _atom_site_fract_z
 _atom_site_occupancy
  Sr  Sr0  1  0.00310616  0.00310616  0.00000000  1
  Sr  Sr1  1  0.25310616  0.75310616  0.50000000  1
  V  V2  1  0.65079937  0.37802747  0.73954041  1
  V  V3  1  0.62802747  0.40079937  0.23954041  1
  V  V4  1  0.63848705  0.91125896  0.26045959  1
  V  V5  1  0.16125896  0.38848705  0.76045959  1
  P  P6  1  0.79811142  0.79870477  0.58120698  1
  P  P7  1  0.04870477  0.54811142  0.08120698  1
  P  P8  1  0.21749780  0.21690445  0.41879302  1
  P  P9  1  0.46690445  0.96749780  0.91879302  1
  O  O10  1  0.28419448  0.76111287  0.19759466  1
  O  O11  1  0.18348373  0.38942199  0.53401644  1
  O  O12  1  0.69899021  0.67207856  0.69397738  1
  O  O13  1  0.67495705  0.17345709  0.32900697  1
  O  O14  1  0.62508436  0.83576094  0.46934764  1
  O  O15  1  0.89946729  0.60540555  0.96598356  1
  O  O16  1  0.59595008  0.59445012  0.17099303  1
  O  O17  1  0.33659983  0.31351822  0.30240534  1
  O  O18  1  0.56351822  0.08659983  0.80240534  1
  O  O19  1  0.85540555  0.64946729  0.46598356  1
  O  O20  1  0.84445012  0.34595008  0.67099303  1
  O  O21  1  0.36641330  0.15573672  0.53065236  1
  O  O22  1  0.08576094  0.37508436  0.96934764  1
  O  O23  1  0.40573672  0.11641330  0.03065236  1
  O  O24  1  0.42345709  0.42495705  0.82900697  1
  O  O25  1  0.63942199  0.93348373  0.03401644  1
  O  O26  1  0.25501282  0.72810118  0.80602262  1
  O  O27  1  0.01111287  0.03419448  0.69759466  1
  O  O28  1  0.97810118  0.00501282  0.30602262  1
  O  O29  1  0.92207856  0.44899021  0.19397738  1
