# generated using pymatgen
data_La2Te3MoO12
_symmetry_space_group_name_H-M   'P 1'
_cell_length_a   7.48331927
_cell_length_b   11.82914638
_cell_length_c   13.71221904
_cell_angle_alpha   90.00000000
_cell_angle_beta   90.00000000
_cell_angle_gamma   90.00000000
_symmetry_Int_Tables_number   1
_chemical_formula_structural   La2Te3MoO12
_chemical_formula_sum   'La8 Te12 Mo4 O48'
_cell_volume   1213.82316808
_cell_formula_units_Z   4
loop_
 _symmetry_equiv_pos_site_id
 _symmetry_equiv_pos_as_xyz
  1  'x, y, z'
loop_
 _atom_site_type_symbol
 _atom_site_label
 _atom_site_symmetry_multiplicity
 _atom_site_fract_x
 _atom_site_fract_y
 _atom_site_fract_z
 _atom_site_occupancy
  La  La0  1  0.40715375  0.41563424  0.86964402  1
  La  La1  1  0.59284625  0.91563424  0.13035598  1
  La  La2  1  0.40715375  0.08436576  0.86964402  1
  La  La3  1  0.90715375  0.41563424  0.63035598  1
  La  La4  1  0.90715375  0.08436576  0.63035598  1
  La  La5  1  0.59284625  0.58436576  0.13035598  1
  La  La6  1  0.09284625  0.58436576  0.36964402  1
  La  La7  1  0.09284625  0.91563424  0.36964402  1
  Te  Te8  1  0.34462327  0.95589985  0.62177445  1
  Te  Te9  1  0.53134090  0.75000000  0.38032452  1
  Te  Te10  1  0.65537673  0.45589985  0.37822555  1
  Te  Te11  1  0.84462327  0.95589985  0.87822555  1
  Te  Te12  1  0.34462327  0.54410015  0.62177445  1
  Te  Te13  1  0.03134090  0.75000000  0.11967548  1
  Te  Te14  1  0.96865910  0.25000000  0.88032452  1
  Te  Te15  1  0.15537673  0.45589985  0.12177445  1
  Te  Te16  1  0.46865910  0.25000000  0.61967548  1
  Te  Te17  1  0.15537673  0.04410015  0.12177445  1
  Te  Te18  1  0.65537673  0.04410015  0.37822555  1
  Te  Te19  1  0.84462327  0.54410015  0.87822555  1
  Mo  Mo20  1  0.35266133  0.75000000  0.90440278  1
  Mo  Mo21  1  0.85266133  0.75000000  0.59559722  1
  Mo  Mo22  1  0.64733867  0.25000000  0.09559722  1
  Mo  Mo23  1  0.14733867  0.25000000  0.40440278  1
  O  O24  1  0.17366222  0.50066121  0.52779553  1
  O  O25  1  0.17366222  0.99933879  0.52779553  1
  O  O26  1  0.05384614  0.25000000  0.52752723  1
  O  O27  1  0.22821915  0.45819680  0.71933919  1
  O  O28  1  0.21546390  0.25000000  0.91131526  1
  O  O29  1  0.92368350  0.87350497  0.66206677  1
  O  O30  1  0.78453610  0.75000000  0.08868474  1
  O  O31  1  0.07631650  0.37350497  0.33793323  1
  O  O32  1  0.61648740  0.75000000  0.58383976  1
  O  O33  1  0.67366222  0.99933879  0.97220447  1
  O  O34  1  0.47469152  0.93110682  0.40109805  1
  O  O35  1  0.72821915  0.45819680  0.78066081  1
  O  O36  1  0.52530848  0.06889318  0.59890195  1
  O  O37  1  0.72821915  0.04180320  0.78066081  1
  O  O38  1  0.67366222  0.50066121  0.97220447  1
  O  O39  1  0.55384614  0.25000000  0.97247277  1
  O  O40  1  0.32633778  0.00066121  0.02779553  1
  O  O41  1  0.77178085  0.95819680  0.28066081  1
  O  O42  1  0.48608464  0.25000000  0.75777467  1
  O  O43  1  0.27178085  0.95819680  0.21933919  1
  O  O44  1  0.22821915  0.04180320  0.71933919  1
  O  O45  1  0.71546390  0.25000000  0.58868474  1
  O  O46  1  0.44615386  0.75000000  0.02752723  1
  O  O47  1  0.52530848  0.43110682  0.59890195  1
  O  O48  1  0.02530848  0.06889318  0.90109805  1
  O  O49  1  0.11648740  0.75000000  0.91616024  1
  O  O50  1  0.57631650  0.37350497  0.16206677  1
  O  O51  1  0.82633778  0.00066121  0.47220447  1
  O  O52  1  0.07631650  0.12649503  0.33793323  1
  O  O53  1  0.92368350  0.62649503  0.66206677  1
  O  O54  1  0.42368350  0.87350497  0.83793323  1
  O  O55  1  0.47469152  0.56889318  0.40109805  1
  O  O56  1  0.51391536  0.75000000  0.24222533  1
  O  O57  1  0.32633778  0.49933879  0.02779553  1
  O  O58  1  0.28453610  0.75000000  0.41131526  1
  O  O59  1  0.27178085  0.54180320  0.21933919  1
  O  O60  1  0.38351260  0.25000000  0.41616024  1
  O  O61  1  0.57631650  0.12649503  0.16206677  1
  O  O62  1  0.88351260  0.25000000  0.08383976  1
  O  O63  1  0.77178085  0.54180320  0.28066081  1
  O  O64  1  0.97469152  0.56889318  0.09890195  1
  O  O65  1  0.97469152  0.93110682  0.09890195  1
  O  O66  1  0.42368350  0.62649503  0.83793323  1
  O  O67  1  0.01391536  0.75000000  0.25777467  1
  O  O68  1  0.94615386  0.75000000  0.47247277  1
  O  O69  1  0.82633778  0.49933879  0.47220447  1
  O  O70  1  0.02530848  0.43110682  0.90109805  1
  O  O71  1  0.98608464  0.25000000  0.74222533  1
