# generated using pymatgen
data_NaV(SO4)2
_symmetry_space_group_name_H-M   'P 1'
_cell_length_a   4.87440031
_cell_length_b   4.87440017
_cell_length_c   7.25690923
_cell_angle_alpha   89.39650913
_cell_angle_beta   89.39650914
_cell_angle_gamma   64.86341979
_symmetry_Int_Tables_number   1
_chemical_formula_structural   NaV(SO4)2
_chemical_formula_sum   'Na1 V1 S2 O8'
_cell_volume   156.08159831
_cell_formula_units_Z   1
loop_
 _symmetry_equiv_pos_site_id
 _symmetry_equiv_pos_as_xyz
  1  'x, y, z'
loop_
 _atom_site_type_symbol
 _atom_site_label
 _atom_site_symmetry_multiplicity
 _atom_site_fract_x
 _atom_site_fract_y
 _atom_site_fract_z
 _atom_site_occupancy
  Na  Na0  1  0.00000000  0.00000000  0.50000000  1
  V  V1  1  0.00000000  0.00000000  0.00000000  1
  S  S2  1  0.35851461  0.35851461  0.77895803  1
  S  S3  1  0.64148539  0.64148539  0.22104197  1
  O  O4  1  0.30013264  0.76611067  0.20245047  1
  O  O5  1  0.71463877  0.71463877  0.40148581  1
  O  O6  1  0.24127954  0.24127954  0.93547155  1
  O  O7  1  0.28536123  0.28536123  0.59851419  1
  O  O8  1  0.76611067  0.30013264  0.20245047  1
  O  O9  1  0.75872046  0.75872046  0.06452845  1
  O  O10  1  0.69986736  0.23388933  0.79754953  1
  O  O11  1  0.23388933  0.69986736  0.79754953  1
