# generated using pymatgen
data_Rb2V2Cu(PO6)2
_symmetry_space_group_name_H-M   'P 1'
_cell_length_a   5.06662397
_cell_length_b   9.64248345
_cell_length_c   11.63704781
_cell_angle_alpha   90.00000000
_cell_angle_beta   90.00000000
_cell_angle_gamma   93.87991398
_symmetry_Int_Tables_number   1
_chemical_formula_structural   Rb2V2Cu(PO6)2
_chemical_formula_sum   'Rb4 V4 Cu2 P4 O24'
_cell_volume   567.22305566
_cell_formula_units_Z   2
loop_
 _symmetry_equiv_pos_site_id
 _symmetry_equiv_pos_as_xyz
  1  'x, y, z'
loop_
 _atom_site_type_symbol
 _atom_site_label
 _atom_site_symmetry_multiplicity
 _atom_site_fract_x
 _atom_site_fract_y
 _atom_site_fract_z
 _atom_site_occupancy
  Rb  Rb0  1  0.44094166  0.10572411  0.36468030  1
  Rb  Rb1  1  0.55905834  0.89427589  0.63531970  1
  Rb  Rb2  1  0.55905834  0.39427589  0.86468030  1
  Rb  Rb3  1  0.44094166  0.60572411  0.13531970  1
  V  V4  1  0.05451346  0.74957642  0.88531985  1
  V  V5  1  0.94548654  0.25042358  0.11468015  1
  V  V6  1  0.94548654  0.75042358  0.38531985  1
  V  V7  1  0.05451346  0.24957642  0.61468015  1
  Cu  Cu8  1  0.50000000  0.00000000  0.00000000  1
  Cu  Cu9  1  0.50000000  0.50000000  0.50000000  1
  P  P10  1  0.01105962  0.08262064  0.86268409  1
  P  P11  1  0.98894038  0.91737936  0.13731591  1
  P  P12  1  0.98894038  0.41737936  0.36268409  1
  P  P13  1  0.01105962  0.58262064  0.63731591  1
  O  O14  1  0.06901414  0.07014908  0.17178518  1
  O  O15  1  0.06756790  0.32033568  0.26462736  1
  O  O16  1  0.10126831  0.86476630  0.47194741  1
  O  O17  1  0.63149853  0.28509567  0.12634937  1
  O  O18  1  0.89873169  0.13523370  0.52805259  1
  O  O19  1  0.89873169  0.63523370  0.97194741  1
  O  O20  1  0.83583914  0.11882197  0.96961083  1
  O  O21  1  0.93098586  0.42985092  0.67178518  1
  O  O22  1  0.93243210  0.67966432  0.73537264  1
  O  O23  1  0.83583914  0.61882197  0.53038917  1
  O  O24  1  0.69173167  0.39397425  0.38983832  1
  O  O25  1  0.16416086  0.38117803  0.46961083  1
  O  O26  1  0.06756790  0.82033568  0.23537264  1
  O  O27  1  0.16416086  0.88117803  0.03038917  1
  O  O28  1  0.63149853  0.78509567  0.37365063  1
  O  O29  1  0.30826833  0.10602575  0.88983832  1
  O  O30  1  0.10126831  0.36476630  0.02805259  1
  O  O31  1  0.69173167  0.89397425  0.11016168  1
  O  O32  1  0.36850147  0.21490433  0.62634937  1
  O  O33  1  0.36850147  0.71490433  0.87365063  1
  O  O34  1  0.93098586  0.92985092  0.82821482  1
  O  O35  1  0.30826833  0.60602575  0.61016168  1
  O  O36  1  0.06901414  0.57014908  0.32821482  1
  O  O37  1  0.93243210  0.17966432  0.76462736  1
