# generated using pymatgen
data_Gd3BWO9
_symmetry_space_group_name_H-M   'P 1'
_cell_length_a   8.66959712
_cell_length_b   8.66959717
_cell_length_c   5.47653164
_cell_angle_alpha   90.00000000
_cell_angle_beta   90.00000000
_cell_angle_gamma   119.99999985
_symmetry_Int_Tables_number   1
_chemical_formula_structural   Gd3BWO9
_chemical_formula_sum   'Gd6 B2 W2 O18'
_cell_volume   356.47909643
_cell_formula_units_Z   2
loop_
 _symmetry_equiv_pos_site_id
 _symmetry_equiv_pos_as_xyz
  1  'x, y, z'
loop_
 _atom_site_type_symbol
 _atom_site_label
 _atom_site_symmetry_multiplicity
 _atom_site_fract_x
 _atom_site_fract_y
 _atom_site_fract_z
 _atom_site_occupancy
  Gd  Gd0  1  0.35587835  0.07877551  0.19885010  1
  Gd  Gd1  1  0.27710284  0.35587835  0.69885010  1
  Gd  Gd2  1  0.72289716  0.64412165  0.19885010  1
  Gd  Gd3  1  0.64412165  0.92122449  0.69885010  1
  Gd  Gd4  1  0.92122449  0.27710284  0.19885010  1
  Gd  Gd5  1  0.07877551  0.72289716  0.69885010  1
  B  B6  1  0.00000000  0.00000000  0.36879928  1
  B  B7  1  0.00000000  0.00000000  0.86879928  1
  W  W8  1  0.66666700  0.33333300  0.74163729  1
  W  W9  1  0.33333300  0.66666700  0.24163729  1
  O  O10  1  0.12499870  0.17925353  0.36016291  1
  O  O11  1  0.87500130  0.82074647  0.86016291  1
  O  O12  1  0.51902263  0.38696554  0.96897063  1
  O  O13  1  0.17925353  0.05425483  0.86016291  1
  O  O14  1  0.82074647  0.94574517  0.36016291  1
  O  O15  1  0.25964023  0.79622750  0.03450418  1
  O  O16  1  0.86794292  0.48097737  0.96897063  1
  O  O17  1  0.46341272  0.25964023  0.53450418  1
  O  O18  1  0.20377250  0.46341272  0.03450418  1
  O  O19  1  0.94574517  0.12499870  0.86016291  1
  O  O20  1  0.74035977  0.20377250  0.53450418  1
  O  O21  1  0.79622750  0.53658728  0.53450418  1
  O  O22  1  0.05425483  0.87500130  0.36016291  1
  O  O23  1  0.53658728  0.74035977  0.03450418  1
  O  O24  1  0.61303446  0.13205708  0.96897063  1
  O  O25  1  0.13205708  0.51902263  0.46897063  1
  O  O26  1  0.48097737  0.61303446  0.46897063  1
  O  O27  1  0.38696554  0.86794292  0.46897063  1
