# generated using pymatgen
data_K2MoAs2O9
_symmetry_space_group_name_H-M   'P 1'
_cell_length_a   7.60548370
_cell_length_b   9.33976359
_cell_length_c   14.20448594
_cell_angle_alpha   90.00000000
_cell_angle_beta   90.00000000
_cell_angle_gamma   110.89092918
_symmetry_Int_Tables_number   1
_chemical_formula_structural   K2MoAs2O9
_chemical_formula_sum   'K8 Mo4 As8 O36'
_cell_volume   942.66294664
_cell_formula_units_Z   4
loop_
 _symmetry_equiv_pos_site_id
 _symmetry_equiv_pos_as_xyz
  1  'x, y, z'
loop_
 _atom_site_type_symbol
 _atom_site_label
 _atom_site_symmetry_multiplicity
 _atom_site_fract_x
 _atom_site_fract_y
 _atom_site_fract_z
 _atom_site_occupancy
  K  K0  1  0.70892913  0.37518942  0.04774722  1
  K  K1  1  0.79107087  0.12481058  0.54774722  1
  K  K2  1  0.81834646  0.86036923  0.08932217  1
  K  K3  1  0.29107087  0.62481058  0.95225278  1
  K  K4  1  0.20892913  0.87518942  0.45225278  1
  K  K5  1  0.18165354  0.13963077  0.91067783  1
  K  K6  1  0.68165354  0.63963077  0.58932217  1
  K  K7  1  0.31834646  0.36036923  0.41067783  1
  Mo  Mo8  1  0.24558968  0.66923820  0.21665603  1
  Mo  Mo9  1  0.25441032  0.83076180  0.71665603  1
  Mo  Mo10  1  0.75441032  0.33076180  0.78334397  1
  Mo  Mo11  1  0.74558968  0.16923820  0.28334397  1
  As  As12  1  0.32604064  0.19559229  0.65852374  1
  As  As13  1  0.18075714  0.46762627  0.66554750  1
  As  As14  1  0.17395936  0.30440771  0.15852374  1
  As  As15  1  0.68075714  0.96762627  0.83445250  1
  As  As16  1  0.31924286  0.03237373  0.16554750  1
  As  As17  1  0.82604064  0.69559229  0.84147626  1
  As  As18  1  0.67395936  0.80440771  0.34147626  1
  As  As19  1  0.81924286  0.53237373  0.33445250  1
  O  O20  1  0.55907584  0.10936659  0.36357908  1
  O  O21  1  0.56211127  0.26440748  0.85974520  1
  O  O22  1  0.25325853  0.45813961  0.23755034  1
  O  O23  1  0.94035747  0.38749852  0.66053621  1
  O  O24  1  0.06211127  0.76440748  0.64025480  1
  O  O25  1  0.79448101  0.01418498  0.93640190  1
  O  O26  1  0.55964253  0.11250148  0.16053621  1
  O  O27  1  0.43378975  0.72298724  0.34373379  1
  O  O28  1  0.76017746  0.11858867  0.75376702  1
  O  O29  1  0.74674147  0.54186039  0.76244966  1
  O  O30  1  0.73982254  0.38141133  0.25376702  1
  O  O31  1  0.29448101  0.51418498  0.56359810  1
  O  O32  1  0.44035747  0.88749852  0.83946379  1
  O  O33  1  0.75147355  0.67467934  0.27329758  1
  O  O34  1  0.56621025  0.27701276  0.65626621  1
  O  O35  1  0.93378975  0.22298724  0.15626621  1
  O  O36  1  0.71722341  0.64932886  0.94549942  1
  O  O37  1  0.05964253  0.61250148  0.33946379  1
  O  O38  1  0.94092416  0.39063341  0.86357908  1
  O  O39  1  0.20551899  0.98581502  0.06359810  1
  O  O40  1  0.74852645  0.82532066  0.77329758  1
  O  O41  1  0.24674147  0.04186039  0.73755034  1
  O  O42  1  0.28277659  0.35067114  0.05450058  1
  O  O43  1  0.75325853  0.95813961  0.26244966  1
  O  O44  1  0.93788873  0.23559252  0.35974520  1
  O  O45  1  0.26017746  0.61858867  0.74623298  1
  O  O46  1  0.25147355  0.17467934  0.22670242  1
  O  O47  1  0.78277659  0.85067114  0.44549942  1
  O  O48  1  0.70551899  0.48581502  0.43640190  1
  O  O49  1  0.05907584  0.60936659  0.13642092  1
  O  O50  1  0.23982254  0.88141133  0.24623298  1
  O  O51  1  0.44092416  0.89063341  0.63642092  1
  O  O52  1  0.06621025  0.77701276  0.84373379  1
  O  O53  1  0.24852645  0.32532066  0.72670242  1
  O  O54  1  0.43788873  0.73559252  0.14025480  1
  O  O55  1  0.21722341  0.14932886  0.55450058  1
