# generated using pymatgen
data_KMo2Cl7O2
_symmetry_space_group_name_H-M   'P 1'
_cell_length_a   8.26127673
_cell_length_b   8.26127648
_cell_length_c   10.68755206
_cell_angle_alpha   102.89230953
_cell_angle_beta   102.89230908
_cell_angle_gamma   92.79073588
_symmetry_Int_Tables_number   1
_chemical_formula_structural   KMo2Cl7O2
_chemical_formula_sum   'K2 Mo4 Cl14 O4'
_cell_volume   689.36806418
_cell_formula_units_Z   2
loop_
 _symmetry_equiv_pos_site_id
 _symmetry_equiv_pos_as_xyz
  1  'x, y, z'
loop_
 _atom_site_type_symbol
 _atom_site_label
 _atom_site_symmetry_multiplicity
 _atom_site_fract_x
 _atom_site_fract_y
 _atom_site_fract_z
 _atom_site_occupancy
  K  K0  1  0.40917732  0.59082268  0.75000000  1
  K  K1  1  0.59082268  0.40917732  0.25000000  1
  Mo  Mo2  1  0.86960461  0.35434896  0.66231838  1
  Mo  Mo3  1  0.13039539  0.64565104  0.33768162  1
  Mo  Mo4  1  0.64565104  0.13039539  0.83768162  1
  Mo  Mo5  1  0.35434896  0.86960461  0.16231838  1
  Cl  Cl6  1  0.20553306  0.53782703  0.12832395  1
  Cl  Cl7  1  0.83389563  0.19385461  0.44538862  1
  Cl  Cl8  1  0.90317363  0.09682637  0.75000000  1
  Cl  Cl9  1  0.57023735  0.73894125  0.08160298  1
  Cl  Cl10  1  0.42976265  0.26105875  0.91839702  1
  Cl  Cl11  1  0.09682637  0.90317363  0.25000000  1
  Cl  Cl12  1  0.46217297  0.79446694  0.37167605  1
  Cl  Cl13  1  0.80614539  0.16610437  0.05461138  1
  Cl  Cl14  1  0.26105875  0.42976265  0.41839702  1
  Cl  Cl15  1  0.79446694  0.46217297  0.87167605  1
  Cl  Cl16  1  0.16610437  0.80614539  0.55461138  1
  Cl  Cl17  1  0.73894125  0.57023735  0.58160298  1
  Cl  Cl18  1  0.53782703  0.20553306  0.62832395  1
  Cl  Cl19  1  0.19385461  0.83389563  0.94538862  1
  O  O20  1  0.92438349  0.57364794  0.29467712  1
  O  O21  1  0.42635206  0.07561651  0.20532288  1
  O  O22  1  0.07561651  0.42635206  0.70532288  1
  O  O23  1  0.57364794  0.92438349  0.79467712  1
