# generated using pymatgen
data_Sr9TmV7O28
_symmetry_space_group_name_H-M   'P 1'
_cell_length_a   14.91568988
_cell_length_b   14.91568978
_cell_length_c   14.91568981
_cell_angle_alpha   44.81317142
_cell_angle_beta   44.81317182
_cell_angle_gamma   44.81317329
_symmetry_Int_Tables_number   1
_chemical_formula_structural   Sr9TmV7O28
_chemical_formula_sum   'Sr18 Tm2 V14 O56'
_cell_volume   1499.73369586
_cell_formula_units_Z   2
loop_
 _symmetry_equiv_pos_site_id
 _symmetry_equiv_pos_as_xyz
  1  'x, y, z'
loop_
 _atom_site_type_symbol
 _atom_site_label
 _atom_site_symmetry_multiplicity
 _atom_site_fract_x
 _atom_site_fract_y
 _atom_site_fract_z
 _atom_site_occupancy
  Sr  Sr0  1  0.15346992  0.56707495  0.57745075  1
  Sr  Sr1  1  0.45343018  0.46966547  0.05253581  1
  Sr  Sr2  1  0.85312585  0.43569790  0.40786129  1
  Sr  Sr3  1  0.05253581  0.45343018  0.46966547  1
  Sr  Sr4  1  0.55253581  0.96966547  0.95343018  1
  Sr  Sr5  1  0.95343018  0.55253581  0.96966547  1
  Sr  Sr6  1  0.56707495  0.57745075  0.15346992  1
  Sr  Sr7  1  0.40786129  0.85312585  0.43569790  1
  Sr  Sr8  1  0.57745075  0.15346992  0.56707495  1
  Sr  Sr9  1  0.07745075  0.06707495  0.65346992  1
  Sr  Sr10  1  0.35312585  0.90786129  0.93569790  1
  Sr  Sr11  1  0.43569790  0.40786129  0.85312585  1
  Sr  Sr12  1  0.06707495  0.65346992  0.07745075  1
  Sr  Sr13  1  0.65346992  0.07745075  0.06707495  1
  Sr  Sr14  1  0.46966547  0.05253581  0.45343018  1
  Sr  Sr15  1  0.93569790  0.35312585  0.90786129  1
  Sr  Sr16  1  0.96966547  0.95343018  0.55253581  1
  Sr  Sr17  1  0.90786129  0.93569790  0.35312585  1
  Tm  Tm18  1  0.49992965  0.49992965  0.49992965  1
  Tm  Tm19  1  0.99992965  0.99992965  0.99992965  1
  V  V20  1  0.32040839  0.77676850  0.80833139  1
  V  V21  1  0.68857973  0.71986386  0.18699597  1
  V  V22  1  0.80833139  0.32040839  0.77676850  1
  V  V23  1  0.77048192  0.77048192  0.77048192  1
  V  V24  1  0.82040839  0.30833139  0.27676850  1
  V  V25  1  0.30833139  0.27676850  0.82040839  1
  V  V26  1  0.27676850  0.82040839  0.30833139  1
  V  V27  1  0.27048192  0.27048192  0.27048192  1
  V  V28  1  0.71986386  0.18699597  0.68857973  1
  V  V29  1  0.68699597  0.21986386  0.18857973  1
  V  V30  1  0.18857973  0.68699597  0.21986386  1
  V  V31  1  0.18699597  0.68857973  0.71986386  1
  V  V32  1  0.77676850  0.80833139  0.32040839  1
  V  V33  1  0.21986386  0.18857973  0.68699597  1
  O  O34  1  0.10360307  0.39913504  0.27361821  1
  O  O35  1  0.85754223  0.40204138  0.76704888  1
  O  O36  1  0.88013947  0.13563433  0.87706680  1
  O  O37  1  0.89368032  0.33679566  0.60727837  1
  O  O38  1  0.10692196  0.67638219  0.68694888  1
  O  O39  1  0.59516345  0.89842925  0.14238081  1
  O  O40  1  0.38013947  0.37706680  0.63563433  1
  O  O41  1  0.60727837  0.89368032  0.33679566  1
  O  O42  1  0.64238081  0.39842925  0.09516345  1
  O  O43  1  0.13094975  0.11172012  0.87087970  1
  O  O44  1  0.31371687  0.31371687  0.31371687  1
  O  O45  1  0.68694888  0.10692196  0.67638219  1
  O  O46  1  0.63495755  0.15448652  0.36428155  1
  O  O47  1  0.87087970  0.13094975  0.11172012  1
  O  O48  1  0.14238081  0.59516345  0.89842925  1
  O  O49  1  0.90204138  0.35754223  0.26704888  1
  O  O50  1  0.62853460  0.37479098  0.85851051  1
  O  O51  1  0.37479098  0.85851051  0.62853460  1
  O  O52  1  0.89842925  0.14238081  0.59516345  1
  O  O53  1  0.39913504  0.27361821  0.10360307  1
  O  O54  1  0.60692196  0.18694888  0.17638219  1
  O  O55  1  0.12853460  0.35851051  0.87479098  1
  O  O56  1  0.87479098  0.12853460  0.35851051  1
  O  O57  1  0.67638219  0.68694888  0.10692196  1
  O  O58  1  0.60360307  0.77361821  0.89913504  1
  O  O59  1  0.10727837  0.83679566  0.39368032  1
  O  O60  1  0.77361821  0.89913504  0.60360307  1
  O  O61  1  0.15448652  0.36428155  0.63495755  1
  O  O62  1  0.85851051  0.62853460  0.37479098  1
  O  O63  1  0.18694888  0.17638219  0.60692196  1
  O  O64  1  0.37706680  0.63563433  0.38013947  1
  O  O65  1  0.17638219  0.60692196  0.18694888  1
  O  O66  1  0.13563433  0.87706680  0.88013947  1
  O  O67  1  0.26704888  0.90204138  0.35754223  1
  O  O68  1  0.81371687  0.81371687  0.81371687  1
  O  O69  1  0.89913504  0.60360307  0.77361821  1
  O  O70  1  0.83679566  0.39368032  0.10727837  1
  O  O71  1  0.86428155  0.65448652  0.13495755  1
  O  O72  1  0.35754223  0.26704888  0.90204138  1
  O  O73  1  0.35851051  0.87479098  0.12853460  1
  O  O74  1  0.37087970  0.61172012  0.63094975  1
  O  O75  1  0.87706680  0.88013947  0.13563433  1
  O  O76  1  0.61172012  0.63094975  0.37087970  1
  O  O77  1  0.76704888  0.85754223  0.40204138  1
  O  O78  1  0.40204138  0.76704888  0.85754223  1
  O  O79  1  0.65448652  0.13495755  0.86428155  1
  O  O80  1  0.63563433  0.38013947  0.37706680  1
  O  O81  1  0.63094975  0.37087970  0.61172012  1
  O  O82  1  0.33679566  0.60727837  0.89368032  1
  O  O83  1  0.11172012  0.87087970  0.13094975  1
  O  O84  1  0.09516345  0.64238081  0.39842925  1
  O  O85  1  0.36428155  0.63495755  0.15448652  1
  O  O86  1  0.39842925  0.09516345  0.64238081  1
  O  O87  1  0.27361821  0.10360307  0.39913504  1
  O  O88  1  0.39368032  0.10727837  0.83679566  1
  O  O89  1  0.13495755  0.86428155  0.65448652  1
