# generated using pymatgen
data_Cr2O5
_symmetry_space_group_name_H-M   'P 1'
_cell_length_a   3.63700623
_cell_length_b   4.79071507
_cell_length_c   11.03706396
_cell_angle_alpha   89.99577358
_cell_angle_beta   89.99995243
_cell_angle_gamma   89.99993711
_symmetry_Int_Tables_number   1
_chemical_formula_structural   Cr2O5
_chemical_formula_sum   'Cr4 O10'
_cell_volume   192.30826295
_cell_formula_units_Z   2
loop_
 _symmetry_equiv_pos_site_id
 _symmetry_equiv_pos_as_xyz
  1  'x, y, z'
loop_
 _atom_site_type_symbol
 _atom_site_label
 _atom_site_symmetry_multiplicity
 _atom_site_fract_x
 _atom_site_fract_y
 _atom_site_fract_z
 _atom_site_occupancy
  Cr  Cr0  1  0.01857000  0.88314246  0.15254567  1
  Cr  Cr1  1  0.51856848  0.11700839  0.34740289  1
  Cr  Cr2  1  0.51856932  0.11693525  0.65256804  1
  Cr  Cr3  1  0.01857012  0.88291685  0.84743337  1
  O  O4  1  0.51857742  0.99292552  0.18123134  1
  O  O5  1  0.01857580  0.00702957  0.31876437  1
  O  O6  1  0.01857851  0.00700406  0.68124985  1
  O  O7  1  0.51857936  0.99288156  0.81877590  1
  O  O8  1  0.01857417  0.55307815  0.85344054  1
  O  O9  1  0.51857289  0.44677681  0.64660954  1
  O  O10  1  0.51856912  0.44684555  0.35341300  1
  O  O11  1  0.51855379  0.99199307  0.49997399  1
  O  O12  1  0.01856242  0.00808306  0.99996854  1
  O  O13  1  0.01857060  0.55337970  0.14662196  1
