# generated using pymatgen
data_K2VPO6
_symmetry_space_group_name_H-M   'P 1'
_cell_length_a   7.01653053
_cell_length_b   7.69719505
_cell_length_c   13.63017292
_cell_angle_alpha   90.00000000
_cell_angle_beta   90.00000000
_cell_angle_gamma   111.40994220
_symmetry_Int_Tables_number   1
_chemical_formula_structural   K2VPO6
_chemical_formula_sum   'K8 V4 P4 O24'
_cell_volume   685.33427583
_cell_formula_units_Z   4
loop_
 _symmetry_equiv_pos_site_id
 _symmetry_equiv_pos_as_xyz
  1  'x, y, z'
loop_
 _atom_site_type_symbol
 _atom_site_label
 _atom_site_symmetry_multiplicity
 _atom_site_fract_x
 _atom_site_fract_y
 _atom_site_fract_z
 _atom_site_occupancy
  K  K0  1  0.30207773  0.58533392  0.41844856  1
  K  K1  1  0.85993312  0.94793685  0.36684817  1
  K  K2  1  0.69792227  0.41466608  0.58155144  1
  K  K3  1  0.19792227  0.91466608  0.91844856  1
  K  K4  1  0.80207773  0.08533392  0.08155144  1
  K  K5  1  0.14006688  0.05206315  0.63315183  1
  K  K6  1  0.35993312  0.44793685  0.13315183  1
  K  K7  1  0.64006688  0.55206315  0.86684817  1
  V  V8  1  0.70383818  0.10030811  0.79918011  1
  V  V9  1  0.29616182  0.89969189  0.20081989  1
  V  V10  1  0.79616182  0.39969189  0.29918011  1
  V  V11  1  0.20383818  0.60030811  0.70081989  1
  P  P12  1  0.42626611  0.19806700  0.37753663  1
  P  P13  1  0.92626611  0.69806700  0.12246337  1
  P  P14  1  0.57373389  0.80193300  0.62246337  1
  P  P15  1  0.07373389  0.30193300  0.87753663  1
  O  O16  1  0.32709725  0.23248720  0.47022519  1
  O  O17  1  0.82709725  0.73248720  0.02977481  1
  O  O18  1  0.28181483  0.01599057  0.32631588  1
  O  O19  1  0.45487704  0.79349633  0.23748406  1
  O  O20  1  0.21818517  0.48400943  0.82631588  1
  O  O21  1  0.71818517  0.98400943  0.67368412  1
  O  O22  1  0.07522861  0.42490008  0.62693281  1
  O  O23  1  0.35293992  0.80829066  0.60559093  1
  O  O24  1  0.78181483  0.51599057  0.17368412  1
  O  O25  1  0.51087913  0.63376789  0.69625438  1
  O  O26  1  0.42477139  0.07509992  0.12693281  1
  O  O27  1  0.64706008  0.19170934  0.39440907  1
  O  O28  1  0.04512296  0.70650367  0.73748406  1
  O  O29  1  0.54512296  0.20650367  0.76251594  1
  O  O30  1  0.01087913  0.13376789  0.80374562  1
  O  O31  1  0.98912087  0.86623211  0.19625438  1
  O  O32  1  0.48912087  0.36623211  0.30374562  1
  O  O33  1  0.14706008  0.69170934  0.10559093  1
  O  O34  1  0.85293992  0.30829066  0.89440907  1
  O  O35  1  0.17290275  0.26751280  0.97022519  1
  O  O36  1  0.57522861  0.92490008  0.87306719  1
  O  O37  1  0.92477139  0.57509992  0.37306719  1
  O  O38  1  0.67290275  0.76751280  0.52977481  1
  O  O39  1  0.95487704  0.29349633  0.26251594  1
