# generated using pymatgen
data_V4Fe2O13
_symmetry_space_group_name_H-M   'P 1'
_cell_length_a   8.49427676
_cell_length_b   9.58063103
_cell_length_c   14.88313567
_cell_angle_alpha   90.00000000
_cell_angle_beta   102.77384932
_cell_angle_gamma   90.00000000
_symmetry_Int_Tables_number   1
_chemical_formula_structural   V4Fe2O13
_chemical_formula_sum   'V16 Fe8 O52'
_cell_volume   1181.22080298
_cell_formula_units_Z   4
loop_
 _symmetry_equiv_pos_site_id
 _symmetry_equiv_pos_as_xyz
  1  'x, y, z'
loop_
 _atom_site_type_symbol
 _atom_site_label
 _atom_site_symmetry_multiplicity
 _atom_site_fract_x
 _atom_site_fract_y
 _atom_site_fract_z
 _atom_site_occupancy
  V  V0  1  0.25456363  0.72371505  0.67164237  1
  V  V1  1  0.14063048  0.25887489  0.32393791  1
  V  V2  1  0.74543637  0.27628495  0.32835763  1
  V  V3  1  0.85936952  0.74112511  0.67606209  1
  V  V4  1  0.85936952  0.75887489  0.17606209  1
  V  V5  1  0.04320108  0.20938076  0.09184438  1
  V  V6  1  0.95679892  0.70938076  0.40815562  1
  V  V7  1  0.14063048  0.24112511  0.82393791  1
  V  V8  1  0.46653649  0.71289193  0.90538155  1
  V  V9  1  0.04320108  0.29061924  0.59184438  1
  V  V10  1  0.53346351  0.28710807  0.09461845  1
  V  V11  1  0.95679892  0.79061924  0.90815562  1
  V  V12  1  0.74543637  0.22371505  0.82835763  1
  V  V13  1  0.46653649  0.78710807  0.40538155  1
  V  V14  1  0.25456363  0.77628495  0.17164237  1
  V  V15  1  0.53346351  0.21289193  0.59461845  1
  Fe  Fe16  1  0.30671074  0.50084243  0.48391497  1
  Fe  Fe17  1  0.19097592  0.50047097  0.00675129  1
  Fe  Fe18  1  0.80902408  0.49952903  0.99324871  1
  Fe  Fe19  1  0.69328926  0.49915757  0.51608503  1
  Fe  Fe20  1  0.80902408  0.00047097  0.49324871  1
  Fe  Fe21  1  0.30671074  0.99915757  0.98391497  1
  Fe  Fe22  1  0.19097592  0.99952903  0.50675129  1
  Fe  Fe23  1  0.69328926  0.00084243  0.01608503  1
  O  O24  1  0.94211707  0.16869962  0.81440127  1
  O  O25  1  0.65057926  0.63581881  0.92528091  1
  O  O26  1  0.14028816  0.86547237  0.91308917  1
  O  O27  1  0.14311417  0.38285998  0.52483003  1
  O  O28  1  0.68224694  0.38976006  0.39962699  1
  O  O29  1  0.61068041  0.27438484  0.21729246  1
  O  O30  1  0.94211707  0.33130038  0.31440127  1
  O  O31  1  0.76719957  0.38401820  0.87695478  1
  O  O32  1  0.34305617  0.88324483  0.45616772  1
  O  O33  1  0.84024570  0.88532598  0.60927312  1
  O  O34  1  0.15975430  0.11467402  0.39072688  1
  O  O35  1  0.34305617  0.61675517  0.95616772  1
  O  O36  1  0.84134787  0.78722672  0.79049638  1
  O  O37  1  0.14028816  0.63452763  0.41308917  1
  O  O38  1  0.38931959  0.77438484  0.28270754  1
  O  O39  1  0.31775306  0.88976006  0.10037301  1
  O  O40  1  0.15865213  0.28722672  0.70950362  1
  O  O41  1  0.61068041  0.22561516  0.71729246  1
  O  O42  1  0.50784567  0.38461041  0.54682670  1
  O  O43  1  0.65694383  0.11675517  0.54383228  1
  O  O44  1  0.05788293  0.66869962  0.68559873  1
  O  O45  1  0.05788293  0.83130038  0.18559873  1
  O  O46  1  0.84134787  0.71277328  0.29049638  1
  O  O47  1  0.27916780  0.38142518  0.37070702  1
  O  O48  1  0.14311417  0.11714002  0.02483003  1
  O  O49  1  0.84024570  0.61467402  0.10927312  1
  O  O50  1  0.85688583  0.61714002  0.47516997  1
  O  O51  1  0.01004979  0.38282290  0.04689430  1
  O  O52  1  0.34942074  0.13581881  0.57471909  1
  O  O53  1  0.49215433  0.88461041  0.95317330  1
  O  O54  1  0.76719957  0.11598180  0.37695478  1
  O  O55  1  0.98995021  0.88282290  0.45310570  1
  O  O56  1  0.01004979  0.11717710  0.54689430  1
  O  O57  1  0.31775306  0.61023994  0.60037301  1
  O  O58  1  0.27916780  0.11857482  0.87070702  1
  O  O59  1  0.15975430  0.38532598  0.89072688  1
  O  O60  1  0.98995021  0.61717710  0.95310570  1
  O  O61  1  0.23280043  0.88401820  0.62304522  1
  O  O62  1  0.50784567  0.11538959  0.04682670  1
  O  O63  1  0.65694383  0.38324483  0.04383228  1
  O  O64  1  0.65057926  0.86418119  0.42528091  1
  O  O65  1  0.38931959  0.72561516  0.78270754  1
  O  O66  1  0.85688583  0.88285998  0.97516997  1
  O  O67  1  0.72083220  0.61857482  0.62929298  1
  O  O68  1  0.49215433  0.61538959  0.45317330  1
  O  O69  1  0.15865213  0.21277328  0.20950362  1
  O  O70  1  0.85971184  0.36547237  0.58691083  1
  O  O71  1  0.72083220  0.88142518  0.12929298  1
  O  O72  1  0.85971184  0.13452763  0.08691083  1
  O  O73  1  0.23280043  0.61598180  0.12304522  1
  O  O74  1  0.68224694  0.11023994  0.89962699  1
  O  O75  1  0.34942074  0.36418119  0.07471909  1
