# generated using pymatgen
data_K2FeF5
_symmetry_space_group_name_H-M   'P 1'
_cell_length_a   5.80038404
_cell_length_b   7.49243583
_cell_length_c   23.44111612
_cell_angle_alpha   90.00000000
_cell_angle_beta   90.00000000
_cell_angle_gamma   90.00000000
_symmetry_Int_Tables_number   1
_chemical_formula_structural   K2FeF5
_chemical_formula_sum   'K16 Fe8 F40'
_cell_volume   1018.72758757
_cell_formula_units_Z   8
loop_
 _symmetry_equiv_pos_site_id
 _symmetry_equiv_pos_as_xyz
  1  'x, y, z'
loop_
 _atom_site_type_symbol
 _atom_site_label
 _atom_site_symmetry_multiplicity
 _atom_site_fract_x
 _atom_site_fract_y
 _atom_site_fract_z
 _atom_site_occupancy
  K  K0  1  0.00000000  0.63319319  0.41675290  1
  K  K1  1  0.50000000  0.44750154  0.16777453  1
  K  K2  1  0.00000000  0.79820167  0.23831503  1
  K  K3  1  0.00000000  0.20179833  0.76168497  1
  K  K4  1  0.50000000  0.94750154  0.33222547  1
  K  K5  1  0.50000000  0.23015810  0.48685044  1
  K  K6  1  0.00000000  0.70179833  0.73831503  1
  K  K7  1  0.00000000  0.13319319  0.08324710  1
  K  K8  1  0.50000000  0.55249846  0.83222547  1
  K  K9  1  0.00000000  0.29820167  0.26168497  1
  K  K10  1  0.50000000  0.76984190  0.51314956  1
  K  K11  1  0.00000000  0.36680681  0.58324710  1
  K  K12  1  0.00000000  0.86680681  0.91675290  1
  K  K13  1  0.50000000  0.26984190  0.98685044  1
  K  K14  1  0.50000000  0.05249846  0.66777453  1
  K  K15  1  0.50000000  0.73015810  0.01314956  1
  Fe  Fe16  1  0.50000000  0.04313657  0.84475934  1
  Fe  Fe17  1  0.50000000  0.54313657  0.65524066  1
  Fe  Fe18  1  0.00000000  0.38022500  0.90589782  1
  Fe  Fe19  1  0.50000000  0.45686343  0.34475934  1
  Fe  Fe20  1  0.00000000  0.11977500  0.40589782  1
  Fe  Fe21  1  0.00000000  0.61977500  0.09410218  1
  Fe  Fe22  1  0.50000000  0.95686343  0.15524066  1
  Fe  Fe23  1  0.00000000  0.88022500  0.59410218  1
  F  F24  1  0.74809072  0.78142404  0.12718984  1
  F  F25  1  0.75940384  0.03566910  0.56804763  1
  F  F26  1  0.25777550  0.61288161  0.32016696  1
  F  F27  1  0.24059616  0.46433090  0.06804763  1
  F  F28  1  0.74222450  0.61288161  0.32016696  1
  F  F29  1  0.25777550  0.88711839  0.82016696  1
  F  F30  1  0.50000000  0.82075678  0.22464463  1
  F  F31  1  0.74222450  0.88711839  0.82016696  1
  F  F32  1  0.00000000  0.99231096  0.66993893  1
  F  F33  1  0.25190928  0.71857596  0.62718984  1
  F  F34  1  0.00000000  0.00768904  0.33006107  1
  F  F35  1  0.50000000  0.44819900  0.57743265  1
  F  F36  1  0.25777550  0.11288161  0.17983304  1
  F  F37  1  0.24059616  0.96433090  0.43195237  1
  F  F38  1  0.50000000  0.32075678  0.27535537  1
  F  F39  1  0.00000000  0.21844506  0.97019532  1
  F  F40  1  0.74809072  0.28142404  0.37281016  1
  F  F41  1  0.00000000  0.71844506  0.52980468  1
  F  F42  1  0.25777550  0.38711839  0.67983304  1
  F  F43  1  0.50000000  0.17924322  0.77535537  1
  F  F44  1  0.74809072  0.21857596  0.87281016  1
  F  F45  1  0.00000000  0.49231096  0.83006107  1
  F  F46  1  0.00000000  0.50768904  0.16993893  1
  F  F47  1  0.24059616  0.03566910  0.56804763  1
  F  F48  1  0.25190928  0.21857596  0.87281016  1
  F  F49  1  0.74222450  0.11288161  0.17983304  1
  F  F50  1  0.50000000  0.94819900  0.92256735  1
  F  F51  1  0.74809072  0.71857596  0.62718984  1
  F  F52  1  0.50000000  0.55180100  0.42256735  1
  F  F53  1  0.00000000  0.28155494  0.47019532  1
  F  F54  1  0.50000000  0.05180100  0.07743265  1
  F  F55  1  0.50000000  0.67924322  0.72464463  1
  F  F56  1  0.75940384  0.96433090  0.43195237  1
  F  F57  1  0.25190928  0.78142404  0.12718984  1
  F  F58  1  0.00000000  0.78155494  0.02980468  1
  F  F59  1  0.74222450  0.38711839  0.67983304  1
  F  F60  1  0.75940384  0.46433090  0.06804763  1
  F  F61  1  0.75940384  0.53566910  0.93195237  1
  F  F62  1  0.25190928  0.28142404  0.37281016  1
  F  F63  1  0.24059616  0.53566910  0.93195237  1
