# generated using pymatgen
data_NiBiAsO5
_symmetry_space_group_name_H-M   'P 1'
_cell_length_a   5.31633926
_cell_length_b   6.82920840
_cell_length_c   6.92414711
_cell_angle_alpha   111.25610315
_cell_angle_beta   107.16416250
_cell_angle_gamma   95.92521144
_symmetry_Int_Tables_number   1
_chemical_formula_structural   NiBiAsO5
_chemical_formula_sum   'Ni2 Bi2 As2 O10'
_cell_volume   217.52655463
_cell_formula_units_Z   2
loop_
 _symmetry_equiv_pos_site_id
 _symmetry_equiv_pos_as_xyz
  1  'x, y, z'
loop_
 _atom_site_type_symbol
 _atom_site_label
 _atom_site_symmetry_multiplicity
 _atom_site_fract_x
 _atom_site_fract_y
 _atom_site_fract_z
 _atom_site_occupancy
  Ni  Ni0  1  0.83217679  0.36521083  0.73746998  1
  Ni  Ni1  1  0.16782321  0.63478917  0.26253002  1
  Bi  Bi2  1  0.40303726  0.23523332  0.96518970  1
  Bi  Bi3  1  0.59696274  0.76476668  0.03481030  1
  As  As4  1  0.84350325  0.81304637  0.61087096  1
  As  As5  1  0.15649675  0.18695363  0.38912904  1
  O  O6  1  0.77052758  0.49733773  0.04705013  1
  O  O7  1  0.26733427  0.34888197  0.27372817  1
  O  O8  1  0.73266573  0.65111803  0.72627183  1
  O  O9  1  0.58105389  0.77466349  0.37288589  1
  O  O10  1  0.08222560  0.91680462  0.20175953  1
  O  O11  1  0.86385461  0.23723463  0.42889394  1
  O  O12  1  0.22947242  0.50266227  0.95294987  1
  O  O13  1  0.91777440  0.08319538  0.79824047  1
  O  O14  1  0.41894611  0.22533651  0.62711411  1
  O  O15  1  0.13614539  0.76276537  0.57110606  1
