# generated using pymatgen
data_BaLiCrF6
_symmetry_space_group_name_H-M   'P 1'
_cell_length_a   5.48778835
_cell_length_b   8.80331284
_cell_length_c   10.60052552
_cell_angle_alpha   90.00000000
_cell_angle_beta   90.00000000
_cell_angle_gamma   90.79352532
_symmetry_Int_Tables_number   1
_chemical_formula_structural   BaLiCrF6
_chemical_formula_sum   'Ba4 Li4 Cr4 F24'
_cell_volume   512.06988116
_cell_formula_units_Z   4
loop_
 _symmetry_equiv_pos_site_id
 _symmetry_equiv_pos_as_xyz
  1  'x, y, z'
loop_
 _atom_site_type_symbol
 _atom_site_label
 _atom_site_symmetry_multiplicity
 _atom_site_fract_x
 _atom_site_fract_y
 _atom_site_fract_z
 _atom_site_occupancy
  Ba  Ba0  1  0.69848061  0.49678751  0.68667225  1
  Ba  Ba1  1  0.69848061  0.99678751  0.81332775  1
  Ba  Ba2  1  0.30151939  0.50321249  0.31332775  1
  Ba  Ba3  1  0.30151939  0.00321249  0.18667225  1
  Li  Li4  1  0.24078167  0.67913132  0.91130196  1
  Li  Li5  1  0.75921833  0.32086868  0.08869804  1
  Li  Li6  1  0.75921833  0.82086868  0.41130196  1
  Li  Li7  1  0.24078167  0.17913132  0.58869804  1
  Cr  Cr8  1  0.23914050  0.26911529  0.91178185  1
  Cr  Cr9  1  0.76085950  0.23088471  0.41178185  1
  Cr  Cr10  1  0.76085950  0.73088471  0.08821815  1
  Cr  Cr11  1  0.23914050  0.76911529  0.58821815  1
  F  F12  1  0.60177452  0.25793762  0.24726626  1
  F  F13  1  0.46112885  0.80108578  0.00652218  1
  F  F14  1  0.10372438  0.29206698  0.08175330  1
  F  F15  1  0.39822548  0.74206238  0.75273374  1
  F  F16  1  0.46112885  0.30108578  0.49347782  1
  F  F17  1  0.34140687  0.97844391  0.60435394  1
  F  F18  1  0.89627562  0.70793302  0.91824670  1
  F  F19  1  0.89627562  0.20793302  0.58175330  1
  F  F20  1  0.92344394  0.30881560  0.83986202  1
  F  F21  1  0.34140687  0.47844391  0.89564606  1
  F  F22  1  0.07655606  0.69118440  0.16013798  1
  F  F23  1  0.83959391  0.44729576  0.40702434  1
  F  F24  1  0.16040609  0.55270424  0.59297566  1
  F  F25  1  0.53887115  0.69891422  0.50652218  1
  F  F26  1  0.60177452  0.75793762  0.25273374  1
  F  F27  1  0.39822548  0.24206238  0.74726626  1
  F  F28  1  0.07655606  0.19118440  0.33986202  1
  F  F29  1  0.53887115  0.19891422  0.99347782  1
  F  F30  1  0.65859313  0.02155609  0.39564606  1
  F  F31  1  0.92344394  0.80881560  0.66013798  1
  F  F32  1  0.65859313  0.52155609  0.10435394  1
  F  F33  1  0.83959391  0.94729576  0.09297566  1
  F  F34  1  0.16040609  0.05270424  0.90702434  1
  F  F35  1  0.10372438  0.79206698  0.41824670  1
