# generated using pymatgen
data_Cs2Cr(NO3)5
_symmetry_space_group_name_H-M   'P 1'
_cell_length_a   11.39015219
_cell_length_b   11.39015182
_cell_length_c   10.28252250
_cell_angle_alpha   90.00000000
_cell_angle_beta   90.00000000
_cell_angle_gamma   120.00000106
_symmetry_Int_Tables_number   1
_chemical_formula_structural   Cs2Cr(NO3)5
_chemical_formula_sum   'Cs6 Cr3 N15 O45'
_cell_volume   1155.28553369
_cell_formula_units_Z   3
loop_
 _symmetry_equiv_pos_site_id
 _symmetry_equiv_pos_as_xyz
  1  'x, y, z'
loop_
 _atom_site_type_symbol
 _atom_site_label
 _atom_site_symmetry_multiplicity
 _atom_site_fract_x
 _atom_site_fract_y
 _atom_site_fract_z
 _atom_site_occupancy
  Cs  Cs0  1  0.00000000  0.70329907  0.33333300  1
  Cs  Cs1  1  0.54011249  0.00000000  0.16666700  1
  Cs  Cs2  1  0.70329907  0.00000000  0.66666700  1
  Cs  Cs3  1  0.45988751  0.45988751  0.50000000  1
  Cs  Cs4  1  0.00000000  0.54011249  0.83333300  1
  Cs  Cs5  1  0.29670093  0.29670093  0.00000000  1
  Cr  Cr6  1  0.69194043  0.69194043  0.00000000  1
  Cr  Cr7  1  0.30805957  0.00000000  0.66666700  1
  Cr  Cr8  1  0.00000000  0.30805957  0.33333300  1
  N  N9  1  0.31673964  0.75735884  0.57920198  1
  N  N10  1  0.25013154  0.90634817  0.94292478  1
  N  N11  1  0.09365183  0.34378437  0.60959078  1
  N  N12  1  0.74986846  0.65621563  0.72374222  1
  N  N13  1  0.00000000  0.08895421  0.33333300  1
  N  N14  1  0.90634817  0.25013154  0.05707522  1
  N  N15  1  0.65621563  0.74986846  0.27625778  1
  N  N16  1  0.75735884  0.31673964  0.42079802  1
  N  N17  1  0.55938080  0.24264116  0.75413202  1
  N  N18  1  0.44061920  0.68326036  0.91253498  1
  N  N19  1  0.91104579  0.91104579  0.00000000  1
  N  N20  1  0.68326036  0.44061920  0.08746502  1
  N  N21  1  0.24264116  0.55938080  0.24586798  1
  N  N22  1  0.34378437  0.09365183  0.39040922  1
  N  N23  1  0.08895421  0.00000000  0.66666700  1
  O  O24  1  0.22880318  0.86980542  0.81849524  1
  O  O25  1  0.37462237  0.18540608  0.30976529  1
  O  O26  1  0.69877476  0.67128589  0.30438391  1
  O  O27  1  0.80942371  0.51149704  0.08935033  1
  O  O28  1  0.10751897  0.91152166  0.60403112  1
  O  O29  1  0.32871411  0.02748887  0.97105091  1
  O  O30  1  0.89248103  0.80400368  0.06263588  1
  O  O31  1  0.38153395  0.69815290  0.56250719  1
  O  O32  1  0.68338105  0.30184710  0.77082681  1
  O  O33  1  0.61846605  0.31661895  0.10415981  1
  O  O34  1  0.69815290  0.38153395  0.43749281  1
  O  O35  1  0.98211015  0.00000000  0.66666700  1
  O  O36  1  0.38950947  0.89018228  0.60007890  1
  O  O37  1  0.62537763  0.81078371  0.35690171  1
  O  O38  1  0.86980542  0.22880318  0.18150476  1
  O  O39  1  0.89018228  0.38950947  0.39992110  1
  O  O40  1  0.50067281  0.61049053  0.93341190  1
  O  O41  1  0.49932719  0.10981772  0.73325510  1
  O  O42  1  0.18921629  0.81459392  0.02356871  1
  O  O43  1  0.10981772  0.49932719  0.26674490  1
  O  O44  1  0.02748887  0.32871411  0.02894909  1
  O  O45  1  0.70207334  0.19057629  0.42268333  1
  O  O46  1  0.29792666  0.48850296  0.24398267  1
  O  O47  1  0.64100124  0.77119682  0.15182824  1
  O  O48  1  0.35899876  0.13019458  0.51483876  1
  O  O49  1  0.91152166  0.10751897  0.39596888  1
  O  O50  1  0.97251113  0.30122524  0.63771691  1
  O  O51  1  0.80400368  0.89248103  0.93736412  1
  O  O52  1  0.18540608  0.37462237  0.69023471  1
  O  O53  1  0.51149704  0.80942371  0.91064967  1
  O  O54  1  0.19599632  0.08847834  0.72930288  1
  O  O55  1  0.77119682  0.64100124  0.84817176  1
  O  O56  1  0.61049053  0.50067281  0.06658810  1
  O  O57  1  0.30184710  0.68338105  0.22917319  1
  O  O58  1  0.08847834  0.19599632  0.27069712  1
  O  O59  1  0.13019458  0.35899876  0.48516124  1
  O  O60  1  0.67128589  0.69877476  0.69561609  1
  O  O61  1  0.81459392  0.18921629  0.97643129  1
  O  O62  1  0.48850296  0.29792666  0.75601733  1
  O  O63  1  0.01788985  0.01788985  0.00000000  1
  O  O64  1  0.30122524  0.97251113  0.36228309  1
  O  O65  1  0.81078371  0.62537763  0.64309829  1
  O  O66  1  1.00000000  0.98211015  0.33333300  1
  O  O67  1  0.19057629  0.70207334  0.57731667  1
  O  O68  1  0.31661895  0.61846605  0.89584019  1
