# generated using pymatgen
data_Rb2CaV2O7
_symmetry_space_group_name_H-M   'P 1'
_cell_length_a   6.07976486
_cell_length_b   10.49859146
_cell_length_c   14.23065058
_cell_angle_alpha   104.98009383
_cell_angle_beta   90.00000000
_cell_angle_gamma   90.00000000
_symmetry_Int_Tables_number   1
_chemical_formula_structural   Rb2CaV2O7
_chemical_formula_sum   'Rb8 Ca4 V8 O28'
_cell_volume   877.45884035
_cell_formula_units_Z   4
loop_
 _symmetry_equiv_pos_site_id
 _symmetry_equiv_pos_as_xyz
  1  'x, y, z'
loop_
 _atom_site_type_symbol
 _atom_site_label
 _atom_site_symmetry_multiplicity
 _atom_site_fract_x
 _atom_site_fract_y
 _atom_site_fract_z
 _atom_site_occupancy
  Rb  Rb0  1  0.23481723  0.85731434  0.83069036  1
  Rb  Rb1  1  0.27501040  0.62953019  0.13021432  1
  Rb  Rb2  1  0.76518277  0.14268566  0.16930964  1
  Rb  Rb3  1  0.73481723  0.64268566  0.66930964  1
  Rb  Rb4  1  0.26518277  0.35731434  0.33069036  1
  Rb  Rb5  1  0.72498960  0.37046981  0.86978568  1
  Rb  Rb6  1  0.77501040  0.87046981  0.36978568  1
  Rb  Rb7  1  0.22498960  0.12953019  0.63021432  1
  Ca  Ca8  1  0.76040022  0.74845030  0.97833721  1
  Ca  Ca9  1  0.73959978  0.24845030  0.47833721  1
  Ca  Ca10  1  0.26040022  0.75154970  0.52166279  1
  Ca  Ca11  1  0.23959978  0.25154970  0.02166279  1
  V  V12  1  0.26569000  0.02306268  0.36093050  1
  V  V13  1  0.27156015  0.94922251  0.12223268  1
  V  V14  1  0.72843985  0.05077749  0.87776732  1
  V  V15  1  0.73431000  0.97693732  0.63906950  1
  V  V16  1  0.22843985  0.44922251  0.62223268  1
  V  V17  1  0.23431000  0.52306268  0.86093050  1
  V  V18  1  0.76569000  0.47693732  0.13906950  1
  V  V19  1  0.77156015  0.55077749  0.37776732  1
  O  O20  1  0.81294508  0.07864039  0.76012440  1
  O  O21  1  0.05401835  0.13155960  0.40175948  1
  O  O22  1  0.72961792  0.88416068  0.86993307  1
  O  O23  1  0.22961792  0.61583932  0.63006693  1
  O  O24  1  0.08360391  0.86429171  0.04036940  1
  O  O25  1  0.27038208  0.11583932  0.13006693  1
  O  O26  1  0.50978762  0.10462281  0.35642906  1
  O  O27  1  0.53081601  0.88400972  0.09574452  1
  O  O28  1  0.91639609  0.13570829  0.95963060  1
  O  O29  1  0.44598165  0.63155960  0.90175948  1
  O  O30  1  0.49021238  0.89537719  0.64357094  1
  O  O31  1  0.00978762  0.39537719  0.14357094  1
  O  O32  1  0.94598165  0.86844040  0.59824052  1
  O  O33  1  0.03081601  0.61599028  0.40425548  1
  O  O34  1  0.96918399  0.38400972  0.59574452  1
  O  O35  1  0.41639609  0.36429171  0.54036940  1
  O  O36  1  0.55401835  0.36844040  0.09824052  1
  O  O37  1  0.70801407  0.08483060  0.56725412  1
  O  O38  1  0.29198593  0.91516940  0.43274588  1
  O  O39  1  0.18705492  0.92135961  0.23987560  1
  O  O40  1  0.58360391  0.63570829  0.45963060  1
  O  O41  1  0.20801407  0.41516940  0.93274588  1
  O  O42  1  0.99021238  0.60462281  0.85642906  1
  O  O43  1  0.77038208  0.38416068  0.36993307  1
  O  O44  1  0.68705492  0.57864039  0.26012440  1
  O  O45  1  0.31294508  0.42135961  0.73987560  1
  O  O46  1  0.79198593  0.58483060  0.06725412  1
  O  O47  1  0.46918399  0.11599028  0.90425548  1
