# generated using pymatgen
data_La2CrO6
_symmetry_space_group_name_H-M   'P 1'
_cell_length_a   4.43822209
_cell_length_b   7.60300019
_cell_length_c   8.51446998
_cell_angle_alpha   106.55476826
_cell_angle_beta   90.00000000
_cell_angle_gamma   106.97012758
_symmetry_Int_Tables_number   1
_chemical_formula_structural   La2CrO6
_chemical_formula_sum   'La4 Cr2 O12'
_cell_volume   262.32323451
_cell_formula_units_Z   2
loop_
 _symmetry_equiv_pos_site_id
 _symmetry_equiv_pos_as_xyz
  1  'x, y, z'
loop_
 _atom_site_type_symbol
 _atom_site_label
 _atom_site_symmetry_multiplicity
 _atom_site_fract_x
 _atom_site_fract_y
 _atom_site_fract_z
 _atom_site_occupancy
  La  La0  1  0.67667984  0.34100360  0.08507390  1
  La  La1  1  0.33567624  0.65899640  0.41492610  1
  La  La2  1  0.66432376  0.34100360  0.58507390  1
  La  La3  1  0.32332016  0.65899640  0.91492610  1
  Cr  Cr4  1  0.95645110  0.00000000  0.25000000  1
  Cr  Cr5  1  0.04354890  0.00000000  0.75000000  1
  O  O6  1  0.73480980  0.51205415  0.87775488  1
  O  O7  1  0.26747463  0.00210228  0.90830218  1
  O  O8  1  0.26550604  0.19760193  0.29865146  1
  O  O9  1  0.73449396  0.80239807  0.70134854  1
  O  O10  1  0.22275565  0.48794585  0.62224512  1
  O  O11  1  0.26537235  0.99789772  0.59169782  1
  O  O12  1  0.77724435  0.51205415  0.37775488  1
  O  O13  1  0.73252537  0.99789772  0.09169782  1
  O  O14  1  0.26519020  0.48794585  0.12224512  1
  O  O15  1  0.73462765  0.00210228  0.40830218  1
  O  O16  1  0.93209589  0.19760193  0.79865146  1
  O  O17  1  0.06790411  0.80239807  0.20134854  1
