# generated using pymatgen
data_Na4Th(MoO4)4
_symmetry_space_group_name_H-M   'P 1'
_cell_length_a   10.18177081
_cell_length_b   10.18177067
_cell_length_c   10.18177052
_cell_angle_alpha   106.80995311
_cell_angle_beta   110.81801924
_cell_angle_gamma   110.81801675
_symmetry_Int_Tables_number   1
_chemical_formula_structural   Na4Th(MoO4)4
_chemical_formula_sum   'Na8 Th2 Mo8 O32'
_cell_volume   811.23915048
_cell_formula_units_Z   2
loop_
 _symmetry_equiv_pos_site_id
 _symmetry_equiv_pos_as_xyz
  1  'x, y, z'
loop_
 _atom_site_type_symbol
 _atom_site_label
 _atom_site_symmetry_multiplicity
 _atom_site_fract_x
 _atom_site_fract_y
 _atom_site_fract_z
 _atom_site_occupancy
  Na  Na0  1  0.35403439  0.53844591  0.62929612  1
  Na  Na1  1  0.09085022  0.12929612  0.27526173  1
  Na  Na2  1  0.85403439  0.22473827  0.81558849  1
  Na  Na3  1  0.40914978  0.68441151  0.03844591  1
  Na  Na4  1  0.64596561  0.46155409  0.37070388  1
  Na  Na5  1  0.90914978  0.87070388  0.72473827  1
  Na  Na6  1  0.14596561  0.77526173  0.18441151  1
  Na  Na7  1  0.59085022  0.31558849  0.96155409  1
  Th  Th8  1  0.25000000  0.87500000  0.62500000  1
  Th  Th9  1  0.75000000  0.12500000  0.37500000  1
  Mo  Mo10  1  0.33778609  0.04040450  0.06056599  1
  Mo  Mo11  1  0.83778609  0.77722011  0.29738159  1
  Mo  Mo12  1  0.16221391  0.22277989  0.70261841  1
  Mo  Mo13  1  0.97983851  0.43943401  0.27722011  1
  Mo  Mo14  1  0.66221391  0.95959550  0.93943401  1
  Mo  Mo15  1  0.52016149  0.79738159  0.45959550  1
  Mo  Mo16  1  0.47983851  0.20261841  0.54040450  1
  Mo  Mo17  1  0.02016149  0.56056599  0.72277989  1
  O  O18  1  0.86484255  0.60645821  0.65907975  1
  O  O19  1  0.28520869  0.43405206  0.80591194  1
  O  O20  1  0.69787586  0.85386687  0.27647909  1
  O  O21  1  0.51774352  0.02665507  0.86531438  1
  O  O22  1  0.66134068  0.00891155  0.52665507  1
  O  O23  1  0.07738778  0.65599101  0.35386687  1
  O  O24  1  0.44737846  0.24161565  0.10645821  1
  O  O25  1  0.63515745  0.29423719  0.74161565  1
  O  O26  1  0.78520869  0.97929675  0.85115663  1
  O  O27  1  0.30212414  0.14613313  0.72352091  1
  O  O28  1  0.92261222  0.34400899  0.64613313  1
  O  O29  1  0.80212414  0.07860323  0.15599101  1
  O  O30  1  0.19787586  0.92139677  0.84400899  1
  O  O31  1  0.57738778  0.22352091  0.42139677  1
  O  O32  1  0.55262154  0.75838435  0.89354179  1
  O  O33  1  0.94737846  0.84092025  0.20576281  1
  O  O34  1  0.83865932  0.36531438  0.34757087  1
  O  O35  1  0.71479131  0.56594794  0.19408806  1
  O  O36  1  0.87185988  0.35115663  0.06594794  1
  O  O37  1  0.13515745  0.39354179  0.34092025  1
  O  O38  1  0.21479131  0.02070325  0.14884337  1
  O  O39  1  0.05262154  0.15907975  0.79423719  1
  O  O40  1  0.33865932  0.99108845  0.47334493  1
  O  O41  1  0.12814012  0.64884337  0.93405206  1
  O  O42  1  0.16134068  0.63468562  0.65242913  1
  O  O43  1  0.42261222  0.77647909  0.57860323  1
  O  O44  1  0.37185988  0.30591194  0.52070325  1
  O  O45  1  0.62814012  0.69408806  0.47929675  1
  O  O46  1  0.98225648  0.84757087  0.50891155  1
  O  O47  1  0.01774352  0.15242913  0.49108845  1
  O  O48  1  0.48225648  0.97334493  0.13468562  1
  O  O49  1  0.36484255  0.70576281  0.25838435  1
