# generated using pymatgen
data_Cu3P4S4I3
_symmetry_space_group_name_H-M   'P 1'
_cell_length_a   19.44566850
_cell_length_b   19.44566873
_cell_length_c   6.89233812
_cell_angle_alpha   90.00000000
_cell_angle_beta   90.00000000
_cell_angle_gamma   119.99999961
_symmetry_Int_Tables_number   1
_chemical_formula_structural   Cu3P4S4I3
_chemical_formula_sum   'Cu18 P24 S24 I18'
_cell_volume   2257.05929675
_cell_formula_units_Z   6
loop_
 _symmetry_equiv_pos_site_id
 _symmetry_equiv_pos_as_xyz
  1  'x, y, z'
loop_
 _atom_site_type_symbol
 _atom_site_label
 _atom_site_symmetry_multiplicity
 _atom_site_fract_x
 _atom_site_fract_y
 _atom_site_fract_z
 _atom_site_occupancy
  Cu  Cu0  1  0.87178749  0.87178749  0.80961120  1
  Cu  Cu1  1  0.87178749  0.00000000  0.30961120  1
  Cu  Cu2  1  0.33255487  0.53623064  0.98758921  1
  Cu  Cu3  1  0.00000000  0.12821251  0.80961120  1
  Cu  Cu4  1  0.46376936  0.79632423  0.98758921  1
  Cu  Cu5  1  0.66744513  0.20367577  0.98758921  1
  Cu  Cu6  1  0.46376936  0.66744513  0.48758921  1
  Cu  Cu7  1  0.53623064  0.20367577  0.48758921  1
  Cu  Cu8  1  0.66744513  0.46376936  0.48758921  1
  Cu  Cu9  1  0.79632423  0.33255487  0.48758921  1
  Cu  Cu10  1  0.33255487  0.79632423  0.48758921  1
  Cu  Cu11  1  0.12821251  0.00000000  0.80961120  1
  Cu  Cu12  1  0.20367577  0.53623064  0.48758921  1
  Cu  Cu13  1  0.79632423  0.46376936  0.98758921  1
  Cu  Cu14  1  0.12821251  0.12821251  0.30961120  1
  Cu  Cu15  1  0.53623064  0.33255487  0.98758921  1
  Cu  Cu16  1  1.00000000  0.87178749  0.30961120  1
  Cu  Cu17  1  0.20367577  0.66744513  0.98758921  1
  P  P18  1  0.42723450  0.33551552  0.06895217  1
  P  P19  1  0.42723450  0.09171898  0.56895217  1
  P  P20  1  0.33551552  0.90828102  0.56895217  1
  P  P21  1  0.39994462  0.00000000  0.81038783  1
  P  P22  1  0.09171898  0.66448448  0.06895217  1
  P  P23  1  0.00000000  0.76301314  0.21819892  1
  P  P24  1  0.33551552  0.42723450  0.06895217  1
  P  P25  1  1.00000000  0.23698686  0.71819892  1
  P  P26  1  0.60005538  0.60005538  0.81038783  1
  P  P27  1  0.76301314  0.00000000  0.21819892  1
  P  P28  1  0.76301314  0.76301314  0.71819892  1
  P  P29  1  0.66448448  0.57276550  0.56895217  1
  P  P30  1  0.90828102  0.33551552  0.56895217  1
  P  P31  1  0.00000000  0.39994462  0.81038783  1
  P  P32  1  0.60005538  0.00000000  0.31038783  1
  P  P33  1  0.09171898  0.42723450  0.56895217  1
  P  P34  1  0.39994462  0.39994462  0.31038783  1
  P  P35  1  0.90828102  0.57276550  0.06895217  1
  P  P36  1  1.00000000  0.60005538  0.31038783  1
  P  P37  1  0.57276550  0.90828102  0.06895217  1
  P  P38  1  0.57276550  0.66448448  0.56895217  1
  P  P39  1  0.66448448  0.09171898  0.06895217  1
  P  P40  1  0.23698686  0.23698686  0.21819892  1
  P  P41  1  0.23698686  0.00000000  0.71819892  1
  S  S42  1  0.30736852  0.30736852  0.45792021  1
  S  S43  1  0.89770257  0.67635033  0.06671830  1
  S  S44  1  0.41040895  0.41040895  0.86993633  1
  S  S45  1  0.41040895  0.00000000  0.36993633  1
  S  S46  1  0.69263148  0.00000000  0.45792021  1
  S  S47  1  0.89770257  0.22135224  0.56671830  1
  S  S48  1  0.00000000  0.41040895  0.36993633  1
  S  S49  1  0.67635033  0.77864776  0.56671830  1
  S  S50  1  0.58959105  0.00000000  0.86993633  1
  S  S51  1  1.00000000  0.69263148  0.45792021  1
  S  S52  1  1.00000000  0.58959105  0.86993633  1
  S  S53  1  0.67635033  0.89770257  0.06671830  1
  S  S54  1  0.10229743  0.77864776  0.06671830  1
  S  S55  1  0.77864776  0.67635033  0.56671830  1
  S  S56  1  0.22135224  0.89770257  0.56671830  1
  S  S57  1  0.10229743  0.32364967  0.56671830  1
  S  S58  1  0.32364967  0.22135224  0.06671830  1
  S  S59  1  0.69263148  0.69263148  0.95792021  1
  S  S60  1  0.30736852  0.00000000  0.95792021  1
  S  S61  1  0.32364967  0.10229743  0.56671830  1
  S  S62  1  0.58959105  0.58959105  0.36993633  1
  S  S63  1  0.00000000  0.30736852  0.95792021  1
  S  S64  1  0.22135224  0.32364967  0.06671830  1
  S  S65  1  0.77864776  0.10229743  0.06671830  1
  I  I66  1  0.33415539  0.79713225  0.09942951  1
  I  I67  1  0.20286775  0.66584461  0.59942951  1
  I  I68  1  0.66584461  0.46297686  0.09942951  1
  I  I69  1  0.87089938  0.00000000  0.69398713  1
  I  I70  1  0.33415539  0.53702314  0.59942951  1
  I  I71  1  0.46297686  0.79713225  0.59942951  1
  I  I72  1  0.53702314  0.20286775  0.09942951  1
  I  I73  1  0.53702314  0.33415539  0.59942951  1
  I  I74  1  0.87089938  0.87089938  0.19398713  1
  I  I75  1  0.79713225  0.46297686  0.59942951  1
  I  I76  1  1.00000000  0.87089938  0.69398713  1
  I  I77  1  0.46297686  0.66584461  0.09942951  1
  I  I78  1  0.66584461  0.20286775  0.59942951  1
  I  I79  1  0.12910062  0.12910062  0.69398713  1
  I  I80  1  0.20286775  0.53702314  0.09942951  1
  I  I81  1  0.00000000  0.12910062  0.19398713  1
  I  I82  1  0.12910062  0.00000000  0.19398713  1
  I  I83  1  0.79713225  0.33415539  0.09942951  1
