# generated using pymatgen
data_Mn3Si(O2F)2
_symmetry_space_group_name_H-M   'P 1'
_cell_length_a   4.92629426
_cell_length_b   9.32330271
_cell_length_c   10.96064086
_cell_angle_alpha   90.00000000
_cell_angle_beta   90.00000000
_cell_angle_gamma   90.00000000
_symmetry_Int_Tables_number   1
_chemical_formula_structural   Mn3Si(O2F)2
_chemical_formula_sum   'Mn12 Si4 O16 F8'
_cell_volume   503.41491984
_cell_formula_units_Z   4
loop_
 _symmetry_equiv_pos_site_id
 _symmetry_equiv_pos_as_xyz
  1  'x, y, z'
loop_
 _atom_site_type_symbol
 _atom_site_label
 _atom_site_symmetry_multiplicity
 _atom_site_fract_x
 _atom_site_fract_y
 _atom_site_fract_z
 _atom_site_occupancy
  Mn  Mn0  1  0.99348917  0.75000000  0.08812272  1
  Mn  Mn1  1  0.98550451  0.42994214  0.63753412  1
  Mn  Mn2  1  0.48550451  0.92994214  0.86246588  1
  Mn  Mn3  1  0.98550451  0.07005786  0.63753412  1
  Mn  Mn4  1  0.01449549  0.92994214  0.36246588  1
  Mn  Mn5  1  0.00651083  0.25000000  0.91187728  1
  Mn  Mn6  1  0.51449549  0.42994214  0.13753412  1
  Mn  Mn7  1  0.48550451  0.57005786  0.86246588  1
  Mn  Mn8  1  0.01449549  0.57005786  0.36246588  1
  Mn  Mn9  1  0.50651083  0.75000000  0.58812272  1
  Mn  Mn10  1  0.51449549  0.07005786  0.13753412  1
  Mn  Mn11  1  0.49348917  0.25000000  0.41187728  1
  Si  Si12  1  0.42141643  0.25000000  0.72119649  1
  Si  Si13  1  0.57858357  0.75000000  0.27880351  1
  Si  Si14  1  0.07858357  0.25000000  0.22119649  1
  Si  Si15  1  0.92141643  0.75000000  0.77880351  1
  O  O16  1  0.24660074  0.75000000  0.27700850  1
  O  O17  1  0.75339926  0.25000000  0.72299150  1
  O  O18  1  0.21537148  0.25000000  0.08279128  1
  O  O19  1  0.22096727  0.11013165  0.29058463  1
  O  O20  1  0.27903273  0.38986835  0.79058463  1
  O  O21  1  0.28462852  0.25000000  0.58279128  1
  O  O22  1  0.22096727  0.38986835  0.29058463  1
  O  O23  1  0.77903273  0.88986835  0.70941537  1
  O  O24  1  0.72096727  0.88986835  0.20941537  1
  O  O25  1  0.71537148  0.75000000  0.41720872  1
  O  O26  1  0.72096727  0.61013165  0.20941537  1
  O  O27  1  0.74660074  0.25000000  0.22299150  1
  O  O28  1  0.25339926  0.75000000  0.77700850  1
  O  O29  1  0.27903273  0.11013165  0.79058463  1
  O  O30  1  0.78462852  0.75000000  0.91720872  1
  O  O31  1  0.77903273  0.61013165  0.70941537  1
  F  F32  1  0.76842767  0.41717122  0.46779397  1
  F  F33  1  0.26842767  0.58282878  0.03220603  1
  F  F34  1  0.26842767  0.91717122  0.03220603  1
  F  F35  1  0.73157233  0.41717122  0.96779397  1
  F  F36  1  0.76842767  0.08282878  0.46779397  1
  F  F37  1  0.23157233  0.58282878  0.53220603  1
  F  F38  1  0.23157233  0.91717122  0.53220603  1
  F  F39  1  0.73157233  0.08282878  0.96779397  1
