# generated using pymatgen
data_K2Ni(NO3)4
_symmetry_space_group_name_H-M   'P 1'
_cell_length_a   7.19365202
_cell_length_b   9.23762551
_cell_length_c   9.26549181
_cell_angle_alpha   97.41796529
_cell_angle_beta   112.84228829
_cell_angle_gamma   89.99999873
_symmetry_Int_Tables_number   1
_chemical_formula_structural   K2Ni(NO3)4
_chemical_formula_sum   'K4 Ni2 N8 O24'
_cell_volume   561.83101055
_cell_formula_units_Z   2
loop_
 _symmetry_equiv_pos_site_id
 _symmetry_equiv_pos_as_xyz
  1  'x, y, z'
loop_
 _atom_site_type_symbol
 _atom_site_label
 _atom_site_symmetry_multiplicity
 _atom_site_fract_x
 _atom_site_fract_y
 _atom_site_fract_z
 _atom_site_occupancy
  K  K0  1  0.10507071  0.28284457  0.51715056  1
  K  K1  1  0.41207984  0.78284457  0.51715056  1
  K  K2  1  0.42983328  0.35097498  0.11844227  1
  K  K3  1  0.68860899  0.85097498  0.11844227  1
  Ni  Ni4  1  0.03371988  0.67573868  0.75924753  1
  Ni  Ni5  1  0.72552765  0.17573868  0.75924753  1
  N  N6  1  0.00142751  0.97516316  0.66805481  1
  N  N7  1  0.54013202  0.09637805  0.40919353  1
  N  N8  1  0.98604942  0.21256369  0.11884742  1
  N  N9  1  0.66662730  0.47516316  0.66805481  1
  N  N10  1  0.38252122  0.58457257  0.87510688  1
  N  N11  1  0.49258565  0.08457257  0.87510688  1
  N  N12  1  0.86906150  0.59637805  0.40919353  1
  N  N13  1  0.13279800  0.71256369  0.11884742  1
  O  O14  1  0.62275581  0.20713755  0.39004167  1
  O  O15  1  0.50764706  0.09499480  0.53858241  1
  O  O16  1  0.03093535  0.59499480  0.53858241  1
  O  O17  1  0.39362969  0.04877772  0.94912599  1
  O  O18  1  0.79756792  0.38328157  0.72619801  1
  O  O19  1  0.84512708  0.15586934  0.14415232  1
  O  O20  1  0.96582092  0.23230681  0.97816799  1
  O  O21  1  0.29902524  0.65586934  0.14415232  1
  O  O22  1  0.94143089  0.10635898  0.67247619  1
  O  O23  1  0.49241178  0.21530599  0.83974468  1
  O  O24  1  0.82411276  0.48347563  0.30906970  1
  O  O25  1  0.07713462  0.75352736  0.23029590  1
  O  O26  1  0.92863010  0.88328157  0.72619801  1
  O  O27  1  0.60687198  0.99716091  0.83282726  1
  O  O28  1  0.48220468  0.44419363  0.60763490  1
  O  O29  1  0.15316127  0.25352736  0.23029590  1
  O  O30  1  0.48495694  0.98347563  0.30906970  1
  O  O31  1  0.01234707  0.73230681  0.97816799  1
  O  O32  1  0.22595528  0.49716091  0.83282726  1
  O  O33  1  0.34733290  0.71530599  0.83974468  1
  O  O34  1  0.12543022  0.94419363  0.60763490  1
  O  O35  1  0.73104530  0.60635898  0.67247619  1
  O  O36  1  0.76728586  0.70713755  0.39004167  1
  O  O37  1  0.55549629  0.54877772  0.94912599  1
