# generated using pymatgen
data_V3Cd5P6O25
_symmetry_space_group_name_H-M   'P 1'
_cell_length_a   4.80683824
_cell_length_b   8.90342982
_cell_length_c   24.29468060
_cell_angle_alpha   81.67095624
_cell_angle_beta   84.32256427
_cell_angle_gamma   74.33912299
_symmetry_Int_Tables_number   1
_chemical_formula_structural   V3Cd5P6O25
_chemical_formula_sum   'V6 Cd10 P12 O50'
_cell_volume   988.63407429
_cell_formula_units_Z   2
loop_
 _symmetry_equiv_pos_site_id
 _symmetry_equiv_pos_as_xyz
  1  'x, y, z'
loop_
 _atom_site_type_symbol
 _atom_site_label
 _atom_site_symmetry_multiplicity
 _atom_site_fract_x
 _atom_site_fract_y
 _atom_site_fract_z
 _atom_site_occupancy
  V  V0  1  0.77340699  0.37463473  0.08705808  1
  V  V1  1  0.06042015  0.75000000  0.25000000  1
  V  V2  1  0.22659301  0.62536527  0.91294192  1
  V  V3  1  0.93957985  0.25000000  0.75000000  1
  V  V4  1  0.23509980  0.12536527  0.41294192  1
  V  V5  1  0.76490020  0.87463473  0.58705808  1
  Cd  Cd6  1  0.58390531  0.76281284  0.11644404  1
  Cd  Cd7  1  0.53683781  0.26281284  0.61644404  1
  Cd  Cd8  1  0.41609469  0.23718716  0.88355596  1
  Cd  Cd9  1  0.46316219  0.73718716  0.38355596  1
  Cd  Cd10  1  0.69294279  0.37467092  0.29137609  1
  Cd  Cd11  1  0.35898979  0.12532908  0.20862391  1
  Cd  Cd12  1  0.30705721  0.62532908  0.70862391  1
  Cd  Cd13  1  0.64101021  0.87467092  0.79137609  1
  Cd  Cd14  1  0.00000000  0.50000000  0.50000000  1
  Cd  Cd15  1  0.00000000  0.00000000  0.00000000  1
  P  P16  1  0.18893099  0.97281464  0.67452378  1
  P  P17  1  0.81106901  0.02718536  0.32547622  1
  P  P18  1  0.16372959  0.47281464  0.17452378  1
  P  P19  1  0.83627041  0.52718536  0.82547622  1
  P  P20  1  0.67391784  0.20316213  0.49692480  1
  P  P21  1  0.11585418  0.49779264  0.35920553  1
  P  P22  1  0.37400476  0.29683787  0.00307520  1
  P  P23  1  0.62599524  0.70316213  0.99692480  1
  P  P24  1  0.97285236  0.00220736  0.14079447  1
  P  P25  1  0.88414582  0.50220736  0.64079447  1
  P  P26  1  0.02714764  0.99779264  0.85920553  1
  P  P27  1  0.32608216  0.79683787  0.50307520  1
  O  O28  1  0.43717527  0.41392740  0.95153169  1
  O  O29  1  0.13757100  0.91436025  0.09235377  1
  O  O30  1  0.01932291  0.82457782  0.86441480  1
  O  O31  1  0.70831453  0.67542218  0.63558520  1
  O  O32  1  0.75470235  0.37886180  0.81180485  1
  O  O33  1  0.68670995  0.13063653  0.27080128  1
  O  O34  1  0.94216773  0.13391122  0.35408063  1
  O  O35  1  0.66202706  0.98059923  0.14783828  1
  O  O36  1  0.31329005  0.86936347  0.72919872  1
  O  O37  1  0.14428501  0.58563975  0.40764623  1
  O  O38  1  0.28089612  0.25000000  0.75000000  1
  O  O39  1  0.33797294  0.01940077  0.85216172  1
  O  O40  1  0.44447241  0.33914402  0.52219578  1
  O  O41  1  0.56983942  0.63391122  0.85408063  1
  O  O42  1  0.91185125  0.63063653  0.77080128  1
  O  O43  1  0.05783227  0.86608878  0.64591937  1
  O  O44  1  0.86806459  0.07056919  0.80331189  1
  O  O45  1  0.94536900  0.12113820  0.68819515  1
  O  O46  1  0.13193541  0.92943081  0.19668811  1
  O  O47  1  0.87310980  0.62151597  0.95809195  1
  O  O48  1  0.74194566  0.42943081  0.69668811  1
  O  O49  1  0.05463100  0.87886180  0.31180485  1
  O  O50  1  0.10065904  0.47470350  0.86217000  1
  O  O51  1  0.65540443  0.23407585  0.03597200  1
  O  O52  1  0.79046357  0.51940077  0.35216172  1
  O  O53  1  0.80263436  0.08607260  0.54846831  1
  O  O54  1  0.12689020  0.37848403  0.04190805  1
  O  O55  1  0.34459557  0.76592415  0.96402800  1
  O  O56  1  0.86242900  0.08563975  0.90764623  1
  O  O57  1  0.69418878  0.83914402  0.02219578  1
  O  O58  1  0.71910388  0.75000000  0.25000000  1
  O  O59  1  0.43753253  0.02529650  0.63783000  1
  O  O60  1  0.85571499  0.41436025  0.59235377  1
  O  O61  1  0.07454773  0.73407585  0.53597200  1
  O  O62  1  0.54728228  0.12151597  0.45809195  1
  O  O63  1  0.30581122  0.16085598  0.97780422  1
  O  O64  1  0.43016058  0.36608878  0.14591937  1
  O  O65  1  0.25805434  0.57056919  0.30331189  1
  O  O66  1  0.55552759  0.66085598  0.47780422  1
  O  O67  1  0.89934096  0.52529650  0.13783000  1
  O  O68  1  0.92545227  0.26592415  0.46402800  1
  O  O69  1  0.29168547  0.32457782  0.36441380  1
  O  O70  1  0.08814875  0.36936347  0.22919872  1
  O  O71  1  0.98067709  0.17542218  0.13558520  1
  O  O72  1  0.56246747  0.97470350  0.36217000  1
  O  O73  1  0.19736564  0.91392740  0.45153169  1
  O  O74  1  0.24529765  0.62113820  0.18819515  1
  O  O75  1  0.20953643  0.48059923  0.64783828  1
  O  O76  1  0.45271772  0.87848403  0.54190805  1
  O  O77  1  0.56282473  0.58607260  0.04846831  1
