# generated using pymatgen
data_NaLaMgWO6
_symmetry_space_group_name_H-M   'P 1'
_cell_length_a   5.60498286
_cell_length_b   5.60498308
_cell_length_c   7.95843310
_cell_angle_alpha   90.04607589
_cell_angle_beta   90.04607585
_cell_angle_gamma   90.61546598
_symmetry_Int_Tables_number   1
_chemical_formula_structural   NaLaMgWO6
_chemical_formula_sum   'Na2 La2 Mg2 W2 O12'
_cell_volume   250.00622599
_cell_formula_units_Z   2
loop_
 _symmetry_equiv_pos_site_id
 _symmetry_equiv_pos_as_xyz
  1  'x, y, z'
loop_
 _atom_site_type_symbol
 _atom_site_label
 _atom_site_symmetry_multiplicity
 _atom_site_fract_x
 _atom_site_fract_y
 _atom_site_fract_z
 _atom_site_occupancy
  Na  Na0  1  0.24693331  0.75306669  0.50000000  1
  Na  Na1  1  0.75306669  0.24693331  0.50000000  1
  La  La2  1  0.75380086  0.24619914  0.00000000  1
  La  La3  1  0.24619914  0.75380086  1.00000000  1
  Mg  Mg4  1  0.74810597  0.74810597  0.74383017  1
  Mg  Mg5  1  0.25189403  0.25189403  0.25616983  1
  W  W6  1  0.24840402  0.24840402  0.73810834  1
  W  W7  1  0.75159598  0.75159598  0.26189166  1
  O  O8  1  0.30229548  0.30229548  0.51026584  1
  O  O9  1  0.50927004  0.50927004  0.18799702  1
  O  O10  1  0.49359514  0.00917428  0.77112691  1
  O  O11  1  0.00882721  0.00882721  0.70650007  1
  O  O12  1  0.80682785  0.80682785  0.00579714  1
  O  O13  1  0.99117279  0.99117279  0.29349993  1
  O  O14  1  0.19317215  0.19317215  0.99420286  1
  O  O15  1  0.00917428  0.49359514  0.77112691  1
  O  O16  1  0.69770452  0.69770452  0.48973416  1
  O  O17  1  0.50640486  0.99082572  0.22887309  1
  O  O18  1  0.99082572  0.50640486  0.22887309  1
  O  O19  1  0.49072996  0.49072996  0.81200298  1
