# generated using pymatgen
data_Fe3(P2O7)2
_symmetry_space_group_name_H-M   'P 1'
_cell_length_a   9.08172234
_cell_length_b   10.32635131
_cell_length_c   12.39696272
_cell_angle_alpha   90.00000000
_cell_angle_beta   90.00000000
_cell_angle_gamma   90.00000000
_symmetry_Int_Tables_number   1
_chemical_formula_structural   Fe3(P2O7)2
_chemical_formula_sum   'Fe12 P16 O56'
_cell_volume   1162.60024742
_cell_formula_units_Z   4
loop_
 _symmetry_equiv_pos_site_id
 _symmetry_equiv_pos_as_xyz
  1  'x, y, z'
loop_
 _atom_site_type_symbol
 _atom_site_label
 _atom_site_symmetry_multiplicity
 _atom_site_fract_x
 _atom_site_fract_y
 _atom_site_fract_z
 _atom_site_occupancy
  Fe  Fe0  1  0.74943889  0.37903298  0.48853827  1
  Fe  Fe1  1  0.24675304  0.61868286  0.75000000  1
  Fe  Fe2  1  0.25056111  0.62096702  0.98853827  1
  Fe  Fe3  1  0.74675304  0.88131714  0.75000000  1
  Fe  Fe4  1  0.75056111  0.87903298  0.98853827  1
  Fe  Fe5  1  0.75056111  0.87903298  0.51146173  1
  Fe  Fe6  1  0.75324696  0.38131714  0.25000000  1
  Fe  Fe7  1  0.74943889  0.37903298  0.01146173  1
  Fe  Fe8  1  0.25056111  0.62096702  0.51146173  1
  Fe  Fe9  1  0.25324696  0.11868286  0.25000000  1
  Fe  Fe10  1  0.24943889  0.12096702  0.48853827  1
  Fe  Fe11  1  0.24943889  0.12096702  0.01146173  1
  P  P12  1  0.42736934  0.86508608  0.37293351  1
  P  P13  1  0.08678212  0.88040104  0.86731923  1
  P  P14  1  0.57263066  0.13491392  0.87293351  1
  P  P15  1  0.58678212  0.61959896  0.63268077  1
  P  P16  1  0.92736934  0.63491392  0.37293351  1
  P  P17  1  0.07263066  0.36508608  0.62706649  1
  P  P18  1  0.42736934  0.86508608  0.12706649  1
  P  P19  1  0.41321788  0.38040104  0.13268077  1
  P  P20  1  0.91321788  0.11959896  0.13268077  1
  P  P21  1  0.07263066  0.36508608  0.87293351  1
  P  P22  1  0.58678212  0.61959896  0.86731923  1
  P  P23  1  0.57263066  0.13491392  0.62706649  1
  P  P24  1  0.91321788  0.11959896  0.36731923  1
  P  P25  1  0.08678212  0.88040104  0.63268077  1
  P  P26  1  0.41321788  0.38040104  0.36731923  1
  P  P27  1  0.92736934  0.63491392  0.12706649  1
  O  O28  1  0.34192016  0.24511256  0.37365890  1
  O  O29  1  0.08236792  0.12869244  0.36840168  1
  O  O30  1  0.36961882  0.43712011  0.25000000  1
  O  O31  1  0.92104161  0.39086135  0.92003426  1
  O  O32  1  0.34748741  0.75446563  0.42782977  1
  O  O33  1  0.42104161  0.10913865  0.92003426  1
  O  O34  1  0.42104161  0.10913865  0.57996574  1
  O  O35  1  0.57895839  0.89086135  0.42003426  1
  O  O36  1  0.33491973  0.99038145  0.36846047  1
  O  O37  1  0.84748741  0.74553437  0.42782977  1
  O  O38  1  0.65251259  0.24553437  0.92782977  1
  O  O39  1  0.91763208  0.87130756  0.63159832  1
  O  O40  1  0.64812412  0.52723592  0.94908908  1
  O  O41  1  0.34192016  0.24511256  0.12634110  1
  O  O42  1  0.08236792  0.12869244  0.13159832  1
  O  O43  1  0.35187588  0.47276408  0.05091092  1
  O  O44  1  0.15807984  0.74511256  0.62634110  1
  O  O45  1  0.64812412  0.52723592  0.55091092  1
  O  O46  1  0.04727218  0.31951729  0.75000000  1
  O  O47  1  0.15807984  0.74511256  0.87365890  1
  O  O48  1  0.07895839  0.60913865  0.42003426  1
  O  O49  1  0.54727218  0.18048271  0.75000000  1
  O  O50  1  0.65807984  0.75488744  0.62634110  1
  O  O51  1  0.95272782  0.68048271  0.25000000  1
  O  O52  1  0.84192016  0.25488744  0.12634110  1
  O  O53  1  0.83491973  0.50961855  0.13153953  1
  O  O54  1  0.86961882  0.06287989  0.25000000  1
  O  O55  1  0.16508027  0.49038145  0.86846047  1
  O  O56  1  0.65807984  0.75488744  0.87365890  1
  O  O57  1  0.66508027  0.00961855  0.63153953  1
  O  O58  1  0.14812412  0.97276408  0.55091092  1
  O  O59  1  0.58236792  0.37130756  0.13159832  1
  O  O60  1  0.84748741  0.74553437  0.07217023  1
  O  O61  1  0.15251259  0.25446563  0.57217023  1
  O  O62  1  0.41763208  0.62869244  0.86840168  1
  O  O63  1  0.45272782  0.81951729  0.25000000  1
  O  O64  1  0.63038118  0.56287989  0.75000000  1
  O  O65  1  0.57895839  0.89086135  0.07996574  1
  O  O66  1  0.33491973  0.99038145  0.13153953  1
  O  O67  1  0.66508027  0.00961855  0.86846047  1
  O  O68  1  0.84192016  0.25488744  0.37365890  1
  O  O69  1  0.58236792  0.37130756  0.36840168  1
  O  O70  1  0.91763208  0.87130756  0.86840168  1
  O  O71  1  0.14812412  0.97276408  0.94908908  1
  O  O72  1  0.65251259  0.24553437  0.57217023  1
  O  O73  1  0.15251259  0.25446563  0.92782977  1
  O  O74  1  0.13038118  0.93712011  0.75000000  1
  O  O75  1  0.85187588  0.02723592  0.05091092  1
  O  O76  1  0.85187588  0.02723592  0.44908908  1
  O  O77  1  0.16508027  0.49038145  0.63153953  1
  O  O78  1  0.92104161  0.39086135  0.57996574  1
  O  O79  1  0.34748741  0.75446563  0.07217023  1
  O  O80  1  0.83491973  0.50961855  0.36846047  1
  O  O81  1  0.35187588  0.47276408  0.44908908  1
  O  O82  1  0.41763208  0.62869244  0.63159832  1
  O  O83  1  0.07895839  0.60913865  0.07996574  1
