# generated using pymatgen
data_DyMoClO4
_symmetry_space_group_name_H-M   'P 1'
_cell_length_a   6.32551280
_cell_length_b   6.32551302
_cell_length_c   6.92707253
_cell_angle_alpha   76.00379276
_cell_angle_beta   76.00379226
_cell_angle_gamma   70.81385055
_symmetry_Int_Tables_number   1
_chemical_formula_structural   DyMoClO4
_chemical_formula_sum   'Dy2 Mo2 Cl2 O8'
_cell_volume   249.98142699
_cell_formula_units_Z   2
loop_
 _symmetry_equiv_pos_site_id
 _symmetry_equiv_pos_as_xyz
  1  'x, y, z'
loop_
 _atom_site_type_symbol
 _atom_site_label
 _atom_site_symmetry_multiplicity
 _atom_site_fract_x
 _atom_site_fract_y
 _atom_site_fract_z
 _atom_site_occupancy
  Dy  Dy0  1  0.77820784  0.77820784  0.11269172  1
  Dy  Dy1  1  0.22179216  0.22179216  0.88730828  1
  Mo  Mo2  1  0.36216353  0.36216353  0.26900597  1
  Mo  Mo3  1  0.63783647  0.63783647  0.73099403  1
  Cl  Cl4  1  0.01048723  0.01048723  0.23252125  1
  Cl  Cl5  1  0.98951277  0.98951277  0.76747875  1
  O  O6  1  0.49118031  0.10988721  0.15287891  1
  O  O7  1  0.10988721  0.49118031  0.15287891  1
  O  O8  1  0.29329621  0.29329621  0.53543186  1
  O  O9  1  0.89011279  0.50881969  0.84712109  1
  O  O10  1  0.70670379  0.70670379  0.46456814  1
  O  O11  1  0.50881969  0.89011279  0.84712109  1
  O  O12  1  0.54282854  0.54282854  0.20242763  1
  O  O13  1  0.45717146  0.45717146  0.79757237  1
