# generated using pymatgen
data_Ba2V3BiO11
_symmetry_space_group_name_H-M   'P 1'
_cell_length_a   7.84541011
_cell_length_b   11.54954114
_cell_length_c   12.56274506
_cell_angle_alpha   103.25900656
_cell_angle_beta   90.00000000
_cell_angle_gamma   90.00000000
_symmetry_Int_Tables_number   1
_chemical_formula_structural   Ba2V3BiO11
_chemical_formula_sum   'Ba8 V12 Bi4 O44'
_cell_volume   1107.97748255
_cell_formula_units_Z   4
loop_
 _symmetry_equiv_pos_site_id
 _symmetry_equiv_pos_as_xyz
  1  'x, y, z'
loop_
 _atom_site_type_symbol
 _atom_site_label
 _atom_site_symmetry_multiplicity
 _atom_site_fract_x
 _atom_site_fract_y
 _atom_site_fract_z
 _atom_site_occupancy
  Ba  Ba0  1  0.27130498  0.44190911  0.26740377  1
  Ba  Ba1  1  0.22869502  0.94190911  0.26740377  1
  Ba  Ba2  1  0.72869502  0.55809089  0.73259623  1
  Ba  Ba3  1  0.24872699  0.11054790  0.94560602  1
  Ba  Ba4  1  0.74872699  0.38945210  0.05439398  1
  Ba  Ba5  1  0.75127301  0.88945210  0.05439398  1
  Ba  Ba6  1  0.25127301  0.61054790  0.94560602  1
  Ba  Ba7  1  0.77130498  0.05809089  0.73259623  1
  V  V8  1  0.24751703  0.02433045  0.59680410  1
  V  V9  1  0.01860975  0.83034689  0.81372714  1
  V  V10  1  0.97957065  0.67409503  0.18269029  1
  V  V11  1  0.52042935  0.17409503  0.18269029  1
  V  V12  1  0.02042935  0.32590497  0.81730971  1
  V  V13  1  0.75248297  0.97566955  0.40319590  1
  V  V14  1  0.51860975  0.66965311  0.18627286  1
  V  V15  1  0.48139025  0.33034689  0.81372714  1
  V  V16  1  0.98139025  0.16965311  0.18627286  1
  V  V17  1  0.47957065  0.82590497  0.81730971  1
  V  V18  1  0.25248297  0.52433045  0.59680410  1
  V  V19  1  0.74751703  0.47566955  0.40319590  1
  Bi  Bi20  1  0.99738836  0.26750208  0.50180884  1
  Bi  Bi21  1  0.50261164  0.76750208  0.50180884  1
  Bi  Bi22  1  0.00261164  0.73249792  0.49819116  1
  Bi  Bi23  1  0.49738836  0.23249792  0.49819116  1
  O  O24  1  0.05772760  0.72211257  0.31487180  1
  O  O25  1  0.13721215  0.05377286  0.71605431  1
  O  O26  1  0.79955662  0.12140575  0.48662454  1
  O  O27  1  0.55633276  0.73264851  0.89367074  1
  O  O28  1  0.36278785  0.55377286  0.71605431  1
  O  O29  1  0.44366724  0.26735149  0.10632926  1
  O  O30  1  0.63721215  0.44622714  0.28394569  1
  O  O31  1  0.03877363  0.52803411  0.62191435  1
  O  O32  1  0.53877363  0.97196589  0.37808565  1
  O  O33  1  0.55772760  0.77788743  0.68512820  1
  O  O34  1  0.74896656  0.66756559  0.16673933  1
  O  O35  1  0.05898937  0.27976717  0.13044122  1
  O  O36  1  0.20044338  0.87859425  0.51337546  1
  O  O37  1  0.44101063  0.77976717  0.13044122  1
  O  O38  1  0.46122637  0.02803411  0.62191435  1
  O  O39  1  0.70577808  0.36675187  0.48273860  1
  O  O40  1  0.44667392  0.68737234  0.31971061  1
  O  O41  1  0.94366724  0.23264851  0.89367074  1
  O  O42  1  0.05633276  0.76735149  0.10632926  1
  O  O43  1  0.44609026  0.03546880  0.12491423  1
  O  O44  1  0.29955662  0.37859425  0.51337546  1
  O  O45  1  0.05390974  0.53546880  0.12491423  1
  O  O46  1  0.24896656  0.83243441  0.83326067  1
  O  O47  1  0.20577808  0.13324813  0.51726140  1
  O  O48  1  0.55332608  0.31262766  0.68028939  1
  O  O49  1  0.06202453  0.03899654  0.11140885  1
  O  O50  1  0.70044338  0.62140575  0.48662454  1
  O  O51  1  0.94667392  0.81262766  0.68028939  1
  O  O52  1  0.86278785  0.94622714  0.28394569  1
  O  O53  1  0.43797547  0.53899654  0.11140885  1
  O  O54  1  0.29422192  0.63324813  0.51726140  1
  O  O55  1  0.25103344  0.33243441  0.83326067  1
  O  O56  1  0.96122637  0.47196589  0.37808565  1
  O  O57  1  0.55390974  0.96453120  0.87508577  1
  O  O58  1  0.94609026  0.46453120  0.87508577  1
  O  O59  1  0.94227240  0.27788743  0.68512820  1
  O  O60  1  0.44227240  0.22211257  0.31487180  1
  O  O61  1  0.55898937  0.22023283  0.86955878  1
  O  O62  1  0.79422192  0.86675187  0.48273860  1
  O  O63  1  0.56202453  0.46100346  0.88859115  1
  O  O64  1  0.94101063  0.72023283  0.86955878  1
  O  O65  1  0.75103344  0.16756559  0.16673933  1
  O  O66  1  0.93797547  0.96100346  0.88859115  1
  O  O67  1  0.05332608  0.18737234  0.31971061  1
