# generated using pymatgen
data_NpBr3
_symmetry_space_group_name_H-M   'P 1'
_cell_length_a   4.09050037
_cell_length_b   7.45664343
_cell_length_c   9.29650365
_cell_angle_alpha   90.00000000
_cell_angle_beta   90.00000000
_cell_angle_gamma   105.91944721
_symmetry_Int_Tables_number   1
_chemical_formula_structural   NpBr3
_chemical_formula_sum   'Np2 Br6'
_cell_volume   272.68152251
_cell_formula_units_Z   2
loop_
 _symmetry_equiv_pos_site_id
 _symmetry_equiv_pos_as_xyz
  1  'x, y, z'
loop_
 _atom_site_type_symbol
 _atom_site_label
 _atom_site_symmetry_multiplicity
 _atom_site_fract_x
 _atom_site_fract_y
 _atom_site_fract_z
 _atom_site_occupancy
  Np  Np0  1  0.25862326  0.51724653  0.75000000  1
  Np  Np1  1  0.74137674  0.48275347  0.25000000  1
  Br  Br2  1  0.65548275  0.31096550  0.56713421  1
  Br  Br3  1  0.90171905  0.80343811  0.75000000  1
  Br  Br4  1  0.34451725  0.68903450  0.43286579  1
  Br  Br5  1  0.65548275  0.31096550  0.93286579  1
  Br  Br6  1  0.34451725  0.68903450  0.06713421  1
  Br  Br7  1  0.09828095  0.19656189  0.25000000  1
