# generated using pymatgen
data_CaV2(PO5)2
_symmetry_space_group_name_H-M   'P 1'
_cell_length_a   6.92945515
_cell_length_b   6.92945464
_cell_length_c   8.82580858
_cell_angle_alpha   102.60658700
_cell_angle_beta   102.60658599
_cell_angle_gamma   116.36137248
_symmetry_Int_Tables_number   1
_chemical_formula_structural   CaV2(PO5)2
_chemical_formula_sum   'Ca2 V4 P4 O20'
_cell_volume   345.65995342
_cell_formula_units_Z   2
loop_
 _symmetry_equiv_pos_site_id
 _symmetry_equiv_pos_as_xyz
  1  'x, y, z'
loop_
 _atom_site_type_symbol
 _atom_site_label
 _atom_site_symmetry_multiplicity
 _atom_site_fract_x
 _atom_site_fract_y
 _atom_site_fract_z
 _atom_site_occupancy
  Ca  Ca0  1  0.50075769  0.00075769  0.50000000  1
  Ca  Ca1  1  0.25075769  0.25075769  1.00000000  1
  V  V2  1  0.87654758  0.60476237  0.26023332  1
  V  V3  1  0.34452905  0.61631426  0.73976668  1
  V  V4  1  0.86631426  0.09452905  0.23976668  1
  V  V5  1  0.85476237  0.62654758  0.76023332  1
  P  P6  1  0.03859772  0.03780393  0.58442811  1
  P  P7  1  0.70416961  0.20337582  0.91557189  1
  P  P8  1  0.45337582  0.45416961  0.41557189  1
  P  P9  1  0.28780393  0.78859772  0.08442811  1
  O  O10  1  0.58016349  0.55207713  0.30163364  1
  O  O11  1  0.65827252  0.66018305  0.83086870  1
  O  O12  1  0.31607731  0.60633504  0.96851693  1
  O  O13  1  0.80207713  0.33016349  0.80163364  1
  O  O14  1  0.21689055  0.24154132  0.29652185  1
  O  O15  1  0.41981327  0.63565919  0.52747963  1
  O  O16  1  0.07740382  0.57931435  0.66913130  1
  O  O17  1  0.82931435  0.82740382  0.16913130  1
  O  O18  1  0.91018305  0.40827252  0.33086870  1
  O  O19  1  0.17036870  0.69501947  0.20347815  1
  O  O20  1  0.25044349  0.27852985  0.69836636  1
  O  O21  1  0.49154132  0.96689055  0.79652185  1
  O  O22  1  0.94501947  0.92036870  0.70347815  1
  O  O23  1  0.14233364  0.85817956  0.97252037  1
  O  O24  1  0.10817956  0.89233364  0.47252037  1
  O  O25  1  0.88565919  0.16981327  0.02747963  1
  O  O26  1  0.85633504  0.06607731  0.46851693  1
  O  O27  1  0.63781811  0.34756038  0.03148307  1
  O  O28  1  0.52852985  0.00044349  0.19836636  1
  O  O29  1  0.59756038  0.38781811  0.53148307  1
