# generated using pymatgen
data_KMn(SeO4)2
_symmetry_space_group_name_H-M   'P 1'
_cell_length_a   4.94103386
_cell_length_b   5.11666410
_cell_length_c   8.14971777
_cell_angle_alpha   83.25279479
_cell_angle_beta   85.65250251
_cell_angle_gamma   67.68083795
_symmetry_Int_Tables_number   1
_chemical_formula_structural   KMn(SeO4)2
_chemical_formula_sum   'K1 Mn1 Se2 O8'
_cell_volume   189.17301747
_cell_formula_units_Z   1
loop_
 _symmetry_equiv_pos_site_id
 _symmetry_equiv_pos_as_xyz
  1  'x, y, z'
loop_
 _atom_site_type_symbol
 _atom_site_label
 _atom_site_symmetry_multiplicity
 _atom_site_fract_x
 _atom_site_fract_y
 _atom_site_fract_z
 _atom_site_occupancy
  K  K0  1  0.00000000  0.00000000  0.50000000  1
  Mn  Mn1  1  0.00000000  0.00000000  0.00000000  1
  Se  Se2  1  0.61795323  0.62984870  0.20330902  1
  Se  Se3  1  0.38204677  0.37015130  0.79669098  1
  O  O4  1  0.24523214  0.77766573  0.18649263  1
  O  O5  1  0.23706050  0.23373347  0.96404565  1
  O  O6  1  0.68602652  0.69382783  0.38519939  1
  O  O7  1  0.72400631  0.28282887  0.18848927  1
  O  O8  1  0.76293950  0.76626653  0.03595435  1
  O  O9  1  0.31397348  0.30617217  0.61480061  1
  O  O10  1  0.27599369  0.71717113  0.81151073  1
  O  O11  1  0.75476786  0.22233427  0.81350737  1
