# generated using pymatgen
data_Cs3Y2Br9
_symmetry_space_group_name_H-M   'P 1'
_cell_length_a   10.49882220
_cell_length_b   10.49882278
_cell_length_c   10.49882234
_cell_angle_alpha   83.63047197
_cell_angle_beta   83.63047164
_cell_angle_gamma   83.63047385
_symmetry_Int_Tables_number   1
_chemical_formula_structural   Cs3Y2Br9
_chemical_formula_sum   'Cs6 Y4 Br18'
_cell_volume   1137.27913242
_cell_formula_units_Z   2
loop_
 _symmetry_equiv_pos_site_id
 _symmetry_equiv_pos_as_xyz
  1  'x, y, z'
loop_
 _atom_site_type_symbol
 _atom_site_label
 _atom_site_symmetry_multiplicity
 _atom_site_fract_x
 _atom_site_fract_y
 _atom_site_fract_z
 _atom_site_occupancy
  Cs  Cs0  1  0.75000000  0.08967942  0.41032058  1
  Cs  Cs1  1  0.41032058  0.75000000  0.08967942  1
  Cs  Cs2  1  0.58967942  0.25000000  0.91032058  1
  Cs  Cs3  1  0.08967942  0.41032058  0.75000000  1
  Cs  Cs4  1  0.25000000  0.91032058  0.58967942  1
  Cs  Cs5  1  0.91032058  0.58967942  0.25000000  1
  Y  Y6  1  0.34813113  0.34813113  0.34813113  1
  Y  Y7  1  0.65186887  0.65186887  0.65186887  1
  Y  Y8  1  0.84813113  0.84813113  0.84813113  1
  Y  Y9  1  0.15186887  0.15186887  0.15186887  1
  Br  Br10  1  0.92000615  0.26465495  0.08150675  1
  Br  Br11  1  0.07999385  0.73534505  0.91849325  1
  Br  Br12  1  0.59616342  0.90383658  0.75000000  1
  Br  Br13  1  0.91849325  0.07999385  0.73534505  1
  Br  Br14  1  0.75000000  0.59616342  0.90383658  1
  Br  Br15  1  0.57999385  0.41849325  0.23534505  1
  Br  Br16  1  0.09616342  0.25000000  0.40383658  1
  Br  Br17  1  0.08150675  0.92000615  0.26465495  1
  Br  Br18  1  0.42000615  0.58150675  0.76465495  1
  Br  Br19  1  0.26465495  0.08150675  0.92000615  1
  Br  Br20  1  0.73534505  0.91849325  0.07999385  1
  Br  Br21  1  0.76465495  0.42000615  0.58150675  1
  Br  Br22  1  0.41849325  0.23534505  0.57999385  1
  Br  Br23  1  0.90383658  0.75000000  0.59616342  1
  Br  Br24  1  0.40383658  0.09616342  0.25000000  1
  Br  Br25  1  0.58150675  0.76465495  0.42000615  1
  Br  Br26  1  0.25000000  0.40383658  0.09616342  1
  Br  Br27  1  0.23534505  0.57999385  0.41849325  1
