# generated using pymatgen
data_Nd3CuGeSe7
_symmetry_space_group_name_H-M   'P 1'
_cell_length_a   10.64326341
_cell_length_b   10.64326321
_cell_length_c   6.16035214
_cell_angle_alpha   90.00000000
_cell_angle_beta   90.00000000
_cell_angle_gamma   120.00000066
_symmetry_Int_Tables_number   1
_chemical_formula_structural   Nd3CuGeSe7
_chemical_formula_sum   'Nd6 Cu2 Ge2 Se14'
_cell_volume   604.34617806
_cell_formula_units_Z   2
loop_
 _symmetry_equiv_pos_site_id
 _symmetry_equiv_pos_as_xyz
  1  'x, y, z'
loop_
 _atom_site_type_symbol
 _atom_site_label
 _atom_site_symmetry_multiplicity
 _atom_site_fract_x
 _atom_site_fract_y
 _atom_site_fract_z
 _atom_site_occupancy
  Nd  Nd0  1  0.35530860  0.13080837  0.24870058  1
  Nd  Nd1  1  0.86919163  0.22450024  0.24870058  1
  Nd  Nd2  1  0.77549976  0.64469140  0.24870058  1
  Nd  Nd3  1  0.64469140  0.86919163  0.74870058  1
  Nd  Nd4  1  0.22450024  0.35530860  0.74870058  1
  Nd  Nd5  1  0.13080837  0.77549976  0.74870058  1
  Cu  Cu6  1  0.00000000  0.00000000  0.71558790  1
  Cu  Cu7  1  0.00000000  0.00000000  0.21558790  1
  Ge  Ge8  1  0.66666700  0.33333300  0.83230067  1
  Ge  Ge9  1  0.33333300  0.66666700  0.33230067  1
  Se  Se10  1  0.66666700  0.33333300  0.44929656  1
  Se  Se11  1  0.48130410  0.57919030  0.49163390  1
  Se  Se12  1  0.16161181  0.25671728  0.22880381  1
  Se  Se13  1  0.90489453  0.16161181  0.72880381  1
  Se  Se14  1  0.57919030  0.09788619  0.99163390  1
  Se  Se15  1  0.33333300  0.66666700  0.94929656  1
  Se  Se16  1  0.25671728  0.09510547  0.72880381  1
  Se  Se17  1  0.42080970  0.90211381  0.49163390  1
  Se  Se18  1  0.09510547  0.83838819  0.22880381  1
  Se  Se19  1  0.51869590  0.42080970  0.99163390  1
  Se  Se20  1  0.90211381  0.48130410  0.99163390  1
  Se  Se21  1  0.09788619  0.51869590  0.49163390  1
  Se  Se22  1  0.74328272  0.90489453  0.22880381  1
  Se  Se23  1  0.83838819  0.74328272  0.72880381  1
