# generated using pymatgen
data_CaSiN2
_symmetry_space_group_name_H-M   'P 1'
_cell_length_a   5.16070571
_cell_length_b   10.27655252
_cell_length_c   14.88487138
_cell_angle_alpha   90.00000000
_cell_angle_beta   90.00000000
_cell_angle_gamma   90.00000000
_symmetry_Int_Tables_number   1
_chemical_formula_structural   CaSiN2
_chemical_formula_sum   'Ca16 Si16 N32'
_cell_volume   789.40818749
_cell_formula_units_Z   16
loop_
 _symmetry_equiv_pos_site_id
 _symmetry_equiv_pos_as_xyz
  1  'x, y, z'
loop_
 _atom_site_type_symbol
 _atom_site_label
 _atom_site_symmetry_multiplicity
 _atom_site_fract_x
 _atom_site_fract_y
 _atom_site_fract_z
 _atom_site_occupancy
  Ca  Ca0  1  0.65270794  0.77413310  0.31236153  1
  Ca  Ca1  1  0.74016966  0.00845365  0.43488231  1
  Ca  Ca2  1  0.24016966  0.49154635  0.56511769  1
  Ca  Ca3  1  0.84729206  0.22586690  0.81236153  1
  Ca  Ca4  1  0.34729206  0.22586690  0.68763847  1
  Ca  Ca5  1  0.25983034  0.50845365  0.06511769  1
  Ca  Ca6  1  0.25983034  0.99154635  0.56511769  1
  Ca  Ca7  1  0.34729206  0.27413310  0.18763847  1
  Ca  Ca8  1  0.15270794  0.72586690  0.68763847  1
  Ca  Ca9  1  0.15270794  0.77413310  0.18763847  1
  Ca  Ca10  1  0.74016966  0.49154635  0.93488231  1
  Ca  Ca11  1  0.65270794  0.72586690  0.81236153  1
  Ca  Ca12  1  0.24016966  0.00845365  0.06511769  1
  Ca  Ca13  1  0.75983034  0.50845365  0.43488231  1
  Ca  Ca14  1  0.75983034  0.99154635  0.93488231  1
  Ca  Ca15  1  0.84729206  0.27413310  0.31236153  1
  Si  Si16  1  0.27364768  0.98345686  0.81200195  1
  Si  Si17  1  0.68371759  0.72999477  0.56267601  1
  Si  Si18  1  0.68371759  0.77000523  0.06267601  1
  Si  Si19  1  0.18371759  0.77000523  0.43732399  1
  Si  Si20  1  0.81628241  0.27000523  0.06267601  1
  Si  Si21  1  0.31628241  0.27000523  0.43732399  1
  Si  Si22  1  0.81628241  0.22999477  0.56267601  1
  Si  Si23  1  0.72635232  0.01654314  0.18799805  1
  Si  Si24  1  0.18371759  0.72999477  0.93732399  1
  Si  Si25  1  0.22635232  0.48345686  0.81200195  1
  Si  Si26  1  0.72635232  0.48345686  0.68799805  1
  Si  Si27  1  0.31628241  0.22999477  0.93732399  1
  Si  Si28  1  0.22635232  0.01654314  0.31200195  1
  Si  Si29  1  0.27364768  0.51654314  0.31200195  1
  Si  Si30  1  0.77364768  0.98345686  0.68799805  1
  Si  Si31  1  0.77364768  0.51654314  0.18799805  1
  N  N32  1  0.30376762  0.92710438  0.40926795  1
  N  N33  1  0.59595183  0.02293004  0.78453716  1
  N  N34  1  0.35097588  0.77622875  0.03583805  1
  N  N35  1  0.77520816  0.18022828  0.16195063  1
  N  N36  1  0.90404817  0.52293004  0.78453716  1
  N  N37  1  0.72479184  0.68022828  0.16195063  1
  N  N38  1  0.22479184  0.81977172  0.83804937  1
  N  N39  1  0.40404817  0.97706996  0.21546284  1
  N  N40  1  0.59595183  0.47706996  0.28453716  1
  N  N41  1  0.14902412  0.22377125  0.53583805  1
  N  N42  1  0.19623238  0.42710438  0.40926795  1
  N  N43  1  0.09595183  0.47706996  0.21546284  1
  N  N44  1  0.27520816  0.31977172  0.83804937  1
  N  N45  1  0.80376762  0.92710438  0.09073205  1
  N  N46  1  0.14902412  0.27622875  0.03583805  1
  N  N47  1  0.85097588  0.72377125  0.96416195  1
  N  N48  1  0.64902412  0.22377125  0.96416195  1
  N  N49  1  0.69623238  0.42710438  0.09073205  1
  N  N50  1  0.09595183  0.02293004  0.71546284  1
  N  N51  1  0.19623238  0.07289562  0.90926795  1
  N  N52  1  0.22479184  0.68022828  0.33804937  1
  N  N53  1  0.35097588  0.72377125  0.53583805  1
  N  N54  1  0.40404817  0.52293004  0.71546284  1
  N  N55  1  0.64902412  0.27622875  0.46416195  1
  N  N56  1  0.27520816  0.18022828  0.33804937  1
  N  N57  1  0.72479184  0.81977172  0.66195063  1
  N  N58  1  0.90404817  0.97706996  0.28453716  1
  N  N59  1  0.80376762  0.57289562  0.59073205  1
  N  N60  1  0.85097588  0.77622875  0.46416195  1
  N  N61  1  0.77520816  0.31977172  0.66195063  1
  N  N62  1  0.30376762  0.57289562  0.90926795  1
  N  N63  1  0.69623238  0.07289562  0.59073205  1
