# generated using pymatgen
data_Ni2Sn4Au
_symmetry_space_group_name_H-M   'P 1'
_cell_length_a   9.33392802
_cell_length_b   9.33392842
_cell_length_c   9.33392822
_cell_angle_alpha   26.51057296
_cell_angle_beta   26.51056800
_cell_angle_gamma   26.51057170
_symmetry_Int_Tables_number   1
_chemical_formula_structural   Ni2Sn4Au
_chemical_formula_sum   'Ni2 Sn4 Au1'
_cell_volume   142.81484478
_cell_formula_units_Z   1
loop_
 _symmetry_equiv_pos_site_id
 _symmetry_equiv_pos_as_xyz
  1  'x, y, z'
loop_
 _atom_site_type_symbol
 _atom_site_label
 _atom_site_symmetry_multiplicity
 _atom_site_fract_x
 _atom_site_fract_y
 _atom_site_fract_z
 _atom_site_occupancy
  Ni  Ni0  1  0.59941783  0.59941783  0.59941783  1
  Ni  Ni1  1  0.40058217  0.40058217  0.40058217  1
  Sn  Sn2  1  0.70031084  0.70031084  0.70031084  1
  Sn  Sn3  1  0.88857746  0.88857746  0.88857746  1
  Sn  Sn4  1  0.29968916  0.29968916  0.29968916  1
  Sn  Sn5  1  0.11142254  0.11142254  0.11142254  1
  Au  Au6  1  0.50000000  0.50000000  0.50000000  1
