# generated using pymatgen
data_PrB2Rh2C
_symmetry_space_group_name_H-M   'P 1'
_cell_length_a   3.89257060
_cell_length_b   3.89257097
_cell_length_c   5.83037960
_cell_angle_alpha   109.50067750
_cell_angle_beta   109.50067935
_cell_angle_gamma   89.99999697
_symmetry_Int_Tables_number   1
_chemical_formula_structural   PrB2Rh2C
_chemical_formula_sum   'Pr1 B2 Rh2 C1'
_cell_volume   77.87839739
_cell_formula_units_Z   1
loop_
 _symmetry_equiv_pos_site_id
 _symmetry_equiv_pos_as_xyz
  1  'x, y, z'
loop_
 _atom_site_type_symbol
 _atom_site_label
 _atom_site_symmetry_multiplicity
 _atom_site_fract_x
 _atom_site_fract_y
 _atom_site_fract_z
 _atom_site_occupancy
  Pr  Pr0  1  0.00000000  0.00000000  0.00000000  1
  B  B1  1  0.64604403  0.64604403  0.29208807  1
  B  B2  1  0.35395597  0.35395597  0.70791193  1
  Rh  Rh3  1  0.75000000  0.25000000  0.50000000  1
  Rh  Rh4  1  0.25000000  0.75000000  0.50000000  1
  C  C5  1  0.50000000  0.50000000  0.00000000  1
