# generated using pymatgen
data_ZrIr
_symmetry_space_group_name_H-M   'P 1'
_cell_length_a   3.44021819
_cell_length_b   4.38077827
_cell_length_c   10.06563486
_cell_angle_alpha   90.00000000
_cell_angle_beta   99.83952065
_cell_angle_gamma   90.00000000
_symmetry_Int_Tables_number   1
_chemical_formula_structural   ZrIr
_chemical_formula_sum   'Zr4 Ir4'
_cell_volume   149.46607199
_cell_formula_units_Z   4
loop_
 _symmetry_equiv_pos_site_id
 _symmetry_equiv_pos_as_xyz
  1  'x, y, z'
loop_
 _atom_site_type_symbol
 _atom_site_label
 _atom_site_symmetry_multiplicity
 _atom_site_fract_x
 _atom_site_fract_y
 _atom_site_fract_z
 _atom_site_occupancy
  Zr  Zr0  1  0.69516464  0.75000000  0.39032927  1
  Zr  Zr1  1  0.43892708  0.75000000  0.87785417  1
  Zr  Zr2  1  0.30483536  0.25000000  0.60967073  1
  Zr  Zr3  1  0.56107292  0.25000000  0.12214583  1
  Ir  Ir4  1  0.05680535  0.75000000  0.11361071  1
  Ir  Ir5  1  0.83203019  0.75000000  0.66406038  1
  Ir  Ir6  1  0.94319465  0.25000000  0.88638929  1
  Ir  Ir7  1  0.16796981  0.25000000  0.33593962  1
