# generated using pymatgen
data_Li3Mn(CoO3)2
_symmetry_space_group_name_H-M   'P 1'
_cell_length_a   5.02724856
_cell_length_b   5.02871091
_cell_length_c   5.10189780
_cell_angle_alpha   100.71855780
_cell_angle_beta   106.23358288
_cell_angle_gamma   65.17328085
_symmetry_Int_Tables_number   1
_chemical_formula_structural   Li3Mn(CoO3)2
_chemical_formula_sum   'Li3 Mn1 Co2 O6'
_cell_volume   112.04290217
_cell_formula_units_Z   1
loop_
 _symmetry_equiv_pos_site_id
 _symmetry_equiv_pos_as_xyz
  1  'x, y, z'
loop_
 _atom_site_type_symbol
 _atom_site_label
 _atom_site_symmetry_multiplicity
 _atom_site_fract_x
 _atom_site_fract_y
 _atom_site_fract_z
 _atom_site_occupancy
  Li  Li0  1  0.16394684  0.67269452  0.50005798  1
  Li  Li1  1  0.83333300  0.33333300  0.50000000  1
  Li  Li2  1  0.50272016  0.99397248  0.49994202  1
  Mn  Mn3  1  0.33333300  0.33333300  -0.00000000  1
  Co  Co4  1  -0.00087228  -0.00055066  0.00048525  1
  Co  Co5  1  0.66753928  0.66721766  0.99951475  1
  O  O6  1  0.76450174  0.97793123  0.22764731  1
  O  O7  1  0.43038503  0.65289510  0.22783952  1
  O  O8  1  0.09005218  0.31268420  0.22959975  1
  O  O9  1  0.57661482  0.35398280  0.77040025  1
  O  O10  1  0.23628097  0.01377090  0.77216048  1
  O  O11  1  0.90216526  0.68873577  0.77235269  1
