# generated using pymatgen
data_SrMnO3
_symmetry_space_group_name_H-M   'P 1'
_cell_length_a   5.53302741
_cell_length_b   5.53302755
_cell_length_c   9.28911489
_cell_angle_alpha   90.00000000
_cell_angle_beta   90.00000000
_cell_angle_gamma   119.78192244
_symmetry_Int_Tables_number   1
_chemical_formula_structural   SrMnO3
_chemical_formula_sum   'Sr4 Mn4 O12'
_cell_volume   246.82025233
_cell_formula_units_Z   4
loop_
 _symmetry_equiv_pos_site_id
 _symmetry_equiv_pos_as_xyz
  1  'x, y, z'
loop_
 _atom_site_type_symbol
 _atom_site_label
 _atom_site_symmetry_multiplicity
 _atom_site_fract_x
 _atom_site_fract_y
 _atom_site_fract_z
 _atom_site_occupancy
  Sr  Sr0  1  0.66135209  0.33864791  0.25000000  1
  Sr  Sr1  1  0.01992144  0.01992144  0.00000000  1
  Sr  Sr2  1  0.33864791  0.66135209  0.75000000  1
  Sr  Sr3  1  0.98007856  0.98007856  0.50000000  1
  Mn  Mn4  1  0.68610295  0.35083555  0.88784172  1
  Mn  Mn5  1  0.64916445  0.31389705  0.61215828  1
  Mn  Mn6  1  0.31389705  0.64916445  0.38784172  1
  Mn  Mn7  1  0.35083555  0.68610295  0.11215828  1
  O  O8  1  0.63462418  0.81762832  0.26732997  1
  O  O9  1  0.82007419  0.17992581  0.75000000  1
  O  O10  1  0.18237168  0.36537582  0.23267003  1
  O  O11  1  0.17992581  0.82007419  0.25000000  1
  O  O12  1  0.36537582  0.18237168  0.76732997  1
  O  O13  1  0.94789625  0.44620031  0.47867100  1
  O  O14  1  0.05210375  0.55379969  0.97867100  1
  O  O15  1  0.44584945  0.44584945  0.50000000  1
  O  O16  1  0.55415055  0.55415055  0.00000000  1
  O  O17  1  0.81762832  0.63462418  0.73267003  1
  O  O18  1  0.44620031  0.94789625  0.52132900  1
  O  O19  1  0.55379969  0.05210375  0.02132900  1
