# generated using pymatgen
data_Mg2Co12As7
_symmetry_space_group_name_H-M   'P 1'
_cell_length_a   3.65529489
_cell_length_b   12.02318224
_cell_length_c   24.88085307
_cell_angle_alpha   90.00000000
_cell_angle_beta   90.00000000
_cell_angle_gamma   90.00000000
_symmetry_Int_Tables_number   1
_chemical_formula_structural   Mg2Co12As7
_chemical_formula_sum   'Mg8 Co48 As28'
_cell_volume   1093.47061285
_cell_formula_units_Z   4
loop_
 _symmetry_equiv_pos_site_id
 _symmetry_equiv_pos_as_xyz
  1  'x, y, z'
loop_
 _atom_site_type_symbol
 _atom_site_label
 _atom_site_symmetry_multiplicity
 _atom_site_fract_x
 _atom_site_fract_y
 _atom_site_fract_z
 _atom_site_occupancy
  Mg  Mg0  1  0.75000000  0.31021279  0.88441015  1
  Mg  Mg1  1  0.25000000  0.18978721  0.38441015  1
  Mg  Mg2  1  0.25000000  0.68978721  0.11558985  1
  Mg  Mg3  1  0.25000000  0.71360273  0.82098688  1
  Mg  Mg4  1  0.75000000  0.81021279  0.61558985  1
  Mg  Mg5  1  0.75000000  0.28639727  0.17901312  1
  Mg  Mg6  1  0.75000000  0.78639727  0.32098688  1
  Mg  Mg7  1  0.25000000  0.21360273  0.67901312  1
  Co  Co8  1  0.75000000  0.79211506  0.18802706  1
  Co  Co9  1  0.25000000  0.47413559  0.18586876  1
  Co  Co10  1  0.25000000  0.66998530  0.23921574  1
  Co  Co11  1  0.25000000  0.99184630  0.60851837  1
  Co  Co12  1  0.75000000  0.29211506  0.31197294  1
  Co  Co13  1  0.75000000  0.50180650  0.27053022  1
  Co  Co14  1  0.25000000  0.97413559  0.31413124  1
  Co  Co15  1  0.25000000  0.44007782  0.62224373  1
  Co  Co16  1  0.75000000  0.33001470  0.76078426  1
  Co  Co17  1  0.25000000  0.67324395  0.95969660  1
  Co  Co18  1  0.25000000  0.19426833  0.09070010  1
  Co  Co19  1  0.25000000  0.49819350  0.72946978  1
  Co  Co20  1  0.75000000  0.32675605  0.04030340  1
  Co  Co21  1  0.75000000  0.51457870  0.54375873  1
  Co  Co22  1  0.75000000  0.00180650  0.22946978  1
  Co  Co23  1  0.75000000  0.55992218  0.37775627  1
  Co  Co24  1  0.25000000  0.17324395  0.54030340  1
  Co  Co25  1  0.25000000  0.94007782  0.87775627  1
  Co  Co26  1  0.75000000  0.08018774  0.84885601  1
  Co  Co27  1  0.25000000  0.68712342  0.51421096  1
  Co  Co28  1  0.75000000  0.01457870  0.95624127  1
  Co  Co29  1  0.75000000  0.52586441  0.81413124  1
  Co  Co30  1  0.75000000  0.31287658  0.48578904  1
  Co  Co31  1  0.75000000  0.81287658  0.01421096  1
  Co  Co32  1  0.75000000  0.05992218  0.12224373  1
  Co  Co33  1  0.75000000  0.80573167  0.90929990  1
  Co  Co34  1  0.25000000  0.51060528  0.03619191  1
  Co  Co35  1  0.75000000  0.83001470  0.73921574  1
  Co  Co36  1  0.25000000  0.18712342  0.98578904  1
  Co  Co37  1  0.25000000  0.48542130  0.45624127  1
  Co  Co38  1  0.75000000  0.00815370  0.39148163  1
  Co  Co39  1  0.25000000  0.49184630  0.89148163  1
  Co  Co40  1  0.25000000  0.01060528  0.46380809  1
  Co  Co41  1  0.25000000  0.41981226  0.34885601  1
  Co  Co42  1  0.75000000  0.50815370  0.10851837  1
  Co  Co43  1  0.25000000  0.16998530  0.26078426  1
  Co  Co44  1  0.75000000  0.58018774  0.65114399  1
  Co  Co45  1  0.75000000  0.02586441  0.68586876  1
  Co  Co46  1  0.25000000  0.98542130  0.04375873  1
  Co  Co47  1  0.25000000  0.99819350  0.77053022  1
  Co  Co48  1  0.25000000  0.91981226  0.15114399  1
  Co  Co49  1  0.25000000  0.20788494  0.81197294  1
  Co  Co50  1  0.75000000  0.48939472  0.96380809  1
  Co  Co51  1  0.75000000  0.82675605  0.45969660  1
  Co  Co52  1  0.25000000  0.70788494  0.68802706  1
  Co  Co53  1  0.25000000  0.69426833  0.40929990  1
  Co  Co54  1  0.75000000  0.30573167  0.59070010  1
  Co  Co55  1  0.75000000  0.98939472  0.53619191  1
  As  As56  1  0.75000000  0.12704426  0.47003776  1
  As  As57  1  0.75000000  0.62704426  0.02996224  1
  As  As58  1  0.75000000  0.89414859  0.82473617  1
  As  As59  1  0.25000000  0.37309582  0.53581203  1
  As  As60  1  0.25000000  0.10585141  0.17526383  1
  As  As61  1  0.25000000  0.87295574  0.52996224  1
  As  As62  1  0.25000000  0.86188807  0.23969403  1
  As  As63  1  0.75000000  0.10039666  0.31039117  1
  As  As64  1  0.75000000  0.11895111  0.60400386  1
  As  As65  1  0.25000000  0.37295574  0.97003776  1
  As  As66  1  0.25000000  0.88104889  0.39599614  1
  As  As67  1  0.75000000  0.37423275  0.40048754  1
  As  As68  1  0.75000000  0.13811193  0.76030597  1
  As  As69  1  0.25000000  0.87309582  0.96418797  1
  As  As70  1  0.25000000  0.12576725  0.90048754  1
  As  As71  1  0.75000000  0.39414859  0.67526383  1
  As  As72  1  0.75000000  0.62690418  0.46418797  1
  As  As73  1  0.25000000  0.38104889  0.10400386  1
  As  As74  1  0.25000000  0.62576725  0.59951246  1
  As  As75  1  0.25000000  0.89960334  0.68960883  1
  As  As76  1  0.75000000  0.61895111  0.89599614  1
  As  As77  1  0.25000000  0.36188807  0.26030597  1
  As  As78  1  0.75000000  0.87423275  0.09951246  1
  As  As79  1  0.25000000  0.39960334  0.81039117  1
  As  As80  1  0.75000000  0.60039666  0.18960883  1
  As  As81  1  0.75000000  0.63811193  0.73969403  1
  As  As82  1  0.25000000  0.60585141  0.32473617  1
  As  As83  1  0.75000000  0.12690418  0.03581203  1
