# generated using pymatgen
data_Sr(AsRh)2
_symmetry_space_group_name_H-M   'P 1'
_cell_length_a   4.10821498
_cell_length_b   4.10849069
_cell_length_c   6.67774786
_cell_angle_alpha   107.92181802
_cell_angle_beta   107.95079920
_cell_angle_gamma   89.93419492
_symmetry_Int_Tables_number   1
_chemical_formula_structural   Sr(AsRh)2
_chemical_formula_sum   'Sr1 As2 Rh2'
_cell_volume   101.47340496
_cell_formula_units_Z   1
loop_
 _symmetry_equiv_pos_site_id
 _symmetry_equiv_pos_as_xyz
  1  'x, y, z'
loop_
 _atom_site_type_symbol
 _atom_site_label
 _atom_site_symmetry_multiplicity
 _atom_site_fract_x
 _atom_site_fract_y
 _atom_site_fract_z
 _atom_site_occupancy
  Sr  Sr0  1  0.00000000  0.00000000  0.00000000  1
  As  As1  1  0.36520931  0.36494354  0.73008574  1
  As  As2  1  0.63479069  0.63505646  0.26991426  1
  Rh  Rh3  1  0.74998357  0.24994101  0.49993833  1
  Rh  Rh4  1  0.25001643  0.75005899  0.50006167  1
