# generated using pymatgen
data_MgCuAs
_symmetry_space_group_name_H-M   'P 1'
_cell_length_a   3.99022833
_cell_length_b   7.41702195
_cell_length_c   13.55369428
_cell_angle_alpha   90.00000000
_cell_angle_beta   90.00000000
_cell_angle_gamma   90.00000000
_symmetry_Int_Tables_number   1
_chemical_formula_structural   MgCuAs
_chemical_formula_sum   'Mg8 Cu8 As8'
_cell_volume   401.12986500
_cell_formula_units_Z   8
loop_
 _symmetry_equiv_pos_site_id
 _symmetry_equiv_pos_as_xyz
  1  'x, y, z'
loop_
 _atom_site_type_symbol
 _atom_site_label
 _atom_site_symmetry_multiplicity
 _atom_site_fract_x
 _atom_site_fract_y
 _atom_site_fract_z
 _atom_site_occupancy
  Mg  Mg0  1  0.25000000  0.32656830  0.14222772  1
  Mg  Mg1  1  0.25000000  0.44271289  0.39250287  1
  Mg  Mg2  1  0.75000000  0.94271289  0.10749713  1
  Mg  Mg3  1  0.75000000  0.82656830  0.35777228  1
  Mg  Mg4  1  0.75000000  0.55728711  0.60749713  1
  Mg  Mg5  1  0.75000000  0.67343170  0.85777228  1
  Mg  Mg6  1  0.25000000  0.05728711  0.89250287  1
  Mg  Mg7  1  0.25000000  0.17343170  0.64222772  1
  Cu  Cu8  1  0.25000000  0.06962419  0.43531252  1
  Cu  Cu9  1  0.25000000  0.69950864  0.18638216  1
  Cu  Cu10  1  0.75000000  0.56962419  0.06468748  1
  Cu  Cu11  1  0.25000000  0.43037581  0.93531252  1
  Cu  Cu12  1  0.25000000  0.80049136  0.68638216  1
  Cu  Cu13  1  0.75000000  0.93037581  0.56468748  1
  Cu  Cu14  1  0.75000000  0.30049136  0.81361784  1
  Cu  Cu15  1  0.75000000  0.19950864  0.31361784  1
  As  As16  1  0.25000000  0.74735581  0.49989615  1
  As  As17  1  0.75000000  0.25264419  0.50010385  1
  As  As18  1  0.75000000  0.24735581  0.00010385  1
  As  As19  1  0.25000000  0.02035919  0.24764542  1
  As  As20  1  0.75000000  0.52035919  0.25235458  1
  As  As21  1  0.25000000  0.47964081  0.74764542  1
  As  As22  1  0.25000000  0.75264419  0.99989615  1
  As  As23  1  0.75000000  0.97964081  0.75235458  1
