# generated using pymatgen
data_Cs(AsRh)2
_symmetry_space_group_name_H-M   'P 1'
_cell_length_a   4.06681375
_cell_length_b   4.06681450
_cell_length_c   8.01639168
_cell_angle_alpha   104.69396944
_cell_angle_beta   104.69397222
_cell_angle_gamma   89.99999375
_symmetry_Int_Tables_number   1
_chemical_formula_structural   Cs(AsRh)2
_chemical_formula_sum   'Cs1 As2 Rh2'
_cell_volume   123.75868872
_cell_formula_units_Z   1
loop_
 _symmetry_equiv_pos_site_id
 _symmetry_equiv_pos_as_xyz
  1  'x, y, z'
loop_
 _atom_site_type_symbol
 _atom_site_label
 _atom_site_symmetry_multiplicity
 _atom_site_fract_x
 _atom_site_fract_y
 _atom_site_fract_z
 _atom_site_occupancy
  Cs  Cs0  1  0.00000000  0.00000000  0.00000000  1
  As  As1  1  0.34169721  0.34169721  0.68339442  1
  As  As2  1  0.65830279  0.65830279  0.31660558  1
  Rh  Rh3  1  0.25000000  0.75000000  0.50000000  1
  Rh  Rh4  1  0.75000000  0.25000000  0.50000000  1
