# generated using pymatgen
data_HfI4
_symmetry_space_group_name_H-M   'P 1'
_cell_length_a   8.86481361
_cell_length_b   8.86481363
_cell_length_c   13.29377235
_cell_angle_alpha   107.48115948
_cell_angle_beta   107.48115954
_cell_angle_gamma   89.61552490
_symmetry_Int_Tables_number   1
_chemical_formula_structural   HfI4
_chemical_formula_sum   'Hf4 I16'
_cell_volume   946.40792487
_cell_formula_units_Z   4
loop_
 _symmetry_equiv_pos_site_id
 _symmetry_equiv_pos_as_xyz
  1  'x, y, z'
loop_
 _atom_site_type_symbol
 _atom_site_label
 _atom_site_symmetry_multiplicity
 _atom_site_fract_x
 _atom_site_fract_y
 _atom_site_fract_z
 _atom_site_occupancy
  Hf  Hf0  1  0.20813443  0.93942205  0.62365969  1
  Hf  Hf1  1  0.93942205  0.20813443  0.12365969  1
  Hf  Hf2  1  0.79186557  0.06057795  0.37634031  1
  Hf  Hf3  1  0.06057795  0.79186557  0.87634031  1
  I  I4  1  0.16819690  0.94951920  0.11207528  1
  I  I5  1  0.72817891  0.95330087  0.13949344  1
  I  I6  1  0.04669913  0.27182109  0.36050656  1
  I  I7  1  0.17233022  0.41534657  0.13602731  1
  I  I8  1  0.58465343  0.82766978  0.36397269  1
  I  I9  1  0.27182109  0.04669913  0.86050656  1
  I  I10  1  0.60125670  0.30059089  0.38975804  1
  I  I11  1  0.05048080  0.83180310  0.38792472  1
  I  I12  1  0.82766978  0.58465343  0.86397269  1
  I  I13  1  0.41534657  0.17233022  0.63602731  1
  I  I14  1  0.30059089  0.60125670  0.88975804  1
  I  I15  1  0.69940911  0.39874330  0.11024196  1
  I  I16  1  0.83180310  0.05048080  0.88792472  1
  I  I17  1  0.39874330  0.69940911  0.61024196  1
  I  I18  1  0.94951920  0.16819690  0.61207528  1
  I  I19  1  0.95330087  0.72817891  0.63949344  1
