# generated using pymatgen
data_La5Al3Ni2
_symmetry_space_group_name_H-M   'P 1'
_cell_length_a   6.88966953
_cell_length_b   7.91957008
_cell_length_c   10.47881838
_cell_angle_alpha   90.00000000
_cell_angle_beta   90.00000000
_cell_angle_gamma   115.78386200
_symmetry_Int_Tables_number   1
_chemical_formula_structural   La5Al3Ni2
_chemical_formula_sum   'La10 Al6 Ni4'
_cell_volume   514.83460163
_cell_formula_units_Z   2
loop_
 _symmetry_equiv_pos_site_id
 _symmetry_equiv_pos_as_xyz
  1  'x, y, z'
loop_
 _atom_site_type_symbol
 _atom_site_label
 _atom_site_symmetry_multiplicity
 _atom_site_fract_x
 _atom_site_fract_y
 _atom_site_fract_z
 _atom_site_occupancy
  La  La0  1  0.12516076  0.25032152  0.00000000  1
  La  La1  1  0.04066679  0.56499331  0.75000000  1
  La  La2  1  0.87483924  0.74967848  0.50000000  1
  La  La3  1  0.87483924  0.74967848  0.00000000  1
  La  La4  1  0.95933321  0.43500669  0.25000000  1
  La  La5  1  0.12516076  0.25032152  0.50000000  1
  La  La6  1  0.38975403  0.00000000  0.25000000  1
  La  La7  1  0.52432653  0.56499331  0.25000000  1
  La  La8  1  0.47567347  0.43500669  0.75000000  1
  La  La9  1  0.61024597  0.00000000  0.75000000  1
  Al  Al10  1  0.88220592  0.00000000  0.25000000  1
  Al  Al11  1  0.64738560  0.29477119  0.00000000  1
  Al  Al12  1  0.64738560  0.29477119  0.50000000  1
  Al  Al13  1  0.11779408  0.00000000  0.75000000  1
  Al  Al14  1  0.35261440  0.70522881  0.00000000  1
  Al  Al15  1  0.35261440  0.70522881  0.50000000  1
  Ni  Ni16  1  0.67027154  0.00000000  0.43881352  1
  Ni  Ni17  1  0.67027154  0.00000000  0.06118648  1
  Ni  Ni18  1  0.32972846  0.00000000  0.93881352  1
  Ni  Ni19  1  0.32972846  0.00000000  0.56118648  1
