# generated using pymatgen
data_Li5Mn(CoO4)2
_symmetry_space_group_name_H-M   'P 1'
_cell_length_a   2.91024896
_cell_length_b   9.68073335
_cell_length_c   5.07881680
_cell_angle_alpha   101.35403792
_cell_angle_beta   90.00000000
_cell_angle_gamma   90.00000000
_symmetry_Int_Tables_number   1
_chemical_formula_structural   Li5Mn(CoO4)2
_chemical_formula_sum   'Li5 Mn1 Co2 O8'
_cell_volume   140.28695290
_cell_formula_units_Z   1
loop_
 _symmetry_equiv_pos_site_id
 _symmetry_equiv_pos_as_xyz
  1  'x, y, z'
loop_
 _atom_site_type_symbol
 _atom_site_label
 _atom_site_symmetry_multiplicity
 _atom_site_fract_x
 _atom_site_fract_y
 _atom_site_fract_z
 _atom_site_occupancy
  Li  Li0  1  -0.00000000  0.74006608  0.25242414  1
  Li  Li1  1  0.50000000  0.25846734  0.26184069  1
  Li  Li2  1  -0.00000000  0.25993392  0.74757586  1
  Li  Li3  1  0.50000000  0.74153266  0.73815931  1
  Li  Li4  1  -0.00000000  0.50000000  0.50000000  1
  Mn  Mn5  1  -0.00000000  0.00000000  -0.00000000  1
  Co  Co6  1  0.50000000  0.50000000  -0.00000000  1
  Co  Co7  1  0.50000000  0.00000000  0.50000000  1
  O  O8  1  -0.00000000  0.11837884  0.35740155  1
  O  O9  1  0.50000000  0.61181752  0.33172693  1
  O  O10  1  -0.00000000  0.60928385  0.89051997  1
  O  O11  1  0.50000000  0.11345515  0.89502844  1
  O  O12  1  -0.00000000  0.39071615  0.10948003  1
  O  O13  1  0.50000000  0.88654485  0.10497156  1
  O  O14  1  -0.00000000  0.88162116  0.64259845  1
  O  O15  1  0.50000000  0.38818248  0.66827307  1
