# generated using pymatgen
data_Th7Pt3
_symmetry_space_group_name_H-M   'P 1'
_cell_length_a   6.46304855
_cell_length_b   10.08863221
_cell_length_c   10.08863221
_cell_angle_alpha   120.14126607
_cell_angle_beta   90.00000000
_cell_angle_gamma   90.00000000
_symmetry_Int_Tables_number   1
_chemical_formula_structural   Th7Pt3
_chemical_formula_sum   'Th14 Pt6'
_cell_volume   568.86950529
_cell_formula_units_Z   2
loop_
 _symmetry_equiv_pos_site_id
 _symmetry_equiv_pos_as_xyz
  1  'x, y, z'
loop_
 _atom_site_type_symbol
 _atom_site_label
 _atom_site_symmetry_multiplicity
 _atom_site_fract_x
 _atom_site_fract_y
 _atom_site_fract_z
 _atom_site_occupancy
  Th  Th0  1  0.41833802  0.33311401  0.66688599  1
  Th  Th1  1  0.91833802  0.66688599  0.33311401  1
  Th  Th2  1  0.25438916  0.12856958  0.87143042  1
  Th  Th3  1  0.25501582  0.74321632  0.87173416  1
  Th  Th4  1  0.25501582  0.12826584  0.25678368  1
  Th  Th5  1  0.75438916  0.87143042  0.12856958  1
  Th  Th6  1  0.75501582  0.25678368  0.12826584  1
  Th  Th7  1  0.75501582  0.87173416  0.74321632  1
  Th  Th8  1  0.46883073  0.54425008  0.45574992  1
  Th  Th9  1  0.46900271  0.91062981  0.45513256  1
  Th  Th10  1  0.46900271  0.54486744  0.08937019  1
  Th  Th11  1  0.96883073  0.45574992  0.54425008  1
  Th  Th12  1  0.96900271  0.08937019  0.54486744  1
  Th  Th13  1  0.96900271  0.45513256  0.91062981  1
  Pt  Pt14  1  0.18931821  0.81175776  0.18824224  1
  Pt  Pt15  1  0.18954341  0.37656261  0.18840321  1
  Pt  Pt16  1  0.18954341  0.81159679  0.62343739  1
  Pt  Pt17  1  0.68931821  0.18824224  0.81175776  1
  Pt  Pt18  1  0.68954341  0.62343739  0.81159679  1
  Pt  Pt19  1  0.68954341  0.18840321  0.37656261  1
