# generated using pymatgen
data_Cs2PSe5
_symmetry_space_group_name_H-M   'P 1'
_cell_length_a   7.61495576
_cell_length_b   7.77226748
_cell_length_c   10.45290932
_cell_angle_alpha   85.16390674
_cell_angle_beta   87.55491425
_cell_angle_gamma   85.84832893
_symmetry_Int_Tables_number   1
_chemical_formula_structural   Cs2PSe5
_chemical_formula_sum   'Cs4 P2 Se10'
_cell_volume   614.42413816
_cell_formula_units_Z   2
loop_
 _symmetry_equiv_pos_site_id
 _symmetry_equiv_pos_as_xyz
  1  'x, y, z'
loop_
 _atom_site_type_symbol
 _atom_site_label
 _atom_site_symmetry_multiplicity
 _atom_site_fract_x
 _atom_site_fract_y
 _atom_site_fract_z
 _atom_site_occupancy
  Cs  Cs0  1  0.80388346  0.14049035  0.63382261  1
  Cs  Cs1  1  0.19611654  0.85950965  0.36617739  1
  Cs  Cs2  1  0.22134989  0.27452710  0.96789876  1
  Cs  Cs3  1  0.77865011  0.72547290  0.03210124  1
  P  P4  1  0.25032512  0.78927423  0.77729822  1
  P  P5  1  0.74967488  0.21072577  0.22270178  1
  Se  Se6  1  0.97628262  0.32787891  0.29171478  1
  Se  Se7  1  0.50293462  0.59823258  0.75909005  1
  Se  Se8  1  0.30359958  0.03794479  0.67452827  1
  Se  Se9  1  0.02371738  0.67212109  0.70828522  1
  Se  Se10  1  0.59610121  0.60227439  0.54212041  1
  Se  Se11  1  0.40389879  0.39772561  0.45787959  1
  Se  Se12  1  0.27172983  0.76774846  0.98891022  1
  Se  Se13  1  0.69640042  0.96205521  0.32547173  1
  Se  Se14  1  0.72827017  0.23225154  0.01108978  1
  Se  Se15  1  0.49706538  0.40176742  0.24090995  1
