# generated using pymatgen
data_PrAu6
_symmetry_space_group_name_H-M   'P 1'
_cell_length_a   5.60783137
_cell_length_b   5.60783135
_cell_length_c   9.27254689
_cell_angle_alpha   82.71302619
_cell_angle_beta   82.71302620
_cell_angle_gamma   89.98086336
_symmetry_Int_Tables_number   1
_chemical_formula_structural   PrAu6
_chemical_formula_sum   'Pr2 Au12'
_cell_volume   286.87284327
_cell_formula_units_Z   2
loop_
 _symmetry_equiv_pos_site_id
 _symmetry_equiv_pos_as_xyz
  1  'x, y, z'
loop_
 _atom_site_type_symbol
 _atom_site_label
 _atom_site_symmetry_multiplicity
 _atom_site_fract_x
 _atom_site_fract_y
 _atom_site_fract_z
 _atom_site_occupancy
  Pr  Pr0  1  0.31477222  0.68522778  0.75000000  1
  Pr  Pr1  1  0.68522778  0.31477222  0.25000000  1
  Au  Au2  1  0.77913065  0.61559941  0.91880191  1
  Au  Au3  1  0.38440059  0.22086935  0.58119809  1
  Au  Au4  1  0.04184547  0.15687994  0.86343575  1
  Au  Au5  1  0.15687994  0.04184547  0.36343575  1
  Au  Au6  1  0.95815453  0.84312006  0.13656425  1
  Au  Au7  1  0.83392119  0.45890876  0.62768321  1
  Au  Au8  1  0.54109124  0.16607881  0.87231679  1
  Au  Au9  1  0.84312006  0.95815453  0.63656425  1
  Au  Au10  1  0.61559941  0.77913065  0.41880191  1
  Au  Au11  1  0.45890876  0.83392119  0.12768321  1
  Au  Au12  1  0.22086935  0.38440059  0.08119809  1
  Au  Au13  1  0.16607881  0.54109124  0.37231679  1
