# generated using pymatgen
data_NaW6NCl18
_symmetry_space_group_name_H-M   'P 1'
_cell_length_a   9.20240170
_cell_length_b   9.20240124
_cell_length_c   18.31123272
_cell_angle_alpha   90.00000000
_cell_angle_beta   90.00000000
_cell_angle_gamma   120.00000165
_symmetry_Int_Tables_number   1
_chemical_formula_structural   NaW6NCl18
_chemical_formula_sum   'Na2 W12 N2 Cl36'
_cell_volume   1342.92129048
_cell_formula_units_Z   2
loop_
 _symmetry_equiv_pos_site_id
 _symmetry_equiv_pos_as_xyz
  1  'x, y, z'
loop_
 _atom_site_type_symbol
 _atom_site_label
 _atom_site_symmetry_multiplicity
 _atom_site_fract_x
 _atom_site_fract_y
 _atom_site_fract_z
 _atom_site_occupancy
  Na  Na0  1  0.00000000  0.00000000  0.50000000  1
  Na  Na1  1  0.00000000  0.00000000  0.00000000  1
  W  W2  1  0.18244923  0.48722378  0.83465263  1
  W  W3  1  0.69522545  0.18244923  0.33465263  1
  W  W4  1  0.30477455  0.81755077  0.66534737  1
  W  W5  1  0.51277622  0.69522545  0.83465263  1
  W  W6  1  0.81755077  0.51277622  0.33465263  1
  W  W7  1  0.48722378  0.30477455  0.16534737  1
  W  W8  1  0.51277622  0.69522545  0.66534737  1
  W  W9  1  0.81755077  0.51277622  0.16534737  1
  W  W10  1  0.48722378  0.30477455  0.33465263  1
  W  W11  1  0.18244923  0.48722378  0.66534737  1
  W  W12  1  0.30477455  0.81755077  0.83465263  1
  W  W13  1  0.69522545  0.18244923  0.16534737  1
  N  N14  1  0.33333300  0.66666700  0.75000000  1
  N  N15  1  0.66666700  0.33333300  0.25000000  1
  Cl  Cl16  1  0.76315713  0.73421887  0.60273522  1
  Cl  Cl17  1  0.51983123  0.95096322  0.25000000  1
  Cl  Cl18  1  0.95096322  0.43113199  0.75000000  1
  Cl  Cl19  1  0.02893826  0.76315713  0.39726478  1
  Cl  Cl20  1  0.97106174  0.23684287  0.89726478  1
  Cl  Cl21  1  0.76315713  0.73421887  0.89726478  1
  Cl  Cl22  1  0.43113199  0.48016877  0.25000000  1
  Cl  Cl23  1  0.36773985  0.48216779  0.92580759  1
  Cl  Cl24  1  0.48216779  0.11442794  0.42580759  1
  Cl  Cl25  1  0.88557206  0.36773985  0.42580759  1
  Cl  Cl26  1  0.56886801  0.51983123  0.75000000  1
  Cl  Cl27  1  0.19496362  0.28600788  0.75000000  1
  Cl  Cl28  1  0.26578113  0.02893826  0.89726478  1
  Cl  Cl29  1  0.02893826  0.76315713  0.10273522  1
  Cl  Cl30  1  0.23684287  0.26578113  0.10273522  1
  Cl  Cl31  1  0.63226015  0.51783221  0.42580759  1
  Cl  Cl32  1  0.11442794  0.63226015  0.92580759  1
  Cl  Cl33  1  0.73421887  0.97106174  0.10273522  1
  Cl  Cl34  1  0.73421887  0.97106174  0.39726478  1
  Cl  Cl35  1  0.80503638  0.71399212  0.25000000  1
  Cl  Cl36  1  0.97106174  0.23684287  0.60273522  1
  Cl  Cl37  1  0.51783221  0.88557206  0.57419241  1
  Cl  Cl38  1  0.23684287  0.26578113  0.39726478  1
  Cl  Cl39  1  0.48016877  0.04903678  0.75000000  1
  Cl  Cl40  1  0.26578113  0.02893826  0.60273522  1
  Cl  Cl41  1  0.11442794  0.63226015  0.57419241  1
  Cl  Cl42  1  0.48216779  0.11442794  0.07419241  1
  Cl  Cl43  1  0.90895574  0.19496362  0.25000000  1
  Cl  Cl44  1  0.63226015  0.51783221  0.07419241  1
  Cl  Cl45  1  0.36773985  0.48216779  0.57419241  1
  Cl  Cl46  1  0.09104426  0.80503638  0.75000000  1
  Cl  Cl47  1  0.04903678  0.56886801  0.25000000  1
  Cl  Cl48  1  0.28600788  0.09104426  0.25000000  1
  Cl  Cl49  1  0.88557206  0.36773985  0.07419241  1
  Cl  Cl50  1  0.51783221  0.88557206  0.92580759  1
  Cl  Cl51  1  0.71399212  0.90895574  0.75000000  1
