# generated using pymatgen
data_Li3CaMnN3
_symmetry_space_group_name_H-M   'P 1'
_cell_length_a   7.04066383
_cell_length_b   7.04066405
_cell_length_c   7.04066422
_cell_angle_alpha   48.22715466
_cell_angle_beta   48.22715313
_cell_angle_gamma   48.22715785
_symmetry_Int_Tables_number   1
_chemical_formula_structural   Li3CaMnN3
_chemical_formula_sum   'Li6 Ca2 Mn2 N6'
_cell_volume   177.93117059
_cell_formula_units_Z   2
loop_
 _symmetry_equiv_pos_site_id
 _symmetry_equiv_pos_as_xyz
  1  'x, y, z'
loop_
 _atom_site_type_symbol
 _atom_site_label
 _atom_site_symmetry_multiplicity
 _atom_site_fract_x
 _atom_site_fract_y
 _atom_site_fract_z
 _atom_site_occupancy
  Li  Li0  1  0.89467446  0.47871985  0.23997169  1
  Li  Li1  1  0.23997169  0.89467446  0.47871985  1
  Li  Li2  1  0.52128015  0.76002831  0.10532554  1
  Li  Li3  1  0.10532554  0.52128015  0.76002831  1
  Li  Li4  1  0.76002831  0.10532554  0.52128015  1
  Li  Li5  1  0.47871985  0.23997169  0.89467446  1
  Ca  Ca6  1  0.33740188  0.33740188  0.33740188  1
  Ca  Ca7  1  0.66259812  0.66259812  0.66259812  1
  Mn  Mn8  1  0.93496479  0.93496479  0.93496479  1
  Mn  Mn9  1  0.06503521  0.06503521  0.06503521  1
  N  N10  1  0.90824780  0.21597832  0.61681985  1
  N  N11  1  0.21597832  0.61681985  0.90824780  1
  N  N12  1  0.09175220  0.78402168  0.38318015  1
  N  N13  1  0.38318015  0.09175220  0.78402168  1
  N  N14  1  0.78402168  0.38318015  0.09175220  1
  N  N15  1  0.61681985  0.90824780  0.21597832  1
