# generated using pymatgen
data_CsErZnTe3
_symmetry_space_group_name_H-M   'P 1'
_cell_length_a   4.41677603
_cell_length_b   8.83665723
_cell_length_c   11.69019039
_cell_angle_alpha   90.00000000
_cell_angle_beta   90.00000000
_cell_angle_gamma   104.47231376
_symmetry_Int_Tables_number   1
_chemical_formula_structural   CsErZnTe3
_chemical_formula_sum   'Cs2 Er2 Zn2 Te6'
_cell_volume   441.78481143
_cell_formula_units_Z   2
loop_
 _symmetry_equiv_pos_site_id
 _symmetry_equiv_pos_as_xyz
  1  'x, y, z'
loop_
 _atom_site_type_symbol
 _atom_site_label
 _atom_site_symmetry_multiplicity
 _atom_site_fract_x
 _atom_site_fract_y
 _atom_site_fract_z
 _atom_site_occupancy
  Cs  Cs0  1  0.74547501  0.49095002  0.75000000  1
  Cs  Cs1  1  0.25452499  0.50904998  0.25000000  1
  Er  Er2  1  0.00000000  0.00000000  0.00000000  1
  Er  Er3  1  0.00000000  0.00000000  0.50000000  1
  Zn  Zn4  1  0.46045710  0.92091420  0.75000000  1
  Zn  Zn5  1  0.53954290  0.07908580  0.25000000  1
  Te  Te6  1  0.05792728  0.11585457  0.75000000  1
  Te  Te7  1  0.62022647  0.24045293  0.05569038  1
  Te  Te8  1  0.94207272  0.88414543  0.25000000  1
  Te  Te9  1  0.37977353  0.75954707  0.55569038  1
  Te  Te10  1  0.37977353  0.75954707  0.94430962  1
  Te  Te11  1  0.62022647  0.24045293  0.44430962  1
