# generated using pymatgen
data_Sr14MnBi11
_symmetry_space_group_name_H-M   'P 1'
_cell_length_a   17.42021565
_cell_length_b   17.42021634
_cell_length_c   17.42021620
_cell_angle_alpha   94.33263319
_cell_angle_beta   117.53088279
_cell_angle_gamma   117.53088365
_symmetry_Int_Tables_number   1
_chemical_formula_structural   Sr14MnBi11
_chemical_formula_sum   'Sr56 Mn4 Bi44'
_cell_volume   3865.60412778
_cell_formula_units_Z   4
loop_
 _symmetry_equiv_pos_site_id
 _symmetry_equiv_pos_as_xyz
  1  'x, y, z'
loop_
 _atom_site_type_symbol
 _atom_site_label
 _atom_site_symmetry_multiplicity
 _atom_site_fract_x
 _atom_site_fract_y
 _atom_site_fract_z
 _atom_site_occupancy
  Sr  Sr0  1  0.10191283  0.12526128  0.97894814  1
  Sr  Sr1  1  0.35471802  0.25000000  0.60471802  1
  Sr  Sr2  1  0.03149329  0.78550148  0.40111572  1
  Sr  Sr3  1  0.08741493  0.52221731  0.75084626  1
  Sr  Sr4  1  0.64528198  0.75000000  0.39528198  1
  Sr  Sr5  1  0.64528198  0.39528198  0.25000000  1
  Sr  Sr6  1  0.88438576  0.75400819  0.78550148  1
  Sr  Sr7  1  0.39808717  0.37703531  0.02334844  1
  Sr  Sr8  1  0.27137105  0.33656867  0.74915374  1
  Sr  Sr9  1  0.08741493  0.06519762  0.33656867  1
  Sr  Sr10  1  0.91258507  0.93480238  0.66343133  1
  Sr  Sr11  1  0.72862895  0.66343133  0.25084626  1
  Sr  Sr12  1  0.64631313  0.12296469  0.52105186  1
  Sr  Sr13  1  0.85368687  0.97894814  0.37703531  1
  Sr  Sr14  1  0.14528198  0.75000000  0.89528198  1
  Sr  Sr15  1  0.60191283  0.62296469  0.97665156  1
  Sr  Sr16  1  0.72862895  0.56519762  0.47778269  1
  Sr  Sr17  1  0.58741493  0.25084626  0.02221731  1
  Sr  Sr18  1  0.39808717  0.52105186  0.37473872  1
  Sr  Sr19  1  0.22862895  0.97778269  0.06519762  1
  Sr  Sr20  1  0.41258507  0.74915374  0.97778269  1
  Sr  Sr21  1  0.14631313  0.62526128  0.52334844  1
  Sr  Sr22  1  0.38438576  0.28550148  0.25400819  1
  Sr  Sr23  1  0.53149329  0.13037757  0.24599181  1
  Sr  Sr24  1  0.91258507  0.47778269  0.24915374  1
  Sr  Sr25  1  0.58741493  0.83656867  0.56519762  1
  Sr  Sr26  1  0.88438576  0.63037757  0.09888428  1
  Sr  Sr27  1  0.11561424  0.36962243  0.90111572  1
  Sr  Sr28  1  0.35368687  0.87703531  0.47894814  1
  Sr  Sr29  1  0.46850671  0.86962243  0.75400819  1
  Sr  Sr30  1  0.35368687  0.97665156  0.87473872  1
  Sr  Sr31  1  0.89808717  0.87473872  0.02105186  1
  Sr  Sr32  1  0.85368687  0.37473872  0.47665156  1
  Sr  Sr33  1  0.85471802  0.25000000  0.10471802  1
  Sr  Sr34  1  0.89808717  0.52334844  0.87703531  1
  Sr  Sr35  1  0.10191283  0.47665156  0.12296469  1
  Sr  Sr36  1  0.11561424  0.24599181  0.21449852  1
  Sr  Sr37  1  0.53149329  0.90111572  0.28550148  1
  Sr  Sr38  1  0.60191283  0.47894814  0.62526128  1
  Sr  Sr39  1  0.22862895  0.75084626  0.16343133  1
  Sr  Sr40  1  0.61561424  0.40111572  0.86962243  1
  Sr  Sr41  1  0.38438576  0.59888428  0.13037757  1
  Sr  Sr42  1  0.03149329  0.74599181  0.63037757  1
  Sr  Sr43  1  0.96850671  0.21449852  0.59888428  1
  Sr  Sr44  1  0.77137105  0.24915374  0.83656867  1
  Sr  Sr45  1  0.35471802  0.60471802  0.75000000  1
  Sr  Sr46  1  0.41258507  0.16343133  0.43480238  1
  Sr  Sr47  1  0.14631313  0.02105186  0.62296469  1
  Sr  Sr48  1  0.64631313  0.02334844  0.12526128  1
  Sr  Sr49  1  0.85471802  0.10471802  0.75000000  1
  Sr  Sr50  1  0.61561424  0.71449852  0.74599181  1
  Sr  Sr51  1  0.27137105  0.43480238  0.52221731  1
  Sr  Sr52  1  0.14528198  0.89528198  0.25000000  1
  Sr  Sr53  1  0.46850671  0.09888428  0.71449852  1
  Sr  Sr54  1  0.77137105  0.02221731  0.93480238  1
  Sr  Sr55  1  0.96850671  0.25400819  0.36962243  1
  Mn  Mn56  1  0.75000000  0.87500000  0.12500000  1
  Mn  Mn57  1  0.75000000  0.37500000  0.62500000  1
  Mn  Mn58  1  0.25000000  0.62500000  0.37500000  1
  Mn  Mn59  1  0.25000000  0.12500000  0.87500000  1
  Bi  Bi60  1  0.48061833  0.49030916  0.74030916  1
  Bi  Bi61  1  0.39543372  0.91611585  0.07388853  1
  Bi  Bi62  1  0.51938167  0.50969084  0.25969084  1
  Bi  Bi63  1  0.10456628  0.17845481  0.52068213  1
  Bi  Bi64  1  0.89543372  0.57388853  0.41611585  1
  Bi  Bi65  1  0.75000000  0.99030916  0.50969084  1
  Bi  Bi66  1  0.60456628  0.08388415  0.92611147  1
  Bi  Bi67  1  0.39543372  0.97931787  0.32154519  1
  Bi  Bi68  1  0.38248915  0.68168561  0.57305476  1
  Bi  Bi69  1  0.65777268  0.67845481  0.57388853  1
  Bi  Bi70  1  0.75000000  0.12500000  0.37500000  1
  Bi  Bi71  1  0.89543372  0.82154519  0.47931787  1
  Bi  Bi72  1  0.10863085  0.42694524  0.30943439  1
  Bi  Bi73  1  0.88248915  0.30943439  0.70080354  1
  Bi  Bi74  1  0.88248915  0.07305476  0.18168561  1
  Bi  Bi75  1  0.61751085  0.79919646  0.19056561  1
  Bi  Bi76  1  0.39136915  0.19056561  0.07305476  1
  Bi  Bi77  1  0.60863085  0.29919646  0.68168561  1
  Bi  Bi78  1  0.39136915  0.70080354  0.31831439  1
  Bi  Bi79  1  0.25000000  0.37500000  0.12500000  1
  Bi  Bi80  1  0.10863085  0.18168561  0.79919646  1
  Bi  Bi81  1  0.25000000  0.00969084  0.49030916  1
  Bi  Bi82  1  0.11751085  0.69056561  0.29919646  1
  Bi  Bi83  1  0.75000000  0.62500000  0.87500000  1
  Bi  Bi84  1  0.11751085  0.92694524  0.81831439  1
  Bi  Bi85  1  0.10456628  0.42611147  0.58388415  1
  Bi  Bi86  1  0.25000000  0.87500000  0.62500000  1
  Bi  Bi87  1  0.60456628  0.02068213  0.67845481  1
  Bi  Bi88  1  0.84222732  0.92611147  0.82154519  1
  Bi  Bi89  1  0.34222732  0.32154519  0.42611147  1
  Bi  Bi90  1  0.84222732  0.41611585  0.02068213  1
  Bi  Bi91  1  0.89136915  0.81831439  0.20080354  1
  Bi  Bi92  1  0.15777268  0.58388415  0.97931787  1
  Bi  Bi93  1  0.25000000  0.74030916  0.75969084  1
  Bi  Bi94  1  0.89136915  0.57305476  0.69056561  1
  Bi  Bi95  1  0.75000000  0.25969084  0.24030916  1
  Bi  Bi96  1  0.61751085  0.31831439  0.42694524  1
  Bi  Bi97  1  0.38248915  0.20080354  0.80943439  1
  Bi  Bi98  1  0.65777268  0.47931787  0.08388415  1
  Bi  Bi99  1  0.34222732  0.52068213  0.91611585  1
  Bi  Bi100  1  0.15777268  0.07388853  0.17845481  1
  Bi  Bi101  1  0.01938167  0.75969084  0.00969084  1
  Bi  Bi102  1  0.98061833  0.24030916  0.99030916  1
  Bi  Bi103  1  0.60863085  0.80943439  0.92694524  1
