# generated using pymatgen
data_Li3Co2O5
_symmetry_space_group_name_H-M   'P 1'
_cell_length_a   2.92182841
_cell_length_b   5.94769958
_cell_length_c   10.38399359
_cell_angle_alpha   82.61546542
_cell_angle_beta   81.91228272
_cell_angle_gamma   89.99999421
_symmetry_Int_Tables_number   1
_chemical_formula_structural   Li3Co2O5
_chemical_formula_sum   'Li6 Co4 O10'
_cell_volume   177.14797248
_cell_formula_units_Z   2
loop_
 _symmetry_equiv_pos_site_id
 _symmetry_equiv_pos_as_xyz
  1  'x, y, z'
loop_
 _atom_site_type_symbol
 _atom_site_label
 _atom_site_symmetry_multiplicity
 _atom_site_fract_x
 _atom_site_fract_y
 _atom_site_fract_z
 _atom_site_occupancy
  Li  Li0  1  0.80214010  0.90805394  0.39571980  1
  Li  Li1  1  0.59732223  0.29774528  0.80535555  1
  Li  Li2  1  0.40000000  0.70000000  0.20000000  1
  Li  Li3  1  0.20267777  0.10225472  0.59464445  1
  Li  Li4  1  0.99785990  0.49194606  0.00428020  1
  Li  Li5  1  0.40000000  0.20000000  0.20000000  1
  Co  Co6  1  0.99425975  0.00326905  0.01148051  1
  Co  Co7  1  0.80574025  0.39673095  0.38851949  1
  Co  Co8  1  0.59797769  0.79438790  0.80404462  1
  Co  Co9  1  0.20202231  0.60561210  0.59595538  1
  O  O10  1  0.70898796  0.36844737  0.58202408  1
  O  O11  1  0.50025937  0.76535553  0.99948125  1
  O  O12  1  0.30029373  0.17065803  0.39941254  1
  O  O13  1  0.10196907  0.55889337  0.79606186  1
  O  O14  1  0.90941422  0.95419716  0.18117157  1
  O  O15  1  0.89058578  0.44580284  0.21882843  1
  O  O16  1  0.69803093  0.84110663  0.60393814  1
  O  O17  1  0.49970627  0.22934197  0.00058746  1
  O  O18  1  0.29974063  0.63464447  0.40051875  1
  O  O19  1  0.09101204  0.03155263  0.81797592  1
