# generated using pymatgen
data_TiCdO3
_symmetry_space_group_name_H-M   'P 1'
_cell_length_a   5.36967809
_cell_length_b   5.48663885
_cell_length_c   7.71809525
_cell_angle_alpha   90.00000000
_cell_angle_beta   90.00000000
_cell_angle_gamma   90.00000000
_symmetry_Int_Tables_number   1
_chemical_formula_structural   TiCdO3
_chemical_formula_sum   'Ti4 Cd4 O12'
_cell_volume   227.38654296
_cell_formula_units_Z   4
loop_
 _symmetry_equiv_pos_site_id
 _symmetry_equiv_pos_as_xyz
  1  'x, y, z'
loop_
 _atom_site_type_symbol
 _atom_site_label
 _atom_site_symmetry_multiplicity
 _atom_site_fract_x
 _atom_site_fract_y
 _atom_site_fract_z
 _atom_site_occupancy
  O  O0  1  0.70111908  0.29623551  0.45330039  1
  O  O1  1  0.20111908  0.20376449  0.54669961  1
  O  O2  1  0.79888092  0.79623551  0.04669961  1
  O  O3  1  0.29888092  0.70376449  0.95330039  1
  O  O4  1  0.29888092  0.70376449  0.54669961  1
  O  O5  1  0.79888092  0.79623551  0.45330039  1
  O  O6  1  0.20111908  0.20376449  0.95330039  1
  O  O7  1  0.70111908  0.29623551  0.04669961  1
  O  O8  1  0.08943993  0.47195961  0.25000000  1
  O  O9  1  0.58943993  0.02804039  0.75000000  1
  O  O10  1  0.41056007  0.97195961  0.25000000  1
  O  O11  1  0.91056007  0.52804039  0.75000000  1
  Ti  Ti12  1  0.00000000  0.50000000  0.50000000  1
  Ti  Ti13  1  0.50000000  0.00000000  0.50000000  1
  Ti  Ti14  1  0.50000000  0.00000000  0.00000000  1
  Ti  Ti15  1  0.00000000  0.50000000  0.00000000  1
  Cd  Cd16  1  0.00862708  0.96104989  0.75000000  1
  Cd  Cd17  1  0.50862708  0.53895011  0.25000000  1
  Cd  Cd18  1  0.49137292  0.46104989  0.75000000  1
  Cd  Cd19  1  0.99137292  0.03895011  0.25000000  1
