# generated using pymatgen
data_K3InCl6
_symmetry_space_group_name_H-M   'P 1'
_cell_length_a   7.74913270
_cell_length_b   12.99737600
_cell_length_c   12.58925961
_cell_angle_alpha   108.91446470
_cell_angle_beta   90.00000000
_cell_angle_gamma   90.00000000
_symmetry_Int_Tables_number   1
_chemical_formula_structural   K3InCl6
_chemical_formula_sum   'K12 In4 Cl24'
_cell_volume   1199.50410339
_cell_formula_units_Z   4
loop_
 _symmetry_equiv_pos_site_id
 _symmetry_equiv_pos_as_xyz
  1  'x, y, z'
loop_
 _atom_site_type_symbol
 _atom_site_label
 _atom_site_symmetry_multiplicity
 _atom_site_fract_x
 _atom_site_fract_y
 _atom_site_fract_z
 _atom_site_occupancy
  K  K0  1  0.06767666  0.32095555  0.61148480  1
  K  K1  1  0.97760265  0.90018921  0.13844374  1
  K  K2  1  0.43820732  0.68422247  0.23632203  1
  K  K3  1  0.02239735  0.09981079  0.86155626  1
  K  K4  1  0.43232334  0.32095555  0.11148480  1
  K  K5  1  0.56179268  0.31577753  0.76367797  1
  K  K6  1  0.47760265  0.09981079  0.36155626  1
  K  K7  1  0.56767666  0.67904445  0.88851520  1
  K  K8  1  0.06179268  0.68422247  0.73632203  1
  K  K9  1  0.52239735  0.90018921  0.63844374  1
  K  K10  1  0.93232334  0.67904445  0.38851520  1
  K  K11  1  0.93820732  0.31577753  0.26367797  1
  In  In12  1  0.00000000  0.00000000  0.50000000  1
  In  In13  1  0.00000000  0.50000000  0.00000000  1
  In  In14  1  0.50000000  0.50000000  0.50000000  1
  In  In15  1  0.50000000  0.00000000  0.00000000  1
  Cl  Cl16  1  0.29492116  0.65052550  0.49601616  1
  Cl  Cl17  1  0.98948386  0.11482507  0.37326828  1
  Cl  Cl18  1  0.71873228  0.89853159  0.40889700  1
  Cl  Cl19  1  0.13634550  0.50036274  0.18774662  1
  Cl  Cl20  1  0.29008967  0.34795954  0.39485932  1
  Cl  Cl21  1  0.79008967  0.65204046  0.10514068  1
  Cl  Cl22  1  0.82228565  0.13687218  0.65068550  1
  Cl  Cl23  1  0.01051614  0.88517493  0.62673172  1
  Cl  Cl24  1  0.79492116  0.34947450  0.00398384  1
  Cl  Cl25  1  0.17771435  0.86312782  0.34931450  1
  Cl  Cl26  1  0.86365450  0.49963726  0.81225338  1
  Cl  Cl27  1  0.36365450  0.50036274  0.68774662  1
  Cl  Cl28  1  0.51051614  0.11482507  0.87326828  1
  Cl  Cl29  1  0.48948386  0.88517493  0.12673172  1
  Cl  Cl30  1  0.32228565  0.86312782  0.84931450  1
  Cl  Cl31  1  0.78126772  0.89853159  0.90889700  1
  Cl  Cl32  1  0.20507884  0.65052550  0.99601616  1
  Cl  Cl33  1  0.20991033  0.34795954  0.89485932  1
  Cl  Cl34  1  0.28126772  0.10146841  0.59110300  1
  Cl  Cl35  1  0.70507884  0.34947450  0.50398384  1
  Cl  Cl36  1  0.67771435  0.13687218  0.15068550  1
  Cl  Cl37  1  0.21873228  0.10146841  0.09110300  1
  Cl  Cl38  1  0.63634550  0.49963726  0.31225338  1
  Cl  Cl39  1  0.70991033  0.65204046  0.60514068  1
