# generated using pymatgen
data_Li3MnCoO5
_symmetry_space_group_name_H-M   'P 1'
_cell_length_a   2.94857375
_cell_length_b   9.90100705
_cell_length_c   6.56018452
_cell_angle_alpha   99.87043643
_cell_angle_beta   77.01284036
_cell_angle_gamma   90.00000337
_symmetry_Int_Tables_number   1
_chemical_formula_structural   Li3MnCoO5
_chemical_formula_sum   'Li6 Mn2 Co2 O10'
_cell_volume   183.70768640
_cell_formula_units_Z   2
loop_
 _symmetry_equiv_pos_site_id
 _symmetry_equiv_pos_as_xyz
  1  'x, y, z'
loop_
 _atom_site_type_symbol
 _atom_site_label
 _atom_site_symmetry_multiplicity
 _atom_site_fract_x
 _atom_site_fract_y
 _atom_site_fract_z
 _atom_site_occupancy
  Li  Li0  1  0.30000000  0.10000000  0.40000000  1
  Li  Li1  1  0.89482127  0.31857463  0.21035746  1
  Li  Li2  1  0.70517873  0.88142537  0.58964254  1
  Li  Li3  1  0.10903574  0.68234192  0.78192853  1
  Li  Li4  1  0.49096426  0.51765808  0.01807147  1
  Li  Li5  1  0.80000000  0.60000000  0.40000000  1
  Mn  Mn6  1  0.99881897  0.99731615  0.00236206  1
  Mn  Mn7  1  0.60118103  0.20268385  0.79763794  1
  Co  Co8  1  0.20967029  0.41541814  0.58065942  1
  Co  Co9  1  0.39032971  0.78458186  0.21934058  1
  O  O10  1  0.46205225  0.13341924  0.07589551  1
  O  O11  1  0.05641343  0.32499187  0.88717314  1
  O  O12  1  0.86380982  0.95097700  0.27238036  1
  O  O13  1  0.25488396  0.75814907  0.49023208  1
  O  O14  1  0.65019843  0.53634052  0.69960314  1
  O  O15  1  0.13794775  0.06658076  0.72410449  1
  O  O16  1  0.73619018  0.24902300  0.52761964  1
  O  O17  1  0.54358657  0.87500813  0.91282686  1
  O  O18  1  0.94980157  0.66365948  0.10039686  1
  O  O19  1  0.34511604  0.44185093  0.30976792  1
