# generated using pymatgen
data_Lu11Te4
_symmetry_space_group_name_H-M   'P 1'
_cell_length_a   3.94650576
_cell_length_b   15.44275943
_cell_length_c   21.27051979
_cell_angle_alpha   102.69055102
_cell_angle_beta   90.00000000
_cell_angle_gamma   97.34124003
_symmetry_Int_Tables_number   1
_chemical_formula_structural   Lu11Te4
_chemical_formula_sum   'Lu33 Te12'
_cell_volume   1253.76744506
_cell_formula_units_Z   3
loop_
 _symmetry_equiv_pos_site_id
 _symmetry_equiv_pos_as_xyz
  1  'x, y, z'
loop_
 _atom_site_type_symbol
 _atom_site_label
 _atom_site_symmetry_multiplicity
 _atom_site_fract_x
 _atom_site_fract_y
 _atom_site_fract_z
 _atom_site_occupancy
  Lu  Lu0  1  0.25497016  0.50994032  0.07299492  1
  Lu  Lu1  1  0.96797976  0.93595952  0.16531230  1
  Lu  Lu2  1  0.03202024  0.06404048  0.83468770  1
  Lu  Lu3  1  0.82787618  0.65575235  0.43492142  1
  Lu  Lu4  1  0.42580226  0.85160452  0.03785216  1
  Lu  Lu5  1  0.28569089  0.57138178  0.54394770  1
  Lu  Lu6  1  0.60618997  0.21237994  0.77895731  1
  Lu  Lu7  1  0.24257266  0.48514532  0.34568718  1
  Lu  Lu8  1  0.43857793  0.87715586  0.41370793  1
  Lu  Lu9  1  0.46396203  0.92792406  0.69207747  1
  Lu  Lu10  1  0.57419774  0.14839548  0.96214784  1
  Lu  Lu11  1  0.12689965  0.25379930  0.09220055  1
  Lu  Lu12  1  0.86928872  0.73857744  0.63091951  1
  Lu  Lu13  1  0.39381003  0.78762006  0.22104269  1
  Lu  Lu14  1  0.87310035  0.74620070  0.90779945  1
  Lu  Lu15  1  0.17212382  0.34424765  0.56507858  1
  Lu  Lu16  1  0.56142207  0.12284414  0.58629207  1
  Lu  Lu17  1  0.74502984  0.49005968  0.92700508  1
  Lu  Lu18  1  0.03187562  0.06375124  0.44490102  1
  Lu  Lu19  1  0.79610748  0.59221495  0.21886998  1
  Lu  Lu20  1  0.71430911  0.42861822  0.45605230  1
  Lu  Lu21  1  0.13071128  0.26142256  0.36908049  1
  Lu  Lu22  1  0.00000000  0.00000000  0.00000000  1
  Lu  Lu23  1  0.20389252  0.40778505  0.78113002  1
  Lu  Lu24  1  0.53603797  0.07207594  0.30792253  1
  Lu  Lu25  1  0.34086999  0.68173998  0.74511740  1
  Lu  Lu26  1  0.65913001  0.31826002  0.25488260  1
  Lu  Lu27  1  0.45651227  0.91302455  0.88221868  1
  Lu  Lu28  1  0.84911904  0.69823809  0.09602935  1
  Lu  Lu29  1  0.15088096  0.30176191  0.90397065  1
  Lu  Lu30  1  0.54348773  0.08697545  0.11778132  1
  Lu  Lu31  1  0.96812438  0.93624876  0.55509898  1
  Lu  Lu32  1  0.75742734  0.51485468  0.65431282  1
  Te  Te33  1  0.21595775  0.43191549  0.19437793  1
  Te  Te34  1  0.04189697  0.08379395  0.68923186  1
  Te  Te35  1  0.38736510  0.77473020  0.52744044  1
  Te  Te36  1  0.78404225  0.56808451  0.80562207  1
  Te  Te37  1  0.92001439  0.84002877  0.77461039  1
  Te  Te38  1  0.61263490  0.22526980  0.47255956  1
  Te  Te39  1  0.95810303  0.91620605  0.31076814  1
  Te  Te40  1  0.34180698  0.68361396  0.32828795  1
  Te  Te41  1  0.07998561  0.15997123  0.22538961  1
  Te  Te42  1  0.32177536  0.64355071  0.97998032  1
  Te  Te43  1  0.67822464  0.35644929  0.02001968  1
  Te  Te44  1  0.65819302  0.31638604  0.67171205  1
