# generated using pymatgen
data_UP2
_symmetry_space_group_name_H-M   'P 1'
_cell_length_a   5.36787781
_cell_length_b   5.36787781
_cell_length_c   8.60555661
_cell_angle_alpha   108.17282155
_cell_angle_beta   108.17282155
_cell_angle_gamma   90.00000000
_symmetry_Int_Tables_number   1
_chemical_formula_structural   UP2
_chemical_formula_sum   'U4 P8'
_cell_volume   222.53853832
_cell_formula_units_Z   4
loop_
 _symmetry_equiv_pos_site_id
 _symmetry_equiv_pos_as_xyz
  1  'x, y, z'
loop_
 _atom_site_type_symbol
 _atom_site_label
 _atom_site_symmetry_multiplicity
 _atom_site_fract_x
 _atom_site_fract_y
 _atom_site_fract_z
 _atom_site_occupancy
  U  U0  1  0.99603780  0.99603780  0.99207461  1
  U  U1  1  0.50854074  0.50854074  0.01707948  1
  U  U2  1  0.71891768  0.21891668  0.43783337  1
  U  U3  1  0.21891668  0.71891768  0.43783337  1
  P  P4  1  0.53816770  0.03816670  0.07633340  1
  P  P5  1  0.03816670  0.53816770  0.07633340  1
  P  P6  1  0.17754021  0.17754021  0.35508042  1
  P  P7  1  0.68617445  0.68617445  0.37234691  1
  P  P8  1  0.13411728  0.13411728  0.72122101  1
  P  P9  1  0.58710374  0.13411728  0.72122101  1
  P  P10  1  0.13411728  0.58710374  0.72122101  1
  P  P11  1  0.58710374  0.58710374  0.72122101  1
