# generated using pymatgen
data_TlCuPSe3
_symmetry_space_group_name_H-M   'P 1'
_cell_length_a   7.66687371
_cell_length_b   8.68544264
_cell_length_c   9.43891940
_cell_angle_alpha   90.00000000
_cell_angle_beta   90.00000000
_cell_angle_gamma   91.15858108
_symmetry_Int_Tables_number   1
_chemical_formula_structural   TlCuPSe3
_chemical_formula_sum   'Tl4 Cu4 P4 Se12'
_cell_volume   628.41095610
_cell_formula_units_Z   4
loop_
 _symmetry_equiv_pos_site_id
 _symmetry_equiv_pos_as_xyz
  1  'x, y, z'
loop_
 _atom_site_type_symbol
 _atom_site_label
 _atom_site_symmetry_multiplicity
 _atom_site_fract_x
 _atom_site_fract_y
 _atom_site_fract_z
 _atom_site_occupancy
  Tl  Tl0  1  0.45287688  0.74359355  0.02529808  1
  Tl  Tl1  1  0.54712312  0.25640645  0.97470192  1
  Tl  Tl2  1  0.95287688  0.24359355  0.47470192  1
  Tl  Tl3  1  0.04712312  0.75640645  0.52529808  1
  Cu  Cu4  1  0.81994186  0.73254191  0.83400364  1
  Cu  Cu5  1  0.31994186  0.23254191  0.66599636  1
  Cu  Cu6  1  0.68005814  0.76745809  0.33400364  1
  Cu  Cu7  1  0.18005814  0.26745809  0.16599636  1
  P  P8  1  0.99959410  0.06988986  0.89862059  1
  P  P9  1  0.00040590  0.93011014  0.10137941  1
  P  P10  1  0.49959410  0.56988986  0.60137941  1
  P  P11  1  0.50040590  0.43011014  0.39862059  1
  Se  Se12  1  0.76391144  0.99235790  0.77592518  1
  Se  Se13  1  0.98813623  0.31061134  0.97308886  1
  Se  Se14  1  0.51186377  0.18938866  0.47308886  1
  Se  Se15  1  0.25802950  0.49737690  0.28148013  1
  Se  Se16  1  0.24197050  0.00262310  0.78148013  1
  Se  Se17  1  0.01186377  0.68938866  0.02691114  1
  Se  Se18  1  0.23608856  0.00764210  0.22407482  1
  Se  Se19  1  0.73608856  0.50764210  0.27592518  1
  Se  Se20  1  0.74197050  0.50262310  0.71851987  1
  Se  Se21  1  0.75802950  0.99737690  0.21851987  1
  Se  Se22  1  0.26391144  0.49235790  0.72407482  1
  Se  Se23  1  0.48813623  0.81061134  0.52691114  1
