# generated using pymatgen
data_Cs4P2Se9
_symmetry_space_group_name_H-M   'P 1'
_cell_length_a   7.55844742
_cell_length_b   7.55844767
_cell_length_c   20.12257598
_cell_angle_alpha   92.65991426
_cell_angle_beta   92.65991437
_cell_angle_gamma   92.78555988
_symmetry_Int_Tables_number   1
_chemical_formula_structural   Cs4P2Se9
_chemical_formula_sum   'Cs8 P4 Se18'
_cell_volume   1145.64480715
_cell_formula_units_Z   2
loop_
 _symmetry_equiv_pos_site_id
 _symmetry_equiv_pos_as_xyz
  1  'x, y, z'
loop_
 _atom_site_type_symbol
 _atom_site_label
 _atom_site_symmetry_multiplicity
 _atom_site_fract_x
 _atom_site_fract_y
 _atom_site_fract_z
 _atom_site_occupancy
  Cs  Cs0  1  0.78412693  0.28307118  0.47469310  1
  Cs  Cs1  1  0.21587307  0.71692882  0.52530690  1
  Cs  Cs2  1  0.71692882  0.21587307  0.02530690  1
  Cs  Cs3  1  0.24326728  0.43690844  0.17442569  1
  Cs  Cs4  1  0.56309156  0.75673272  0.32557431  1
  Cs  Cs5  1  0.43690844  0.24326728  0.67442569  1
  Cs  Cs6  1  0.28307118  0.78412693  0.97469310  1
  Cs  Cs7  1  0.75673272  0.56309156  0.82557431  1
  P  P8  1  0.25304737  0.26790253  0.37677096  1
  P  P9  1  0.73209747  0.74695263  0.12322904  1
  P  P10  1  0.26790253  0.25304737  0.87677096  1
  P  P11  1  0.74695263  0.73209747  0.62322904  1
  Se  Se12  1  0.49412952  0.88808254  0.14458006  1
  Se  Se13  1  0.50587048  0.11191746  0.85541994  1
  Se  Se14  1  0.24828893  0.49169984  0.82036094  1
  Se  Se15  1  0.88808254  0.49412952  0.64458006  1
  Se  Se16  1  0.49169984  0.24828893  0.32036094  1
  Se  Se17  1  0.11191746  0.50587048  0.35541994  1
  Se  Se18  1  0.50830016  0.75171107  0.67963906  1
  Se  Se19  1  0.93986435  0.98466785  0.65057588  1
  Se  Se20  1  0.79123143  0.71840391  0.01680424  1
  Se  Se21  1  0.06013565  0.01533215  0.34942412  1
  Se  Se22  1  0.28159609  0.20876857  0.48319576  1
  Se  Se23  1  0.01533215  0.06013565  0.84942412  1
  Se  Se24  1  0.75171107  0.50830016  0.17963906  1
  Se  Se25  1  0.20876857  0.28159609  0.98319576  1
  Se  Se26  1  0.98466785  0.93986435  0.15057588  1
  Se  Se27  1  0.90602605  0.09397395  0.25000000  1
  Se  Se28  1  0.71840391  0.79123143  0.51680424  1
  Se  Se29  1  0.09397395  0.90602605  0.75000000  1
