# generated using pymatgen
data_Cs3BiCl6
_symmetry_space_group_name_H-M   'P 1'
_cell_length_a   8.40013632
_cell_length_b   13.43931224
_cell_length_c   14.38436711
_cell_angle_alpha   99.17195950
_cell_angle_beta   106.97703580
_cell_angle_gamma   89.99999929
_symmetry_Int_Tables_number   1
_chemical_formula_structural   Cs3BiCl6
_chemical_formula_sum   'Cs12 Bi4 Cl24'
_cell_volume   1531.39363615
_cell_formula_units_Z   4
loop_
 _symmetry_equiv_pos_site_id
 _symmetry_equiv_pos_as_xyz
  1  'x, y, z'
loop_
 _atom_site_type_symbol
 _atom_site_label
 _atom_site_symmetry_multiplicity
 _atom_site_fract_x
 _atom_site_fract_y
 _atom_site_fract_z
 _atom_site_occupancy
  Cs  Cs0  1  0.65233345  0.70085277  0.67720625  1
  Cs  Cs1  1  0.69605134  0.06777828  0.90070539  1
  Cs  Cs2  1  0.84033813  0.14511647  0.30825334  1
  Cs  Cs3  1  0.34766655  0.29914723  0.32279375  1
  Cs  Cs4  1  0.46791521  0.64511647  0.30825334  1
  Cs  Cs5  1  0.20465405  0.56777828  0.90070539  1
  Cs  Cs6  1  0.02487281  0.20085277  0.67720625  1
  Cs  Cs7  1  0.53208479  0.35488353  0.69174666  1
  Cs  Cs8  1  0.15966187  0.85488353  0.69174666  1
  Cs  Cs9  1  0.79534595  0.43222172  0.09929461  1
  Cs  Cs10  1  0.97512719  0.79914723  0.32279375  1
  Cs  Cs11  1  0.30394866  0.93222172  0.09929461  1
  Bi  Bi12  1  0.21636300  0.25000000  0.00000000  1
  Bi  Bi13  1  0.00000000  0.50000000  0.50000000  1
  Bi  Bi14  1  0.78363700  0.75000000  0.00000000  1
  Bi  Bi15  1  0.50000000  0.00000000  0.50000000  1
  Cl  Cl16  1  0.27239795  0.58076173  0.65350871  1
  Cl  Cl17  1  0.36166092  0.81451728  0.50082718  1
  Cl  Cl18  1  0.13916625  0.31451728  0.50082718  1
  Cl  Cl19  1  0.28264298  0.43509352  0.11549223  1
  Cl  Cl20  1  0.61196469  0.68084111  0.11429038  1
  Cl  Cl21  1  0.50232569  0.18084111  0.11429038  1
  Cl  Cl22  1  0.13185829  0.53467046  0.35436928  1
  Cl  Cl23  1  0.61888924  0.91923827  0.34649129  1
  Cl  Cl24  1  0.38111076  0.08076173  0.65350871  1
  Cl  Cl25  1  0.63833908  0.18548272  0.49917282  1
  Cl  Cl26  1  0.03180930  0.19369015  0.11473343  1
  Cl  Cl27  1  0.96819070  0.80630985  0.88526657  1
  Cl  Cl28  1  0.22251098  0.03467046  0.35436928  1
  Cl  Cl29  1  0.83284925  0.93509352  0.11549223  1
  Cl  Cl30  1  0.08292413  0.69369015  0.11473343  1
  Cl  Cl31  1  0.86814171  0.46532954  0.64563072  1
  Cl  Cl32  1  0.71735702  0.56490648  0.88450777  1
  Cl  Cl33  1  0.86083375  0.68548272  0.49917282  1
  Cl  Cl34  1  0.91707587  0.30630985  0.88526657  1
  Cl  Cl35  1  0.49767431  0.81915889  0.88570962  1
  Cl  Cl36  1  0.72760205  0.41923827  0.34649129  1
  Cl  Cl37  1  0.77748902  0.96532954  0.64563072  1
  Cl  Cl38  1  0.16715075  0.06490648  0.88450777  1
  Cl  Cl39  1  0.38803531  0.31915889  0.88570962  1
