# generated using pymatgen
data_Li7Co5O12
_symmetry_space_group_name_H-M   'P 1'
_cell_length_a   2.89956661
_cell_length_b   5.11467177
_cell_length_c   14.72360017
_cell_angle_alpha   100.25121304
_cell_angle_beta   85.44541145
_cell_angle_gamma   92.00393355
_symmetry_Int_Tables_number   1
_chemical_formula_structural   Li7Co5O12
_chemical_formula_sum   'Li7 Co5 O12'
_cell_volume   214.14338291
_cell_formula_units_Z   1
loop_
 _symmetry_equiv_pos_site_id
 _symmetry_equiv_pos_as_xyz
  1  'x, y, z'
loop_
 _atom_site_type_symbol
 _atom_site_label
 _atom_site_symmetry_multiplicity
 _atom_site_fract_x
 _atom_site_fract_y
 _atom_site_fract_z
 _atom_site_occupancy
  Li  Li0  1  0.91550772  0.42360624  0.16282743  1
  Li  Li1  1  0.24902858  0.75161723  0.49994869  1
  Li  Li2  1  0.57616017  0.08138671  0.83919013  1
  Li  Li3  1  0.42383983  0.91861329  0.16080987  1
  Li  Li4  1  0.75097142  0.24838277  0.50005131  1
  Li  Li5  1  0.08449228  0.57639376  0.83717257  1
  Li  Li6  1  0.50000000  0.50000000  0.00000000  1
  Co  Co7  1  0.00000000  0.00000000  0.00000000  1
  Co  Co8  1  0.83378987  0.83347826  0.33128139  1
  Co  Co9  1  0.33440406  0.33389907  0.33219836  1
  Co  Co10  1  0.66559594  0.66610093  0.66780164  1
  Co  Co11  1  0.16621013  0.16652174  0.66871861  1
  O  O12  1  0.47947777  0.18538930  0.07264741  1
  O  O13  1  0.77795094  0.53357612  0.40937828  1
  O  O14  1  0.11092412  0.86235415  0.74425383  1
  O  O15  1  0.96115439  0.74895072  0.07216491  1
  O  O16  1  0.28043200  0.02911888  0.40870461  1
  O  O17  1  0.61007632  0.36430267  0.74673613  1
  O  O18  1  0.38992368  0.63569733  0.25326387  1
  O  O19  1  0.71956800  0.97088112  0.59129539  1
  O  O20  1  0.03884561  0.25104928  0.92783509  1
  O  O21  1  0.88907588  0.13764585  0.25574617  1
  O  O22  1  0.22204906  0.46642388  0.59062172  1
  O  O23  1  0.52052223  0.81461070  0.92735259  1
