# generated using pymatgen
data_Yb7Au3
_symmetry_space_group_name_H-M   'P 1'
_cell_length_a   6.49259021
_cell_length_b   10.34290948
_cell_length_c   10.34290948
_cell_angle_alpha   119.98529329
_cell_angle_beta   90.00000000
_cell_angle_gamma   90.00000000
_symmetry_Int_Tables_number   1
_chemical_formula_structural   Yb7Au3
_chemical_formula_sum   'Yb14 Au6'
_cell_volume   601.58695865
_cell_formula_units_Z   2
loop_
 _symmetry_equiv_pos_site_id
 _symmetry_equiv_pos_as_xyz
  1  'x, y, z'
loop_
 _atom_site_type_symbol
 _atom_site_label
 _atom_site_symmetry_multiplicity
 _atom_site_fract_x
 _atom_site_fract_y
 _atom_site_fract_z
 _atom_site_occupancy
  Yb  Yb0  1  0.71972793  0.33331026  0.66668974  1
  Yb  Yb1  1  0.21972793  0.66668974  0.33331026  1
  Yb  Yb2  1  0.50092095  0.12639208  0.87360792  1
  Yb  Yb3  1  0.50087532  0.74722408  0.87361519  1
  Yb  Yb4  1  0.50087532  0.12638481  0.25277592  1
  Yb  Yb5  1  0.00092095  0.87360792  0.12639208  1
  Yb  Yb6  1  0.00087532  0.25277592  0.12638481  1
  Yb  Yb7  1  0.00087532  0.87361519  0.74722408  1
  Yb  Yb8  1  0.70551126  0.54024827  0.45975173  1
  Yb  Yb9  1  0.70563167  0.91947310  0.45972834  1
  Yb  Yb10  1  0.70563167  0.54027166  0.08052690  1
  Yb  Yb11  1  0.20551126  0.45975173  0.54024827  1
  Yb  Yb12  1  0.20563167  0.08052690  0.54027166  1
  Yb  Yb13  1  0.20563167  0.45972834  0.91947310  1
  Au  Au14  1  0.43968500  0.81170535  0.18829465  1
  Au  Au15  1  0.43957043  0.37657078  0.18829627  1
  Au  Au16  1  0.43957043  0.81170373  0.62342922  1
  Au  Au17  1  0.93968500  0.18829465  0.81170535  1
  Au  Au18  1  0.93957043  0.62342922  0.81170373  1
  Au  Au19  1  0.93957043  0.18829627  0.37657078  1
