# generated using pymatgen
data_Ba11(CdSb2)6
_symmetry_space_group_name_H-M   'P 1'
_cell_length_a   4.97348308
_cell_length_b   13.42215891
_cell_length_c   17.52854767
_cell_angle_alpha   109.55964007
_cell_angle_beta   98.15595896
_cell_angle_gamma   89.99999766
_symmetry_Int_Tables_number   1
_chemical_formula_structural   Ba11(CdSb2)6
_chemical_formula_sum   'Ba11 Cd6 Sb12'
_cell_volume   1090.02486757
_cell_formula_units_Z   1
loop_
 _symmetry_equiv_pos_site_id
 _symmetry_equiv_pos_as_xyz
  1  'x, y, z'
loop_
 _atom_site_type_symbol
 _atom_site_label
 _atom_site_symmetry_multiplicity
 _atom_site_fract_x
 _atom_site_fract_y
 _atom_site_fract_z
 _atom_site_occupancy
  Ba  Ba0  1  0.88676649  0.49046084  0.77353299  1
  Ba  Ba1  1  0.87393048  0.98061363  0.74786096  1
  Ba  Ba2  1  0.98206750  0.32085062  0.96413500  1
  Ba  Ba3  1  0.71938012  0.86521582  0.43876024  1
  Ba  Ba4  1  0.80060476  0.65341850  0.60120953  1
  Ba  Ba5  1  0.19939524  0.34658150  0.39879047  1
  Ba  Ba6  1  0.00000000  0.00000000  0.00000000  1
  Ba  Ba7  1  0.11323351  0.50953916  0.22646701  1
  Ba  Ba8  1  0.12606952  0.01938637  0.25213904  1
  Ba  Ba9  1  0.01793250  0.67914938  0.03586500  1
  Ba  Ba10  1  0.28061988  0.13478418  0.56123976  1
  Cd  Cd11  1  0.59945999  0.74597600  0.19891999  1
  Cd  Cd12  1  0.21838922  0.67134413  0.43677844  1
  Cd  Cd13  1  0.45397643  0.75970843  0.90795286  1
  Cd  Cd14  1  0.78161078  0.32865587  0.56322156  1
  Cd  Cd15  1  0.54602357  0.24029157  0.09204714  1
  Cd  Cd16  1  0.40054001  0.25402400  0.80108001  1
  Sb  Sb17  1  0.54648938  0.87978354  0.09297877  1
  Sb  Sb18  1  0.69270829  0.54411941  0.38541658  1
  Sb  Sb19  1  0.30729171  0.45588059  0.61458342  1
  Sb  Sb20  1  0.08651252  0.23571468  0.17302504  1
  Sb  Sb21  1  0.85300077  0.21723464  0.70600154  1
  Sb  Sb22  1  0.45351062  0.12021646  0.90702123  1
  Sb  Sb23  1  0.29337973  0.85675230  0.58675946  1
  Sb  Sb24  1  0.54197579  0.50632601  0.08395158  1
  Sb  Sb25  1  0.45802421  0.49367399  0.91604842  1
  Sb  Sb26  1  0.14699923  0.78276536  0.29399846  1
  Sb  Sb27  1  0.91348748  0.76428532  0.82697496  1
  Sb  Sb28  1  0.70662027  0.14324770  0.41324054  1
