# generated using pymatgen
data_Yb(AlCl4)2
_symmetry_space_group_name_H-M   'P 1'
_cell_length_a   11.56082283
_cell_length_b   11.56082326
_cell_length_c   12.85057074
_cell_angle_alpha   116.73197290
_cell_angle_beta   116.73197391
_cell_angle_gamma   90.00000146
_symmetry_Int_Tables_number   1
_chemical_formula_structural   Yb(AlCl4)2
_chemical_formula_sum   'Yb4 Al8 Cl32'
_cell_volume   1325.19032023
_cell_formula_units_Z   4
loop_
 _symmetry_equiv_pos_site_id
 _symmetry_equiv_pos_as_xyz
  1  'x, y, z'
loop_
 _atom_site_type_symbol
 _atom_site_label
 _atom_site_symmetry_multiplicity
 _atom_site_fract_x
 _atom_site_fract_y
 _atom_site_fract_z
 _atom_site_occupancy
  Yb  Yb0  1  0.62500000  0.37500000  0.25000000  1
  Yb  Yb1  1  0.37500000  0.62500000  0.75000000  1
  Yb  Yb2  1  0.87500000  0.12500000  0.75000000  1
  Yb  Yb3  1  0.12500000  0.87500000  0.25000000  1
  Al  Al4  1  0.72463535  0.75000000  0.50000000  1
  Al  Al5  1  0.27536465  0.25000000  0.50000000  1
  Al  Al6  1  0.25000000  0.22463535  0.00000000  1
  Al  Al7  1  0.77536465  0.25000000  0.50000000  1
  Al  Al8  1  0.75000000  0.27536465  1.00000000  1
  Al  Al9  1  0.22463535  0.75000000  0.50000000  1
  Al  Al10  1  0.25000000  0.72463535  0.00000000  1
  Al  Al11  1  0.75000000  0.77536465  1.00000000  1
  Cl  Cl12  1  0.40433438  0.12265521  0.99401801  1
  Cl  Cl13  1  0.80843809  0.25666544  0.17656809  1
  Cl  Cl14  1  0.62265521  0.90433438  0.49401801  1
  Cl  Cl15  1  0.08968362  0.62265521  0.99401801  1
  Cl  Cl16  1  0.30843809  0.91990265  0.17656809  1
  Cl  Cl17  1  0.86813001  0.75666544  0.17656809  1
  Cl  Cl18  1  0.25666544  0.36813001  0.67656809  1
  Cl  Cl19  1  0.08009735  0.13186999  0.32343191  1
  Cl  Cl20  1  0.59566562  0.87734479  0.00598199  1
  Cl  Cl21  1  0.58968362  0.37136279  0.99401801  1
  Cl  Cl22  1  0.37136279  0.40433438  0.49401801  1
  Cl  Cl23  1  0.13186999  0.24333456  0.82343191  1
  Cl  Cl24  1  0.63186999  0.58009735  0.82343191  1
  Cl  Cl25  1  0.37734479  0.09566562  0.50598199  1
  Cl  Cl26  1  0.12863721  0.91031638  0.50598199  1
  Cl  Cl27  1  0.36813001  0.41990265  0.17656809  1
  Cl  Cl28  1  0.12265521  0.58968362  0.49401801  1
  Cl  Cl29  1  0.75666544  0.30843809  0.67656809  1
  Cl  Cl30  1  0.91990265  0.86813001  0.67656809  1
  Cl  Cl31  1  0.58009735  0.19156191  0.32343191  1
  Cl  Cl32  1  0.41990265  0.80843809  0.67656809  1
  Cl  Cl33  1  0.19156191  0.74333456  0.82343191  1
  Cl  Cl34  1  0.90433438  0.87136279  0.99401801  1
  Cl  Cl35  1  0.74333456  0.63186999  0.32343191  1
  Cl  Cl36  1  0.62863721  0.59566562  0.50598199  1
  Cl  Cl37  1  0.09566562  0.12863721  0.00598199  1
  Cl  Cl38  1  0.87734479  0.41031638  0.50598199  1
  Cl  Cl39  1  0.24333456  0.69156191  0.32343191  1
  Cl  Cl40  1  0.87136279  0.08968362  0.49401801  1
  Cl  Cl41  1  0.91031638  0.37734479  0.00598199  1
  Cl  Cl42  1  0.41031638  0.62863721  0.00598199  1
  Cl  Cl43  1  0.69156191  0.08009735  0.82343191  1
