# generated using pymatgen
data_La(AsRu)2
_symmetry_space_group_name_H-M   'P 1'
_cell_length_a   4.22938997
_cell_length_b   4.22938905
_cell_length_c   6.10483942
_cell_angle_alpha   110.26706440
_cell_angle_beta   110.26706007
_cell_angle_gamma   89.99999993
_symmetry_Int_Tables_number   1
_chemical_formula_structural   La(AsRu)2
_chemical_formula_sum   'La1 As2 Ru2'
_cell_volume   95.20107373
_cell_formula_units_Z   1
loop_
 _symmetry_equiv_pos_site_id
 _symmetry_equiv_pos_as_xyz
  1  'x, y, z'
loop_
 _atom_site_type_symbol
 _atom_site_label
 _atom_site_symmetry_multiplicity
 _atom_site_fract_x
 _atom_site_fract_y
 _atom_site_fract_z
 _atom_site_occupancy
  La  La0  1  0.00000000  0.00000000  0.00000000  1
  As  As1  1  0.36642268  0.36642268  0.73284537  1
  As  As2  1  0.63357732  0.63357732  0.26715463  1
  Ru  Ru3  1  0.25000000  0.75000000  0.50000000  1
  Ru  Ru4  1  0.75000000  0.25000000  0.50000000  1
