# generated using pymatgen
data_SnHg7(P2Br3)2
_symmetry_space_group_name_H-M   'P 1'
_cell_length_a   12.80616617
_cell_length_b   12.80616617
_cell_length_c   12.80616617
_cell_angle_alpha   90.00000000
_cell_angle_beta   90.00000000
_cell_angle_gamma   90.00000000
_symmetry_Int_Tables_number   1
_chemical_formula_structural   SnHg7(P2Br3)2
_chemical_formula_sum   'Sn4 Hg28 P16 Br24'
_cell_volume   2100.18425614
_cell_formula_units_Z   4
loop_
 _symmetry_equiv_pos_site_id
 _symmetry_equiv_pos_as_xyz
  1  'x, y, z'
loop_
 _atom_site_type_symbol
 _atom_site_label
 _atom_site_symmetry_multiplicity
 _atom_site_fract_x
 _atom_site_fract_y
 _atom_site_fract_z
 _atom_site_occupancy
  Sn  Sn0  1  0.74002456  0.75997544  0.24002456  1
  Sn  Sn1  1  0.25997544  0.25997544  0.25997544  1
  Sn  Sn2  1  0.75997544  0.24002456  0.74002456  1
  Sn  Sn3  1  0.24002456  0.74002456  0.75997544  1
  Hg  Hg4  1  0.67813991  0.39932389  0.07744407  1
  Hg  Hg5  1  0.25105141  0.42892886  0.50307946  1
  Hg  Hg6  1  0.53807703  0.53807703  0.53807703  1
  Hg  Hg7  1  0.24894859  0.57107114  0.00307946  1
  Hg  Hg8  1  0.74894859  0.92892886  0.99692054  1
  Hg  Hg9  1  0.60067611  0.57744407  0.82186009  1
  Hg  Hg10  1  0.75105141  0.07107114  0.49692054  1
  Hg  Hg11  1  0.99692054  0.74894859  0.92892886  1
  Hg  Hg12  1  0.92892886  0.99692054  0.74894859  1
  Hg  Hg13  1  0.03807703  0.96192297  0.46192297  1
  Hg  Hg14  1  0.42892886  0.50307946  0.25105141  1
  Hg  Hg15  1  0.57107114  0.00307946  0.24894859  1
  Hg  Hg16  1  0.42255593  0.32186009  0.89932389  1
  Hg  Hg17  1  0.32186009  0.89932389  0.42255593  1
  Hg  Hg18  1  0.00307946  0.24894859  0.57107114  1
  Hg  Hg19  1  0.39932389  0.07744407  0.67813991  1
  Hg  Hg20  1  0.17813991  0.10067611  0.92255593  1
  Hg  Hg21  1  0.07107114  0.49692054  0.75105141  1
  Hg  Hg22  1  0.82186009  0.60067611  0.57744407  1
  Hg  Hg23  1  0.10067611  0.92255593  0.17813991  1
  Hg  Hg24  1  0.07744407  0.67813991  0.39932389  1
  Hg  Hg25  1  0.46192297  0.03807703  0.96192297  1
  Hg  Hg26  1  0.49692054  0.75105141  0.07107114  1
  Hg  Hg27  1  0.57744407  0.82186009  0.60067611  1
  Hg  Hg28  1  0.96192297  0.46192297  0.03807703  1
  Hg  Hg29  1  0.50307946  0.25105141  0.42892886  1
  Hg  Hg30  1  0.89932389  0.42255593  0.32186009  1
  Hg  Hg31  1  0.92255593  0.17813991  0.10067611  1
  P  P32  1  0.14729471  0.85270529  0.35270529  1
  P  P33  1  0.35270529  0.14729471  0.85270529  1
  P  P34  1  0.92876942  0.07123058  0.57123058  1
  P  P35  1  0.57123058  0.92876942  0.07123058  1
  P  P36  1  0.03089748  0.03089748  0.03089748  1
  P  P37  1  0.64729471  0.64729471  0.64729471  1
  P  P38  1  0.42876942  0.42876942  0.42876942  1
  P  P39  1  0.46910252  0.96910252  0.53089748  1
  P  P40  1  0.53089748  0.46910252  0.96910252  1
  P  P41  1  0.93145937  0.93145937  0.93145937  1
  P  P42  1  0.06854063  0.43145937  0.56854063  1
  P  P43  1  0.85270529  0.35270529  0.14729471  1
  P  P44  1  0.07123058  0.57123058  0.92876942  1
  P  P45  1  0.96910252  0.53089748  0.46910252  1
  P  P46  1  0.43145937  0.56854063  0.06854063  1
  P  P47  1  0.56854063  0.06854063  0.43145937  1
  Br  Br48  1  0.80878507  0.44266375  0.79487865  1
  Br  Br49  1  0.31543340  0.47781015  0.75981428  1
  Br  Br50  1  0.20512135  0.30878507  0.05733625  1
  Br  Br51  1  0.25981428  0.18456660  0.52218985  1
  Br  Br52  1  0.94266375  0.70512135  0.19121493  1
  Br  Br53  1  0.24018572  0.81543340  0.02218985  1
  Br  Br54  1  0.30878507  0.05733625  0.20512135  1
  Br  Br55  1  0.02218985  0.24018572  0.81543340  1
  Br  Br56  1  0.70512135  0.19121493  0.94266375  1
  Br  Br57  1  0.74018572  0.68456660  0.97781015  1
  Br  Br58  1  0.52218985  0.25981428  0.18456660  1
  Br  Br59  1  0.29487865  0.69121493  0.55733625  1
  Br  Br60  1  0.55733625  0.29487865  0.69121493  1
  Br  Br61  1  0.47781015  0.75981428  0.31543340  1
  Br  Br62  1  0.05733625  0.20512135  0.30878507  1
  Br  Br63  1  0.68456660  0.97781015  0.74018572  1
  Br  Br64  1  0.79487865  0.80878507  0.44266375  1
  Br  Br65  1  0.44266375  0.79487865  0.80878507  1
  Br  Br66  1  0.19121493  0.94266375  0.70512135  1
  Br  Br67  1  0.81543340  0.02218985  0.24018572  1
  Br  Br68  1  0.75981428  0.31543340  0.47781015  1
  Br  Br69  1  0.18456660  0.52218985  0.25981428  1
  Br  Br70  1  0.97781015  0.74018572  0.68456660  1
  Br  Br71  1  0.69121493  0.55733625  0.29487865  1
