# generated using pymatgen
data_Mg44Rh7
_symmetry_space_group_name_H-M   'P 1'
_cell_length_a   14.26550128
_cell_length_b   14.26550087
_cell_length_c   14.26550056
_cell_angle_alpha   59.99999840
_cell_angle_beta   59.99999934
_cell_angle_gamma   59.99999996
_symmetry_Int_Tables_number   1
_chemical_formula_structural   Mg44Rh7
_chemical_formula_sum   'Mg88 Rh14'
_cell_volume   2052.79731636
_cell_formula_units_Z   2
loop_
 _symmetry_equiv_pos_site_id
 _symmetry_equiv_pos_as_xyz
  1  'x, y, z'
loop_
 _atom_site_type_symbol
 _atom_site_label
 _atom_site_symmetry_multiplicity
 _atom_site_fract_x
 _atom_site_fract_y
 _atom_site_fract_z
 _atom_site_occupancy
  Mg  Mg0  1  0.48069386  0.13015333  0.48069386  1
  Mg  Mg1  1  0.48069386  0.90845895  0.48069386  1
  Mg  Mg2  1  0.71945214  0.08918834  0.71945214  1
  Mg  Mg3  1  0.56161623  0.56161623  0.31515132  1
  Mg  Mg4  1  0.35580539  0.14419461  0.35580539  1
  Mg  Mg5  1  0.81804078  0.18195922  0.18195922  1
  Mg  Mg6  1  0.90845895  0.48069386  0.48069386  1
  Mg  Mg7  1  0.76693369  0.33788334  0.33788334  1
  Mg  Mg8  1  0.48069386  0.90845895  0.13015333  1
  Mg  Mg9  1  0.00023874  0.21509190  0.56957745  1
  Mg  Mg10  1  0.33434722  0.97950640  0.70663999  1
  Mg  Mg11  1  0.08918834  0.71945214  0.47190738  1
  Mg  Mg12  1  0.48069386  0.48069386  0.13015333  1
  Mg  Mg13  1  0.47190738  0.71945214  0.71945214  1
  Mg  Mg14  1  0.13015333  0.48069386  0.48069386  1
  Mg  Mg15  1  0.21509190  0.21509190  0.56957745  1
  Mg  Mg16  1  0.13015333  0.90845895  0.48069386  1
  Mg  Mg17  1  0.76693369  0.33788334  0.55729963  1
  Mg  Mg18  1  0.18195922  0.18195922  0.81804078  1
  Mg  Mg19  1  0.33434722  0.97950640  0.97950640  1
  Mg  Mg20  1  0.56957745  0.21509190  0.00023874  1
  Mg  Mg21  1  0.21509190  0.00023874  0.21509190  1
  Mg  Mg22  1  0.71945214  0.47190738  0.71945214  1
  Mg  Mg23  1  0.21509190  0.21509190  0.00023874  1
  Mg  Mg24  1  0.00023874  0.21509190  0.21509190  1
  Mg  Mg25  1  0.81804078  0.18195922  0.81804078  1
  Mg  Mg26  1  0.81804078  0.81804078  0.18195922  1
  Mg  Mg27  1  0.97950640  0.97950640  0.70663999  1
  Mg  Mg28  1  0.71945214  0.71945214  0.47190738  1
  Mg  Mg29  1  0.91235585  0.69588138  0.69588138  1
  Mg  Mg30  1  0.21509190  0.56957745  0.21509190  1
  Mg  Mg31  1  0.33788334  0.33788334  0.76693369  1
  Mg  Mg32  1  0.69588138  0.91235585  0.69588138  1
  Mg  Mg33  1  0.97950640  0.70663999  0.33434722  1
  Mg  Mg34  1  0.50001548  0.83332817  0.83332817  1
  Mg  Mg35  1  0.94767769  0.94767769  0.94767769  1
  Mg  Mg36  1  0.90845895  0.13015333  0.48069386  1
  Mg  Mg37  1  0.76693369  0.55729963  0.33788334  1
  Mg  Mg38  1  0.55729963  0.33788334  0.33788334  1
  Mg  Mg39  1  0.08918834  0.47190738  0.71945214  1
  Mg  Mg40  1  0.33788334  0.55729963  0.76693369  1
  Mg  Mg41  1  0.18195922  0.81804078  0.18195922  1
  Mg  Mg42  1  0.33434722  0.70663999  0.97950640  1
  Mg  Mg43  1  0.71945214  0.47190738  0.08918834  1
  Mg  Mg44  1  0.56161623  0.56161623  0.56161623  1
  Mg  Mg45  1  0.83332817  0.50001548  0.83332817  1
  Mg  Mg46  1  0.35580539  0.14419461  0.14419461  1
  Mg  Mg47  1  0.97950640  0.33434722  0.70663999  1
  Mg  Mg48  1  0.55729963  0.76693369  0.33788334  1
  Mg  Mg49  1  0.47190738  0.08918834  0.71945214  1
  Mg  Mg50  1  0.83332817  0.83332817  0.83332817  1
  Mg  Mg51  1  0.97950640  0.97950640  0.33434722  1
  Mg  Mg52  1  0.56161623  0.31515132  0.56161623  1
  Mg  Mg53  1  0.70663999  0.97950640  0.97950640  1
  Mg  Mg54  1  0.48069386  0.13015333  0.90845895  1
  Mg  Mg55  1  0.14419461  0.35580539  0.14419461  1
  Mg  Mg56  1  0.15696693  0.94767769  0.94767769  1
  Mg  Mg57  1  0.35580539  0.35580539  0.14419461  1
  Mg  Mg58  1  0.70663999  0.33434722  0.97950640  1
  Mg  Mg59  1  0.14419461  0.14419461  0.35580539  1
  Mg  Mg60  1  0.13015333  0.48069386  0.90845895  1
  Mg  Mg61  1  0.56957745  0.00023874  0.21509190  1
  Mg  Mg62  1  0.71945214  0.71945214  0.08918834  1
  Mg  Mg63  1  0.21509190  0.56957745  0.00023874  1
  Mg  Mg64  1  0.48069386  0.48069386  0.90845895  1
  Mg  Mg65  1  0.70663999  0.97950640  0.33434722  1
  Mg  Mg66  1  0.33788334  0.76693369  0.55729963  1
  Mg  Mg67  1  0.47190738  0.71945214  0.08918834  1
  Mg  Mg68  1  0.31515132  0.56161623  0.56161623  1
  Mg  Mg69  1  0.18195922  0.81804078  0.81804078  1
  Mg  Mg70  1  0.83332817  0.83332817  0.50001548  1
  Mg  Mg71  1  0.33788334  0.33788334  0.55729963  1
  Mg  Mg72  1  0.55729963  0.33788334  0.76693369  1
  Mg  Mg73  1  0.33788334  0.55729963  0.33788334  1
  Mg  Mg74  1  0.97950640  0.33434722  0.97950640  1
  Mg  Mg75  1  0.56957745  0.21509190  0.21509190  1
  Mg  Mg76  1  0.90845895  0.48069386  0.13015333  1
  Mg  Mg77  1  0.94767769  0.94767769  0.15696693  1
  Mg  Mg78  1  0.69588138  0.69588138  0.69588138  1
  Mg  Mg79  1  0.97950640  0.70663999  0.97950640  1
  Mg  Mg80  1  0.21509190  0.00023874  0.56957745  1
  Mg  Mg81  1  0.08918834  0.71945214  0.71945214  1
  Mg  Mg82  1  0.00023874  0.56957745  0.21509190  1
  Mg  Mg83  1  0.14419461  0.35580539  0.35580539  1
  Mg  Mg84  1  0.94767769  0.15696693  0.94767769  1
  Mg  Mg85  1  0.69588138  0.69588138  0.91235585  1
  Mg  Mg86  1  0.33788334  0.76693369  0.33788334  1
  Mg  Mg87  1  0.71945214  0.08918834  0.47190738  1
  Rh  Rh88  1  0.58676948  0.91323052  0.58676948  1
  Rh  Rh89  1  0.34888913  0.95333261  0.34888913  1
  Rh  Rh90  1  0.08296427  0.75110720  0.08296427  1
  Rh  Rh91  1  0.95333261  0.34888913  0.34888913  1
  Rh  Rh92  1  0.75110720  0.08296427  0.08296427  1
  Rh  Rh93  1  0.58676948  0.91323052  0.91323052  1
  Rh  Rh94  1  0.34888913  0.34888913  0.34888913  1
  Rh  Rh95  1  0.08296427  0.08296427  0.08296427  1
  Rh  Rh96  1  0.91323052  0.58676948  0.58676948  1
  Rh  Rh97  1  0.91323052  0.58676948  0.91323052  1
  Rh  Rh98  1  0.34888913  0.34888913  0.95333261  1
  Rh  Rh99  1  0.08296427  0.08296427  0.75110720  1
  Rh  Rh100  1  0.58676948  0.58676948  0.91323052  1
  Rh  Rh101  1  0.91323052  0.91323052  0.58676948  1
