# generated using pymatgen
data_Sc6Si11Ni18
_symmetry_space_group_name_H-M   'P 1'
_cell_length_a   8.03215740
_cell_length_b   11.57519158
_cell_length_c   11.57519145
_cell_angle_alpha   63.84579343
_cell_angle_beta   69.69877459
_cell_angle_gamma   69.69877425
_symmetry_Int_Tables_number   1
_chemical_formula_structural   Sc6Si11Ni18
_chemical_formula_sum   'Sc12 Si22 Ni36'
_cell_volume   881.60291752
_cell_formula_units_Z   2
loop_
 _symmetry_equiv_pos_site_id
 _symmetry_equiv_pos_as_xyz
  1  'x, y, z'
loop_
 _atom_site_type_symbol
 _atom_site_label
 _atom_site_symmetry_multiplicity
 _atom_site_fract_x
 _atom_site_fract_y
 _atom_site_fract_z
 _atom_site_occupancy
  Sc  Sc0  1  0.68984106  0.81015894  0.81015894  1
  Sc  Sc1  1  0.31015894  0.18984106  0.18984106  1
  Sc  Sc2  1  0.71511328  0.46844127  0.10133218  1
  Sc  Sc3  1  0.12977574  0.37022426  0.37022426  1
  Sc  Sc4  1  0.28488672  0.53155873  0.89866782  1
  Sc  Sc5  1  0.87022426  0.62977574  0.62977574  1
  Sc  Sc6  1  0.79608522  0.18232442  0.81767558  1
  Sc  Sc7  1  0.28488672  0.89866782  0.53155873  1
  Sc  Sc8  1  0.20391478  0.81767558  0.18232442  1
  Sc  Sc9  1  0.71511328  0.10133218  0.46844127  1
  Sc  Sc10  1  0.20391478  0.18232442  0.81767558  1
  Sc  Sc11  1  0.79608522  0.81767558  0.18232442  1
  Si  Si12  1  0.84644728  0.33161318  0.33161318  1
  Si  Si13  1  0.76738160  0.50000000  0.50000000  1
  Si  Si14  1  0.41459368  0.67503339  0.01110774  1
  Si  Si15  1  0.50000000  0.67441261  0.32558739  1
  Si  Si16  1  0.11657854  0.16662913  0.60021379  1
  Si  Si17  1  0.49032637  0.33161318  0.33161318  1
  Si  Si18  1  0.41459368  0.01110774  0.67503339  1
  Si  Si19  1  0.11657854  0.60021379  0.16662913  1
  Si  Si20  1  0.10073481  0.32496661  0.98889226  1
  Si  Si21  1  0.88342146  0.39978621  0.83337087  1
  Si  Si22  1  0.50967363  0.66838682  0.66838682  1
  Si  Si23  1  0.23261840  0.50000000  0.50000000  1
  Si  Si24  1  0.89926519  0.67503339  0.01110774  1
  Si  Si25  1  0.00000000  0.00000000  0.00000000  1
  Si  Si26  1  0.58540632  0.32496661  0.98889226  1
  Si  Si27  1  0.10073481  0.98889226  0.32496661  1
  Si  Si28  1  0.15355272  0.66838682  0.66838682  1
  Si  Si29  1  0.88342146  0.83337087  0.39978621  1
  Si  Si30  1  0.50000000  0.00000000  0.00000000  1
  Si  Si31  1  0.58540632  0.98889226  0.32496661  1
  Si  Si32  1  0.89926519  0.01110774  0.67503339  1
  Si  Si33  1  0.50000000  0.32558739  0.67441261  1
  Ni  Ni34  1  0.80684171  0.26798870  0.56341320  1
  Ni  Ni35  1  0.63824361  0.43658680  0.73201130  1
  Ni  Ni36  1  0.11306946  0.98728640  0.78657467  1
  Ni  Ni37  1  0.88693054  0.21342533  0.01271360  1
  Ni  Ni38  1  0.63824361  0.73201130  0.43658680  1
  Ni  Ni39  1  0.19315829  0.43658680  0.73201130  1
  Ni  Ni40  1  0.95714187  0.20990013  0.20990013  1
  Ni  Ni41  1  0.80684171  0.56341320  0.26798870  1
  Ni  Ni42  1  0.62305788  0.20990013  0.20990013  1
  Ni  Ni43  1  0.00000000  0.61823723  0.38176277  1
  Ni  Ni44  1  0.88693054  0.01271360  0.21342533  1
  Ni  Ni45  1  0.57942024  0.09299684  0.74816268  1
  Ni  Ni46  1  0.65477697  0.07562542  0.07562542  1
  Ni  Ni47  1  0.43111039  0.56888961  0.56888961  1
  Ni  Ni48  1  0.04833439  0.12657033  0.43784105  1
  Ni  Ni49  1  0.36175639  0.26798870  0.56341320  1
  Ni  Ni50  1  0.00000000  0.38176277  0.61823723  1
  Ni  Ni51  1  0.42057976  0.90700316  0.25183732  1
  Ni  Ni52  1  0.04285813  0.79009987  0.79009987  1
  Ni  Ni53  1  0.11306946  0.78657467  0.98728640  1
  Ni  Ni54  1  0.04833439  0.43784105  0.12657033  1
  Ni  Ni55  1  0.42057976  0.25183732  0.90700316  1
  Ni  Ni56  1  0.38725423  0.43784105  0.12657033  1
  Ni  Ni57  1  0.37694212  0.79009987  0.79009987  1
  Ni  Ni58  1  0.56888961  0.43111039  0.43111039  1
  Ni  Ni59  1  0.61274577  0.87342967  0.56215895  1
  Ni  Ni60  1  0.34522303  0.92437458  0.92437458  1
  Ni  Ni61  1  0.36175639  0.56341320  0.26798870  1
  Ni  Ni62  1  0.61274577  0.56215895  0.87342967  1
  Ni  Ni63  1  0.95166561  0.56215895  0.87342967  1
  Ni  Ni64  1  0.19315829  0.73201130  0.43658680  1
  Ni  Ni65  1  0.38725423  0.12657033  0.43784105  1
  Ni  Ni66  1  0.19397219  0.07562542  0.07562542  1
  Ni  Ni67  1  0.95166561  0.87342967  0.56215895  1
  Ni  Ni68  1  0.57942024  0.74816268  0.09299684  1
  Ni  Ni69  1  0.80602781  0.92437458  0.92437458  1
