# generated using pymatgen
data_Co2(SnSe)3
_symmetry_space_group_name_H-M   'P 1'
_cell_length_a   8.79713425
_cell_length_b   8.79713403
_cell_length_c   8.79713446
_cell_angle_alpha   90.12344263
_cell_angle_beta   90.12344267
_cell_angle_gamma   90.12343870
_symmetry_Int_Tables_number   1
_chemical_formula_structural   Co2(SnSe)3
_chemical_formula_sum   'Co8 Sn12 Se12'
_cell_volume   680.80169880
_cell_formula_units_Z   4
loop_
 _symmetry_equiv_pos_site_id
 _symmetry_equiv_pos_as_xyz
  1  'x, y, z'
loop_
 _atom_site_type_symbol
 _atom_site_label
 _atom_site_symmetry_multiplicity
 _atom_site_fract_x
 _atom_site_fract_y
 _atom_site_fract_z
 _atom_site_occupancy
  Co  Co0  1  0.23792337  0.24458863  0.74167727  1
  Co  Co1  1  0.25832273  0.76207663  0.75541137  1
  Co  Co2  1  0.24458863  0.74167727  0.23792337  1
  Co  Co3  1  0.75541137  0.25832273  0.76207663  1
  Co  Co4  1  0.74147602  0.74147602  0.74147602  1
  Co  Co5  1  0.25852398  0.25852398  0.25852398  1
  Co  Co6  1  0.74167727  0.23792337  0.24458863  1
  Co  Co7  1  0.76207663  0.75541137  0.25832273  1
  Sn  Sn8  1  0.15579666  0.99940974  0.32640931  1
  Sn  Sn9  1  0.17153094  0.65762704  0.50006656  1
  Sn  Sn10  1  0.84420334  0.00059026  0.67359069  1
  Sn  Sn11  1  0.34237296  0.49993344  0.82846906  1
  Sn  Sn12  1  0.32640931  0.15579666  0.99940974  1
  Sn  Sn13  1  0.67359069  0.84420334  0.00059026  1
  Sn  Sn14  1  0.65762704  0.50006656  0.17153094  1
  Sn  Sn15  1  0.82846906  0.34237296  0.49993344  1
  Sn  Sn16  1  0.50006656  0.17153094  0.65762704  1
  Sn  Sn17  1  0.00059026  0.67359069  0.84420334  1
  Sn  Sn18  1  0.49993344  0.82846906  0.34237296  1
  Sn  Sn19  1  0.99940974  0.32640931  0.15579666  1
  Se  Se20  1  0.33972310  0.84340464  0.00141420  1
  Se  Se21  1  0.15659536  0.99858580  0.66027690  1
  Se  Se22  1  0.00141420  0.33972310  0.84340464  1
  Se  Se23  1  0.50221833  0.83886346  0.65548635  1
  Se  Se24  1  0.83886346  0.65548635  0.50221833  1
  Se  Se25  1  0.16113654  0.34451365  0.49778167  1
  Se  Se26  1  0.49778167  0.16113654  0.34451365  1
  Se  Se27  1  0.34451365  0.49778167  0.16113654  1
  Se  Se28  1  0.66027690  0.15659536  0.99858580  1
  Se  Se29  1  0.84340464  0.00141420  0.33972310  1
  Se  Se30  1  0.65548635  0.50221833  0.83886346  1
  Se  Se31  1  0.99858580  0.66027690  0.15659536  1
