# generated using pymatgen
data_Rb3SnP3Se11
_symmetry_space_group_name_H-M   'P 1'
_cell_length_a   7.56291178
_cell_length_b   14.33407453
_cell_length_c   22.51441055
_cell_angle_alpha   105.98180643
_cell_angle_beta   90.00000000
_cell_angle_gamma   90.00000000
_symmetry_Int_Tables_number   1
_chemical_formula_structural   Rb3SnP3Se11
_chemical_formula_sum   'Rb12 Sn4 P12 Se44'
_cell_volume   2346.39125226
_cell_formula_units_Z   4
loop_
 _symmetry_equiv_pos_site_id
 _symmetry_equiv_pos_as_xyz
  1  'x, y, z'
loop_
 _atom_site_type_symbol
 _atom_site_label
 _atom_site_symmetry_multiplicity
 _atom_site_fract_x
 _atom_site_fract_y
 _atom_site_fract_z
 _atom_site_occupancy
  Rb  Rb0  1  0.46458327  0.84470695  0.06841739  1
  Rb  Rb1  1  0.17874518  0.88416130  0.50799537  1
  Rb  Rb2  1  0.63087974  0.51122525  0.23040294  1
  Rb  Rb3  1  0.03541673  0.34470695  0.06841739  1
  Rb  Rb4  1  0.96458327  0.65529305  0.93158261  1
  Rb  Rb5  1  0.82125482  0.11583870  0.49200463  1
  Rb  Rb6  1  0.32125482  0.38416130  0.50799537  1
  Rb  Rb7  1  0.13087974  0.98877475  0.76959706  1
  Rb  Rb8  1  0.53541673  0.15529305  0.93158261  1
  Rb  Rb9  1  0.36912026  0.48877475  0.76959706  1
  Rb  Rb10  1  0.67874518  0.61583870  0.49200463  1
  Rb  Rb11  1  0.86912026  0.01122525  0.23040294  1
  Sn  Sn12  1  0.35984747  0.22140466  0.28019277  1
  Sn  Sn13  1  0.14015253  0.72140466  0.28019277  1
  Sn  Sn14  1  0.64015253  0.77859534  0.71980723  1
  Sn  Sn15  1  0.85984747  0.27859534  0.71980723  1
  P  P16  1  0.14666713  0.62807208  0.39721481  1
  P  P17  1  0.64666713  0.87192792  0.60278519  1
  P  P18  1  0.36880341  0.97998311  0.32614282  1
  P  P19  1  0.56317283  0.19659597  0.11379172  1
  P  P20  1  0.85333287  0.37192792  0.60278519  1
  P  P21  1  0.13119659  0.47998311  0.32614282  1
  P  P22  1  0.93682717  0.69659597  0.11379172  1
  P  P23  1  0.86880341  0.52001689  0.67385718  1
  P  P24  1  0.35333287  0.12807208  0.39721481  1
  P  P25  1  0.06317283  0.30340403  0.88620828  1
  P  P26  1  0.43682717  0.80340403  0.88620828  1
  P  P27  1  0.63119659  0.02001689  0.67385718  1
  Se  Se28  1  0.34584260  0.11734874  0.49084614  1
  Se  Se29  1  0.09294327  0.29731743  0.62619152  1
  Se  Se30  1  0.54023549  0.32579486  0.08132866  1
  Se  Se31  1  0.63231274  0.98309729  0.76520914  1
  Se  Se32  1  0.89188462  0.08262804  0.65652706  1
  Se  Se33  1  0.78257667  0.57694041  0.05803556  1
  Se  Se34  1  0.28257667  0.92305959  0.94196444  1
  Se  Se35  1  0.36768726  0.01690271  0.23479086  1
  Se  Se36  1  0.12431013  0.22421855  0.19080265  1
  Se  Se37  1  0.84802443  0.73987749  0.21410464  1
  Se  Se38  1  0.62071175  0.29562318  0.63024940  1
  Se  Se39  1  0.70389368  0.88289956  0.88597603  1
  Se  Se40  1  0.10811538  0.91737196  0.34347294  1
  Se  Se41  1  0.45976451  0.67420514  0.91867134  1
  Se  Se42  1  0.37568987  0.72421855  0.19080265  1
  Se  Se43  1  0.65197557  0.23987749  0.21410464  1
  Se  Se44  1  0.87568987  0.77578145  0.80919735  1
  Se  Se45  1  0.20389368  0.61710044  0.11402397  1
  Se  Se46  1  0.39188462  0.41737196  0.34347294  1
  Se  Se47  1  0.59904038  0.90043265  0.34065971  1
  Se  Se48  1  0.34802443  0.76012251  0.78589536  1
  Se  Se49  1  0.12071175  0.20437682  0.36975060  1
  Se  Se50  1  0.40705673  0.79731743  0.62619152  1
  Se  Se51  1  0.09904038  0.59956735  0.65934029  1
  Se  Se52  1  0.95976451  0.82579486  0.08132866  1
  Se  Se53  1  0.79610632  0.38289956  0.88597603  1
  Se  Se54  1  0.86768726  0.48309729  0.76520914  1
  Se  Se55  1  0.21742333  0.42305959  0.94196444  1
  Se  Se56  1  0.15415740  0.61734874  0.49084614  1
  Se  Se57  1  0.87928825  0.79562318  0.63024940  1
  Se  Se58  1  0.40095962  0.09956735  0.65934029  1
  Se  Se59  1  0.60811538  0.58262804  0.65652706  1
  Se  Se60  1  0.29610632  0.11710044  0.11402397  1
  Se  Se61  1  0.15197557  0.26012251  0.78589536  1
  Se  Se62  1  0.13231274  0.51690271  0.23479086  1
  Se  Se63  1  0.71742333  0.07694041  0.05803556  1
  Se  Se64  1  0.37928825  0.70437682  0.36975060  1
  Se  Se65  1  0.90705673  0.70268257  0.37380848  1
  Se  Se66  1  0.90095962  0.40043265  0.34065971  1
  Se  Se67  1  0.84584260  0.38265126  0.50915386  1
  Se  Se68  1  0.62431013  0.27578145  0.80919735  1
  Se  Se69  1  0.65415740  0.88265126  0.50915386  1
  Se  Se70  1  0.04023549  0.17420514  0.91867134  1
  Se  Se71  1  0.59294327  0.20268257  0.37380848  1
