# generated using pymatgen
data_ZrI3
_symmetry_space_group_name_H-M   'P 1'
_cell_length_a   6.66040929
_cell_length_b   8.12532351
_cell_length_c   14.08771140
_cell_angle_alpha   90.00000000
_cell_angle_beta   90.00000000
_cell_angle_gamma   90.00000000
_symmetry_Int_Tables_number   1
_chemical_formula_structural   ZrI3
_chemical_formula_sum   'Zr4 I12'
_cell_volume   762.39848647
_cell_formula_units_Z   4
loop_
 _symmetry_equiv_pos_site_id
 _symmetry_equiv_pos_as_xyz
  1  'x, y, z'
loop_
 _atom_site_type_symbol
 _atom_site_label
 _atom_site_symmetry_multiplicity
 _atom_site_fract_x
 _atom_site_fract_y
 _atom_site_fract_z
 _atom_site_occupancy
  Zr  Zr0  1  0.48674503  0.24770547  0.75000000  1
  Zr  Zr1  1  0.01325497  0.24770547  0.75000000  1
  Zr  Zr2  1  0.51325497  0.75229453  0.25000000  1
  Zr  Zr3  1  0.98674503  0.75229453  0.25000000  1
  I  I4  1  0.25000000  0.39778427  0.89971215  1
  I  I5  1  0.25000000  0.94774640  0.75000000  1
  I  I6  1  0.25000000  0.89829460  0.10355958  1
  I  I7  1  0.25000000  0.89829460  0.39644042  1
  I  I8  1  0.75000000  0.10170540  0.60355958  1
  I  I9  1  0.75000000  0.60221573  0.39971215  1
  I  I10  1  0.75000000  0.54109398  0.75000000  1
  I  I11  1  0.75000000  0.10170540  0.89644042  1
  I  I12  1  0.75000000  0.60221573  0.10028785  1
  I  I13  1  0.75000000  0.05225360  0.25000000  1
  I  I14  1  0.25000000  0.45890602  0.25000000  1
  I  I15  1  0.25000000  0.39778427  0.60028785  1
