# generated using pymatgen
data_Sm2(PPt2)3
_symmetry_space_group_name_H-M   'P 1'
_cell_length_a   4.12779828
_cell_length_b   4.12779810
_cell_length_c   23.23018639
_cell_angle_alpha   95.09719480
_cell_angle_beta   95.09719455
_cell_angle_gamma   89.99999534
_symmetry_Int_Tables_number   1
_chemical_formula_structural   Sm2(PPt2)3
_chemical_formula_sum   'Sm4 P6 Pt12'
_cell_volume   392.67580547
_cell_formula_units_Z   2
loop_
 _symmetry_equiv_pos_site_id
 _symmetry_equiv_pos_as_xyz
  1  'x, y, z'
loop_
 _atom_site_type_symbol
 _atom_site_label
 _atom_site_symmetry_multiplicity
 _atom_site_fract_x
 _atom_site_fract_y
 _atom_site_fract_z
 _atom_site_occupancy
  Sm  Sm0  1  0.42440668  0.67440668  0.34881336  1
  Sm  Sm1  1  0.17440668  0.92440668  0.84881336  1
  Sm  Sm2  1  0.82559332  0.07559332  0.15118664  1
  Sm  Sm3  1  0.57559332  0.32559332  0.65118664  1
  P  P4  1  0.70012282  0.45012282  0.90024564  1
  P  P5  1  0.12500000  0.37500000  0.75000000  1
  P  P6  1  0.95012282  0.20012282  0.40024564  1
  P  P7  1  0.29987718  0.54987718  0.09975436  1
  P  P8  1  0.87500000  0.62500000  0.25000000  1
  P  P9  1  0.04987718  0.79987718  0.59975436  1
  Pt  Pt10  1  0.77272158  0.52272158  0.04544317  1
  Pt  Pt11  1  0.27470205  0.02470205  0.04940410  1
  Pt  Pt12  1  0.02272158  0.27272158  0.54544317  1
  Pt  Pt13  1  0.97727842  0.72727842  0.45455683  1
  Pt  Pt14  1  0.52470205  0.77470205  0.54940410  1
  Pt  Pt15  1  0.64919825  0.39919825  0.79839651  1
  Pt  Pt16  1  0.10080175  0.85080175  0.70160349  1
  Pt  Pt17  1  0.22727842  0.47727842  0.95455683  1
  Pt  Pt18  1  0.35080175  0.60080175  0.20160349  1
  Pt  Pt19  1  0.47529795  0.22529795  0.45059590  1
  Pt  Pt20  1  0.72529795  0.97529795  0.95059590  1
  Pt  Pt21  1  0.89919825  0.14919825  0.29839651  1
