# generated using pymatgen
data_Pr(AsPd)2
_symmetry_space_group_name_H-M   'P 1'
_cell_length_a   4.33470912
_cell_length_b   4.33470858
_cell_length_c   6.07709038
_cell_angle_alpha   110.89420095
_cell_angle_beta   110.89419835
_cell_angle_gamma   90.00000290
_symmetry_Int_Tables_number   1
_chemical_formula_structural   Pr(AsPd)2
_chemical_formula_sum   'Pr1 As2 Pd2'
_cell_volume   98.59881411
_cell_formula_units_Z   1
loop_
 _symmetry_equiv_pos_site_id
 _symmetry_equiv_pos_as_xyz
  1  'x, y, z'
loop_
 _atom_site_type_symbol
 _atom_site_label
 _atom_site_symmetry_multiplicity
 _atom_site_fract_x
 _atom_site_fract_y
 _atom_site_fract_z
 _atom_site_occupancy
  Pr  Pr0  1  0.00000000  0.00000000  0.00000000  1
  As  As1  1  0.37920077  0.37920077  0.75840153  1
  As  As2  1  0.62079923  0.62079923  0.24159847  1
  Pd  Pd3  1  0.75000000  0.25000000  0.50000000  1
  Pd  Pd4  1  0.25000000  0.75000000  0.50000000  1
