# generated using pymatgen
data_Li4MnCo2O7
_symmetry_space_group_name_H-M   'P 1'
_cell_length_a   2.93648750
_cell_length_b   13.61131422
_cell_length_c   6.51601817
_cell_angle_alpha   83.81612487
_cell_angle_beta   77.09857456
_cell_angle_gamma   84.76673453
_symmetry_Int_Tables_number   1
_chemical_formula_structural   Li4MnCo2O7
_chemical_formula_sum   'Li8 Mn2 Co4 O14'
_cell_volume   251.78301430
_cell_formula_units_Z   2
loop_
 _symmetry_equiv_pos_site_id
 _symmetry_equiv_pos_as_xyz
  1  'x, y, z'
loop_
 _atom_site_type_symbol
 _atom_site_label
 _atom_site_symmetry_multiplicity
 _atom_site_fract_x
 _atom_site_fract_y
 _atom_site_fract_z
 _atom_site_occupancy
  Li  Li0  1  0.86030412  0.21546765  0.05412120  1
  Li  Li1  1  0.99124815  0.50108545  0.50213649  1
  Li  Li2  1  0.15160885  0.78462855  0.92643451  1
  Li  Li3  1  0.43755638  0.35105927  0.78452358  1
  Li  Li4  1  0.57142900  0.64285700  0.21428600  1
  Li  Li5  1  0.70530062  0.93465473  0.64404742  1
  Li  Li6  1  0.28255288  0.07024735  0.37445080  1
  Li  Li7  1  0.57142900  0.14285700  0.71428600  1
  Mn  Mn8  1  0.00012166  0.00386435  0.98871185  1
  Mn  Mn9  1  0.14273534  0.28184965  0.43985915  1
  Co  Co10  1  0.28565437  0.57091513  0.85223164  1
  Co  Co11  1  0.42742322  0.85831331  0.29315577  1
  Co  Co12  1  0.71543378  0.42740069  0.13541523  1
  Co  Co13  1  0.85720263  0.71479987  0.57634036  1
  O  O14  1  0.43656982  0.09384599  0.03471343  1
  O  O15  1  0.59218656  0.38143117  0.45204286  1
  O  O16  1  0.72412031  0.67717361  0.88004492  1
  O  O17  1  0.00963150  0.25421329  0.72764257  1
  O  O18  1  0.13557153  0.53133733  0.16336027  1
  O  O19  1  0.30206664  0.81585837  0.59998896  1
  O  O20  1  0.85354959  0.95917912  0.30550948  1
  O  O21  1  0.28930741  0.32653588  0.12306252  1
  O  O22  1  0.41873669  0.60854039  0.54852608  1
  O  O23  1  0.55067144  0.90428283  0.97652914  1
  O  O24  1  0.84079036  0.46985663  0.82858304  1
  O  O25  1  0.00728547  0.75437667  0.26521073  1
  O  O26  1  0.13322550  0.03150071  0.70092843  1
  O  O27  1  0.70628718  0.19186801  0.39385757  1
