# generated using pymatgen
data_YbPt
_symmetry_space_group_name_H-M   'P 1'
_cell_length_a   4.40595463
_cell_length_b   5.57450870
_cell_length_c   7.14066342
_cell_angle_alpha   90.00000000
_cell_angle_beta   90.00000000
_cell_angle_gamma   90.00000000
_symmetry_Int_Tables_number   1
_chemical_formula_structural   YbPt
_chemical_formula_sum   'Yb4 Pt4'
_cell_volume   175.38206574
_cell_formula_units_Z   4
loop_
 _symmetry_equiv_pos_site_id
 _symmetry_equiv_pos_as_xyz
  1  'x, y, z'
loop_
 _atom_site_type_symbol
 _atom_site_label
 _atom_site_symmetry_multiplicity
 _atom_site_fract_x
 _atom_site_fract_y
 _atom_site_fract_z
 _atom_site_occupancy
  Yb  Yb0  1  0.25000000  0.13910119  0.18402369  1
  Yb  Yb1  1  0.75000000  0.63910119  0.31597631  1
  Yb  Yb2  1  0.75000000  0.86089881  0.81597631  1
  Yb  Yb3  1  0.25000000  0.36089881  0.68402369  1
  Pt  Pt4  1  0.75000000  0.14887350  0.46076883  1
  Pt  Pt5  1  0.25000000  0.85112650  0.53923117  1
  Pt  Pt6  1  0.25000000  0.64887350  0.03923117  1
  Pt  Pt7  1  0.75000000  0.35112650  0.96076883  1
