# generated using pymatgen
data_KRb3CdCl6
_symmetry_space_group_name_H-M   'P 1'
_cell_length_a   8.95726215
_cell_length_b   8.95726215
_cell_length_c   8.95726243
_cell_angle_alpha   90.63577581
_cell_angle_beta   90.63577581
_cell_angle_gamma   90.63578068
_symmetry_Int_Tables_number   1
_chemical_formula_structural   KRb3CdCl6
_chemical_formula_sum   'K2 Rb6 Cd2 Cl12'
_cell_volume   718.53023985
_cell_formula_units_Z   2
loop_
 _symmetry_equiv_pos_site_id
 _symmetry_equiv_pos_as_xyz
  1  'x, y, z'
loop_
 _atom_site_type_symbol
 _atom_site_label
 _atom_site_symmetry_multiplicity
 _atom_site_fract_x
 _atom_site_fract_y
 _atom_site_fract_z
 _atom_site_occupancy
  K  K0  1  0.25224156  0.25224156  0.25224156  1
  K  K1  1  0.75224056  0.75224056  0.75224056  1
  Rb  Rb2  1  0.12972071  0.37434437  0.75189730  1
  Rb  Rb3  1  0.75189730  0.12971971  0.37434437  1
  Rb  Rb4  1  0.37434437  0.75189730  0.12972071  1
  Rb  Rb5  1  0.87434437  0.62972071  0.25189730  1
  Rb  Rb6  1  0.62971971  0.25189830  0.87434337  1
  Rb  Rb7  1  0.25189730  0.87434437  0.62971971  1
  Cd  Cd8  1  0.00226514  0.00226514  0.00226514  1
  Cd  Cd9  1  0.50226514  0.50226514  0.50226514  1
  Cl  Cl10  1  0.07597048  0.95001957  0.28894351  1
  Cl  Cl11  1  0.28894351  0.07597148  0.95001957  1
  Cl  Cl12  1  0.95001957  0.28894351  0.07597048  1
  Cl  Cl13  1  0.45001757  0.57597148  0.78894351  1
  Cl  Cl14  1  0.57597048  0.78894351  0.45001857  1
  Cl  Cl15  1  0.78894251  0.45001857  0.57597048  1
  Cl  Cl16  1  0.42865786  0.21541221  0.55422828  1
  Cl  Cl17  1  0.55422828  0.42865786  0.21541221  1
  Cl  Cl18  1  0.21541221  0.55422728  0.42865886  1
  Cl  Cl19  1  0.71541321  0.92865886  0.05422828  1
  Cl  Cl20  1  0.92865986  0.05422728  0.71541421  1
  Cl  Cl21  1  0.05422828  0.71541321  0.92865886  1
