# generated using pymatgen
data_Sm3CuGeSe7
_symmetry_space_group_name_H-M   'P 1'
_cell_length_a   10.53394335
_cell_length_b   10.53394304
_cell_length_c   6.12375733
_cell_angle_alpha   90.00000000
_cell_angle_beta   90.00000000
_cell_angle_gamma   120.00000100
_symmetry_Int_Tables_number   1
_chemical_formula_structural   Sm3CuGeSe7
_chemical_formula_sum   'Sm6 Cu2 Ge2 Se14'
_cell_volume   588.47842317
_cell_formula_units_Z   2
loop_
 _symmetry_equiv_pos_site_id
 _symmetry_equiv_pos_as_xyz
  1  'x, y, z'
loop_
 _atom_site_type_symbol
 _atom_site_label
 _atom_site_symmetry_multiplicity
 _atom_site_fract_x
 _atom_site_fract_y
 _atom_site_fract_z
 _atom_site_occupancy
  Sm  Sm0  1  0.22430111  0.86904164  0.75362127  1
  Sm  Sm1  1  0.86904164  0.64474053  0.25362127  1
  Sm  Sm2  1  0.35525947  0.22430111  0.25362127  1
  Sm  Sm3  1  0.64474053  0.77569889  0.75362127  1
  Sm  Sm4  1  0.77569889  0.13095836  0.25362127  1
  Sm  Sm5  1  0.13095836  0.35525947  0.75362127  1
  Cu  Cu6  1  0.00000000  0.00000000  0.71722637  1
  Cu  Cu7  1  0.00000000  0.00000000  0.21722637  1
  Ge  Ge8  1  0.66666700  0.33333300  0.83543648  1
  Ge  Ge9  1  0.33333300  0.66666700  0.33543648  1
  Se  Se10  1  0.74135191  0.83778195  0.23116173  1
  Se  Se11  1  0.90356997  0.74135191  0.73116173  1
  Se  Se12  1  0.66666700  0.33333300  0.45049440  1
  Se  Se13  1  0.90363368  0.42114259  0.99859792  1
  Se  Se14  1  0.57885741  0.48249109  0.99859792  1
  Se  Se15  1  0.42114259  0.51750891  0.49859792  1
  Se  Se16  1  0.09643003  0.25864809  0.23116173  1
  Se  Se17  1  0.83778195  0.09643003  0.73116173  1
  Se  Se18  1  0.51750891  0.09636632  0.99859792  1
  Se  Se19  1  0.16221805  0.90356997  0.23116173  1
  Se  Se20  1  0.48249109  0.90363368  0.49859792  1
  Se  Se21  1  0.33333300  0.66666700  0.95049440  1
  Se  Se22  1  0.25864809  0.16221805  0.73116173  1
  Se  Se23  1  0.09636632  0.57885741  0.49859792  1
