# generated using pymatgen
data_NbAsPCl13
_symmetry_space_group_name_H-M   'P 1'
_cell_length_a   9.78837130
_cell_length_b   9.78837161
_cell_length_c   12.11085954
_cell_angle_alpha   90.00000000
_cell_angle_beta   90.00000000
_cell_angle_gamma   114.85520083
_symmetry_Int_Tables_number   1
_chemical_formula_structural   NbAsPCl13
_chemical_formula_sum   'Nb2 As2 P2 Cl26'
_cell_volume   1052.88678606
_cell_formula_units_Z   2
loop_
 _symmetry_equiv_pos_site_id
 _symmetry_equiv_pos_as_xyz
  1  'x, y, z'
loop_
 _atom_site_type_symbol
 _atom_site_label
 _atom_site_symmetry_multiplicity
 _atom_site_fract_x
 _atom_site_fract_y
 _atom_site_fract_z
 _atom_site_occupancy
  Nb  Nb0  1  0.79426290  0.20573710  0.49854031  1
  Nb  Nb1  1  0.20573710  0.79426290  0.99854031  1
  As  As2  1  0.45256277  0.54743723  0.84915822  1
  As  As3  1  0.54743723  0.45256277  0.34915822  1
  P  P4  1  0.85914894  0.14085106  0.03752492  1
  P  P5  1  0.14085106  0.85914894  0.53752492  1
  Cl  Cl6  1  0.30241023  0.37802121  0.37275377  1
  Cl  Cl7  1  0.25334384  0.74665616  0.58826698  1
  Cl  Cl8  1  0.55097110  0.44902890  0.16555225  1
  Cl  Cl9  1  0.01196426  0.30740814  0.61229728  1
  Cl  Cl10  1  0.23731924  0.06572547  0.59317119  1
  Cl  Cl11  1  0.74665616  0.25334384  0.08826698  1
  Cl  Cl12  1  0.37802121  0.30241023  0.87275377  1
  Cl  Cl13  1  0.30740814  0.01196426  0.11229728  1
  Cl  Cl14  1  0.69259186  0.98803574  0.61229728  1
  Cl  Cl15  1  0.76268076  0.93427453  0.09317119  1
  Cl  Cl16  1  0.44902890  0.55097110  0.66555225  1
  Cl  Cl17  1  0.86099505  0.13900495  0.87599832  1
  Cl  Cl18  1  0.42502718  0.89635502  0.88252664  1
  Cl  Cl19  1  0.67453294  0.32546706  0.60752168  1
  Cl  Cl20  1  0.08784321  0.91215679  0.88393954  1
  Cl  Cl21  1  0.98803574  0.69259186  0.11229728  1
  Cl  Cl22  1  0.93427453  0.76268076  0.59317119  1
  Cl  Cl23  1  0.06572547  0.23731924  0.09317119  1
  Cl  Cl24  1  0.32546706  0.67453294  0.10752168  1
  Cl  Cl25  1  0.69758977  0.62197879  0.87275377  1
  Cl  Cl26  1  0.10364498  0.57497282  0.88252664  1
  Cl  Cl27  1  0.13900495  0.86099505  0.37599832  1
  Cl  Cl28  1  0.89635502  0.42502718  0.38252664  1
  Cl  Cl29  1  0.62197879  0.69758977  0.37275377  1
  Cl  Cl30  1  0.91215679  0.08784321  0.38393954  1
  Cl  Cl31  1  0.57497282  0.10364498  0.38252664  1
