# generated using pymatgen
data_PrSe2
_symmetry_space_group_name_H-M   'P 1'
_cell_length_a   4.22772978
_cell_length_b   8.48764365
_cell_length_c   8.61260294
_cell_angle_alpha   89.79807348
_cell_angle_beta   90.00000000
_cell_angle_gamma   90.00000000
_symmetry_Int_Tables_number   1
_chemical_formula_structural   PrSe2
_chemical_formula_sum   'Pr4 Se8'
_cell_volume   309.04810685
_cell_formula_units_Z   4
loop_
 _symmetry_equiv_pos_site_id
 _symmetry_equiv_pos_as_xyz
  1  'x, y, z'
loop_
 _atom_site_type_symbol
 _atom_site_label
 _atom_site_symmetry_multiplicity
 _atom_site_fract_x
 _atom_site_fract_y
 _atom_site_fract_z
 _atom_site_occupancy
  Pr  Pr0  1  0.27809179  0.37332485  0.27453266  1
  Pr  Pr1  1  0.72190821  0.62667515  0.72546734  1
  Pr  Pr2  1  0.77809179  0.12667515  0.72546734  1
  Pr  Pr3  1  0.22190821  0.87332485  0.27453266  1
  Se  Se4  1  0.31663498  0.11847922  0.99799033  1
  Se  Se5  1  0.75692460  0.12524647  0.36774198  1
  Se  Se6  1  0.18336502  0.61847922  0.99799033  1
  Se  Se7  1  0.81663498  0.38152078  0.00200967  1
  Se  Se8  1  0.25692460  0.37475353  0.63225802  1
  Se  Se9  1  0.68336502  0.88152078  0.00200967  1
  Se  Se10  1  0.74307540  0.62524647  0.36774198  1
  Se  Se11  1  0.24307540  0.87475353  0.63225802  1
