# generated using pymatgen
data_Li4MnCo2O7
_symmetry_space_group_name_H-M   'P 1'
_cell_length_a   2.91972007
_cell_length_b   13.50894818
_cell_length_c   6.60368970
_cell_angle_alpha   86.95600334
_cell_angle_beta   77.22826425
_cell_angle_gamma   96.20385042
_symmetry_Int_Tables_number   1
_chemical_formula_structural   Li4MnCo2O7
_chemical_formula_sum   'Li8 Mn2 Co4 O14'
_cell_volume   251.73560301
_cell_formula_units_Z   2
loop_
 _symmetry_equiv_pos_site_id
 _symmetry_equiv_pos_as_xyz
  1  'x, y, z'
loop_
 _atom_site_type_symbol
 _atom_site_label
 _atom_site_symmetry_multiplicity
 _atom_site_fract_x
 _atom_site_fract_y
 _atom_site_fract_z
 _atom_site_occupancy
  Li  Li0  1  0.35106874  0.07094511  0.36880763  1
  Li  Li1  1  0.07750326  0.21476989  0.05976437  1
  Li  Li2  1  0.78409987  0.35175488  0.78355415  1
  Li  Li3  1  0.64447113  0.93395912  0.64501685  1
  Li  Li4  1  0.92926994  0.78435890  0.92581802  1
  Li  Li5  1  0.49930106  0.50135510  0.50275298  1
  Li  Li6  1  0.21428600  0.64285700  0.21428600  1
  Li  Li7  1  0.71428600  0.14285700  0.71428600  1
  Mn  Mn8  1  0.00883993  0.00396456  0.98628471  1
  Mn  Mn9  1  0.41973107  0.28174944  0.44228629  1
  Co  Co10  1  0.14279247  0.42773307  0.14214813  1
  Co  Co11  1  0.85655333  0.57141017  0.85830351  1
  Co  Co12  1  0.57201867  0.71430483  0.57026849  1
  Co  Co13  1  0.28577853  0.85798093  0.28642287  1
  O  O14  1  0.52995784  0.09479012  0.03487445  1
  O  O15  1  0.26499311  0.25495073  0.72496551  1
  O  O16  1  0.96305902  0.38215246  0.45603341  1
  O  O17  1  0.82820500  0.95909920  0.30268921  1
  O  O18  1  0.10813183  0.81382857  0.59756390  1
  O  O19  1  0.67716021  0.52818028  0.17385986  1
  O  O20  1  0.39346309  0.67287251  0.88594733  1
  O  O21  1  0.16357889  0.03076427  0.70360649  1
  O  O22  1  0.89861416  0.19092488  0.39369755  1
  O  O23  1  0.60036600  0.32661480  0.12588179  1
  O  O24  1  0.46551198  0.90356154  0.97253759  1
  O  O25  1  0.75141079  0.75753372  0.25471114  1
  O  O26  1  0.32043917  0.47188543  0.83100710  1
  O  O27  1  0.03510891  0.61284149  0.54262467  1
