# generated using pymatgen
data_LiBeH3
_symmetry_space_group_name_H-M   'P 1'
_cell_length_a   6.05422491
_cell_length_b   6.16580078
_cell_length_c   13.21218812
_cell_angle_alpha   90.00000000
_cell_angle_beta   97.66504481
_cell_angle_gamma   90.00000000
_symmetry_Int_Tables_number   1
_chemical_formula_structural   LiBeH3
_chemical_formula_sum   'Li12 Be12 H36'
_cell_volume   488.79282295
_cell_formula_units_Z   12
loop_
 _symmetry_equiv_pos_site_id
 _symmetry_equiv_pos_as_xyz
  1  'x, y, z'
loop_
 _atom_site_type_symbol
 _atom_site_label
 _atom_site_symmetry_multiplicity
 _atom_site_fract_x
 _atom_site_fract_y
 _atom_site_fract_z
 _atom_site_occupancy
  Li  Li0  1  0.76073634  0.88222067  0.40684397  1
  Li  Li1  1  0.98951188  0.38098996  0.74772575  1
  Li  Li2  1  0.98951188  0.11901004  0.24772575  1
  Li  Li3  1  0.25277786  0.87240283  0.10096972  1
  Li  Li4  1  0.74722214  0.12759717  0.89903028  1
  Li  Li5  1  0.01048812  0.88098996  0.75227425  1
  Li  Li6  1  0.01048812  0.61901004  0.25227425  1
  Li  Li7  1  0.25277786  0.62759717  0.60096972  1
  Li  Li8  1  0.23926366  0.11777933  0.59315603  1
  Li  Li9  1  0.74722214  0.37240283  0.39903028  1
  Li  Li10  1  0.76073634  0.61777933  0.90684397  1
  Li  Li11  1  0.23926366  0.38222067  0.09315603  1
  Be  Be12  1  0.77151650  0.59326796  0.58773887  1
  Be  Be13  1  0.22417279  0.83430345  0.40824442  1
  Be  Be14  1  0.77582721  0.16569655  0.59175558  1
  Be  Be15  1  0.22848350  0.09326796  0.91226113  1
  Be  Be16  1  0.22417279  0.66569655  0.90824442  1
  Be  Be17  1  0.22848350  0.40673204  0.41226113  1
  Be  Be18  1  0.77582721  0.33430345  0.09175558  1
  Be  Be19  1  0.43432039  0.38235224  0.81378044  1
  Be  Be20  1  0.43432039  0.11764776  0.31378044  1
  Be  Be21  1  0.77151650  0.90673204  0.08773887  1
  Be  Be22  1  0.56567961  0.61764776  0.18621956  1
  Be  Be23  1  0.56567961  0.88235224  0.68621956  1
  H  H24  1  0.70749909  0.88300176  0.78119809  1
  H  H25  1  0.70762884  0.11991845  0.11594082  1
  H  H26  1  0.57750203  0.69556595  0.61986553  1
  H  H27  1  0.97279595  0.64420761  0.65154580  1
  H  H28  1  0.33159068  0.61869093  0.19402311  1
  H  H29  1  0.97396704  0.37968703  0.15872131  1
  H  H30  1  0.02720405  0.35579239  0.34845420  1
  H  H31  1  0.19730193  0.63114671  0.01015683  1
  H  H32  1  0.66840932  0.38130907  0.80597689  1
  H  H33  1  0.02603296  0.62031297  0.84127869  1
  H  H34  1  0.77474747  0.62344183  0.48210983  1
  H  H35  1  0.42249797  0.30443405  0.38013447  1
  H  H36  1  0.22525253  0.12344183  0.01789017  1
  H  H37  1  0.42249797  0.19556595  0.88013447  1
  H  H38  1  0.70762884  0.38008155  0.61594082  1
  H  H39  1  0.57566720  0.43563224  0.11751729  1
  H  H40  1  0.29250091  0.38300176  0.71880191  1
  H  H41  1  0.42433280  0.56436776  0.88248271  1
  H  H42  1  0.97279595  0.85579239  0.15154580  1
  H  H43  1  0.80269807  0.13114671  0.48984317  1
  H  H44  1  0.29237116  0.61991845  0.38405918  1
  H  H45  1  0.77474747  0.87655817  0.98210983  1
  H  H46  1  0.33159068  0.88130907  0.69402311  1
  H  H47  1  0.29250091  0.11699824  0.21880191  1
  H  H48  1  0.57566720  0.06436776  0.61751729  1
  H  H49  1  0.02603296  0.87968703  0.34127869  1
  H  H50  1  0.66840932  0.11869093  0.30597689  1
  H  H51  1  0.19730193  0.86885329  0.51015683  1
  H  H52  1  0.02720405  0.14420761  0.84845420  1
  H  H53  1  0.70749909  0.61699824  0.28119809  1
  H  H54  1  0.57750203  0.80443405  0.11986553  1
  H  H55  1  0.29237116  0.88008155  0.88405918  1
  H  H56  1  0.80269807  0.36885329  0.98984317  1
  H  H57  1  0.42433280  0.93563224  0.38248271  1
  H  H58  1  0.22525253  0.37655817  0.51789017  1
  H  H59  1  0.97396704  0.12031297  0.65872131  1
