# generated using pymatgen
data_NaAuCl4
_symmetry_space_group_name_H-M   'P 1'
_cell_length_a   11.58488094
_cell_length_b   11.60806736
_cell_length_c   21.15982350
_cell_angle_alpha   104.65567367
_cell_angle_beta   90.00000000
_cell_angle_gamma   90.00000000
_symmetry_Int_Tables_number   1
_chemical_formula_structural   NaAuCl4
_chemical_formula_sum   'Na16 Au16 Cl64'
_cell_volume   2752.94953513
_cell_formula_units_Z   16
loop_
 _symmetry_equiv_pos_site_id
 _symmetry_equiv_pos_as_xyz
  1  'x, y, z'
loop_
 _atom_site_type_symbol
 _atom_site_label
 _atom_site_symmetry_multiplicity
 _atom_site_fract_x
 _atom_site_fract_y
 _atom_site_fract_z
 _atom_site_occupancy
  Na  Na0  1  0.11805444  0.41940343  0.80506909  1
  Na  Na1  1  0.11523338  0.74434679  0.44432820  1
  Na  Na2  1  0.38476662  0.24434679  0.94432820  1
  Na  Na3  1  0.62860269  0.70821732  0.44591192  1
  Na  Na4  1  0.38194556  0.91940343  0.30506909  1
  Na  Na5  1  0.61805444  0.08059657  0.69493091  1
  Na  Na6  1  0.12860269  0.79178268  0.05408808  1
  Na  Na7  1  0.61523338  0.75565321  0.05567180  1
  Na  Na8  1  0.37139731  0.29178268  0.55408808  1
  Na  Na9  1  0.88194556  0.58059657  0.19493091  1
  Na  Na10  1  0.33113379  0.40422215  0.30361505  1
  Na  Na11  1  0.16886621  0.90422215  0.80361505  1
  Na  Na12  1  0.88476662  0.25565321  0.55567180  1
  Na  Na13  1  0.83113379  0.09577785  0.19638495  1
  Na  Na14  1  0.87139731  0.20821732  0.94591192  1
  Na  Na15  1  0.66886621  0.59577785  0.69638495  1
  Au  Au16  1  0.78931270  0.90305193  0.81150018  1
  Au  Au17  1  0.12626972  0.42740320  0.05281344  1
  Au  Au18  1  0.88913926  0.62820286  0.55761349  1
  Au  Au19  1  0.51382766  0.59416967  0.20163125  1
  Au  Au20  1  0.37373028  0.92740320  0.55281344  1
  Au  Au21  1  0.98617234  0.09416967  0.70163125  1
  Au  Au22  1  0.48617234  0.40583033  0.79836875  1
  Au  Au23  1  0.71068730  0.40305193  0.31150018  1
  Au  Au24  1  0.21068730  0.09694807  0.18849982  1
  Au  Au25  1  0.11086074  0.37179714  0.44238651  1
  Au  Au26  1  0.01382766  0.90583033  0.29836875  1
  Au  Au27  1  0.38913926  0.87179714  0.94238651  1
  Au  Au28  1  0.87373028  0.57259680  0.94718656  1
  Au  Au29  1  0.62626972  0.07259680  0.44718656  1
  Au  Au30  1  0.61086074  0.12820286  0.05761349  1
  Au  Au31  1  0.28931270  0.59694807  0.68849982  1
  Cl  Cl32  1  0.07245647  0.59468342  0.93788645  1
  Cl  Cl33  1  0.99712118  0.10409578  0.29730501  1
  Cl  Cl34  1  0.62364073  0.24586739  0.98369798  1
  Cl  Cl35  1  0.89604381  0.51222853  0.63267997  1
  Cl  Cl36  1  0.87635927  0.74586739  0.48369798  1
  Cl  Cl37  1  0.34108033  0.45282818  0.87640644  1
  Cl  Cl38  1  0.67616872  0.54839516  0.95357764  1
  Cl  Cl39  1  0.87024405  0.85409692  0.21894150  1
  Cl  Cl40  1  0.73823667  0.60402681  0.31649244  1
  Cl  Cl41  1  0.91093462  0.36132560  0.44481341  1
  Cl  Cl42  1  0.02897195  0.70890728  0.30382142  1
  Cl  Cl43  1  0.61497494  0.89463217  0.36685242  1
  Cl  Cl44  1  0.43240062  0.54313443  0.60933447  1
  Cl  Cl45  1  0.11497494  0.60536783  0.13314758  1
  Cl  Cl46  1  0.08906538  0.63867440  0.55518659  1
  Cl  Cl47  1  0.93240062  0.95686557  0.89066553  1
  Cl  Cl48  1  0.17616872  0.95160484  0.54642236  1
  Cl  Cl49  1  0.92754353  0.40531658  0.06211355  1
  Cl  Cl50  1  0.97102805  0.29109272  0.69617858  1
  Cl  Cl51  1  0.06759938  0.04313443  0.10933447  1
  Cl  Cl52  1  0.10395619  0.48777147  0.36732003  1
  Cl  Cl53  1  0.18112359  0.29673609  0.19389756  1
  Cl  Cl54  1  0.41093462  0.13867440  0.05518659  1
  Cl  Cl55  1  0.68112359  0.20326391  0.30610244  1
  Cl  Cl56  1  0.88502506  0.39463217  0.86685242  1
  Cl  Cl57  1  0.82383128  0.04839516  0.45357764  1
  Cl  Cl58  1  0.38502506  0.10536783  0.63314758  1
  Cl  Cl59  1  0.26176333  0.39597319  0.68350756  1
  Cl  Cl60  1  0.12364073  0.25413261  0.51630202  1
  Cl  Cl61  1  0.86650088  0.74855293  0.03004566  1
  Cl  Cl62  1  0.68904954  0.61682218  0.56074121  1
  Cl  Cl63  1  0.35365616  0.14663965  0.26814973  1
  Cl  Cl64  1  0.57245647  0.90531658  0.56211355  1
  Cl  Cl65  1  0.37635927  0.75413261  0.01630202  1
  Cl  Cl66  1  0.31095046  0.38317782  0.43925879  1
  Cl  Cl67  1  0.63349912  0.24855293  0.53004566  1
  Cl  Cl68  1  0.62975595  0.35409692  0.71894150  1
  Cl  Cl69  1  0.37024405  0.64590308  0.28105850  1
  Cl  Cl70  1  0.64634384  0.85336035  0.73185027  1
  Cl  Cl71  1  0.00287882  0.89590422  0.70269499  1
  Cl  Cl72  1  0.52897195  0.79109272  0.19617858  1
  Cl  Cl73  1  0.12975595  0.14590308  0.78105850  1
  Cl  Cl74  1  0.31887641  0.79673609  0.69389756  1
  Cl  Cl75  1  0.60395619  0.01222853  0.13267997  1
  Cl  Cl76  1  0.84108033  0.04717182  0.62359356  1
  Cl  Cl77  1  0.85365616  0.35336035  0.23185027  1
  Cl  Cl78  1  0.23823667  0.89597319  0.18350756  1
  Cl  Cl79  1  0.47102805  0.20890728  0.80382142  1
  Cl  Cl80  1  0.56759938  0.45686557  0.39066553  1
  Cl  Cl81  1  0.18904954  0.88317782  0.93925879  1
  Cl  Cl82  1  0.76176333  0.10402681  0.81649244  1
  Cl  Cl83  1  0.32383128  0.45160484  0.04642236  1
  Cl  Cl84  1  0.58906538  0.86132560  0.94481341  1
  Cl  Cl85  1  0.14634384  0.64663965  0.76814973  1
  Cl  Cl86  1  0.13349912  0.25144707  0.96995434  1
  Cl  Cl87  1  0.42754353  0.09468342  0.43788645  1
  Cl  Cl88  1  0.15891967  0.95282818  0.37640644  1
  Cl  Cl89  1  0.65891967  0.54717182  0.12359356  1
  Cl  Cl90  1  0.81095046  0.11682218  0.06074121  1
  Cl  Cl91  1  0.39604381  0.98777147  0.86732003  1
  Cl  Cl92  1  0.50287882  0.60409578  0.79730501  1
  Cl  Cl93  1  0.36650088  0.75144707  0.46995434  1
  Cl  Cl94  1  0.49712118  0.39590422  0.20269499  1
  Cl  Cl95  1  0.81887641  0.70326391  0.80610244  1
