# generated using pymatgen
data_NbSeCl3
_symmetry_space_group_name_H-M   'P 1'
_cell_length_a   6.64875945
_cell_length_b   7.09725326
_cell_length_c   12.13807799
_cell_angle_alpha   90.00000000
_cell_angle_beta   98.33769067
_cell_angle_gamma   90.00000000
_symmetry_Int_Tables_number   1
_chemical_formula_structural   NbSeCl3
_chemical_formula_sum   'Nb4 Se4 Cl12'
_cell_volume   566.71693496
_cell_formula_units_Z   4
loop_
 _symmetry_equiv_pos_site_id
 _symmetry_equiv_pos_as_xyz
  1  'x, y, z'
loop_
 _atom_site_type_symbol
 _atom_site_label
 _atom_site_symmetry_multiplicity
 _atom_site_fract_x
 _atom_site_fract_y
 _atom_site_fract_z
 _atom_site_occupancy
  Nb  Nb0  1  0.07195163  0.36204720  0.14619595  1
  Nb  Nb1  1  0.07195163  0.63795280  0.64619595  1
  Nb  Nb2  1  0.92804837  0.36204720  0.35380405  1
  Nb  Nb3  1  0.92804837  0.63795280  0.85380405  1
  Se  Se4  1  0.16202813  0.09124494  0.30128533  1
  Se  Se5  1  0.83797187  0.09124494  0.19871467  1
  Se  Se6  1  0.16202813  0.90875506  0.80128533  1
  Se  Se7  1  0.83797187  0.90875506  0.69871467  1
  Cl  Cl8  1  0.65114152  0.22394540  0.42782844  1
  Cl  Cl9  1  0.65114152  0.77605460  0.92782844  1
  Cl  Cl10  1  0.23585171  0.44912326  0.80188424  1
  Cl  Cl11  1  0.14770467  0.66970182  0.04090566  1
  Cl  Cl12  1  0.23585171  0.55087674  0.30188424  1
  Cl  Cl13  1  0.34885848  0.77605460  0.57217156  1
  Cl  Cl14  1  0.85229533  0.66970182  0.45909434  1
  Cl  Cl15  1  0.76414829  0.44912326  0.69811576  1
  Cl  Cl16  1  0.85229533  0.33029818  0.95909434  1
  Cl  Cl17  1  0.76414829  0.55087674  0.19811576  1
  Cl  Cl18  1  0.34885848  0.22394540  0.07217156  1
  Cl  Cl19  1  0.14770467  0.33029818  0.54090566  1
