# generated using pymatgen
data_Ba2GaGeN
_symmetry_space_group_name_H-M   'P 1'
_cell_length_a   4.25230017
_cell_length_b   7.31790089
_cell_length_c   9.40544346
_cell_angle_alpha   108.85920226
_cell_angle_beta   90.00000000
_cell_angle_gamma   90.00000000
_symmetry_Int_Tables_number   1
_chemical_formula_structural   Ba2GaGeN
_chemical_formula_sum   'Ba4 Ga2 Ge2 N2'
_cell_volume   276.96557341
_cell_formula_units_Z   2
loop_
 _symmetry_equiv_pos_site_id
 _symmetry_equiv_pos_as_xyz
  1  'x, y, z'
loop_
 _atom_site_type_symbol
 _atom_site_label
 _atom_site_symmetry_multiplicity
 _atom_site_fract_x
 _atom_site_fract_y
 _atom_site_fract_z
 _atom_site_occupancy
  Ba  Ba0  1  0.75000000  0.19031507  0.38299841  1
  Ba  Ba1  1  0.75000000  0.20478553  0.96178171  1
  Ba  Ba2  1  0.25000000  0.80968493  0.61700159  1
  Ba  Ba3  1  0.25000000  0.79521447  0.03821829  1
  Ga  Ga4  1  0.25000000  0.45961109  0.24592513  1
  Ga  Ga5  1  0.75000000  0.54038891  0.75407487  1
  Ge  Ge6  1  0.25000000  0.33976202  0.70315722  1
  Ge  Ge7  1  0.75000000  0.66023798  0.29684278  1
  N  N8  1  0.25000000  0.18471647  0.17325499  1
  N  N9  1  0.75000000  0.81528353  0.82674501  1
