# generated using pymatgen
data_Pr(AlGa)2
_symmetry_space_group_name_H-M   'P 1'
_cell_length_a   4.25459734
_cell_length_b   4.25460862
_cell_length_c   6.35740796
_cell_angle_alpha   109.61648801
_cell_angle_beta   109.61621386
_cell_angle_gamma   89.92938978
_symmetry_Int_Tables_number   1
_chemical_formula_structural   Pr(AlGa)2
_chemical_formula_sum   'Pr1 Al2 Ga2'
_cell_volume   101.30007247
_cell_formula_units_Z   1
loop_
 _symmetry_equiv_pos_site_id
 _symmetry_equiv_pos_as_xyz
  1  'x, y, z'
loop_
 _atom_site_type_symbol
 _atom_site_label
 _atom_site_symmetry_multiplicity
 _atom_site_fract_x
 _atom_site_fract_y
 _atom_site_fract_z
 _atom_site_occupancy
  Pr  Pr0  1  0.00000000  0.00000000  0.00000000  1
  Al  Al1  1  0.25000181  0.74999933  0.50000047  1
  Al  Al2  1  0.74999819  0.25000067  0.49999953  1
  Ga  Ga3  1  0.61258048  0.61258107  0.22523503  1
  Ga  Ga4  1  0.38741952  0.38741893  0.77476497  1
