# generated using pymatgen
data_Yb3Ge8
_symmetry_space_group_name_H-M   'P 1'
_cell_length_a   7.42226467
_cell_length_b   7.58894070
_cell_length_c   10.47161306
_cell_angle_alpha   69.01930217
_cell_angle_beta   69.80956684
_cell_angle_gamma   64.40085412
_symmetry_Int_Tables_number   1
_chemical_formula_structural   Yb3Ge8
_chemical_formula_sum   'Yb6 Ge16'
_cell_volume   483.80164441
_cell_formula_units_Z   2
loop_
 _symmetry_equiv_pos_site_id
 _symmetry_equiv_pos_as_xyz
  1  'x, y, z'
loop_
 _atom_site_type_symbol
 _atom_site_label
 _atom_site_symmetry_multiplicity
 _atom_site_fract_x
 _atom_site_fract_y
 _atom_site_fract_z
 _atom_site_occupancy
  Yb  Yb0  1  0.66907738  0.31910861  0.37432298  1
  Yb  Yb1  1  0.33092262  0.68089139  0.62567702  1
  Yb  Yb2  1  0.33683327  0.09187225  0.77528350  1
  Yb  Yb3  1  0.82115131  0.56252685  0.78082416  1
  Yb  Yb4  1  0.17884869  0.43747315  0.21917584  1
  Yb  Yb5  1  0.66316673  0.90812775  0.22471650  1
  Ge  Ge6  1  0.37500493  0.64164967  0.92520665  1
  Ge  Ge7  1  0.66620669  0.30761479  0.69241193  1
  Ge  Ge8  1  0.82363318  0.54899196  0.47450854  1
  Ge  Ge9  1  0.82680598  0.55353294  0.08259374  1
  Ge  Ge10  1  0.17636682  0.45100804  0.52549146  1
  Ge  Ge11  1  0.87520532  0.12776299  0.90646434  1
  Ge  Ge12  1  0.62499507  0.35835033  0.07479335  1
  Ge  Ge13  1  0.32453811  0.10667895  0.47909539  1
  Ge  Ge14  1  0.33379331  0.69238521  0.30758807  1
  Ge  Ge15  1  0.87357512  0.96782907  0.64488268  1
  Ge  Ge16  1  0.17319402  0.44646706  0.91740626  1
  Ge  Ge17  1  0.12479468  0.87223701  0.09353566  1
  Ge  Ge18  1  0.31701393  0.09404714  0.06872970  1
  Ge  Ge19  1  0.67546189  0.89332105  0.52090461  1
  Ge  Ge20  1  0.12642488  0.03217093  0.35511732  1
  Ge  Ge21  1  0.68298607  0.90595286  0.93127030  1
