# generated using pymatgen
data_Li4MnCo2O7
_symmetry_space_group_name_H-M   'P 1'
_cell_length_a   2.92705634
_cell_length_b   9.82330905
_cell_length_c   9.77051795
_cell_angle_alpha   114.31842845
_cell_angle_beta   90.00000000
_cell_angle_gamma   98.56812499
_symmetry_Int_Tables_number   1
_chemical_formula_structural   Li4MnCo2O7
_chemical_formula_sum   'Li8 Mn2 Co4 O14'
_cell_volume   252.56358553
_cell_formula_units_Z   2
loop_
 _symmetry_equiv_pos_site_id
 _symmetry_equiv_pos_as_xyz
  1  'x, y, z'
loop_
 _atom_site_type_symbol
 _atom_site_label
 _atom_site_symmetry_multiplicity
 _atom_site_fract_x
 _atom_site_fract_y
 _atom_site_fract_z
 _atom_site_occupancy
  Li  Li0  1  0.64124745  0.28249490  0.07712783  1
  Li  Li1  1  0.93329349  0.86658797  0.22132273  1
  Li  Li2  1  0.20956351  0.41912603  0.35010627  1
  Li  Li3  1  0.50160955  0.00321910  0.49430117  1
  Li  Li4  1  0.78448128  0.56896356  0.64120627  1
  Li  Li5  1  0.07142900  0.14285700  0.78571400  1
  Li  Li6  1  0.35837572  0.71675144  0.93022173  1
  Li  Li7  1  0.57142900  0.14285700  0.28571400  1
  Mn  Mn8  1  0.00386126  0.00772253  0.01069542  1
  Mn  Mn9  1  0.13899574  0.27799147  0.56073358  1
  Co  Co10  1  0.28554849  0.57109797  0.14243053  1
  Co  Co11  1  0.85730851  0.71461703  0.42899747  1
  Co  Co12  1  0.42784938  0.85569976  0.71462459  1
  Co  Co13  1  0.71500762  0.43001424  0.85680441  1
  O  O14  1  0.52999039  0.05998179  0.90069365  1
  O  O15  1  0.81716819  0.63433537  0.03885007  1
  O  O16  1  0.09873136  0.19746273  0.16164567  1
  O  O17  1  0.38876495  0.77752989  0.32510567  1
  O  O18  1  0.67525100  0.35050301  0.47732248  1
  O  O19  1  0.95996807  0.91993513  0.61485243  1
  O  O20  1  0.24248637  0.48497275  0.74682838  1
  O  O21  1  0.75409205  0.50818411  0.24632333  1
  O  O22  1  0.04412564  0.08825227  0.40978233  1
  O  O23  1  0.32568981  0.65137863  0.53257793  1
  O  O24  1  0.61286661  0.22573321  0.67073435  1
  O  O25  1  0.90037063  0.80074125  0.82460062  1
  O  O26  1  0.18288893  0.36577887  0.95657657  1
  O  O27  1  0.46760600  0.93521099  0.09410652  1
