# generated using pymatgen
data_La7Sb11Br4
_symmetry_space_group_name_H-M   'P 1'
_cell_length_a   4.34952232
_cell_length_b   19.87974177
_cell_length_c   31.25885401
_cell_angle_alpha   90.00000000
_cell_angle_beta   90.00000000
_cell_angle_gamma   90.00000000
_symmetry_Int_Tables_number   1
_chemical_formula_structural   La7Sb11Br4
_chemical_formula_sum   'La28 Sb44 Br16'
_cell_volume   2702.87122507
_cell_formula_units_Z   4
loop_
 _symmetry_equiv_pos_site_id
 _symmetry_equiv_pos_as_xyz
  1  'x, y, z'
loop_
 _atom_site_type_symbol
 _atom_site_label
 _atom_site_symmetry_multiplicity
 _atom_site_fract_x
 _atom_site_fract_y
 _atom_site_fract_z
 _atom_site_occupancy
  La  La0  1  0.75000000  0.19320969  0.11346486  1
  La  La1  1  0.25000000  0.02813441  0.63847236  1
  La  La2  1  0.25000000  0.80679031  0.88653514  1
  La  La3  1  0.75000000  0.47019565  0.42243923  1
  La  La4  1  0.25000000  0.36419709  0.25784249  1
  La  La5  1  0.25000000  0.14103755  0.51207314  1
  La  La6  1  0.25000000  0.25324012  0.38614245  1
  La  La7  1  0.25000000  0.97019565  0.07756077  1
  La  La8  1  0.25000000  0.13580291  0.75784249  1
  La  La9  1  0.75000000  0.08030692  0.24146779  1
  La  La10  1  0.25000000  0.69320969  0.38653514  1
  La  La11  1  0.75000000  0.41969308  0.74146779  1
  La  La12  1  0.75000000  0.74675988  0.61385755  1
  La  La13  1  0.25000000  0.52980435  0.57756077  1
  La  La14  1  0.75000000  0.86419709  0.24215751  1
  La  La15  1  0.25000000  0.24675988  0.88614245  1
  La  La16  1  0.75000000  0.75324012  0.11385755  1
  La  La17  1  0.25000000  0.35896245  0.01207314  1
  La  La18  1  0.75000000  0.97186559  0.36152764  1
  La  La19  1  0.75000000  0.52813441  0.86152764  1
  La  La20  1  0.75000000  0.63580291  0.74215751  1
  La  La21  1  0.75000000  0.64103755  0.98792686  1
  La  La22  1  0.75000000  0.02980435  0.92243923  1
  La  La23  1  0.75000000  0.85896245  0.48792686  1
  La  La24  1  0.75000000  0.30679031  0.61346486  1
  La  La25  1  0.25000000  0.58030692  0.25853221  1
  La  La26  1  0.25000000  0.91969308  0.75853221  1
  La  La27  1  0.25000000  0.47186559  0.13847236  1
  Sb  Sb28  1  0.75000000  0.35858706  0.33993822  1
  Sb  Sb29  1  0.75000000  0.52735477  0.65844828  1
  Sb  Sb30  1  0.75000000  0.97264523  0.15844828  1
  Sb  Sb31  1  0.25000000  0.97269631  0.28187976  1
  Sb  Sb32  1  0.75000000  0.69576722  0.21640564  1
  Sb  Sb33  1  0.25000000  0.30423278  0.78359436  1
  Sb  Sb34  1  0.75000000  0.14284988  0.34247664  1
  Sb  Sb35  1  0.75000000  0.91494280  0.84157273  1
  Sb  Sb36  1  0.75000000  0.36610385  0.09280299  1
  Sb  Sb37  1  0.25000000  0.75124773  0.78388432  1
  Sb  Sb38  1  0.75000000  0.80423278  0.71640564  1
  Sb  Sb39  1  0.75000000  0.02730369  0.71812024  1
  Sb  Sb40  1  0.25000000  0.19589264  0.65640047  1
  Sb  Sb41  1  0.25000000  0.19576722  0.28359436  1
  Sb  Sb42  1  0.75000000  0.24875227  0.21611568  1
  Sb  Sb43  1  0.25000000  0.41494280  0.65842727  1
  Sb  Sb44  1  0.75000000  0.02830414  0.46688957  1
  Sb  Sb45  1  0.75000000  0.47169586  0.96688957  1
  Sb  Sb46  1  0.25000000  0.97169586  0.53311043  1
  Sb  Sb47  1  0.75000000  0.25124773  0.71611568  1
  Sb  Sb48  1  0.25000000  0.52730369  0.78187976  1
  Sb  Sb49  1  0.25000000  0.85858706  0.16006178  1
  Sb  Sb50  1  0.25000000  0.52830414  0.03311043  1
  Sb  Sb51  1  0.75000000  0.14141294  0.83993822  1
  Sb  Sb52  1  0.25000000  0.64141294  0.66006178  1
  Sb  Sb53  1  0.75000000  0.58240451  0.09143910  1
  Sb  Sb54  1  0.75000000  0.58505720  0.34157273  1
  Sb  Sb55  1  0.25000000  0.41759549  0.90856090  1
  Sb  Sb56  1  0.75000000  0.80410736  0.34359953  1
  Sb  Sb57  1  0.25000000  0.86610385  0.40719701  1
  Sb  Sb58  1  0.25000000  0.47264523  0.34155172  1
  Sb  Sb59  1  0.75000000  0.47269631  0.21812024  1
  Sb  Sb60  1  0.25000000  0.63389615  0.90719701  1
  Sb  Sb61  1  0.75000000  0.13389615  0.59280299  1
  Sb  Sb62  1  0.25000000  0.08505720  0.15842727  1
  Sb  Sb63  1  0.25000000  0.85715012  0.65752336  1
  Sb  Sb64  1  0.25000000  0.08240451  0.40856090  1
  Sb  Sb65  1  0.75000000  0.91759549  0.59143910  1
  Sb  Sb66  1  0.25000000  0.74875227  0.28388432  1
  Sb  Sb67  1  0.75000000  0.35715012  0.84247664  1
  Sb  Sb68  1  0.75000000  0.69589264  0.84359953  1
  Sb  Sb69  1  0.25000000  0.30410736  0.15640047  1
  Sb  Sb70  1  0.25000000  0.64284988  0.15752336  1
  Sb  Sb71  1  0.25000000  0.02735477  0.84155172  1
  Br  Br72  1  0.25000000  0.21221528  0.04705950  1
  Br  Br73  1  0.25000000  0.77223175  0.53984567  1
  Br  Br74  1  0.75000000  0.43917946  0.53975081  1
  Br  Br75  1  0.75000000  0.27223175  0.96015433  1
  Br  Br76  1  0.75000000  0.71221528  0.45294050  1
  Br  Br77  1  0.75000000  0.06082054  0.03975081  1
  Br  Br78  1  0.25000000  0.72776825  0.03984567  1
  Br  Br79  1  0.25000000  0.56082054  0.46024919  1
  Br  Br80  1  0.25000000  0.28778472  0.54705950  1
  Br  Br81  1  0.25000000  0.37378677  0.44928438  1
  Br  Br82  1  0.75000000  0.62621323  0.55071562  1
  Br  Br83  1  0.25000000  0.93917946  0.96024919  1
  Br  Br84  1  0.25000000  0.12621323  0.94928438  1
  Br  Br85  1  0.75000000  0.87378677  0.05071562  1
  Br  Br86  1  0.75000000  0.22776825  0.46015433  1
  Br  Br87  1  0.75000000  0.78778472  0.95294050  1
