# generated using pymatgen
data_MnTlCl3
_symmetry_space_group_name_H-M   'P 1'
_cell_length_a   3.86639381
_cell_length_b   9.18479306
_cell_length_c   14.80879218
_cell_angle_alpha   90.00000000
_cell_angle_beta   90.00000000
_cell_angle_gamma   90.00000000
_symmetry_Int_Tables_number   1
_chemical_formula_structural   MnTlCl3
_chemical_formula_sum   'Mn4 Tl4 Cl12'
_cell_volume   525.89022823
_cell_formula_units_Z   4
loop_
 _symmetry_equiv_pos_site_id
 _symmetry_equiv_pos_as_xyz
  1  'x, y, z'
loop_
 _atom_site_type_symbol
 _atom_site_label
 _atom_site_symmetry_multiplicity
 _atom_site_fract_x
 _atom_site_fract_y
 _atom_site_fract_z
 _atom_site_occupancy
  Mn  Mn0  1  0.75000000  0.83767621  0.94621583  1
  Mn  Mn1  1  0.25000000  0.16232379  0.05378417  1
  Mn  Mn2  1  0.25000000  0.66232379  0.44621583  1
  Mn  Mn3  1  0.75000000  0.33767621  0.55378417  1
  Tl  Tl4  1  0.75000000  0.55860372  0.17680635  1
  Tl  Tl5  1  0.25000000  0.44139628  0.82319365  1
  Tl  Tl6  1  0.25000000  0.94139628  0.67680635  1
  Tl  Tl7  1  0.75000000  0.05860372  0.32319365  1
  Cl  Cl8  1  0.25000000  0.27492020  0.20279190  1
  Cl  Cl9  1  0.75000000  0.81758117  0.50538968  1
  Cl  Cl10  1  0.75000000  0.48302139  0.40259198  1
  Cl  Cl11  1  0.75000000  0.98302139  0.09740802  1
  Cl  Cl12  1  0.75000000  0.31758117  0.99461032  1
  Cl  Cl13  1  0.25000000  0.01697861  0.90259198  1
  Cl  Cl14  1  0.75000000  0.22507980  0.70279190  1
  Cl  Cl15  1  0.25000000  0.51697861  0.59740802  1
  Cl  Cl16  1  0.25000000  0.18241883  0.49461032  1
  Cl  Cl17  1  0.25000000  0.77492020  0.29720810  1
  Cl  Cl18  1  0.25000000  0.68241883  0.00538968  1
  Cl  Cl19  1  0.75000000  0.72507980  0.79720810  1
