# generated using pymatgen
data_InSb2Se4Br
_symmetry_space_group_name_H-M   'P 1'
_cell_length_a   4.05921615
_cell_length_b   10.85267565
_cell_length_c   11.96643904
_cell_angle_alpha   65.84054059
_cell_angle_beta   80.25424016
_cell_angle_gamma   79.20643368
_symmetry_Int_Tables_number   1
_chemical_formula_structural   InSb2Se4Br
_chemical_formula_sum   'In2 Sb4 Se8 Br2'
_cell_volume   469.94799265
_cell_formula_units_Z   2
loop_
 _symmetry_equiv_pos_site_id
 _symmetry_equiv_pos_as_xyz
  1  'x, y, z'
loop_
 _atom_site_type_symbol
 _atom_site_label
 _atom_site_symmetry_multiplicity
 _atom_site_fract_x
 _atom_site_fract_y
 _atom_site_fract_z
 _atom_site_occupancy
  In  In0  1  0.66329765  0.11270795  0.56008248  1
  In  In1  1  0.33670235  0.88729205  0.43991752  1
  Sb  Sb2  1  0.70431093  0.68200114  0.90966150  1
  Sb  Sb3  1  0.29568907  0.31799886  0.09033850  1
  Sb  Sb4  1  0.04953595  0.68207833  0.21926650  1
  Sb  Sb5  1  0.95046405  0.31792167  0.78073350  1
  Se  Se6  1  0.09954396  0.82329742  0.97749008  1
  Se  Se7  1  0.68033795  0.50140910  0.13901423  1
  Se  Se8  1  0.31966205  0.49859090  0.86098577  1
  Se  Se9  1  0.46291798  0.85616119  0.21774077  1
  Se  Se10  1  0.21164956  0.92269281  0.65418110  1
  Se  Se11  1  0.53708202  0.14383881  0.78225923  1
  Se  Se12  1  0.78835044  0.07730719  0.34581890  1
  Se  Se13  1  0.90045604  0.17670258  0.02250992  1
  Br  Br14  1  0.10383555  0.32105666  0.47178602  1
  Br  Br15  1  0.89616445  0.67894334  0.52821398  1
