# generated using pymatgen
data_Ba(SbAu)2
_symmetry_space_group_name_H-M   'P 1'
_cell_length_a   4.87505712
_cell_length_b   4.99508179
_cell_length_c   11.30465274
_cell_angle_alpha   91.24250946
_cell_angle_beta   90.00000000
_cell_angle_gamma   90.00000000
_symmetry_Int_Tables_number   1
_chemical_formula_structural   Ba(SbAu)2
_chemical_formula_sum   'Ba2 Sb4 Au4'
_cell_volume   275.21836535
_cell_formula_units_Z   2
loop_
 _symmetry_equiv_pos_site_id
 _symmetry_equiv_pos_as_xyz
  1  'x, y, z'
loop_
 _atom_site_type_symbol
 _atom_site_label
 _atom_site_symmetry_multiplicity
 _atom_site_fract_x
 _atom_site_fract_y
 _atom_site_fract_z
 _atom_site_occupancy
  Ba  Ba0  1  0.25000000  0.26227884  0.75592514  1
  Ba  Ba1  1  0.75000000  0.73772116  0.24407486  1
  Sb  Sb2  1  0.75000000  0.24731006  0.50108495  1
  Sb  Sb3  1  0.25000000  0.75268994  0.49891505  1
  Sb  Sb4  1  0.25000000  0.19511969  0.12365087  1
  Sb  Sb5  1  0.75000000  0.80488031  0.87634913  1
  Au  Au6  1  0.75000000  0.31027255  0.00071492  1
  Au  Au7  1  0.75000000  0.74818967  0.63378057  1
  Au  Au8  1  0.25000000  0.25181033  0.36621943  1
  Au  Au9  1  0.25000000  0.68972745  0.99928508  1
