# generated using pymatgen
data_Li4MnCo2O7
_symmetry_space_group_name_H-M   'P 1'
_cell_length_a   2.92375442
_cell_length_b   10.62896646
_cell_length_c   8.36510583
_cell_angle_alpha   78.47314574
_cell_angle_beta   90.00000000
_cell_angle_gamma   82.09464627
_symmetry_Int_Tables_number   1
_chemical_formula_structural   Li4MnCo2O7
_chemical_formula_sum   'Li8 Mn2 Co4 O14'
_cell_volume   252.19321574
_cell_formula_units_Z   2
loop_
 _symmetry_equiv_pos_site_id
 _symmetry_equiv_pos_as_xyz
  1  'x, y, z'
loop_
 _atom_site_type_symbol
 _atom_site_label
 _atom_site_symmetry_multiplicity
 _atom_site_fract_x
 _atom_site_fract_y
 _atom_site_fract_z
 _atom_site_occupancy
  Li  Li0  1  0.42857100  0.14285700  0.21428600  1
  Li  Li1  1  0.28897970  0.42203960  0.64434090  1
  Li  Li2  1  0.14397524  0.71204952  0.06923231  1
  Li  Li3  1  0.99939792  0.00120416  0.51574522  1
  Li  Li4  1  0.85774508  0.28450984  0.91282578  1
  Li  Li5  1  0.71316776  0.57366548  0.35933969  1
  Li  Li6  1  0.56816330  0.86367440  0.78423010  1
  Li  Li7  1  0.42857100  0.14285700  0.71428600  1
  Mn  Mn8  1  0.99850152  0.00299696  0.98818078  1
  Mn  Mn9  1  0.85864148  0.28271704  0.44039022  1
  Co  Co10  1  0.71518392  0.56963316  0.85680140  1
  Co  Co11  1  0.57061531  0.85877039  0.28460193  1
  Co  Co12  1  0.28652769  0.42694361  0.14396907  1
  Co  Co13  1  0.14195908  0.71608184  0.57177060  1
  O  O14  1  0.43634638  0.12730723  0.97056039  1
  O  O15  1  0.29330969  0.41338063  0.39449759  1
  O  O16  1  0.14936064  0.70127971  0.82160498  1
  O  O17  1  0.00487750  0.99024601  0.23647136  1
  O  O18  1  0.85623934  0.28752032  0.65669537  1
  O  O19  1  0.71946947  0.56106005  0.10747875  1
  O  O20  1  0.57398794  0.85202411  0.53214601  1
  O  O21  1  0.42079662  0.15840677  0.45801061  1
  O  O22  1  0.28315506  0.43369089  0.89642599  1
  O  O23  1  0.13767353  0.72465395  0.32109225  1
  O  O24  1  0.00090266  0.99819368  0.77187663  1
  O  O25  1  0.85226550  0.29546799  0.19209964  1
  O  O26  1  0.70778236  0.58443529  0.60696702  1
  O  O27  1  0.56383331  0.87233337  0.03407341  1
