# generated using pymatgen
data_TlGaI4
_symmetry_space_group_name_H-M   'P 1'
_cell_length_a   8.12338076
_cell_length_b   8.41248909
_cell_length_c   16.48539488
_cell_angle_alpha   95.31650902
_cell_angle_beta   90.00000000
_cell_angle_gamma   90.00000000
_symmetry_Int_Tables_number   1
_chemical_formula_structural   TlGaI4
_chemical_formula_sum   'Tl4 Ga4 I16'
_cell_volume   1121.72999037
_cell_formula_units_Z   4
loop_
 _symmetry_equiv_pos_site_id
 _symmetry_equiv_pos_as_xyz
  1  'x, y, z'
loop_
 _atom_site_type_symbol
 _atom_site_label
 _atom_site_symmetry_multiplicity
 _atom_site_fract_x
 _atom_site_fract_y
 _atom_site_fract_z
 _atom_site_occupancy
  Tl  Tl0  1  0.00365407  0.74454060  0.13781465  1
  Tl  Tl1  1  0.99634593  0.25545940  0.86218535  1
  Tl  Tl2  1  0.50365407  0.25545940  0.36218535  1
  Tl  Tl3  1  0.49634593  0.74454060  0.63781465  1
  Ga  Ga4  1  0.14192693  0.75638577  0.86062396  1
  Ga  Ga5  1  0.35807307  0.75638577  0.36062396  1
  Ga  Ga6  1  0.64192693  0.24361423  0.63937604  1
  Ga  Ga7  1  0.85807307  0.24361423  0.13937604  1
  I  I8  1  0.34649404  0.98570201  0.83992724  1
  I  I9  1  0.14352820  0.13828168  0.08943172  1
  I  I10  1  0.23884389  0.58032115  0.46808905  1
  I  I11  1  0.39079839  0.58323068  0.22311908  1
  I  I12  1  0.65350596  0.01429799  0.16007276  1
  I  I13  1  0.60920161  0.41676932  0.77688092  1
  I  I14  1  0.64352820  0.86171832  0.41056828  1
  I  I15  1  0.76115611  0.41967885  0.53191095  1
  I  I16  1  0.85647180  0.86171832  0.91056828  1
  I  I17  1  0.26115611  0.58032115  0.96808905  1
  I  I18  1  0.35647180  0.13828168  0.58943172  1
  I  I19  1  0.89079839  0.41676932  0.27688092  1
  I  I20  1  0.84649404  0.01429799  0.66007276  1
  I  I21  1  0.15350596  0.98570201  0.33992724  1
  I  I22  1  0.10920161  0.58323068  0.72311908  1
  I  I23  1  0.73884389  0.41967885  0.03191095  1
