# generated using pymatgen
data_PBr2N
_symmetry_space_group_name_H-M   'P 1'
_cell_length_a   6.78485304
_cell_length_b   11.91923787
_cell_length_c   11.91923787
_cell_angle_alpha   90.00000000
_cell_angle_beta   90.00000000
_cell_angle_gamma   90.00000000
_symmetry_Int_Tables_number   1
_chemical_formula_structural   PBr2N
_chemical_formula_sum   'P8 Br16 N8'
_cell_volume   963.91207171
_cell_formula_units_Z   8
loop_
 _symmetry_equiv_pos_site_id
 _symmetry_equiv_pos_as_xyz
  1  'x, y, z'
loop_
 _atom_site_type_symbol
 _atom_site_label
 _atom_site_symmetry_multiplicity
 _atom_site_fract_x
 _atom_site_fract_y
 _atom_site_fract_z
 _atom_site_occupancy
  P  P0  1  0.19884312  0.08799397  0.29269826  1
  P  P1  1  0.69884312  0.70730174  0.58799397  1
  P  P2  1  0.30115688  0.20730174  0.08799397  1
  P  P3  1  0.80115688  0.91200603  0.70730174  1
  P  P4  1  0.80115688  0.58799397  0.79269826  1
  P  P5  1  0.30115688  0.29269826  0.41200603  1
  P  P6  1  0.69884312  0.79269826  0.91200603  1
  P  P7  1  0.19884312  0.41200603  0.20730174  1
  Br  Br8  1  0.89327525  0.05865936  0.34882871  1
  Br  Br9  1  0.16353787  0.19351656  0.92068728  1
  Br  Br10  1  0.10672475  0.94134064  0.65117129  1
  Br  Br11  1  0.83646213  0.69351656  0.42068728  1
  Br  Br12  1  0.39327525  0.65117129  0.55865936  1
  Br  Br13  1  0.10672475  0.55865936  0.84882871  1
  Br  Br14  1  0.60672475  0.15117129  0.05865936  1
  Br  Br15  1  0.83646213  0.80648344  0.07931272  1
  Br  Br16  1  0.33646213  0.57931272  0.19351656  1
  Br  Br17  1  0.66353787  0.07931272  0.69351656  1
  Br  Br18  1  0.66353787  0.42068728  0.80648344  1
  Br  Br19  1  0.33646213  0.92068728  0.30648344  1
  Br  Br20  1  0.60672475  0.34882871  0.44134064  1
  Br  Br21  1  0.16353787  0.30648344  0.57931272  1
  Br  Br22  1  0.89327525  0.44134064  0.15117129  1
  Br  Br23  1  0.39327525  0.84882871  0.94134064  1
  N  N24  1  0.81891568  0.62202914  0.66428345  1
  N  N25  1  0.68108432  0.83571655  0.62202914  1
  N  N26  1  0.31891568  0.33571655  0.12202914  1
  N  N27  1  0.81891568  0.87797086  0.83571655  1
  N  N28  1  0.18108432  0.12202914  0.16428345  1
  N  N29  1  0.31891568  0.16428345  0.37797086  1
  N  N30  1  0.18108432  0.37797086  0.33571655  1
  N  N31  1  0.68108432  0.66428345  0.87797086  1
