# generated using pymatgen
data_K4Sr2SnAs4
_symmetry_space_group_name_H-M   'P 1'
_cell_length_a   18.29855005
_cell_length_b   18.29855041
_cell_length_c   7.76537657
_cell_angle_alpha   90.00000000
_cell_angle_beta   90.00000000
_cell_angle_gamma   119.99999932
_symmetry_Int_Tables_number   1
_chemical_formula_structural   K4Sr2SnAs4
_chemical_formula_sum   'K24 Sr12 Sn6 As24'
_cell_volume   2251.78292096
_cell_formula_units_Z   6
loop_
 _symmetry_equiv_pos_site_id
 _symmetry_equiv_pos_as_xyz
  1  'x, y, z'
loop_
 _atom_site_type_symbol
 _atom_site_label
 _atom_site_symmetry_multiplicity
 _atom_site_fract_x
 _atom_site_fract_y
 _atom_site_fract_z
 _atom_site_occupancy
  K  K0  1  0.65923790  0.47697734  0.31069632  1
  K  K1  1  0.34076210  0.52302266  0.81069632  1
  K  K2  1  0.13349707  0.13349707  0.79108208  1
  K  K3  1  0.34076210  0.81773943  0.31069632  1
  K  K4  1  0.47697734  0.81773943  0.81069632  1
  K  K5  1  0.86650293  0.00000000  0.79108208  1
  K  K6  1  0.18226057  0.65923790  0.81069632  1
  K  K7  1  0.47697734  0.65923790  0.31069632  1
  K  K8  1  0.00000000  0.13349707  0.29108208  1
  K  K9  1  0.13349707  0.00000000  0.29108208  1
  K  K10  1  0.46783934  0.46783934  0.11956808  1
  K  K11  1  0.18226057  0.52302266  0.31069632  1
  K  K12  1  0.86650293  0.86650293  0.29108208  1
  K  K13  1  0.53216066  0.00000000  0.11956808  1
  K  K14  1  0.53216066  0.53216066  0.61956808  1
  K  K15  1  0.46783934  0.00000000  0.61956808  1
  K  K16  1  0.00000000  0.53216066  0.11956808  1
  K  K17  1  0.65923790  0.18226057  0.81069632  1
  K  K18  1  0.52302266  0.18226057  0.31069632  1
  K  K19  1  0.00000000  0.86650293  0.79108208  1
  K  K20  1  0.81773943  0.47697734  0.81069632  1
  K  K21  1  0.00000000  0.46783934  0.61956808  1
  K  K22  1  0.81773943  0.34076210  0.31069632  1
  K  K23  1  0.52302266  0.34076210  0.81069632  1
  Sr  Sr24  1  0.81027777  0.67024401  0.61952223  1
  Sr  Sr25  1  0.14003376  0.81027777  0.11952223  1
  Sr  Sr26  1  0.14003376  0.32975599  0.61952223  1
  Sr  Sr27  1  0.85996624  0.67024401  0.11952223  1
  Sr  Sr28  1  0.67024401  0.85996624  0.11952223  1
  Sr  Sr29  1  0.32975599  0.18972223  0.11952223  1
  Sr  Sr30  1  0.18972223  0.85996624  0.61952223  1
  Sr  Sr31  1  0.81027777  0.14003376  0.11952223  1
  Sr  Sr32  1  0.32975599  0.14003376  0.61952223  1
  Sr  Sr33  1  0.18972223  0.32975599  0.11952223  1
  Sr  Sr34  1  0.85996624  0.18972223  0.61952223  1
  Sr  Sr35  1  0.67024401  0.81027777  0.61952223  1
  Sn  Sn36  1  0.66879029  0.66879029  1.00178440  1
  Sn  Sn37  1  0.00000000  0.33120971  1.00178440  1
  Sn  Sn38  1  0.00000000  0.66879029  0.50178440  1
  Sn  Sn39  1  0.33120971  0.33120971  0.50178440  1
  Sn  Sn40  1  0.66879029  0.00000000  0.50178440  1
  Sn  Sn41  1  0.33120971  0.00000000  1.00178440  1
  As  As42  1  0.19393134  0.19393134  0.38061213  1
  As  As43  1  0.31696716  0.00000000  0.34677005  1
  As  As44  1  0.14394770  0.46201641  0.89499808  1
  As  As45  1  0.80606866  0.00000000  0.38061213  1
  As  As46  1  0.31806871  0.85605230  0.89499808  1
  As  As47  1  0.53798359  0.68193129  0.89499808  1
  As  As48  1  0.68303284  0.68303284  0.34677005  1
  As  As49  1  0.80606866  0.80606866  0.88061213  1
  As  As50  1  0.00000000  0.68303284  0.84677005  1
  As  As51  1  0.46201641  0.14394770  0.89499808  1
  As  As52  1  0.85605230  0.31806871  0.89499808  1
  As  As53  1  0.31806871  0.46201641  0.39499808  1
  As  As54  1  0.68193129  0.14394770  0.39499808  1
  As  As55  1  0.85605230  0.53798359  0.39499808  1
  As  As56  1  0.19393134  0.00000000  0.88061213  1
  As  As57  1  0.00000000  0.80606866  0.38061213  1
  As  As58  1  0.68303284  0.00000000  0.84677005  1
  As  As59  1  0.00000000  0.19393134  0.88061213  1
  As  As60  1  0.14394770  0.68193129  0.39499808  1
  As  As61  1  0.46201641  0.31806871  0.39499808  1
  As  As62  1  0.00000000  0.31696716  0.34677005  1
  As  As63  1  0.68193129  0.53798359  0.89499808  1
  As  As64  1  0.31696716  0.31696716  0.84677005  1
  As  As65  1  0.53798359  0.85605230  0.39499808  1
