# generated using pymatgen
data_AgAuCl4
_symmetry_space_group_name_H-M   'P 1'
_cell_length_a   4.38896773
_cell_length_b   6.96970122
_cell_length_c   12.01541020
_cell_angle_alpha   83.65082295
_cell_angle_beta   79.46953759
_cell_angle_gamma   71.65754206
_symmetry_Int_Tables_number   1
_chemical_formula_structural   AgAuCl4
_chemical_formula_sum   'Ag2 Au2 Cl8'
_cell_volume   342.44373445
_cell_formula_units_Z   2
loop_
 _symmetry_equiv_pos_site_id
 _symmetry_equiv_pos_as_xyz
  1  'x, y, z'
loop_
 _atom_site_type_symbol
 _atom_site_label
 _atom_site_symmetry_multiplicity
 _atom_site_fract_x
 _atom_site_fract_y
 _atom_site_fract_z
 _atom_site_occupancy
  Ag  Ag0  1  0.50844686  0.74984374  0.24996703  1
  Ag  Ag1  1  0.49155314  0.25015626  0.75003297  1
  Au  Au2  1  0.00000000  0.00000000  0.00000000  1
  Au  Au3  1  0.00000000  0.50000000  0.50000000  1
  Cl  Cl4  1  0.83210907  0.31608837  0.90520783  1
  Cl  Cl5  1  0.05360349  0.18387485  0.59476420  1
  Cl  Cl6  1  0.18865363  0.60085421  0.64642449  1
  Cl  Cl7  1  0.43543351  0.89904741  0.85339557  1
  Cl  Cl8  1  0.81134637  0.39914579  0.35357551  1
  Cl  Cl9  1  0.16789093  0.68391163  0.09479217  1
  Cl  Cl10  1  0.94639651  0.81612515  0.40523580  1
  Cl  Cl11  1  0.56456649  0.10095259  0.14660443  1
