# generated using pymatgen
data_PrNiSb3
_symmetry_space_group_name_H-M   'P 1'
_cell_length_a   6.28139619
_cell_length_b   12.70379456
_cell_length_c   18.57408243
_cell_angle_alpha   90.00000000
_cell_angle_beta   90.00000000
_cell_angle_gamma   90.00000000
_symmetry_Int_Tables_number   1
_chemical_formula_structural   PrNiSb3
_chemical_formula_sum   'Pr12 Ni12 Sb36'
_cell_volume   1482.16658249
_cell_formula_units_Z   12
loop_
 _symmetry_equiv_pos_site_id
 _symmetry_equiv_pos_as_xyz
  1  'x, y, z'
loop_
 _atom_site_type_symbol
 _atom_site_label
 _atom_site_symmetry_multiplicity
 _atom_site_fract_x
 _atom_site_fract_y
 _atom_site_fract_z
 _atom_site_occupancy
  Pr  Pr0  1  0.52771825  0.70074094  0.58358633  1
  Pr  Pr1  1  0.47228175  0.29925906  0.08358633  1
  Pr  Pr2  1  0.97228175  0.70074094  0.41641367  1
  Pr  Pr3  1  0.02771825  0.29925906  0.91641367  1
  Pr  Pr4  1  0.05911887  0.69451135  0.75000000  1
  Pr  Pr5  1  0.44088113  0.69451135  0.25000000  1
  Pr  Pr6  1  0.97228175  0.70074094  0.08358633  1
  Pr  Pr7  1  0.47228175  0.29925906  0.41641367  1
  Pr  Pr8  1  0.94088113  0.30548865  0.25000000  1
  Pr  Pr9  1  0.55911887  0.30548865  0.75000000  1
  Pr  Pr10  1  0.02771825  0.29925906  0.58358633  1
  Pr  Pr11  1  0.52771825  0.70074094  0.91641367  1
  Ni  Ni12  1  0.32705595  0.09906150  0.67589897  1
  Ni  Ni13  1  0.17294405  0.09906150  0.17589897  1
  Ni  Ni14  1  0.25000000  0.89767624  0.50000000  1
  Ni  Ni15  1  0.67294405  0.90093850  0.32410103  1
  Ni  Ni16  1  0.67294405  0.90093850  0.17589897  1
  Ni  Ni17  1  0.17294405  0.09906150  0.32410103  1
  Ni  Ni18  1  0.82705595  0.90093850  0.82410103  1
  Ni  Ni19  1  0.82705595  0.90093850  0.67589897  1
  Ni  Ni20  1  0.32705595  0.09906150  0.82410103  1
  Ni  Ni21  1  0.75000000  0.10232376  0.00000000  1
  Ni  Ni22  1  0.25000000  0.89767624  0.00000000  1
  Ni  Ni23  1  0.75000000  0.10232376  0.50000000  1
  Sb  Sb24  1  0.97328904  0.22416127  0.41583595  1
  Sb  Sb25  1  0.94463081  0.78008207  0.25000000  1
  Sb  Sb26  1  0.70456635  0.50352332  0.33401502  1
  Sb  Sb27  1  0.54112610  0.97423218  0.58670519  1
  Sb  Sb28  1  0.18391309  0.94310222  0.75000000  1
  Sb  Sb29  1  0.68391309  0.05689778  0.75000000  1
  Sb  Sb30  1  0.44463081  0.21991793  0.25000000  1
  Sb  Sb31  1  0.55536919  0.78008207  0.75000000  1
  Sb  Sb32  1  0.31608691  0.94310222  0.25000000  1
  Sb  Sb33  1  0.81608691  0.05689778  0.25000000  1
  Sb  Sb34  1  0.52671096  0.22416127  0.91583595  1
  Sb  Sb35  1  0.79543365  0.50352332  0.66598498  1
  Sb  Sb36  1  0.20456635  0.49647668  0.16598498  1
  Sb  Sb37  1  0.75000000  0.49626162  0.00000000  1
  Sb  Sb38  1  0.04112610  0.02576782  0.58670519  1
  Sb  Sb39  1  0.75000000  0.49626162  0.50000000  1
  Sb  Sb40  1  0.05536919  0.21991793  0.75000000  1
  Sb  Sb41  1  0.47328904  0.77583873  0.41583595  1
  Sb  Sb42  1  0.04112610  0.02576782  0.91329481  1
  Sb  Sb43  1  0.29543365  0.49647668  0.66598498  1
  Sb  Sb44  1  0.70456635  0.50352332  0.16598498  1
  Sb  Sb45  1  0.25000000  0.50373838  0.00000000  1
  Sb  Sb46  1  0.79543365  0.50352332  0.83401502  1
  Sb  Sb47  1  0.54112610  0.97423218  0.91329481  1
  Sb  Sb48  1  0.47328904  0.77583873  0.08416405  1
  Sb  Sb49  1  0.95887390  0.97423218  0.08670519  1
  Sb  Sb50  1  0.95887390  0.97423218  0.41329481  1
  Sb  Sb51  1  0.97328904  0.22416127  0.08416405  1
  Sb  Sb52  1  0.45887390  0.02576782  0.08670519  1
  Sb  Sb53  1  0.29543365  0.49647668  0.83401502  1
  Sb  Sb54  1  0.45887390  0.02576782  0.41329481  1
  Sb  Sb55  1  0.20456635  0.49647668  0.33401502  1
  Sb  Sb56  1  0.52671096  0.22416127  0.58416405  1
  Sb  Sb57  1  0.25000000  0.50373838  0.50000000  1
  Sb  Sb58  1  0.02671096  0.77583873  0.91583595  1
  Sb  Sb59  1  0.02671096  0.77583873  0.58416405  1
