# generated using pymatgen
data_Ba5Al2Ge7
_symmetry_space_group_name_H-M   'P 1'
_cell_length_a   6.80766680
_cell_length_b   6.80766684
_cell_length_c   18.68978784
_cell_angle_alpha   98.61531085
_cell_angle_beta   98.61531089
_cell_angle_gamma   100.10281134
_symmetry_Int_Tables_number   1
_chemical_formula_structural   Ba5Al2Ge7
_chemical_formula_sum   'Ba10 Al4 Ge14'
_cell_volume   829.20474491
_cell_formula_units_Z   2
loop_
 _symmetry_equiv_pos_site_id
 _symmetry_equiv_pos_as_xyz
  1  'x, y, z'
loop_
 _atom_site_type_symbol
 _atom_site_label
 _atom_site_symmetry_multiplicity
 _atom_site_fract_x
 _atom_site_fract_y
 _atom_site_fract_z
 _atom_site_occupancy
  Ba  Ba0  1  0.75089440  0.24910560  0.00000000  1
  Ba  Ba1  1  0.42971432  0.87738357  0.78964012  1
  Ba  Ba2  1  0.29067128  0.70932872  0.50000000  1
  Ba  Ba3  1  0.23881214  0.23881214  0.64462025  1
  Ba  Ba4  1  0.76118786  0.76118786  0.35537975  1
  Ba  Ba5  1  0.87738357  0.42971432  0.78964012  1
  Ba  Ba6  1  0.24910560  0.75089440  0.00000000  1
  Ba  Ba7  1  0.70932872  0.29067128  0.50000000  1
  Ba  Ba8  1  0.12261643  0.57028568  0.21035988  1
  Ba  Ba9  1  0.57028568  0.12261643  0.21035988  1
  Al  Al10  1  0.77505647  0.77505647  0.07141784  1
  Al  Al11  1  0.07543095  0.07543095  0.26672550  1
  Al  Al12  1  0.92456905  0.92456905  0.73327450  1
  Al  Al13  1  0.22494353  0.22494353  0.92858216  1
  Ge  Ge14  1  0.63808154  0.63808154  0.64402452  1
  Ge  Ge15  1  0.70284305  0.70284305  0.93298591  1
  Ge  Ge16  1  0.06091536  0.06091536  0.13179737  1
  Ge  Ge17  1  0.36191846  0.36191846  0.35597548  1
  Ge  Ge18  1  0.58671113  0.58671113  0.15406195  1
  Ge  Ge19  1  0.93908464  0.93908464  0.86820263  1
  Ge  Ge20  1  0.18034159  0.18034159  0.45333246  1
  Ge  Ge21  1  0.03954632  0.66506107  0.64237215  1
  Ge  Ge22  1  0.96045368  0.33493893  0.35762785  1
  Ge  Ge23  1  0.81965841  0.81965841  0.54666754  1
  Ge  Ge24  1  0.66506107  0.03954632  0.64237215  1
  Ge  Ge25  1  0.33493893  0.96045368  0.35762785  1
  Ge  Ge26  1  0.29715695  0.29715695  0.06701409  1
  Ge  Ge27  1  0.41328887  0.41328887  0.84593805  1
