# generated using pymatgen
data_SnPSe3
_symmetry_space_group_name_H-M   'P 1'
_cell_length_a   6.99585118
_cell_length_b   7.90376325
_cell_length_c   9.88177550
_cell_angle_alpha   90.00000000
_cell_angle_beta   91.01526723
_cell_angle_gamma   90.00000000
_symmetry_Int_Tables_number   1
_chemical_formula_structural   SnPSe3
_chemical_formula_sum   'Sn4 P4 Se12'
_cell_volume   546.31268252
_cell_formula_units_Z   4
loop_
 _symmetry_equiv_pos_site_id
 _symmetry_equiv_pos_as_xyz
  1  'x, y, z'
loop_
 _atom_site_type_symbol
 _atom_site_label
 _atom_site_symmetry_multiplicity
 _atom_site_fract_x
 _atom_site_fract_y
 _atom_site_fract_z
 _atom_site_occupancy
  Sn  Sn0  1  0.98479209  0.88415471  0.78643764  1
  Sn  Sn1  1  0.53307365  0.36916410  0.78848973  1
  Sn  Sn2  1  0.48479209  0.11584529  0.28643764  1
  Sn  Sn3  1  0.03307365  0.63083590  0.28848973  1
  P  P4  1  0.55978793  0.64230322  0.43381161  1
  P  P5  1  0.05978793  0.35769678  0.93381161  1
  P  P6  1  0.93942068  0.14833516  0.06398127  1
  P  P7  1  0.43942068  0.85166484  0.56398127  1
  Se  Se8  1  0.15233616  0.94247037  0.05392486  1
  Se  Se9  1  0.39287321  0.74481720  0.76751030  1
  Se  Se10  1  0.32677626  0.44945243  0.03249533  1
  Se  Se11  1  0.10994539  0.24017716  0.73388755  1
  Se  Se12  1  0.65233616  0.05752963  0.55392486  1
  Se  Se13  1  0.83437191  0.55435393  0.94083913  1
  Se  Se14  1  0.67792273  0.05841251  0.95342258  1
  Se  Se15  1  0.89287321  0.25518280  0.26751030  1
  Se  Se16  1  0.17792273  0.94158749  0.45342258  1
  Se  Se17  1  0.82677626  0.55054757  0.53249533  1
  Se  Se18  1  0.33437191  0.44564607  0.44083913  1
  Se  Se19  1  0.60994539  0.75982284  0.23388755  1
