# generated using pymatgen
data_Na2Sn3Au
_symmetry_space_group_name_H-M   'P 1'
_cell_length_a   9.82415016
_cell_length_b   9.82414969
_cell_length_c   7.60651367
_cell_angle_alpha   90.00000000
_cell_angle_beta   90.00000000
_cell_angle_gamma   120.00000157
_symmetry_Int_Tables_number   1
_chemical_formula_structural   Na2Sn3Au
_chemical_formula_sum   'Na8 Sn12 Au4'
_cell_volume   635.77908672
_cell_formula_units_Z   4
loop_
 _symmetry_equiv_pos_site_id
 _symmetry_equiv_pos_as_xyz
  1  'x, y, z'
loop_
 _atom_site_type_symbol
 _atom_site_label
 _atom_site_symmetry_multiplicity
 _atom_site_fract_x
 _atom_site_fract_y
 _atom_site_fract_z
 _atom_site_occupancy
  Na  Na0  1  0.53200105  0.06400211  0.25000000  1
  Na  Na1  1  0.06400211  0.53200105  0.75000000  1
  Na  Na2  1  0.46799895  0.53200105  0.75000000  1
  Na  Na3  1  0.53200105  0.46799895  0.25000000  1
  Na  Na4  1  0.46799895  0.93599789  0.75000000  1
  Na  Na5  1  0.93599789  0.46799895  0.25000000  1
  Na  Na6  1  0.00000000  0.00000000  0.75000000  1
  Na  Na7  1  0.00000000  0.00000000  0.25000000  1
  Sn  Sn8  1  0.17113692  0.82886308  0.05257089  1
  Sn  Sn9  1  0.82886308  0.65772615  0.55257089  1
  Sn  Sn10  1  0.34227385  0.17113692  0.55257089  1
  Sn  Sn11  1  0.82886308  0.17113692  0.94742911  1
  Sn  Sn12  1  0.82886308  0.65772615  0.94742911  1
  Sn  Sn13  1  0.82886308  0.17113692  0.55257089  1
  Sn  Sn14  1  0.34227385  0.17113692  0.94742911  1
  Sn  Sn15  1  0.65772615  0.82886308  0.05257089  1
  Sn  Sn16  1  0.65772615  0.82886308  0.44742911  1
  Sn  Sn17  1  0.17113692  0.34227385  0.44742911  1
  Sn  Sn18  1  0.17113692  0.82886308  0.44742911  1
  Sn  Sn19  1  0.17113692  0.34227385  0.05257089  1
  Au  Au20  1  0.33333300  0.66666700  0.45813379  1
  Au  Au21  1  0.66666700  0.33333300  0.54186621  1
  Au  Au22  1  0.66666700  0.33333300  0.95813379  1
  Au  Au23  1  0.33333300  0.66666700  0.04186621  1
