# generated using pymatgen
data_Li4MnCo2O7
_symmetry_space_group_name_H-M   'P 1'
_cell_length_a   2.92250217
_cell_length_b   16.88770552
_cell_length_c   5.14941701
_cell_angle_alpha   92.37721084
_cell_angle_beta   90.42393022
_cell_angle_gamma   84.74633118
_symmetry_Int_Tables_number   1
_chemical_formula_structural   Li4MnCo2O7
_chemical_formula_sum   'Li8 Mn2 Co4 O14'
_cell_volume   252.85905521
_cell_formula_units_Z   2
loop_
 _symmetry_equiv_pos_site_id
 _symmetry_equiv_pos_as_xyz
  1  'x, y, z'
loop_
 _atom_site_type_symbol
 _atom_site_label
 _atom_site_symmetry_multiplicity
 _atom_site_fract_x
 _atom_site_fract_y
 _atom_site_fract_z
 _atom_site_occupancy
  Li  Li0  1  0.91484027  0.14853409  0.36284803  1
  Li  Li1  1  0.35714300  0.28571400  0.21428600  1
  Li  Li2  1  0.79944473  0.42289391  0.06572397  1
  Li  Li3  1  0.21294506  0.57118403  0.93193000  1
  Li  Li4  1  0.63815267  0.71760995  0.78744215  1
  Li  Li5  1  0.07613333  0.85381905  0.64112885  1
  Li  Li6  1  0.50134094  0.00024497  0.49664100  1
  Li  Li7  1  0.85714300  0.28571400  0.71428600  1
  Mn  Mn8  1  0.00862589  0.99944565  0.99840310  1
  Mn  Mn9  1  0.70566011  0.57198335  0.43016790  1
  Co  Co10  1  0.42040079  0.15147114  0.84066911  1
  Co  Co11  1  0.29388421  0.41995686  0.58790289  1
  Co  Co12  1  0.11467421  0.71935202  0.27987495  1
  Co  Co13  1  0.59961179  0.85207698  0.14869605  1
  O  O14  1  0.47714037  0.06204000  0.15117308  1
  O  O15  1  0.88858146  0.20606712  0.02910229  1
  O  O16  1  0.32517029  0.36416550  0.87482071  1
  O  O17  1  0.74510172  0.50139321  0.71635183  1
  O  O18  1  0.17497233  0.63541229  0.58895446  1
  O  O19  1  0.59777241  0.78543909  0.45938748  1
  O  O20  1  0.05521527  0.92959037  0.28992347  1
  O  O21  1  0.38911571  0.20726350  0.55375029  1
  O  O22  1  0.82570454  0.36536188  0.39946871  1
  O  O23  1  0.23714463  0.50938800  0.27739892  1
  O  O24  1  0.65907073  0.64183763  0.13864853  1
  O  O25  1  0.11651259  0.78598891  0.96918452  1
  O  O26  1  0.53931367  0.93601671  0.83961654  1
  O  O27  1  0.96918428  0.07003579  0.71221917  1
