# generated using pymatgen
data_PbCl4
_symmetry_space_group_name_H-M   'P 1'
_cell_length_a   5.83978351
_cell_length_b   7.14003856
_cell_length_c   10.78027367
_cell_angle_alpha   76.63822526
_cell_angle_beta   74.28417898
_cell_angle_gamma   65.86163683
_symmetry_Int_Tables_number   1
_chemical_formula_structural   PbCl4
_chemical_formula_sum   'Pb2 Cl8'
_cell_volume   391.13717941
_cell_formula_units_Z   2
loop_
 _symmetry_equiv_pos_site_id
 _symmetry_equiv_pos_as_xyz
  1  'x, y, z'
loop_
 _atom_site_type_symbol
 _atom_site_label
 _atom_site_symmetry_multiplicity
 _atom_site_fract_x
 _atom_site_fract_y
 _atom_site_fract_z
 _atom_site_occupancy
  Pb  Pb0  1  0.26115766  0.75000215  0.25000193  1
  Pb  Pb1  1  0.73884234  0.24999785  0.74999807  1
  Cl  Cl2  1  0.14384283  0.44807307  0.30822855  1
  Cl  Cl3  1  0.85615717  0.55192693  0.69177145  1
  Cl  Cl4  1  0.62701686  0.18920727  0.56684312  1
  Cl  Cl5  1  0.38306850  0.31079547  0.93315631  1
  Cl  Cl6  1  0.90014764  0.05192426  0.19177241  1
  Cl  Cl7  1  0.09985236  0.94807574  0.80822759  1
  Cl  Cl8  1  0.37298314  0.81079273  0.43315688  1
  Cl  Cl9  1  0.61693150  0.68920453  0.06684369  1
