# generated using pymatgen
data_Ca5Ir
_symmetry_space_group_name_H-M   'P 1'
_cell_length_a   6.79912908
_cell_length_b   7.64539603
_cell_length_c   15.77880639
_cell_angle_alpha   90.00000000
_cell_angle_beta   90.00000000
_cell_angle_gamma   90.00000000
_symmetry_Int_Tables_number   1
_chemical_formula_structural   Ca5Ir
_chemical_formula_sum   'Ca20 Ir4'
_cell_volume   820.21445775
_cell_formula_units_Z   4
loop_
 _symmetry_equiv_pos_site_id
 _symmetry_equiv_pos_as_xyz
  1  'x, y, z'
loop_
 _atom_site_type_symbol
 _atom_site_label
 _atom_site_symmetry_multiplicity
 _atom_site_fract_x
 _atom_site_fract_y
 _atom_site_fract_z
 _atom_site_occupancy
  Ca  Ca0  1  0.15344788  0.09367982  0.25000000  1
  Ca  Ca1  1  0.85766554  0.19245687  0.56657836  1
  Ca  Ca2  1  0.84655212  0.90632018  0.75000000  1
  Ca  Ca3  1  0.82326080  0.46602171  0.14503232  1
  Ca  Ca4  1  0.17673920  0.53397829  0.64503232  1
  Ca  Ca5  1  0.35766554  0.30754313  0.06657836  1
  Ca  Ca6  1  0.34655212  0.59367982  0.25000000  1
  Ca  Ca7  1  0.82326080  0.46602171  0.35496768  1
  Ca  Ca8  1  0.32326080  0.03397829  0.85496768  1
  Ca  Ca9  1  0.14233446  0.80754313  0.06657836  1
  Ca  Ca10  1  0.64233446  0.69245687  0.56657836  1
  Ca  Ca11  1  0.67673920  0.96602171  0.35496768  1
  Ca  Ca12  1  0.64233446  0.69245687  0.93342164  1
  Ca  Ca13  1  0.32326080  0.03397829  0.64503232  1
  Ca  Ca14  1  0.14233446  0.80754313  0.43342164  1
  Ca  Ca15  1  0.65344788  0.40632018  0.75000000  1
  Ca  Ca16  1  0.17673920  0.53397829  0.85496768  1
  Ca  Ca17  1  0.35766554  0.30754313  0.43342164  1
  Ca  Ca18  1  0.67673920  0.96602171  0.14503232  1
  Ca  Ca19  1  0.85766554  0.19245687  0.93342164  1
  Ir  Ir20  1  0.03616020  0.23946091  0.75000000  1
  Ir  Ir21  1  0.46383980  0.73946091  0.75000000  1
  Ir  Ir22  1  0.53616020  0.26053909  0.25000000  1
  Ir  Ir23  1  0.96383980  0.76053909  0.25000000  1
