# generated using pymatgen
data_Bi6PtCl10
_symmetry_space_group_name_H-M   'P 1'
_cell_length_a   9.95781054
_cell_length_b   17.03233150
_cell_length_c   26.93796487
_cell_angle_alpha   90.00000000
_cell_angle_beta   90.00000000
_cell_angle_gamma   90.00000000
_symmetry_Int_Tables_number   1
_chemical_formula_structural   Bi6PtCl10
_chemical_formula_sum   'Bi48 Pt8 Cl80'
_cell_volume   4568.80626207
_cell_formula_units_Z   8
loop_
 _symmetry_equiv_pos_site_id
 _symmetry_equiv_pos_as_xyz
  1  'x, y, z'
loop_
 _atom_site_type_symbol
 _atom_site_label
 _atom_site_symmetry_multiplicity
 _atom_site_fract_x
 _atom_site_fract_y
 _atom_site_fract_z
 _atom_site_occupancy
  Bi  Bi0  1  0.14754848  0.92774976  0.57334425  1
  Bi  Bi1  1  0.34309119  0.63241822  0.99146554  1
  Bi  Bi2  1  0.15690881  0.13241822  0.50853446  1
  Bi  Bi3  1  0.29491722  0.42093797  0.25000000  1
  Bi  Bi4  1  0.35245152  0.42774976  0.92665575  1
  Bi  Bi5  1  0.63286010  0.35683022  0.32028887  1
  Bi  Bi6  1  0.31623501  0.44494023  0.43302776  1
  Bi  Bi7  1  0.65690881  0.36758178  0.49146554  1
  Bi  Bi8  1  0.81623501  0.05505977  0.56697224  1
  Bi  Bi9  1  0.13286010  0.14316978  0.67971113  1
  Bi  Bi10  1  0.36713990  0.64316978  0.67971113  1
  Bi  Bi11  1  0.85245152  0.07225024  0.42665575  1
  Bi  Bi12  1  0.80629480  0.27578070  0.67949405  1
  Bi  Bi13  1  0.86713990  0.85683022  0.32028887  1
  Bi  Bi14  1  0.31623501  0.44494023  0.06697224  1
  Bi  Bi15  1  0.80629480  0.27578070  0.82050595  1
  Bi  Bi16  1  0.36713990  0.64316978  0.82028887  1
  Bi  Bi17  1  0.70508278  0.57906203  0.75000000  1
  Bi  Bi18  1  0.30629480  0.22421930  0.17949405  1
  Bi  Bi19  1  0.13286010  0.14316978  0.82028887  1
  Bi  Bi20  1  0.81623501  0.05505977  0.93302776  1
  Bi  Bi21  1  0.85245152  0.07225024  0.07334425  1
  Bi  Bi22  1  0.84309119  0.86758178  0.00853446  1
  Bi  Bi23  1  0.18376499  0.94494023  0.43302776  1
  Bi  Bi24  1  0.19370520  0.72421930  0.17949405  1
  Bi  Bi25  1  0.35245152  0.42774976  0.57334425  1
  Bi  Bi26  1  0.15690881  0.13241822  0.99146554  1
  Bi  Bi27  1  0.34309119  0.63241822  0.50853446  1
  Bi  Bi28  1  0.14754848  0.92774976  0.92665575  1
  Bi  Bi29  1  0.30629480  0.22421930  0.32050595  1
  Bi  Bi30  1  0.64754848  0.57225024  0.42665575  1
  Bi  Bi31  1  0.37643039  0.83887680  0.75000000  1
  Bi  Bi32  1  0.79491722  0.07906203  0.75000000  1
  Bi  Bi33  1  0.64754848  0.57225024  0.07334425  1
  Bi  Bi34  1  0.20508278  0.92093797  0.25000000  1
  Bi  Bi35  1  0.87643039  0.66112320  0.25000000  1
  Bi  Bi36  1  0.69370520  0.77578070  0.82050595  1
  Bi  Bi37  1  0.84309119  0.86758178  0.49146554  1
  Bi  Bi38  1  0.86713990  0.85683022  0.17971113  1
  Bi  Bi39  1  0.12356961  0.33887680  0.75000000  1
  Bi  Bi40  1  0.68376499  0.55505977  0.93302776  1
  Bi  Bi41  1  0.63286010  0.35683022  0.17971113  1
  Bi  Bi42  1  0.19370520  0.72421930  0.32050595  1
  Bi  Bi43  1  0.68376499  0.55505977  0.56697224  1
  Bi  Bi44  1  0.62356961  0.16112320  0.25000000  1
  Bi  Bi45  1  0.69370520  0.77578070  0.67949405  1
  Bi  Bi46  1  0.65690881  0.36758178  0.00853446  1
  Bi  Bi47  1  0.18376499  0.94494023  0.06697224  1
  Pt  Pt48  1  0.53579680  0.70545923  0.75000000  1
  Pt  Pt49  1  0.03579680  0.79454077  0.25000000  1
  Pt  Pt50  1  0.46420320  0.29454077  0.25000000  1
  Pt  Pt51  1  0.50000000  0.50000000  0.00000000  1
  Pt  Pt52  1  0.00000000  0.00000000  0.00000000  1
  Pt  Pt53  1  0.50000000  0.50000000  0.50000000  1
  Pt  Pt54  1  0.96420320  0.20545923  0.75000000  1
  Pt  Pt55  1  0.00000000  0.00000000  0.50000000  1
  Cl  Cl56  1  0.46182224  0.09252332  0.32094202  1
  Cl  Cl57  1  0.86072054  0.63761790  0.67969458  1
  Cl  Cl58  1  0.78868203  0.22764568  0.17573389  1
  Cl  Cl59  1  0.31574879  0.05803090  0.57988119  1
  Cl  Cl60  1  0.21131797  0.77235432  0.67573389  1
  Cl  Cl61  1  0.71131797  0.72764568  0.32426611  1
  Cl  Cl62  1  0.14315985  0.15915419  0.25000000  1
  Cl  Cl63  1  0.96395344  0.00226310  0.84513401  1
  Cl  Cl64  1  0.35684015  0.65915419  0.25000000  1
  Cl  Cl65  1  0.48608830  0.70470891  0.06653014  1
  Cl  Cl66  1  0.28868203  0.27235432  0.82426611  1
  Cl  Cl67  1  0.53133958  0.69806652  0.90585154  1
  Cl  Cl68  1  0.18425121  0.55803090  0.92011881  1
  Cl  Cl69  1  0.68425121  0.94196910  0.07988119  1
  Cl  Cl70  1  0.66804964  0.91847022  0.56004471  1
  Cl  Cl71  1  0.18425121  0.55803090  0.57988119  1
  Cl  Cl72  1  0.13927946  0.36238210  0.32030542  1
  Cl  Cl73  1  0.98608830  0.79529109  0.93346986  1
  Cl  Cl74  1  0.96182224  0.40747668  0.67905798  1
  Cl  Cl75  1  0.46395344  0.49773690  0.34513401  1
  Cl  Cl76  1  0.27932467  0.06275523  0.75000000  1
  Cl  Cl77  1  0.51391170  0.29529109  0.93346986  1
  Cl  Cl78  1  0.81817884  0.63687161  0.49339857  1
  Cl  Cl79  1  0.48608830  0.70470891  0.43346986  1
  Cl  Cl80  1  0.66804964  0.91847022  0.93995529  1
  Cl  Cl81  1  0.03817776  0.59252332  0.32094202  1
  Cl  Cl82  1  0.53133958  0.69806652  0.59414846  1
  Cl  Cl83  1  0.28868203  0.27235432  0.67573389  1
  Cl  Cl84  1  0.33195036  0.08152978  0.06004471  1
  Cl  Cl85  1  0.03133958  0.80193348  0.09414846  1
  Cl  Cl86  1  0.78868203  0.22764568  0.32426611  1
  Cl  Cl87  1  0.18182116  0.36312839  0.99339857  1
  Cl  Cl88  1  0.36072054  0.86238210  0.17969458  1
  Cl  Cl89  1  0.71131797  0.72764568  0.17573389  1
  Cl  Cl90  1  0.96395344  0.00226310  0.65486599  1
  Cl  Cl91  1  0.96182224  0.40747668  0.82094202  1
  Cl  Cl92  1  0.72067533  0.93724477  0.25000000  1
  Cl  Cl93  1  0.51391170  0.29529109  0.56653014  1
  Cl  Cl94  1  0.77932467  0.43724477  0.25000000  1
  Cl  Cl95  1  0.16804964  0.58152978  0.43995529  1
  Cl  Cl96  1  0.01391170  0.20470891  0.43346986  1
  Cl  Cl97  1  0.86072054  0.63761790  0.82030542  1
  Cl  Cl98  1  0.03133958  0.80193348  0.40585154  1
  Cl  Cl99  1  0.36072054  0.86238210  0.32030542  1
  Cl  Cl100  1  0.03604656  0.99773690  0.15486599  1
  Cl  Cl101  1  0.31817884  0.86312839  0.99339857  1
  Cl  Cl102  1  0.64315985  0.34084581  0.75000000  1
  Cl  Cl103  1  0.31574879  0.05803090  0.92011881  1
  Cl  Cl104  1  0.96866042  0.19806652  0.59414846  1
  Cl  Cl105  1  0.83195036  0.41847022  0.93995529  1
  Cl  Cl106  1  0.53604656  0.50226310  0.84513401  1
  Cl  Cl107  1  0.81574879  0.44196910  0.07988119  1
  Cl  Cl108  1  0.46866042  0.30193348  0.09414846  1
  Cl  Cl109  1  0.98608830  0.79529109  0.56653014  1
  Cl  Cl110  1  0.22067533  0.56275523  0.75000000  1
  Cl  Cl111  1  0.63927946  0.13761790  0.67969458  1
  Cl  Cl112  1  0.53817776  0.90747668  0.82094202  1
  Cl  Cl113  1  0.46395344  0.49773690  0.15486599  1
  Cl  Cl114  1  0.03604656  0.99773690  0.34513401  1
  Cl  Cl115  1  0.68182116  0.13687161  0.49339857  1
  Cl  Cl116  1  0.85684015  0.84084581  0.75000000  1
  Cl  Cl117  1  0.46866042  0.30193348  0.40585154  1
  Cl  Cl118  1  0.03817776  0.59252332  0.17905798  1
  Cl  Cl119  1  0.81574879  0.44196910  0.42011881  1
  Cl  Cl120  1  0.81817884  0.63687161  0.00660143  1
  Cl  Cl121  1  0.53817776  0.90747668  0.67905798  1
  Cl  Cl122  1  0.63927946  0.13761790  0.82030542  1
  Cl  Cl123  1  0.16804964  0.58152978  0.06004471  1
  Cl  Cl124  1  0.46182224  0.09252332  0.17905798  1
  Cl  Cl125  1  0.13927946  0.36238210  0.17969458  1
  Cl  Cl126  1  0.53604656  0.50226310  0.65486599  1
  Cl  Cl127  1  0.68182116  0.13687161  0.00660143  1
  Cl  Cl128  1  0.21131797  0.77235432  0.82426611  1
  Cl  Cl129  1  0.83195036  0.41847022  0.56004471  1
  Cl  Cl130  1  0.96866042  0.19806652  0.90585154  1
  Cl  Cl131  1  0.18182116  0.36312839  0.50660143  1
  Cl  Cl132  1  0.68425121  0.94196910  0.42011881  1
  Cl  Cl133  1  0.33195036  0.08152978  0.43995529  1
  Cl  Cl134  1  0.01391170  0.20470891  0.06653014  1
  Cl  Cl135  1  0.31817884  0.86312839  0.50660143  1
