# generated using pymatgen
data_Tm2Fe14C
_symmetry_space_group_name_H-M   'P 1'
_cell_length_a   8.70082117
_cell_length_b   8.70082117
_cell_length_c   11.64170914
_cell_angle_alpha   90.00000000
_cell_angle_beta   90.00000000
_cell_angle_gamma   90.00000000
_symmetry_Int_Tables_number   1
_chemical_formula_structural   Tm2Fe14C
_chemical_formula_sum   'Tm8 Fe56 C4'
_cell_volume   881.32731356
_cell_formula_units_Z   4
loop_
 _symmetry_equiv_pos_site_id
 _symmetry_equiv_pos_as_xyz
  1  'x, y, z'
loop_
 _atom_site_type_symbol
 _atom_site_label
 _atom_site_symmetry_multiplicity
 _atom_site_fract_x
 _atom_site_fract_y
 _atom_site_fract_z
 _atom_site_occupancy
  Tm  Tm0  1  0.64334657  0.64334657  0.50000000  1
  Tm  Tm1  1  0.75895690  0.24104310  0.50000000  1
  Tm  Tm2  1  0.85665343  0.14334657  0.00000000  1
  Tm  Tm3  1  0.25895690  0.25895690  0.00000000  1
  Tm  Tm4  1  0.35665343  0.35665343  0.50000000  1
  Tm  Tm5  1  0.14334657  0.85665343  0.00000000  1
  Tm  Tm6  1  0.24104310  0.75895690  0.50000000  1
  Tm  Tm7  1  0.74104310  0.74104310  0.00000000  1
  Fe  Fe8  1  0.68396431  0.68396431  0.75468349  1
  Fe  Fe9  1  0.72515280  0.93561920  0.62009743  1
  Fe  Fe10  1  0.64253463  0.96407297  0.82525268  1
  Fe  Fe11  1  0.77484720  0.43561920  0.12009743  1
  Fe  Fe12  1  0.85746537  0.46407297  0.67474732  1
  Fe  Fe13  1  0.50000000  0.00000000  0.00000000  1
  Fe  Fe14  1  0.90309399  0.90309399  0.79755657  1
  Fe  Fe15  1  0.43561920  0.77484720  0.87990257  1
  Fe  Fe16  1  0.59690601  0.40309399  0.29755657  1
  Fe  Fe17  1  0.50000000  0.50000000  0.89203148  1
  Fe  Fe18  1  0.46407297  0.85746537  0.67474732  1
  Fe  Fe19  1  0.93561920  0.72515280  0.37990257  1
  Fe  Fe20  1  0.40309399  0.59690601  0.70244343  1
  Fe  Fe21  1  0.81603569  0.18396431  0.25468349  1
  Fe  Fe22  1  0.53592703  0.14253463  0.32525268  1
  Fe  Fe23  1  0.90309399  0.90309399  0.20244343  1
  Fe  Fe24  1  0.35746537  0.03592703  0.82525268  1
  Fe  Fe25  1  0.85746537  0.46407297  0.32525268  1
  Fe  Fe26  1  0.03592703  0.35746537  0.82525268  1
  Fe  Fe27  1  0.93561920  0.72515280  0.62009743  1
  Fe  Fe28  1  0.43561920  0.77484720  0.12009743  1
  Fe  Fe29  1  0.31603569  0.31603569  0.24531651  1
  Fe  Fe30  1  0.31603569  0.31603569  0.75468349  1
  Fe  Fe31  1  0.96407297  0.64253463  0.17474732  1
  Fe  Fe32  1  0.96407297  0.64253463  0.82525268  1
  Fe  Fe33  1  0.81603569  0.18396431  0.74531651  1
  Fe  Fe34  1  0.53592703  0.14253463  0.67474732  1
  Fe  Fe35  1  0.27484720  0.06438080  0.37990257  1
  Fe  Fe36  1  0.06438080  0.27484720  0.62009743  1
  Fe  Fe37  1  0.22515280  0.56438080  0.12009743  1
  Fe  Fe38  1  0.14253463  0.53592703  0.67474732  1
  Fe  Fe39  1  0.56438080  0.22515280  0.12009743  1
  Fe  Fe40  1  0.27484720  0.06438080  0.62009743  1
  Fe  Fe41  1  0.18396431  0.81603569  0.25468349  1
  Fe  Fe42  1  0.40309399  0.59690601  0.29755657  1
  Fe  Fe43  1  0.68396431  0.68396431  0.24531651  1
  Fe  Fe44  1  0.72515280  0.93561920  0.37990257  1
  Fe  Fe45  1  0.00000000  0.00000000  0.39203148  1
  Fe  Fe46  1  0.06438080  0.27484720  0.37990257  1
  Fe  Fe47  1  0.50000000  0.50000000  0.10796852  1
  Fe  Fe48  1  0.03592703  0.35746537  0.17474732  1
  Fe  Fe49  1  0.59690601  0.40309399  0.70244343  1
  Fe  Fe50  1  0.35746537  0.03592703  0.17474732  1
  Fe  Fe51  1  0.09690601  0.09690601  0.20244343  1
  Fe  Fe52  1  0.18396431  0.81603569  0.74531651  1
  Fe  Fe53  1  0.46407297  0.85746537  0.32525268  1
  Fe  Fe54  1  0.64253463  0.96407297  0.17474732  1
  Fe  Fe55  1  0.00000000  0.00000000  0.60796852  1
  Fe  Fe56  1  0.09690601  0.09690601  0.79755657  1
  Fe  Fe57  1  0.22515280  0.56438080  0.87990257  1
  Fe  Fe58  1  0.77484720  0.43561920  0.87990257  1
  Fe  Fe59  1  0.56438080  0.22515280  0.87990257  1
  Fe  Fe60  1  0.00000000  0.50000000  0.00000000  1
  Fe  Fe61  1  0.14253463  0.53592703  0.32525268  1
  Fe  Fe62  1  0.50000000  0.00000000  0.50000000  1
  Fe  Fe63  1  0.00000000  0.50000000  0.50000000  1
  C  C64  1  0.87188265  0.87188265  0.50000000  1
  C  C65  1  0.12811735  0.12811735  0.50000000  1
  C  C66  1  0.37188265  0.62811735  0.00000000  1
  C  C67  1  0.62811735  0.37188265  0.00000000  1
