# generated using pymatgen
data_Li4MnCo2O7
_symmetry_space_group_name_H-M   'P 1'
_cell_length_a   2.88456576
_cell_length_b   5.94359319
_cell_length_c   14.83596874
_cell_angle_alpha   83.83805387
_cell_angle_beta   84.42116598
_cell_angle_gamma   89.99999498
_symmetry_Int_Tables_number   1
_chemical_formula_structural   Li4MnCo2O7
_chemical_formula_sum   'Li8 Mn2 Co4 O14'
_cell_volume   251.67662540
_cell_formula_units_Z   2
loop_
 _symmetry_equiv_pos_site_id
 _symmetry_equiv_pos_as_xyz
  1  'x, y, z'
loop_
 _atom_site_type_symbol
 _atom_site_label
 _atom_site_symmetry_multiplicity
 _atom_site_fract_x
 _atom_site_fract_y
 _atom_site_fract_z
 _atom_site_occupancy
  Li  Li0  1  0.42409599  0.21947657  0.15180702  1
  Li  Li1  1  0.29018901  0.63766643  0.41962098  1
  Li  Li2  1  0.14268096  0.07522735  0.71463807  1
  Li  Li3  1  0.85714300  0.92857100  0.28571400  1
  Li  Li4  1  0.71690317  0.35594327  0.56619465  1
  Li  Li5  1  0.57160504  0.78191565  0.85679093  1
  Li  Li6  1  0.99738283  0.50119973  0.00523435  1
  Li  Li7  1  0.85714300  0.42857100  0.28571400  1
  Mn  Mn8  1  -0.00012071  0.99559816  0.00024143  1
  Mn  Mn9  1  0.71440671  0.86154484  0.57118757  1
  Co  Co10  1  0.57215792  0.29093512  0.85568517  1
  Co  Co11  1  0.42082246  0.69839698  0.15835408  1
  Co  Co12  1  0.29346254  0.15874602  0.41307392  1
  Co  Co13  1  0.14212808  0.56620788  0.71574383  1
  O  O14  1  0.50019678  0.21928235  -0.00039356  1
  O  O15  1  0.36036797  0.68657085  0.27926406  1
  O  O16  1  0.21243151  0.07674608  0.57513698  1
  O  O17  1  0.93502613  0.94585775  0.12994875  1
  O  O18  1  0.78430238  0.37250852  0.43139425  1
  O  O19  1  0.64724685  0.81126465  0.70550530  1
  O  O20  1  0.07237396  0.52881630  0.85525307  1
  O  O21  1  0.35391803  0.17057215  0.29216494  1
  O  O22  1  0.21408922  0.63786065  0.57182256  1
  O  O23  1  0.06703815  0.04587835  0.86592270  1
  O  O24  1  0.77925987  0.91128525  0.44148025  1
  O  O25  1  0.64191204  0.32832670  0.71617593  1
  O  O26  1  0.50185449  0.78039592  0.99629102  1
  O  O27  1  0.92998262  0.48463448  0.14003375  1
