# generated using pymatgen
data_Yb8Tl3
_symmetry_space_group_name_H-M   'P 1'
_cell_length_a   9.54435093
_cell_length_b   9.57750841
_cell_length_c   9.66734071
_cell_angle_alpha   98.89030560
_cell_angle_beta   101.19613326
_cell_angle_gamma   119.76464667
_symmetry_Int_Tables_number   1
_chemical_formula_structural   Yb8Tl3
_chemical_formula_sum   'Yb16 Tl6'
_cell_volume   719.10257410
_cell_formula_units_Z   2
loop_
 _symmetry_equiv_pos_site_id
 _symmetry_equiv_pos_as_xyz
  1  'x, y, z'
loop_
 _atom_site_type_symbol
 _atom_site_label
 _atom_site_symmetry_multiplicity
 _atom_site_fract_x
 _atom_site_fract_y
 _atom_site_fract_z
 _atom_site_occupancy
  Yb  Yb0  1  0.12199238  0.10003194  0.35471278  1
  Yb  Yb1  1  0.29760880  0.00261448  0.88725751  1
  Yb  Yb2  1  0.95920944  0.56056103  0.67047395  1
  Yb  Yb3  1  0.33055398  0.38004705  0.11294255  1
  Yb  Yb4  1  0.54039407  0.20767886  0.29398850  1
  Yb  Yb5  1  0.66944602  0.61995295  0.88705745  1
  Yb  Yb6  1  0.87800762  0.89996806  0.64528722  1
  Yb  Yb7  1  0.91878290  0.26803323  0.89169415  1
  Yb  Yb8  1  0.22821561  0.34684884  0.70519111  1
  Yb  Yb9  1  0.04079056  0.43943897  0.32952605  1
  Yb  Yb10  1  0.45960593  0.79232114  0.70601150  1
  Yb  Yb11  1  0.77178439  0.65315116  0.29480889  1
  Yb  Yb12  1  0.53150018  0.20140597  0.64887656  1
  Yb  Yb13  1  0.08121710  0.73196677  0.10830585  1
  Yb  Yb14  1  0.46849982  0.79859403  0.35112344  1
  Yb  Yb15  1  0.70239120  0.99738552  0.11274249  1
  Tl  Tl16  1  0.67534923  0.33805848  0.02456774  1
  Tl  Tl17  1  0.82779737  0.16277396  0.49981864  1
  Tl  Tl18  1  0.32465077  0.66194152  0.97543226  1
  Tl  Tl19  1  0.00000000  0.00000000  0.00000000  1
  Tl  Tl20  1  0.17220263  0.83722604  0.50018136  1
  Tl  Tl21  1  0.50000000  0.50000000  0.50000000  1
