# generated using pymatgen
data_Ho4CdCo
_symmetry_space_group_name_H-M   'P 1'
_cell_length_a   9.45412729
_cell_length_b   9.45412712
_cell_length_c   9.45412665
_cell_angle_alpha   60.00000161
_cell_angle_beta   60.00000219
_cell_angle_gamma   60.00000292
_symmetry_Int_Tables_number   1
_chemical_formula_structural   Ho4CdCo
_chemical_formula_sum   'Ho16 Cd4 Co4'
_cell_volume   597.51570229
_cell_formula_units_Z   4
loop_
 _symmetry_equiv_pos_site_id
 _symmetry_equiv_pos_as_xyz
  1  'x, y, z'
loop_
 _atom_site_type_symbol
 _atom_site_label
 _atom_site_symmetry_multiplicity
 _atom_site_fract_x
 _atom_site_fract_y
 _atom_site_fract_z
 _atom_site_occupancy
  Ho  Ho0  1  0.06175468  0.43824532  0.43824532  1
  Ho  Ho1  1  0.18831635  0.18831635  0.81168365  1
  Ho  Ho2  1  0.06175468  0.06175468  0.43824532  1
  Ho  Ho3  1  0.06175468  0.43824532  0.06175468  1
  Ho  Ho4  1  0.18831635  0.81168365  0.81168365  1
  Ho  Ho5  1  0.65364239  0.03907282  0.65364239  1
  Ho  Ho6  1  0.43824532  0.43824532  0.06175468  1
  Ho  Ho7  1  0.43824532  0.06175468  0.43824532  1
  Ho  Ho8  1  0.81168365  0.81168365  0.18831635  1
  Ho  Ho9  1  0.81168365  0.18831635  0.18831635  1
  Ho  Ho10  1  0.65364239  0.65364239  0.03907282  1
  Ho  Ho11  1  0.65364239  0.65364239  0.65364239  1
  Ho  Ho12  1  0.18831635  0.81168365  0.18831635  1
  Ho  Ho13  1  0.43824532  0.06175468  0.06175468  1
  Ho  Ho14  1  0.81168365  0.18831635  0.81168365  1
  Ho  Ho15  1  0.03907282  0.65364239  0.65364239  1
  Cd  Cd16  1  0.41942439  0.41942439  0.74172683  1
  Cd  Cd17  1  0.74172683  0.41942439  0.41942439  1
  Cd  Cd18  1  0.41942439  0.74172683  0.41942439  1
  Cd  Cd19  1  0.41942439  0.41942439  0.41942439  1
  Co  Co20  1  0.42313390  0.85895537  0.85895537  1
  Co  Co21  1  0.85895537  0.42313390  0.85895537  1
  Co  Co22  1  0.85895537  0.85895537  0.85895537  1
  Co  Co23  1  0.85895537  0.85895537  0.42313390  1
