# generated using pymatgen
data_Ba6Pr3I19
_symmetry_space_group_name_H-M   'P 1'
_cell_length_a   10.34407481
_cell_length_b   10.34407474
_cell_length_c   22.99510408
_cell_angle_alpha   86.06054551
_cell_angle_beta   86.06054553
_cell_angle_gamma   76.07272719
_symmetry_Int_Tables_number   1
_chemical_formula_structural   Ba6Pr3I19
_chemical_formula_sum   'Ba12 Pr6 I38'
_cell_volume   2379.03786098
_cell_formula_units_Z   2
loop_
 _symmetry_equiv_pos_site_id
 _symmetry_equiv_pos_as_xyz
  1  'x, y, z'
loop_
 _atom_site_type_symbol
 _atom_site_label
 _atom_site_symmetry_multiplicity
 _atom_site_fract_x
 _atom_site_fract_y
 _atom_site_fract_z
 _atom_site_occupancy
  Ba  Ba0  1  0.26574749  0.41304198  0.96139958  1
  Ba  Ba1  1  0.41836092  0.21627511  0.71586242  1
  Ba  Ba2  1  0.08609968  0.85326970  0.39438872  1
  Ba  Ba3  1  0.58163908  0.78372489  0.28413758  1
  Ba  Ba4  1  0.73425251  0.58695802  0.03860042  1
  Ba  Ba5  1  0.14673030  0.91390032  0.10561128  1
  Ba  Ba6  1  0.21627511  0.41836092  0.21586242  1
  Ba  Ba7  1  0.41304198  0.26574749  0.46139958  1
  Ba  Ba8  1  0.78372489  0.58163908  0.78413758  1
  Ba  Ba9  1  0.85326970  0.08609968  0.89438872  1
  Ba  Ba10  1  0.91390032  0.14673030  0.60561128  1
  Ba  Ba11  1  0.58695802  0.73425251  0.53860042  1
  Pr  Pr12  1  0.36479874  0.87344210  0.87500983  1
  Pr  Pr13  1  0.24651013  0.75348987  0.75000000  1
  Pr  Pr14  1  0.75348987  0.24651013  0.25000000  1
  Pr  Pr15  1  0.63520126  0.12655790  0.12499017  1
  Pr  Pr16  1  0.12655790  0.63520126  0.62499017  1
  Pr  Pr17  1  0.87344210  0.36479874  0.37500983  1
  I  I18  1  0.38584518  0.69827586  0.00398190  1
  I  I19  1  0.46135732  0.16011349  0.86642749  1
  I  I20  1  0.93094622  0.84522262  0.71468605  1
  I  I21  1  0.47788602  0.13620237  0.25628381  1
  I  I22  1  0.54164962  0.44373113  0.15859041  1
  I  I23  1  0.90397969  0.24412803  0.11641627  1
  I  I24  1  0.69827586  0.38584518  0.50398190  1
  I  I25  1  0.75587197  0.09602031  0.38358373  1
  I  I26  1  0.92618965  0.84000254  0.53487987  1
  I  I27  1  0.13620237  0.47788602  0.75628381  1
  I  I28  1  0.07168952  0.58266814  0.08600613  1
  I  I29  1  0.68876998  0.79870297  0.90140472  1
  I  I30  1  0.83988651  0.53864268  0.63357251  1
  I  I31  1  0.20129703  0.31123002  0.59859528  1
  I  I32  1  0.58266814  0.07168952  0.58600613  1
  I  I33  1  0.84522262  0.93094622  0.21468605  1
  I  I34  1  0.44373113  0.54164962  0.65859041  1
  I  I35  1  0.30172414  0.61415482  0.49601810  1
  I  I36  1  0.53864268  0.83988651  0.13357251  1
  I  I37  1  0.06905378  0.15477738  0.28531395  1
  I  I38  1  0.15477738  0.06905378  0.78531395  1
  I  I39  1  0.75428664  0.24571336  0.75000000  1
  I  I40  1  0.31123002  0.20129703  0.09859528  1
  I  I41  1  0.41733186  0.92831048  0.41399387  1
  I  I42  1  0.84000254  0.92618965  0.03487987  1
  I  I43  1  0.52211398  0.86379763  0.74371619  1
  I  I44  1  0.07381035  0.15999746  0.46512013  1
  I  I45  1  0.79870297  0.68876998  0.40140472  1
  I  I46  1  0.55626887  0.45835038  0.34140959  1
  I  I47  1  0.09602031  0.75587197  0.88358373  1
  I  I48  1  0.24412803  0.90397969  0.61641627  1
  I  I49  1  0.24571336  0.75428664  0.25000000  1
  I  I50  1  0.15999746  0.07381035  0.96512013  1
  I  I51  1  0.92831048  0.41733186  0.91399387  1
  I  I52  1  0.61415482  0.30172414  0.99601810  1
  I  I53  1  0.16011349  0.46135732  0.36642749  1
  I  I54  1  0.86379763  0.52211398  0.24371619  1
  I  I55  1  0.45835038  0.55626887  0.84140959  1
