# generated using pymatgen
data_K12In2Se9
_symmetry_space_group_name_H-M   'P 1'
_cell_length_a   12.88381655
_cell_length_b   14.72802079
_cell_length_c   17.26749958
_cell_angle_alpha   90.00000000
_cell_angle_beta   90.00000000
_cell_angle_gamma   103.31734849
_symmetry_Int_Tables_number   1
_chemical_formula_structural   K12In2Se9
_chemical_formula_sum   'K48 In8 Se36'
_cell_volume   3188.45242223
_cell_formula_units_Z   4
loop_
 _symmetry_equiv_pos_site_id
 _symmetry_equiv_pos_as_xyz
  1  'x, y, z'
loop_
 _atom_site_type_symbol
 _atom_site_label
 _atom_site_symmetry_multiplicity
 _atom_site_fract_x
 _atom_site_fract_y
 _atom_site_fract_z
 _atom_site_occupancy
  K  K0  1  0.41169576  0.05303840  0.05314053  1
  K  K1  1  0.90725897  0.03725720  0.07224355  1
  K  K2  1  0.90725897  0.53725720  0.42775645  1
  K  K3  1  0.68714240  0.81662687  0.10470595  1
  K  K4  1  0.31285760  0.18337313  0.89529405  1
  K  K5  1  0.58687029  0.29353073  0.96168021  1
  K  K6  1  0.95645526  0.96691241  0.72870422  1
  K  K7  1  0.41312971  0.70646927  0.03831979  1
  K  K8  1  0.58830424  0.94696160  0.94685947  1
  K  K9  1  0.67377740  0.55391290  0.81459585  1
  K  K10  1  0.09274103  0.96274280  0.92775645  1
  K  K11  1  0.31964561  0.18576828  0.25345628  1
  K  K12  1  0.83256634  0.69076951  0.60306374  1
  K  K13  1  0.84615483  0.21573532  0.25494412  1
  K  K14  1  0.27631920  0.43770912  0.94669044  1
  K  K15  1  0.41169576  0.55303840  0.44685947  1
  K  K16  1  0.68035439  0.31423172  0.75345628  1
  K  K17  1  0.09274103  0.46274280  0.57224355  1
  K  K18  1  0.32622260  0.94608710  0.31459585  1
  K  K19  1  0.84615483  0.71573532  0.24505588  1
  K  K20  1  0.83256634  0.19076951  0.89693626  1
  K  K21  1  0.15384517  0.28426468  0.75494412  1
  K  K22  1  0.58830424  0.44696160  0.55314053  1
  K  K23  1  0.31285760  0.68337313  0.60470595  1
  K  K24  1  0.02161005  0.62489203  0.94723248  1
  K  K25  1  0.32622260  0.44608710  0.18540415  1
  K  K26  1  0.04354474  0.03308759  0.27129578  1
  K  K27  1  0.31964561  0.68576828  0.24654372  1
  K  K28  1  0.41077698  0.70424058  0.81477716  1
  K  K29  1  0.04354474  0.53308759  0.22870422  1
  K  K30  1  0.41077698  0.20424058  0.68522284  1
  K  K31  1  0.67377740  0.05391290  0.68540415  1
  K  K32  1  0.58922302  0.29575942  0.18522284  1
  K  K33  1  0.95645526  0.46691241  0.77129578  1
  K  K34  1  0.16743366  0.80923049  0.10306374  1
  K  K35  1  0.97838995  0.87510797  0.44723248  1
  K  K36  1  0.16743366  0.30923049  0.39693626  1
  K  K37  1  0.15384517  0.78426468  0.74505588  1
  K  K38  1  0.72368080  0.06229088  0.44669044  1
  K  K39  1  0.97838995  0.37510797  0.05276752  1
  K  K40  1  0.68714240  0.31662687  0.39529405  1
  K  K41  1  0.27631920  0.93770912  0.55330956  1
  K  K42  1  0.68035439  0.81423172  0.74654372  1
  K  K43  1  0.72368080  0.56229088  0.05330956  1
  K  K44  1  0.02161005  0.12489203  0.55276752  1
  K  K45  1  0.58922302  0.79575942  0.31477716  1
  K  K46  1  0.41312971  0.20646927  0.46168021  1
  K  K47  1  0.58687029  0.79353073  0.53831979  1
  In  In48  1  0.82421943  0.29065537  0.58253722  1
  In  In49  1  0.37755943  0.97294841  0.79795544  1
  In  In50  1  0.37755943  0.47294841  0.70204456  1
  In  In51  1  0.62244057  0.02705159  0.20204456  1
  In  In52  1  0.17578057  0.70934463  0.41746278  1
  In  In53  1  0.62244057  0.52705159  0.29795544  1
  In  In54  1  0.82421943  0.79065537  0.91746278  1
  In  In55  1  0.17578057  0.20934463  0.08253722  1
  Se  Se56  1  0.09486272  0.27503650  0.20433412  1
  Se  Se57  1  0.83211975  0.46707480  0.61056845  1
  Se  Se58  1  0.78668262  0.96333599  0.25500884  1
  Se  Se59  1  0.38242106  0.78620306  0.42953255  1
  Se  Se60  1  0.91439547  0.76985283  0.04998517  1
  Se  Se61  1  0.30767013  0.86137272  0.91600693  1
  Se  Se62  1  0.19002614  0.07550755  0.42201535  1
  Se  Se63  1  0.55588236  0.12218506  0.31179573  1
  Se  Se64  1  0.69232987  0.63862728  0.41600693  1
  Se  Se65  1  0.61757894  0.71379694  0.92953255  1
  Se  Se66  1  0.61757894  0.21379694  0.57046745  1
  Se  Se67  1  0.53292660  0.61462512  0.65854576  1
  Se  Se68  1  0.80997386  0.42449245  0.92201535  1
  Se  Se69  1  0.08560453  0.73014717  0.54998517  1
  Se  Se70  1  0.16788025  0.03292520  0.11056845  1
  Se  Se71  1  0.90513728  0.22496350  0.70433412  1
  Se  Se72  1  0.08560453  0.23014717  0.95001483  1
  Se  Se73  1  0.30767013  0.36137272  0.58399307  1
  Se  Se74  1  0.21331738  0.53666401  0.75500884  1
  Se  Se75  1  0.78668262  0.46333599  0.24499116  1
  Se  Se76  1  0.44411764  0.37781494  0.81179573  1
  Se  Se77  1  0.16788025  0.53292520  0.38943155  1
  Se  Se78  1  0.19002614  0.57550755  0.07798465  1
  Se  Se79  1  0.90513728  0.72496350  0.79566588  1
  Se  Se80  1  0.09486272  0.77503650  0.29566588  1
  Se  Se81  1  0.38242106  0.28620306  0.07046745  1
  Se  Se82  1  0.46707340  0.88537488  0.15854576  1
  Se  Se83  1  0.44411764  0.87781494  0.68820427  1
  Se  Se84  1  0.83211975  0.96707480  0.88943155  1
  Se  Se85  1  0.80997386  0.92449245  0.57798465  1
  Se  Se86  1  0.55588236  0.62218506  0.18820427  1
  Se  Se87  1  0.53292660  0.11462512  0.84145424  1
  Se  Se88  1  0.21331738  0.03666401  0.74499116  1
  Se  Se89  1  0.69232987  0.13862728  0.08399307  1
  Se  Se90  1  0.91439547  0.26985283  0.45001483  1
  Se  Se91  1  0.46707340  0.38537488  0.34145424  1
