# generated using pymatgen
data_Tl2CN2
_symmetry_space_group_name_H-M   'P 1'
_cell_length_a   5.40073807
_cell_length_b   7.08841547
_cell_length_c   10.05892163
_cell_angle_alpha   98.01379313
_cell_angle_beta   97.73385943
_cell_angle_gamma   112.00001674
_symmetry_Int_Tables_number   1
_chemical_formula_structural   Tl2CN2
_chemical_formula_sum   'Tl6 C3 N6'
_cell_volume   346.16076425
_cell_formula_units_Z   3
loop_
 _symmetry_equiv_pos_site_id
 _symmetry_equiv_pos_as_xyz
  1  'x, y, z'
loop_
 _atom_site_type_symbol
 _atom_site_label
 _atom_site_symmetry_multiplicity
 _atom_site_fract_x
 _atom_site_fract_y
 _atom_site_fract_z
 _atom_site_occupancy
  Tl  Tl0  1  0.82535845  0.20203545  0.95236033  1
  Tl  Tl1  1  0.87640582  0.06377845  0.32587982  1
  Tl  Tl2  1  0.12359418  0.93622155  0.67412018  1
  Tl  Tl3  1  0.59052459  0.46846516  0.31535737  1
  Tl  Tl4  1  0.17464155  0.79796455  0.04763967  1
  Tl  Tl5  1  0.40947541  0.53153484  0.68464263  1
  C  C6  1  0.77152879  0.22944654  0.64227499  1
  C  C7  1  0.22847121  0.77055346  0.35772501  1
  C  C8  1  0.50000000  0.50000000  0.00000000  1
  N  N9  1  0.59785748  0.24730223  0.70602457  1
  N  N10  1  0.71300720  0.50423513  0.06730201  1
  N  N11  1  0.40214252  0.75269777  0.29397543  1
  N  N12  1  0.28699280  0.49576487  0.93269799  1
  N  N13  1  0.95386432  0.21170449  0.58492150  1
  N  N14  1  0.04613568  0.78829551  0.41507850  1
