# generated using pymatgen
data_Ba4W(N2Cl)2
_symmetry_space_group_name_H-M   'P 1'
_cell_length_a   6.24006128
_cell_length_b   8.56835857
_cell_length_c   10.91093530
_cell_angle_alpha   98.82926068
_cell_angle_beta   90.00000000
_cell_angle_gamma   90.00000000
_symmetry_Int_Tables_number   1
_chemical_formula_structural   Ba4W(N2Cl)2
_chemical_formula_sum   'Ba8 W2 N8 Cl4'
_cell_volume   576.46294637
_cell_formula_units_Z   2
loop_
 _symmetry_equiv_pos_site_id
 _symmetry_equiv_pos_as_xyz
  1  'x, y, z'
loop_
 _atom_site_type_symbol
 _atom_site_label
 _atom_site_symmetry_multiplicity
 _atom_site_fract_x
 _atom_site_fract_y
 _atom_site_fract_z
 _atom_site_occupancy
  Ba  Ba0  1  0.75000000  0.71362763  0.29375971  1
  Ba  Ba1  1  0.75000000  0.99649538  0.62746993  1
  Ba  Ba2  1  0.75000000  0.55518197  0.62237908  1
  Ba  Ba3  1  0.75000000  0.18567645  0.09081543  1
  Ba  Ba4  1  0.25000000  0.00350462  0.37253007  1
  Ba  Ba5  1  0.25000000  0.44481803  0.37762092  1
  Ba  Ba6  1  0.25000000  0.81432355  0.90918457  1
  Ba  Ba7  1  0.25000000  0.28637237  0.70624029  1
  W  W8  1  0.75000000  0.22902383  0.39955386  1
  W  W9  1  0.25000000  0.77097617  0.60044614  1
  N  N10  1  0.25000000  0.96340524  0.70969241  1
  N  N11  1  0.00324496  0.75452192  0.49814703  1
  N  N12  1  0.50324496  0.24547808  0.50185297  1
  N  N13  1  0.99675504  0.24547808  0.50185297  1
  N  N14  1  0.75000000  0.38965505  0.29899126  1
  N  N15  1  0.75000000  0.03659476  0.29030759  1
  N  N16  1  0.49675504  0.75452192  0.49814703  1
  N  N17  1  0.25000000  0.61034495  0.70100874  1
  Cl  Cl18  1  0.25000000  0.67359678  0.16532936  1
  Cl  Cl19  1  0.75000000  0.32640322  0.83467064  1
  Cl  Cl20  1  0.25000000  0.15901267  0.09835856  1
  Cl  Cl21  1  0.75000000  0.84098733  0.90164144  1
