# generated using pymatgen
data_TcBr4
_symmetry_space_group_name_H-M   'P 1'
_cell_length_a   6.48269259
_cell_length_b   13.64983077
_cell_length_c   15.99596561
_cell_angle_alpha   90.00000000
_cell_angle_beta   90.00000000
_cell_angle_gamma   90.00000000
_symmetry_Int_Tables_number   1
_chemical_formula_structural   TcBr4
_chemical_formula_sum   'Tc8 Br32'
_cell_volume   1415.44551488
_cell_formula_units_Z   8
loop_
 _symmetry_equiv_pos_site_id
 _symmetry_equiv_pos_as_xyz
  1  'x, y, z'
loop_
 _atom_site_type_symbol
 _atom_site_label
 _atom_site_symmetry_multiplicity
 _atom_site_fract_x
 _atom_site_fract_y
 _atom_site_fract_z
 _atom_site_occupancy
  Tc  Tc0  1  0.40195021  0.62935364  0.18302283  1
  Tc  Tc1  1  0.59804979  0.37064636  0.81697717  1
  Tc  Tc2  1  0.90195021  0.87064636  0.81697717  1
  Tc  Tc3  1  0.59804979  0.12935364  0.31697717  1
  Tc  Tc4  1  0.40195021  0.87064636  0.68302283  1
  Tc  Tc5  1  0.09804979  0.12935364  0.18302283  1
  Tc  Tc6  1  0.90195021  0.62935364  0.31697717  1
  Tc  Tc7  1  0.09804979  0.37064636  0.68302283  1
  Br  Br8  1  0.27131221  0.47474545  0.80444460  1
  Br  Br9  1  0.76058583  0.98233982  0.91980243  1
  Br  Br10  1  0.54126247  0.75870429  0.58000451  1
  Br  Br11  1  0.07619144  0.73360539  0.19624636  1
  Br  Br12  1  0.76058583  0.51766018  0.41980243  1
  Br  Br13  1  0.23941417  0.48233982  0.58019757  1
  Br  Br14  1  0.04126247  0.74129571  0.41999549  1
  Br  Br15  1  0.23941417  0.01766018  0.08019757  1
  Br  Br16  1  0.92380856  0.23360539  0.30375364  1
  Br  Br17  1  0.95873753  0.25870429  0.58000451  1
  Br  Br18  1  0.92380856  0.26639461  0.80375364  1
  Br  Br19  1  0.07619144  0.76639461  0.69624636  1
  Br  Br20  1  0.72868779  0.52525455  0.19555540  1
  Br  Br21  1  0.45873753  0.25870429  0.91999549  1
  Br  Br22  1  0.57619144  0.73360539  0.30375364  1
  Br  Br23  1  0.26058583  0.51766018  0.08019757  1
  Br  Br24  1  0.42380856  0.23360539  0.19624636  1
  Br  Br25  1  0.45873753  0.24129571  0.41999549  1
  Br  Br26  1  0.22868779  0.97474545  0.80444460  1
  Br  Br27  1  0.54126247  0.74129571  0.08000451  1
  Br  Br28  1  0.04126247  0.75870429  0.91999549  1
  Br  Br29  1  0.73941417  0.01766018  0.41980243  1
  Br  Br30  1  0.95873753  0.24129571  0.08000451  1
  Br  Br31  1  0.27131221  0.02525455  0.30444460  1
  Br  Br32  1  0.77131221  0.47474545  0.69555540  1
  Br  Br33  1  0.57619144  0.76639461  0.80375364  1
  Br  Br34  1  0.72868779  0.97474545  0.69555540  1
  Br  Br35  1  0.77131221  0.02525455  0.19555540  1
  Br  Br36  1  0.22868779  0.52525455  0.30444460  1
  Br  Br37  1  0.26058583  0.98233982  0.58019757  1
  Br  Br38  1  0.73941417  0.48233982  0.91980243  1
  Br  Br39  1  0.42380856  0.26639461  0.69624636  1
