# generated using pymatgen
data_Li4MnCo2O7
_symmetry_space_group_name_H-M   'P 1'
_cell_length_a   2.90927678
_cell_length_b   13.67439062
_cell_length_c   6.58702657
_cell_angle_alpha   86.38612284
_cell_angle_beta   77.24198102
_cell_angle_gamma   96.10649845
_symmetry_Int_Tables_number   1
_chemical_formula_structural   Li4MnCo2O7
_chemical_formula_sum   'Li8 Mn2 Co4 O14'
_cell_volume   253.11566686
_cell_formula_units_Z   2
loop_
 _symmetry_equiv_pos_site_id
 _symmetry_equiv_pos_as_xyz
  1  'x, y, z'
loop_
 _atom_site_type_symbol
 _atom_site_label
 _atom_site_symmetry_multiplicity
 _atom_site_fract_x
 _atom_site_fract_y
 _atom_site_fract_z
 _atom_site_occupancy
  Li  Li0  1  0.35878672  0.07570821  0.35813476  1
  Li  Li1  1  0.07071014  0.22172527  0.08030600  1
  Li  Li2  1  0.78643286  0.34970373  0.77683700  1
  Li  Li3  1  0.64569628  0.93119534  0.63980279  1
  Li  Li4  1  0.92857100  0.78571400  0.92857100  1
  Li  Li5  1  0.49835628  0.49572079  0.49900824  1
  Li  Li6  1  0.21144672  0.64023266  0.21734021  1
  Li  Li7  1  0.42857100  0.28571400  0.42857100  1
  Mn  Mn8  1  0.00171663  0.00217185  0.99873859  1
  Mn  Mn9  1  0.85542637  0.56925715  0.85840441  1
  Co  Co10  1  0.73336393  0.15205299  0.68532612  1
  Co  Co11  1  0.12377907  0.41937501  0.17181688  1
  Co  Co12  1  0.57445634  0.71687607  0.56796439  1
  Co  Co13  1  0.28268666  0.85455293  0.28917861  1
  O  O14  1  0.53051970  0.09258738  0.03154798  1
  O  O15  1  0.24305028  0.23999143  0.75389186  1
  O  O16  1  0.97429428  0.39811837  0.44952881  1
  O  O17  1  0.82924250  0.95971995  0.30123494  1
  O  O18  1  0.10728379  0.81826828  0.60369970  1
  O  O19  1  0.69006423  0.53164253  0.15151407  1
  O  O20  1  0.38927213  0.66597576  0.88743250  1
  O  O21  1  0.16707877  0.03978647  0.70562893  1
  O  O22  1  0.88284872  0.17331063  0.40761419  1
  O  O23  1  0.61409272  0.33143757  0.10325114  1
  O  O24  1  0.46787087  0.90545224  0.96971050  1
  O  O25  1  0.74985821  0.75315972  0.25344230  1
  O  O26  1  0.32662330  0.47884162  0.82559502  1
  O  O27  1  0.02790050  0.61170805  0.55590806  1
