# generated using pymatgen
data_Ba(AlGe)2
_symmetry_space_group_name_H-M   'P 1'
_cell_length_a   4.32474909
_cell_length_b   10.29351753
_cell_length_c   11.08905160
_cell_angle_alpha   90.00000000
_cell_angle_beta   90.00000000
_cell_angle_gamma   90.00000000
_symmetry_Int_Tables_number   1
_chemical_formula_structural   Ba(AlGe)2
_chemical_formula_sum   'Ba4 Al8 Ge8'
_cell_volume   493.64998572
_cell_formula_units_Z   4
loop_
 _symmetry_equiv_pos_site_id
 _symmetry_equiv_pos_as_xyz
  1  'x, y, z'
loop_
 _atom_site_type_symbol
 _atom_site_label
 _atom_site_symmetry_multiplicity
 _atom_site_fract_x
 _atom_site_fract_y
 _atom_site_fract_z
 _atom_site_occupancy
  Ba  Ba0  1  0.75000000  0.25182938  0.32509907  1
  Ba  Ba1  1  0.75000000  0.75182938  0.17490093  1
  Ba  Ba2  1  0.25000000  0.74817062  0.67490093  1
  Ba  Ba3  1  0.25000000  0.24817062  0.82509907  1
  Al  Al4  1  0.25000000  0.04290927  0.11840555  1
  Al  Al5  1  0.75000000  0.89886111  0.45300135  1
  Al  Al6  1  0.75000000  0.45709073  0.61840555  1
  Al  Al7  1  0.75000000  0.39886111  0.04699865  1
  Al  Al8  1  0.25000000  0.60113889  0.95300135  1
  Al  Al9  1  0.25000000  0.54290927  0.38159445  1
  Al  Al10  1  0.75000000  0.95709073  0.88159445  1
  Al  Al11  1  0.25000000  0.10113889  0.54699865  1
  Ge  Ge12  1  0.25000000  0.35437067  0.54025390  1
  Ge  Ge13  1  0.75000000  0.64562933  0.45974610  1
  Ge  Ge14  1  0.25000000  0.47564486  0.15678677  1
  Ge  Ge15  1  0.75000000  0.52435514  0.84321323  1
  Ge  Ge16  1  0.75000000  0.02435514  0.65678677  1
  Ge  Ge17  1  0.25000000  0.85437067  0.95974610  1
  Ge  Ge18  1  0.25000000  0.97564486  0.34321323  1
  Ge  Ge19  1  0.75000000  0.14562933  0.04025390  1
