# generated using pymatgen
data_NbP2Se2Cl5
_symmetry_space_group_name_H-M   'P 1'
_cell_length_a   6.87766443
_cell_length_b   14.00933138
_cell_length_c   27.56698802
_cell_angle_alpha   90.00000000
_cell_angle_beta   93.92933356
_cell_angle_gamma   90.00000000
_symmetry_Int_Tables_number   1
_chemical_formula_structural   NbP2Se2Cl5
_chemical_formula_sum   'Nb8 P16 Se16 Cl40'
_cell_volume   2649.87642535
_cell_formula_units_Z   8
loop_
 _symmetry_equiv_pos_site_id
 _symmetry_equiv_pos_as_xyz
  1  'x, y, z'
loop_
 _atom_site_type_symbol
 _atom_site_label
 _atom_site_symmetry_multiplicity
 _atom_site_fract_x
 _atom_site_fract_y
 _atom_site_fract_z
 _atom_site_occupancy
  Nb  Nb0  1  0.67111159  0.60960273  0.70009212  1
  Nb  Nb1  1  0.21720553  0.70877262  0.47215996  1
  Nb  Nb2  1  0.82888841  0.10960273  0.79990788  1
  Nb  Nb3  1  0.32888841  0.39039727  0.29990788  1
  Nb  Nb4  1  0.78279447  0.29122738  0.52784004  1
  Nb  Nb5  1  0.17111159  0.89039727  0.20009212  1
  Nb  Nb6  1  0.28279447  0.20877262  0.02784004  1
  Nb  Nb7  1  0.71720553  0.79122738  0.97215996  1
  P  P8  1  0.06763330  0.83890756  0.40064365  1
  P  P9  1  0.04745509  0.91009983  0.29459828  1
  P  P10  1  0.08872697  0.92264763  0.61793966  1
  P  P11  1  0.43236670  0.33890756  0.09935635  1
  P  P12  1  0.41127303  0.42264763  0.88206034  1
  P  P13  1  0.95254491  0.08990017  0.70540172  1
  P  P14  1  0.22349415  0.42219380  0.14293214  1
  P  P15  1  0.93236670  0.16109244  0.59935635  1
  P  P16  1  0.72349415  0.07780620  0.64293214  1
  P  P17  1  0.56763330  0.66109244  0.90064365  1
  P  P18  1  0.91127303  0.07735237  0.38206034  1
  P  P19  1  0.45254491  0.41009983  0.20540172  1
  P  P20  1  0.58872697  0.57735237  0.11793966  1
  P  P21  1  0.77650585  0.57780620  0.85706786  1
  P  P22  1  0.27650585  0.92219380  0.35706786  1
  P  P23  1  0.54745509  0.58990017  0.79459828  1
  Se  Se24  1  0.35922792  0.55249002  0.92984501  1
  Se  Se25  1  0.24700619  0.07163030  0.38287323  1
  Se  Se26  1  0.14077208  0.05249002  0.57015499  1
  Se  Se27  1  0.66464498  0.53203005  0.19682007  1
  Se  Se28  1  0.75299381  0.92836970  0.61712677  1
  Se  Se29  1  0.64077208  0.44750998  0.07015499  1
  Se  Se30  1  0.25299381  0.57163030  0.11712677  1
  Se  Se31  1  0.44262658  0.72784805  0.82923084  1
  Se  Se32  1  0.55737342  0.27215195  0.17076916  1
  Se  Se33  1  0.74700619  0.42836970  0.88287323  1
  Se  Se34  1  0.33535502  0.46796995  0.80317993  1
  Se  Se35  1  0.94262658  0.77215195  0.32923084  1
  Se  Se36  1  0.85922792  0.94750998  0.42984501  1
  Se  Se37  1  0.05737342  0.22784805  0.67076916  1
  Se  Se38  1  0.83535502  0.03203005  0.30317993  1
  Se  Se39  1  0.16464498  0.96796995  0.69682007  1
  Cl  Cl40  1  0.98866293  0.39554354  0.57379905  1
  Cl  Cl41  1  0.65376094  0.39302683  0.46922221  1
  Cl  Cl42  1  0.10361735  0.01597533  0.82234617  1
  Cl  Cl43  1  0.45043897  0.69030052  0.41473403  1
  Cl  Cl44  1  0.33433769  0.03019426  0.22614262  1
  Cl  Cl45  1  0.62638033  0.14725039  0.50267738  1
  Cl  Cl46  1  0.79150749  0.63151165  0.62532781  1
  Cl  Cl47  1  0.39638265  0.51597533  0.67765383  1
  Cl  Cl48  1  0.60361735  0.48402467  0.32234617  1
  Cl  Cl49  1  0.34623906  0.60697317  0.53077779  1
  Cl  Cl50  1  0.16566231  0.53019426  0.27385738  1
  Cl  Cl51  1  0.59206144  0.20024209  0.75466230  1
  Cl  Cl52  1  0.09206144  0.29975791  0.25466230  1
  Cl  Cl53  1  0.87361967  0.64725039  0.99732262  1
  Cl  Cl54  1  0.54083370  0.25757294  0.29809825  1
  Cl  Cl55  1  0.70849251  0.13151165  0.87467219  1
  Cl  Cl56  1  0.04083370  0.24242706  0.79809825  1
  Cl  Cl57  1  0.12638033  0.35274961  0.00267738  1
  Cl  Cl58  1  0.45916630  0.74242706  0.70190175  1
  Cl  Cl59  1  0.94245284  0.76028435  0.51190764  1
  Cl  Cl60  1  0.20849251  0.36848835  0.37467219  1
  Cl  Cl61  1  0.29150749  0.86848835  0.12532781  1
  Cl  Cl62  1  0.95916630  0.75757294  0.20190175  1
  Cl  Cl63  1  0.37361967  0.85274961  0.49732262  1
  Cl  Cl64  1  0.44245284  0.73971565  0.01190764  1
  Cl  Cl65  1  0.90793856  0.70024209  0.74533770  1
  Cl  Cl66  1  0.51133707  0.89554354  0.92620095  1
  Cl  Cl67  1  0.04956103  0.19030052  0.08526597  1
  Cl  Cl68  1  0.66566231  0.96980574  0.77385738  1
  Cl  Cl69  1  0.89638265  0.98402467  0.17765383  1
  Cl  Cl70  1  0.55754716  0.26028435  0.98809236  1
  Cl  Cl71  1  0.95043897  0.80969948  0.91473403  1
  Cl  Cl72  1  0.15376094  0.10697317  0.96922221  1
  Cl  Cl73  1  0.83433769  0.46980574  0.72614262  1
  Cl  Cl74  1  0.05754716  0.23971565  0.48809236  1
  Cl  Cl75  1  0.54956103  0.30969948  0.58526597  1
  Cl  Cl76  1  0.84623906  0.89302683  0.03077779  1
  Cl  Cl77  1  0.40793856  0.79975791  0.24533770  1
  Cl  Cl78  1  0.48866293  0.10445646  0.07379905  1
  Cl  Cl79  1  0.01133707  0.60445646  0.42620095  1
