# generated using pymatgen
data_Pr12Fe2I17
_symmetry_space_group_name_H-M   'P 1'
_cell_length_a   10.03488392
_cell_length_b   12.07516268
_cell_length_c   12.10343181
_cell_angle_alpha   74.31390526
_cell_angle_beta   75.31976896
_cell_angle_gamma   65.39640986
_symmetry_Int_Tables_number   1
_chemical_formula_structural   Pr12Fe2I17
_chemical_formula_sum   'Pr12 Fe2 I17'
_cell_volume   1267.06194244
_cell_formula_units_Z   1
loop_
 _symmetry_equiv_pos_site_id
 _symmetry_equiv_pos_as_xyz
  1  'x, y, z'
loop_
 _atom_site_type_symbol
 _atom_site_label
 _atom_site_symmetry_multiplicity
 _atom_site_fract_x
 _atom_site_fract_y
 _atom_site_fract_z
 _atom_site_occupancy
  Pr  Pr0  1  0.45218774  0.48982509  0.32307794  1
  Pr  Pr1  1  0.81978973  0.18887740  0.58335412  1
  Pr  Pr2  1  0.59077294  0.75914603  0.28234496  1
  Pr  Pr3  1  0.18021027  0.81112260  0.41664588  1
  Pr  Pr4  1  0.44772733  0.33012881  0.98794529  1
  Pr  Pr5  1  0.72545455  0.01460630  0.89249487  1
  Pr  Pr6  1  0.40922706  0.24085397  0.71765504  1
  Pr  Pr7  1  0.54781226  0.51017491  0.67692206  1
  Pr  Pr8  1  0.27454545  0.98539370  0.10750513  1
  Pr  Pr9  1  0.14105533  0.71274362  0.15304810  1
  Pr  Pr10  1  0.55227267  0.66987119  0.01205471  1
  Pr  Pr11  1  0.85894467  0.28725638  0.84695190  1
  Fe  Fe12  1  0.63392014  0.26194404  0.78550572  1
  Fe  Fe13  1  0.36607986  0.73805596  0.21449428  1
  I  I14  1  0.74524112  0.47080295  0.41691456  1
  I  I15  1  0.77885033  0.58168470  0.75746245  1
  I  I16  1  0.05194503  0.10628798  0.32321079  1
  I  I17  1  0.88671856  0.78816850  0.37044625  1
  I  I18  1  0.94805497  0.89371202  0.67678921  1
  I  I19  1  0.46427938  0.94655731  0.84203930  1
  I  I20  1  0.42908413  0.81877569  0.53728173  1
  I  I21  1  0.15804005  0.29415370  0.95267212  1
  I  I22  1  0.22114967  0.41831530  0.24253755  1
  I  I23  1  0.25475888  0.52919705  0.58308544  1
  I  I24  1  0.31065030  0.63338415  0.89614668  1
  I  I25  1  0.84195995  0.70584630  0.04732788  1
  I  I26  1  0.00000000  0.00000000  0.00000000  1
  I  I27  1  0.57091587  0.18122431  0.46271827  1
  I  I28  1  0.53572062  0.05344269  0.15796070  1
  I  I29  1  0.11328144  0.21183150  0.62955375  1
  I  I30  1  0.68934970  0.36661585  0.10385332  1
