# generated using pymatgen
data_Li5Mn3O8
_symmetry_space_group_name_H-M   'P 1'
_cell_length_a   2.90421023
_cell_length_b   9.88568609
_cell_length_c   5.20436092
_cell_angle_alpha   100.98382209
_cell_angle_beta   90.00000000
_cell_angle_gamma   90.00000000
_symmetry_Int_Tables_number   1
_chemical_formula_structural   Li5Mn3O8
_chemical_formula_sum   'Li5 Mn3 O8'
_cell_volume   146.68059680
_cell_formula_units_Z   1
loop_
 _symmetry_equiv_pos_site_id
 _symmetry_equiv_pos_as_xyz
  1  'x, y, z'
loop_
 _atom_site_type_symbol
 _atom_site_label
 _atom_site_symmetry_multiplicity
 _atom_site_fract_x
 _atom_site_fract_y
 _atom_site_fract_z
 _atom_site_occupancy
  Li  Li0  1  0.00000000  0.72375751  0.22581112  1
  Li  Li1  1  0.50000000  0.26872929  0.26166694  1
  Li  Li2  1  0.00000000  0.27624249  0.77418888  1
  Li  Li3  1  0.50000000  0.73127071  0.73833306  1
  Li  Li4  1  0.50000000  0.50000000  0.00000000  1
  Mn  Mn5  1  0.00000000  -0.00000000  0.00000000  1
  Mn  Mn6  1  0.00000000  0.50000000  0.50000000  1
  Mn  Mn7  1  0.50000000  -0.00000000  0.50000000  1
  O  O8  1  0.00000000  0.11459729  0.40601926  1
  O  O9  1  0.50000000  0.61009307  0.38590827  1
  O  O10  1  0.00000000  0.61812242  0.84195339  1
  O  O11  1  0.50000000  0.10839497  0.87965190  1
  O  O12  1  0.00000000  0.38187758  0.15804661  1
  O  O13  1  0.50000000  0.89160503  0.12034810  1
  O  O14  1  -0.00000000  0.88540271  0.59398074  1
  O  O15  1  0.50000000  0.38990693  0.61409173  1
