# generated using pymatgen
data_LaZnRh
_symmetry_space_group_name_H-M   'P 1'
_cell_length_a   4.08381314
_cell_length_b   7.43751626
_cell_length_c   16.63971933
_cell_angle_alpha   90.00000000
_cell_angle_beta   90.00000000
_cell_angle_gamma   90.00000000
_symmetry_Int_Tables_number   1
_chemical_formula_structural   LaZnRh
_chemical_formula_sum   'La8 Zn8 Rh8'
_cell_volume   505.40529424
_cell_formula_units_Z   8
loop_
 _symmetry_equiv_pos_site_id
 _symmetry_equiv_pos_as_xyz
  1  'x, y, z'
loop_
 _atom_site_type_symbol
 _atom_site_label
 _atom_site_symmetry_multiplicity
 _atom_site_fract_x
 _atom_site_fract_y
 _atom_site_fract_z
 _atom_site_occupancy
  La  La0  1  0.75000000  0.83021917  0.94017493  1
  La  La1  1  0.25000000  0.54639321  0.21742470  1
  La  La2  1  0.25000000  0.04639321  0.28257530  1
  La  La3  1  0.25000000  0.16978083  0.05982507  1
  La  La4  1  0.75000000  0.33021917  0.55982507  1
  La  La5  1  0.25000000  0.66978083  0.44017493  1
  La  La6  1  0.75000000  0.95360679  0.71742470  1
  La  La7  1  0.75000000  0.45360679  0.78257530  1
  Zn  Zn8  1  0.25000000  0.62918458  0.64898651  1
  Zn  Zn9  1  0.25000000  0.49798237  0.94000898  1
  Zn  Zn10  1  0.75000000  0.37081542  0.35101349  1
  Zn  Zn11  1  0.75000000  0.50201763  0.05999102  1
  Zn  Zn12  1  0.25000000  0.99798237  0.55999102  1
  Zn  Zn13  1  0.75000000  0.87081542  0.14898651  1
  Zn  Zn14  1  0.75000000  0.00201763  0.44000898  1
  Zn  Zn15  1  0.25000000  0.12918458  0.85101349  1
  Rh  Rh16  1  0.75000000  0.75152324  0.31481703  1
  Rh  Rh17  1  0.25000000  0.74847676  0.81481703  1
  Rh  Rh18  1  0.25000000  0.24030696  0.43457072  1
  Rh  Rh19  1  0.25000000  0.74030696  0.06542928  1
  Rh  Rh20  1  0.25000000  0.24847676  0.68518297  1
  Rh  Rh21  1  0.75000000  0.25969304  0.93457072  1
  Rh  Rh22  1  0.75000000  0.75969304  0.56542928  1
  Rh  Rh23  1  0.75000000  0.25152324  0.18518297  1
