# generated using pymatgen
data_Yb5Au4
_symmetry_space_group_name_H-M   'P 1'
_cell_length_a   7.75697199
_cell_length_b   7.90628488
_cell_length_c   15.03795883
_cell_angle_alpha   90.00000000
_cell_angle_beta   90.00000000
_cell_angle_gamma   90.00000000
_symmetry_Int_Tables_number   1
_chemical_formula_structural   Yb5Au4
_chemical_formula_sum   'Yb20 Au16'
_cell_volume   922.26042603
_cell_formula_units_Z   4
loop_
 _symmetry_equiv_pos_site_id
 _symmetry_equiv_pos_as_xyz
  1  'x, y, z'
loop_
 _atom_site_type_symbol
 _atom_site_label
 _atom_site_symmetry_multiplicity
 _atom_site_fract_x
 _atom_site_fract_y
 _atom_site_fract_z
 _atom_site_occupancy
  Yb  Yb0  1  0.02985155  0.17436600  0.60067904  1
  Yb  Yb1  1  0.86959496  0.66269685  0.62063534  1
  Yb  Yb2  1  0.52985155  0.32563400  0.89932096  1
  Yb  Yb3  1  0.13040504  0.33730315  0.37936466  1
  Yb  Yb4  1  0.36959496  0.83730315  0.62063534  1
  Yb  Yb5  1  0.13040504  0.33730315  0.12063534  1
  Yb  Yb6  1  0.36959496  0.83730315  0.87936466  1
  Yb  Yb7  1  0.20700199  0.49485553  0.75000000  1
  Yb  Yb8  1  0.52985155  0.32563400  0.60067904  1
  Yb  Yb9  1  0.79299801  0.50514447  0.25000000  1
  Yb  Yb10  1  0.97014845  0.82563400  0.10067904  1
  Yb  Yb11  1  0.97014845  0.82563400  0.39932096  1
  Yb  Yb12  1  0.47014845  0.67436600  0.39932096  1
  Yb  Yb13  1  0.63040504  0.16269685  0.37936466  1
  Yb  Yb14  1  0.29299801  0.99485553  0.25000000  1
  Yb  Yb15  1  0.63040504  0.16269685  0.12063534  1
  Yb  Yb16  1  0.70700199  0.00514447  0.75000000  1
  Yb  Yb17  1  0.86959496  0.66269685  0.87936466  1
  Yb  Yb18  1  0.47014845  0.67436600  0.10067904  1
  Yb  Yb19  1  0.02985155  0.17436600  0.89932096  1
  Au  Au20  1  0.83596937  0.36173280  0.75000000  1
  Au  Au21  1  0.42860854  0.37585484  0.25000000  1
  Au  Au22  1  0.66403063  0.86173280  0.25000000  1
  Au  Au23  1  0.79485227  0.47477790  0.45466870  1
  Au  Au24  1  0.70514773  0.97477790  0.95466870  1
  Au  Au25  1  0.79485227  0.47477790  0.04533130  1
  Au  Au26  1  0.20514773  0.52522210  0.54533130  1
  Au  Au27  1  0.20514773  0.52522210  0.95466870  1
  Au  Au28  1  0.16403063  0.63826720  0.25000000  1
  Au  Au29  1  0.33596937  0.13826720  0.75000000  1
  Au  Au30  1  0.57139146  0.62414516  0.75000000  1
  Au  Au31  1  0.07139146  0.87585484  0.75000000  1
  Au  Au32  1  0.29485227  0.02522210  0.04533130  1
  Au  Au33  1  0.92860854  0.12414516  0.25000000  1
  Au  Au34  1  0.70514773  0.97477790  0.54533130  1
  Au  Au35  1  0.29485227  0.02522210  0.45466870  1
