# generated using pymatgen
data_La5(BN3)2
_symmetry_space_group_name_H-M   'P 1'
_cell_length_a   3.70624141
_cell_length_b   6.54872512
_cell_length_c   9.06257251
_cell_angle_alpha   104.95335877
_cell_angle_beta   90.00000000
_cell_angle_gamma   106.43779892
_symmetry_Int_Tables_number   1
_chemical_formula_structural   La5(BN3)2
_chemical_formula_sum   'La5 B2 N6'
_cell_volume   203.19087993
_cell_formula_units_Z   1
loop_
 _symmetry_equiv_pos_site_id
 _symmetry_equiv_pos_as_xyz
  1  'x, y, z'
loop_
 _atom_site_type_symbol
 _atom_site_label
 _atom_site_symmetry_multiplicity
 _atom_site_fract_x
 _atom_site_fract_y
 _atom_site_fract_z
 _atom_site_occupancy
  La  La0  1  0.37529777  0.75059554  0.62529106  1
  La  La1  1  0.69171747  0.38343494  0.81896363  1
  La  La2  1  0.00000000  0.00000000  0.00000000  1
  La  La3  1  0.30828253  0.61656506  0.18103637  1
  La  La4  1  0.62470223  0.24940446  0.37470894  1
  B  B5  1  0.94520034  0.89040067  0.41078532  1
  B  B6  1  0.05479966  0.10959933  0.58921468  1
  N  N7  1  0.97436559  0.94873118  0.26331141  1
  N  N8  1  0.65612364  0.31224728  0.07799228  1
  N  N9  1  0.17137039  0.34274077  0.58318751  1
  N  N10  1  0.02563441  0.05126882  0.73668859  1
  N  N11  1  0.34387636  0.68775272  0.92200772  1
  N  N12  1  0.82862961  0.65725923  0.41681249  1
