# generated using pymatgen
data_Pr4C2Cl5
_symmetry_space_group_name_H-M   'P 1'
_cell_length_a   3.92383836
_cell_length_b   7.90831609
_cell_length_c   9.84266258
_cell_angle_alpha   113.69818747
_cell_angle_beta   101.49339840
_cell_angle_gamma   90.00419942
_symmetry_Int_Tables_number   1
_chemical_formula_structural   Pr4C2Cl5
_chemical_formula_sum   'Pr4 C2 Cl5'
_cell_volume   272.96837524
_cell_formula_units_Z   1
loop_
 _symmetry_equiv_pos_site_id
 _symmetry_equiv_pos_as_xyz
  1  'x, y, z'
loop_
 _atom_site_type_symbol
 _atom_site_label
 _atom_site_symmetry_multiplicity
 _atom_site_fract_x
 _atom_site_fract_y
 _atom_site_fract_z
 _atom_site_occupancy
  Pr  Pr0  1  0.33030057  0.33028029  0.66052844  1
  Pr  Pr1  1  0.66969943  0.66971971  0.33947156  1
  Pr  Pr2  1  0.99995027  0.71255184  0.00003359  1
  Pr  Pr3  1  0.00004973  0.28744816  0.99996641  1
  C  C4  1  0.45991574  0.45989228  0.91985704  1
  C  C5  1  0.54008426  0.54010772  0.08014296  1
  Cl  Cl6  1  0.16710324  0.39689252  0.33440186  1
  Cl  Cl7  1  0.83280694  0.06252954  0.66553556  1
  Cl  Cl8  1  0.83289676  0.60310748  0.66559814  1
  Cl  Cl9  1  0.16719306  0.93747046  0.33446444  1
  Cl  Cl10  1  0.50000000  0.00000000  0.00000000  1
