# generated using pymatgen
data_Yb11InSb9
_symmetry_space_group_name_H-M   'P 1'
_cell_length_a   11.87104623
_cell_length_b   12.03995423
_cell_length_c   12.03995460
_cell_angle_alpha   62.50800657
_cell_angle_beta   60.46299770
_cell_angle_gamma   60.46299901
_symmetry_Int_Tables_number   1
_chemical_formula_structural   Yb11InSb9
_chemical_formula_sum   'Yb22 In2 Sb18'
_cell_volume   1247.11695299
_cell_formula_units_Z   2
loop_
 _symmetry_equiv_pos_site_id
 _symmetry_equiv_pos_as_xyz
  1  'x, y, z'
loop_
 _atom_site_type_symbol
 _atom_site_label
 _atom_site_symmetry_multiplicity
 _atom_site_fract_x
 _atom_site_fract_y
 _atom_site_fract_z
 _atom_site_occupancy
  Yb  Yb0  1  0.91149740  0.43693280  0.88036530  1
  Yb  Yb1  1  0.66543951  0.67385830  0.32458855  1
  Yb  Yb2  1  0.77120450  0.88036530  0.43693280  1
  Yb  Yb3  1  0.32620556  0.67379444  0.67379444  1
  Yb  Yb4  1  0.05314077  0.68343119  0.57617814  1
  Yb  Yb5  1  0.44355202  0.93031471  0.81204938  1
  Yb  Yb6  1  0.74491324  0.06875068  0.61329169  1
  Yb  Yb7  1  0.27120450  0.93693280  0.38036530  1
  Yb  Yb8  1  0.57304439  0.61329169  0.06875068  1
  Yb  Yb9  1  0.31408388  0.43031471  0.31204938  1
  Yb  Yb10  1  0.41149740  0.38036530  0.93693280  1
  Yb  Yb11  1  0.94355202  0.31204938  0.43031471  1
  Yb  Yb12  1  0.16543951  0.82458855  0.17385830  1
  Yb  Yb13  1  0.68724990  0.57617814  0.68343119  1
  Yb  Yb14  1  0.55314077  0.07617814  0.18343119  1
  Yb  Yb15  1  0.33611363  0.32458855  0.67385830  1
  Yb  Yb16  1  0.82620556  0.17379444  0.17379444  1
  Yb  Yb17  1  0.07304439  0.56875068  0.11329169  1
  Yb  Yb18  1  0.83611363  0.17385830  0.82458855  1
  Yb  Yb19  1  0.18724990  0.18343119  0.07617814  1
  Yb  Yb20  1  0.24491324  0.11329169  0.56875068  1
  Yb  Yb21  1  0.81408388  0.81204938  0.93031471  1
  In  In22  1  0.61016084  0.38983916  0.38983916  1
  In  In23  1  0.11016084  0.88983916  0.88983916  1
  Sb  Sb24  1  0.99457761  0.00633734  0.35968262  1
  Sb  Sb25  1  0.53813532  0.10709250  0.88753725  1
  Sb  Sb26  1  0.46723494  0.88753725  0.10709250  1
  Sb  Sb27  1  0.36000979  0.62506717  0.38755442  1
  Sb  Sb28  1  0.12736861  0.12506717  0.88755442  1
  Sb  Sb29  1  0.62736861  0.38755442  0.62506717  1
  Sb  Sb30  1  0.24773746  0.25226254  0.25226254  1
  Sb  Sb31  1  0.63940243  0.35968262  0.00633734  1
  Sb  Sb32  1  0.53769990  0.16233683  0.45268498  1
  Sb  Sb33  1  0.86000979  0.88755442  0.12506717  1
  Sb  Sb34  1  0.13940243  0.50633734  0.85968262  1
  Sb  Sb35  1  0.03813532  0.38753725  0.60709250  1
  Sb  Sb36  1  0.49457761  0.85968262  0.50633734  1
  Sb  Sb37  1  0.74773746  0.75226254  0.75226254  1
  Sb  Sb38  1  0.96723494  0.60709250  0.38753725  1
  Sb  Sb39  1  0.34727829  0.66233683  0.95268498  1
  Sb  Sb40  1  0.84727829  0.45268498  0.16233683  1
  Sb  Sb41  1  0.03769990  0.95268498  0.66233683  1
