# generated using pymatgen
data_NbP2NCl12
_symmetry_space_group_name_H-M   'P 1'
_cell_length_a   8.31967426
_cell_length_b   8.31967450
_cell_length_c   15.92642620
_cell_angle_alpha   78.47739402
_cell_angle_beta   78.47739367
_cell_angle_gamma   65.81139003
_symmetry_Int_Tables_number   1
_chemical_formula_structural   NbP2NCl12
_chemical_formula_sum   'Nb2 P4 N2 Cl24'
_cell_volume   976.71471271
_cell_formula_units_Z   2
loop_
 _symmetry_equiv_pos_site_id
 _symmetry_equiv_pos_as_xyz
  1  'x, y, z'
loop_
 _atom_site_type_symbol
 _atom_site_label
 _atom_site_symmetry_multiplicity
 _atom_site_fract_x
 _atom_site_fract_y
 _atom_site_fract_z
 _atom_site_occupancy
  Nb  Nb0  1  0.00000000  0.00000000  0.50000000  1
  Nb  Nb1  1  0.00000000  0.00000000  0.00000000  1
  P  P2  1  0.32007866  0.46016463  0.77071518  1
  P  P3  1  0.53983537  0.67992134  0.72928482  1
  P  P4  1  0.46016463  0.32007866  0.27071518  1
  P  P5  1  0.67992134  0.53983537  0.22928482  1
  N  N6  1  0.37903379  0.62096621  0.75000000  1
  N  N7  1  0.62096621  0.37903379  0.25000000  1
  Cl  Cl8  1  0.21852053  0.70361841  0.00848310  1
  Cl  Cl9  1  0.89733366  0.78731094  0.47267669  1
  Cl  Cl10  1  0.78147947  0.29638159  0.99151690  1
  Cl  Cl11  1  0.48346548  0.90248850  0.64885238  1
  Cl  Cl12  1  0.49751272  0.23887926  0.82423905  1
  Cl  Cl13  1  0.09751150  0.51653452  0.85114762  1
  Cl  Cl14  1  0.21268906  0.10266634  0.02732331  1
  Cl  Cl15  1  0.90248850  0.48346548  0.14885238  1
  Cl  Cl16  1  0.90990807  0.95363397  0.15136524  1
  Cl  Cl17  1  0.29638159  0.78147947  0.49151690  1
  Cl  Cl18  1  0.95363397  0.90990807  0.65136524  1
  Cl  Cl19  1  0.10266634  0.21268906  0.52732331  1
  Cl  Cl20  1  0.78731094  0.89733366  0.97267669  1
  Cl  Cl21  1  0.40131539  0.27253085  0.16601931  1
  Cl  Cl22  1  0.72746915  0.59868461  0.33398069  1
  Cl  Cl23  1  0.04636603  0.09009193  0.34863476  1
  Cl  Cl24  1  0.59868461  0.72746915  0.83398069  1
  Cl  Cl25  1  0.70361841  0.21852053  0.50848310  1
  Cl  Cl26  1  0.09009193  0.04636603  0.84863476  1
  Cl  Cl27  1  0.51653452  0.09751150  0.35114762  1
  Cl  Cl28  1  0.50248728  0.76112074  0.17576095  1
  Cl  Cl29  1  0.76112074  0.50248728  0.67576095  1
  Cl  Cl30  1  0.27253085  0.40131539  0.66601931  1
  Cl  Cl31  1  0.23887926  0.49751272  0.32423905  1
