# generated using pymatgen
data_Eu2B4Rh5
_symmetry_space_group_name_H-M   'P 1'
_cell_length_a   5.54044048
_cell_length_b   5.71900304
_cell_length_c   6.29971665
_cell_angle_alpha   77.70155748
_cell_angle_beta   63.91288233
_cell_angle_gamma   61.02757045
_symmetry_Int_Tables_number   1
_chemical_formula_structural   Eu2B4Rh5
_chemical_formula_sum   'Eu2 B4 Rh5'
_cell_volume   156.84048082
_cell_formula_units_Z   1
loop_
 _symmetry_equiv_pos_site_id
 _symmetry_equiv_pos_as_xyz
  1  'x, y, z'
loop_
 _atom_site_type_symbol
 _atom_site_label
 _atom_site_symmetry_multiplicity
 _atom_site_fract_x
 _atom_site_fract_y
 _atom_site_fract_z
 _atom_site_occupancy
  Eu  Eu0  1  0.14353618  1.00000000  0.71292764  1
  Eu  Eu1  1  0.85646382  0.00000000  0.28707236  1
  B  B2  1  0.79123612  0.67656907  0.74095868  1
  B  B3  1  0.20876388  0.32343093  0.25904132  1
  B  B4  1  0.46780520  0.32343093  0.74095868  1
  B  B5  1  0.53219480  0.67656907  0.25904132  1
  Rh  Rh6  1  0.50000000  0.50000000  0.00000000  1
  Rh  Rh7  1  0.25000000  0.50000000  0.50000000  1
  Rh  Rh8  1  0.75000000  0.50000000  0.50000000  1
  Rh  Rh9  1  0.00000000  0.50000000  0.00000000  1
  Rh  Rh10  1  0.50000000  0.00000000  0.00000000  1
