# generated using pymatgen
data_Cs(BCl)6
_symmetry_space_group_name_H-M   'P 1'
_cell_length_a   16.44175875
_cell_length_b   16.44175877
_cell_length_c   16.44175822
_cell_angle_alpha   34.47511925
_cell_angle_beta   34.47511912
_cell_angle_gamma   34.47512092
_symmetry_Int_Tables_number   1
_chemical_formula_structural   Cs(BCl)6
_chemical_formula_sum   'Cs4 B24 Cl24'
_cell_volume   1270.45238323
_cell_formula_units_Z   4
loop_
 _symmetry_equiv_pos_site_id
 _symmetry_equiv_pos_as_xyz
  1  'x, y, z'
loop_
 _atom_site_type_symbol
 _atom_site_label
 _atom_site_symmetry_multiplicity
 _atom_site_fract_x
 _atom_site_fract_y
 _atom_site_fract_z
 _atom_site_occupancy
  Cs  Cs0  1  0.20840008  0.20840008  0.20840008  1
  Cs  Cs1  1  0.37316036  0.37316036  0.37316036  1
  Cs  Cs2  1  0.62683964  0.62683964  0.62683964  1
  Cs  Cs3  1  0.79159992  0.79159992  0.79159992  1
  B  B4  1  0.44782587  0.34839879  0.68291744  1
  B  B5  1  0.55217413  0.65160121  0.31708256  1
  B  B6  1  0.91478433  0.12512640  0.04814160  1
  B  B7  1  0.49903129  0.56014516  0.35321348  1
  B  B8  1  0.04814160  0.91478433  0.12512640  1
  B  B9  1  0.35321348  0.49903129  0.56014516  1
  B  B10  1  0.43985484  0.64678652  0.50096871  1
  B  B11  1  0.14664401  0.02371191  0.80870198  1
  B  B12  1  0.80870198  0.14664401  0.02371191  1
  B  B13  1  0.64678652  0.50096871  0.43985484  1
  B  B14  1  0.34839879  0.68291744  0.44782587  1
  B  B15  1  0.12512640  0.04814160  0.91478433  1
  B  B16  1  0.56014516  0.35321348  0.49903129  1
  B  B17  1  0.85335599  0.97628809  0.19129802  1
  B  B18  1  0.08521567  0.87487360  0.95185840  1
  B  B19  1  0.31708256  0.55217413  0.65160121  1
  B  B20  1  0.02371191  0.80870198  0.14664401  1
  B  B21  1  0.95185840  0.08521567  0.87487360  1
  B  B22  1  0.87487360  0.95185840  0.08521567  1
  B  B23  1  0.19129802  0.85335599  0.97628809  1
  B  B24  1  0.65160121  0.31708256  0.55217413  1
  B  B25  1  0.50096871  0.43985484  0.64678652  1
  B  B26  1  0.68291744  0.44782587  0.34839879  1
  B  B27  1  0.97628809  0.19129802  0.85335599  1
  Cl  Cl28  1  0.18739963  0.87393461  0.39385432  1
  Cl  Cl29  1  0.30084610  0.04868691  0.60578650  1
  Cl  Cl30  1  0.87393461  0.39385432  0.18739963  1
  Cl  Cl31  1  0.12606539  0.60614568  0.81260037  1
  Cl  Cl32  1  0.95131309  0.39421350  0.69915390  1
  Cl  Cl33  1  0.09768237  0.82392501  0.25804349  1
  Cl  Cl34  1  0.04868691  0.60578650  0.30084610  1
  Cl  Cl35  1  0.80255731  0.50152327  0.37557983  1
  Cl  Cl36  1  0.69915390  0.95131309  0.39421350  1
  Cl  Cl37  1  0.19744269  0.49847673  0.62442017  1
  Cl  Cl38  1  0.17607499  0.74195651  0.90231763  1
  Cl  Cl39  1  0.90231763  0.17607499  0.74195651  1
  Cl  Cl40  1  0.39385432  0.18739963  0.87393461  1
  Cl  Cl41  1  0.50152327  0.37557983  0.80255731  1
  Cl  Cl42  1  0.74195651  0.90231763  0.17607499  1
  Cl  Cl43  1  0.49847673  0.62442017  0.19744269  1
  Cl  Cl44  1  0.39421350  0.69915390  0.95131309  1
  Cl  Cl45  1  0.37557983  0.80255731  0.50152327  1
  Cl  Cl46  1  0.82392501  0.25804349  0.09768237  1
  Cl  Cl47  1  0.25804349  0.09768237  0.82392501  1
  Cl  Cl48  1  0.81260037  0.12606539  0.60614568  1
  Cl  Cl49  1  0.62442017  0.19744269  0.49847673  1
  Cl  Cl50  1  0.60578650  0.30084610  0.04868691  1
  Cl  Cl51  1  0.60614568  0.81260037  0.12606539  1
