# generated using pymatgen
data_YbGeAu
_symmetry_space_group_name_H-M   'P 1'
_cell_length_a   4.53000190
_cell_length_b   7.78765785
_cell_length_c   21.35109330
_cell_angle_alpha   90.00000000
_cell_angle_beta   90.00000000
_cell_angle_gamma   90.00000000
_symmetry_Int_Tables_number   1
_chemical_formula_structural   YbGeAu
_chemical_formula_sum   'Yb12 Ge12 Au12'
_cell_volume   753.22610825
_cell_formula_units_Z   12
loop_
 _symmetry_equiv_pos_site_id
 _symmetry_equiv_pos_as_xyz
  1  'x, y, z'
loop_
 _atom_site_type_symbol
 _atom_site_label
 _atom_site_symmetry_multiplicity
 _atom_site_fract_x
 _atom_site_fract_y
 _atom_site_fract_z
 _atom_site_occupancy
  Yb  Yb0  1  0.25000000  0.78805335  0.16608262  1
  Yb  Yb1  1  0.25000000  0.78102674  0.50074201  1
  Yb  Yb2  1  0.25000000  0.71152324  0.33282928  1
  Yb  Yb3  1  0.75000000  0.21897326  0.49925799  1
  Yb  Yb4  1  0.75000000  0.28847676  0.66717072  1
  Yb  Yb5  1  0.75000000  0.28102674  0.99925799  1
  Yb  Yb6  1  0.25000000  0.78847676  0.83282928  1
  Yb  Yb7  1  0.25000000  0.71897326  0.00074201  1
  Yb  Yb8  1  0.75000000  0.21152324  0.16717072  1
  Yb  Yb9  1  0.75000000  0.28805335  0.33391738  1
  Yb  Yb10  1  0.25000000  0.71194665  0.66608262  1
  Yb  Yb11  1  0.75000000  0.21194665  0.83391738  1
  Ge  Ge12  1  0.25000000  0.41336810  0.89716517  1
  Ge  Ge13  1  0.75000000  0.91670457  0.72908905  1
  Ge  Ge14  1  0.75000000  0.58329543  0.22908905  1
  Ge  Ge15  1  0.25000000  0.08907010  0.07017850  1
  Ge  Ge16  1  0.75000000  0.91092990  0.92982150  1
  Ge  Ge17  1  0.75000000  0.91336810  0.60283483  1
  Ge  Ge18  1  0.25000000  0.41092990  0.57017850  1
  Ge  Ge19  1  0.25000000  0.08663190  0.39716517  1
  Ge  Ge20  1  0.25000000  0.08329543  0.27091095  1
  Ge  Ge21  1  0.75000000  0.58907010  0.42982150  1
  Ge  Ge22  1  0.25000000  0.41670457  0.77091095  1
  Ge  Ge23  1  0.75000000  0.58663190  0.10283483  1
  Au  Au24  1  0.75000000  0.58291672  0.90757066  1
  Au  Au25  1  0.25000000  0.41613370  0.43218621  1
  Au  Au26  1  0.75000000  0.58386630  0.56781379  1
  Au  Au27  1  0.75000000  0.91708328  0.40757066  1
  Au  Au28  1  0.25000000  0.41708328  0.09242934  1
  Au  Au29  1  0.25000000  0.41298464  0.23980039  1
  Au  Au30  1  0.75000000  0.91298464  0.26019961  1
  Au  Au31  1  0.25000000  0.08701536  0.73980039  1
  Au  Au32  1  0.25000000  0.08386630  0.93218621  1
  Au  Au33  1  0.75000000  0.91613370  0.06781379  1
  Au  Au34  1  0.25000000  0.08291672  0.59242934  1
  Au  Au35  1  0.75000000  0.58701536  0.76019961  1
