# generated using pymatgen
data_Rb2AgAu3I8
_symmetry_space_group_name_H-M   'P 1'
_cell_length_a   7.66835144
_cell_length_b   7.87483383
_cell_length_c   21.96264436
_cell_angle_alpha   100.06694103
_cell_angle_beta   90.00000000
_cell_angle_gamma   119.13635674
_symmetry_Int_Tables_number   1
_chemical_formula_structural   Rb2AgAu3I8
_chemical_formula_sum   'Rb4 Ag2 Au6 I16'
_cell_volume   1135.00404023
_cell_formula_units_Z   2
loop_
 _symmetry_equiv_pos_site_id
 _symmetry_equiv_pos_as_xyz
  1  'x, y, z'
loop_
 _atom_site_type_symbol
 _atom_site_label
 _atom_site_symmetry_multiplicity
 _atom_site_fract_x
 _atom_site_fract_y
 _atom_site_fract_z
 _atom_site_occupancy
  Rb  Rb0  1  0.73437892  0.40771331  0.59575634  1
  Rb  Rb1  1  0.67333439  0.40771331  0.09575634  1
  Rb  Rb2  1  0.26562108  0.59228669  0.40424366  1
  Rb  Rb3  1  0.32666561  0.59228669  0.90424366  1
  Ag  Ag4  1  0.98286633  0.00000000  0.25000000  1
  Ag  Ag5  1  0.01713367  0.00000000  0.75000000  1
  Au  Au6  1  0.59579957  0.19377152  0.80083531  1
  Au  Au7  1  0.40420043  0.80622848  0.19916469  1
  Au  Au8  1  0.00000000  0.00000000  0.00000000  1
  Au  Au9  1  0.40202805  0.80622848  0.69916469  1
  Au  Au10  1  0.59797195  0.19377152  0.30083531  1
  Au  Au11  1  0.00000000  0.00000000  0.50000000  1
  I  I12  1  0.93491062  0.34022753  0.24949172  1
  I  I13  1  0.77824208  0.62059637  0.43965670  1
  I  I14  1  0.40531691  0.34022753  0.74949172  1
  I  I15  1  0.26453900  0.07376133  0.35359027  1
  I  I16  1  0.15764570  0.37940363  0.06034330  1
  I  I17  1  0.73546100  0.92623867  0.64640973  1
  I  I18  1  0.22792627  0.90063837  0.56284725  1
  I  I19  1  0.84235430  0.62059637  0.93965670  1
  I  I20  1  0.59468309  0.65977247  0.25050828  1
  I  I21  1  0.67271211  0.90063837  0.06284725  1
  I  I22  1  0.22175792  0.37940363  0.56034330  1
  I  I23  1  0.77207373  0.09936163  0.43715275  1
  I  I24  1  0.19077767  0.92623867  0.14640973  1
  I  I25  1  0.32728789  0.09936163  0.93715275  1
  I  I26  1  0.06508938  0.65977247  0.75050828  1
  I  I27  1  0.80922233  0.07376133  0.85359027  1
