# generated using pymatgen
data_Li4MnCo2O7
_symmetry_space_group_name_H-M   'P 1'
_cell_length_a   2.94688496
_cell_length_b   16.77742996
_cell_length_c   5.10912623
_cell_angle_alpha   90.93417681
_cell_angle_beta   90.31065257
_cell_angle_gamma   85.87508427
_symmetry_Int_Tables_number   1
_chemical_formula_structural   Li4MnCo2O7
_chemical_formula_sum   'Li8 Mn2 Co4 O14'
_cell_volume   251.91099441
_cell_formula_units_Z   2
loop_
 _symmetry_equiv_pos_site_id
 _symmetry_equiv_pos_as_xyz
  1  'x, y, z'
loop_
 _atom_site_type_symbol
 _atom_site_label
 _atom_site_symmetry_multiplicity
 _atom_site_fract_x
 _atom_site_fract_y
 _atom_site_fract_z
 _atom_site_occupancy
  Li  Li0  1  0.92283137  0.14797633  0.36698303  1
  Li  Li1  1  0.37202265  0.27764182  0.20208014  1
  Li  Li2  1  0.79454261  0.42499692  0.06917682  1
  Li  Li3  1  0.21114766  0.57343516  0.93082552  1
  Li  Li4  1  0.64704565  0.71370172  0.78564154  1
  Li  Li5  1  0.07689406  0.85698375  0.63984778  1
  Li  Li6  1  0.49397508  0.00674985  0.50795712  1
  Li  Li7  1  0.42863925  0.14095550  0.84833389  1
  Mn  Mn8  1  0.97770063  0.00309065  0.99629791  1
  Mn  Mn9  1  0.28771905  0.42834523  0.57412016  1
  Co  Co10  1  0.86951492  0.27445001  0.72796723  1
  Co  Co11  1  0.71425116  0.57507884  0.41469573  1
  Co  Co12  1  0.15033800  0.71717465  0.28745964  1
  Co  Co13  1  0.56527046  0.85720644  0.15060299  1
  O  O14  1  0.45659651  0.06097057  0.15570666  1
  O  O15  1  0.89516396  0.21962267  0.02300755  1
  O  O16  1  0.32214938  0.36110600  0.86600720  1
  O  O17  1  0.75865988  0.49606725  0.72137585  1
  O  O18  1  0.18347342  0.64328220  0.58648811  1
  O  O19  1  0.62017163  0.78628984  0.44754230  1
  O  O20  1  0.98746279  0.92519515  0.29701339  1
  O  O21  1  0.39383047  0.22009479  0.53809099  1
  O  O22  1  0.81253348  0.36715682  0.42470125  1
  O  O23  1  0.24804957  0.50059941  0.27414371  1
  O  O24  1  0.68401780  0.64231343  0.11875280  1
  O  O25  1  0.15169941  0.78601990  0.98565920  1
  O  O26  1  0.51153709  0.93102700  0.85909641  1
  O  O27  1  0.96276206  0.06246808  0.70042508  1
