# generated using pymatgen
data_Lu(IO3)3
_symmetry_space_group_name_H-M   'P 1'
_cell_length_a   6.19462009
_cell_length_b   8.71055183
_cell_length_c   15.16869432
_cell_angle_alpha   96.54213662
_cell_angle_beta   90.00000000
_cell_angle_gamma   90.00000000
_symmetry_Int_Tables_number   1
_chemical_formula_structural   Lu(IO3)3
_chemical_formula_sum   'Lu4 I12 O36'
_cell_volume   813.15121907
_cell_formula_units_Z   4
loop_
 _symmetry_equiv_pos_site_id
 _symmetry_equiv_pos_as_xyz
  1  'x, y, z'
loop_
 _atom_site_type_symbol
 _atom_site_label
 _atom_site_symmetry_multiplicity
 _atom_site_fract_x
 _atom_site_fract_y
 _atom_site_fract_z
 _atom_site_occupancy
  Lu  Lu0  1  0.71852924  0.54112235  0.89042020  1
  Lu  Lu1  1  0.78147076  0.04112235  0.39042020  1
  Lu  Lu2  1  0.21852924  0.95887765  0.60957980  1
  Lu  Lu3  1  0.28147076  0.45887765  0.10957980  1
  I  I4  1  0.14820611  0.33171768  0.48182290  1
  I  I5  1  0.09307131  0.11494821  0.19853986  1
  I  I6  1  0.85179389  0.66828232  0.51817710  1
  I  I7  1  0.80401357  0.71250899  0.13810542  1
  I  I8  1  0.64820611  0.16828232  0.01817710  1
  I  I9  1  0.90692869  0.88505179  0.80146014  1
  I  I10  1  0.30401357  0.78749101  0.36189458  1
  I  I11  1  0.19598643  0.28749101  0.86189458  1
  I  I12  1  0.35179389  0.83171768  0.98182290  1
  I  I13  1  0.40692869  0.61494821  0.69853986  1
  I  I14  1  0.69598643  0.21250899  0.63810542  1
  I  I15  1  0.59307131  0.38505179  0.30146014  1
  O  O16  1  0.43878514  0.08826258  0.93766758  1
  O  O17  1  0.59726208  0.57355486  0.16901861  1
  O  O18  1  0.17810721  0.91303825  0.75644716  1
  O  O19  1  0.85025378  0.85961914  0.47811386  1
  O  O20  1  0.06121486  0.58826258  0.43766758  1
  O  O21  1  0.42010620  0.45298084  0.60988369  1
  O  O22  1  0.90273792  0.07355486  0.66901861  1
  O  O23  1  0.14852919  0.35478684  0.97792657  1
  O  O24  1  0.57989380  0.54701916  0.39011631  1
  O  O25  1  0.52654232  0.76360952  0.88655115  1
  O  O26  1  0.07989380  0.95298084  0.10988369  1
  O  O27  1  0.40273792  0.42644514  0.83098139  1
  O  O28  1  0.09726208  0.92644514  0.33098139  1
  O  O29  1  0.02654232  0.73639048  0.61344885  1
  O  O30  1  0.56121486  0.91173742  0.06233242  1
  O  O31  1  0.01493699  0.27640449  0.13679843  1
  O  O32  1  0.64852919  0.14521316  0.52207343  1
  O  O33  1  0.04336435  0.62015462  0.18157368  1
  O  O34  1  0.14974622  0.14038086  0.52188614  1
  O  O35  1  0.45663565  0.12015462  0.68157368  1
  O  O36  1  0.47345768  0.23639048  0.11344885  1
  O  O37  1  0.93878514  0.41173742  0.56233242  1
  O  O38  1  0.95663565  0.37984538  0.81842632  1
  O  O39  1  0.64974622  0.35961914  0.97811386  1
  O  O40  1  0.67810721  0.58696175  0.74355284  1
  O  O41  1  0.35025378  0.64038086  0.02188614  1
  O  O42  1  0.85147081  0.64521316  0.02207343  1
  O  O43  1  0.98506301  0.72359551  0.86320157  1
  O  O44  1  0.35147081  0.85478684  0.47792657  1
  O  O45  1  0.97345768  0.26360952  0.38655115  1
  O  O46  1  0.92010620  0.04701916  0.89011631  1
  O  O47  1  0.32189279  0.41303825  0.25644716  1
  O  O48  1  0.48506301  0.77640449  0.63679843  1
  O  O49  1  0.82189279  0.08696175  0.24355284  1
  O  O50  1  0.51493699  0.22359551  0.36320157  1
  O  O51  1  0.54336435  0.87984538  0.31842632  1
