# generated using pymatgen
data_Ce2Br3N
_symmetry_space_group_name_H-M   'P 1'
_cell_length_a   12.05536019
_cell_length_b   12.05536039
_cell_length_c   12.05536022
_cell_angle_alpha   104.42908344
_cell_angle_beta   104.42908368
_cell_angle_gamma   120.10835899
_symmetry_Int_Tables_number   1
_chemical_formula_structural   Ce2Br3N
_chemical_formula_sum   'Ce16 Br24 N8'
_cell_volume   1313.29851822
_cell_formula_units_Z   8
loop_
 _symmetry_equiv_pos_site_id
 _symmetry_equiv_pos_as_xyz
  1  'x, y, z'
loop_
 _atom_site_type_symbol
 _atom_site_label
 _atom_site_symmetry_multiplicity
 _atom_site_fract_x
 _atom_site_fract_y
 _atom_site_fract_z
 _atom_site_occupancy
  Ce  Ce0  1  0.61799111  0.77294616  0.39685142  1
  Ce  Ce1  1  0.47008400  0.71139935  0.07896185  1
  Ce  Ce2  1  0.13243750  0.39112215  0.42103815  1
  Ce  Ce3  1  0.38200889  0.22705384  0.60314858  1
  Ce  Ce4  1  0.78860065  0.36756250  0.75868465  1
  Ce  Ce5  1  0.27294616  0.37609473  0.15495504  1
  Ce  Ce6  1  0.87609473  0.22113969  0.10314858  1
  Ce  Ce7  1  0.27886031  0.88200889  0.65495504  1
  Ce  Ce8  1  0.72113969  0.11799111  0.34504496  1
  Ce  Ce9  1  0.86756250  0.60887785  0.57896185  1
  Ce  Ce10  1  0.21139935  0.63243750  0.24131535  1
  Ce  Ce11  1  0.12390527  0.77886031  0.89685142  1
  Ce  Ce12  1  0.89112215  0.97008400  0.25868465  1
  Ce  Ce13  1  0.10887785  0.02991600  0.74131535  1
  Ce  Ce14  1  0.72705384  0.62390527  0.84504496  1
  Ce  Ce15  1  0.52991600  0.28860065  0.92103815  1
  Br  Br16  1  0.01152444  0.84732661  0.07951097  1
  Br  Br17  1  0.26781565  0.93201347  0.42048903  1
  Br  Br18  1  0.59801965  0.27407291  0.48478052  1
  Br  Br19  1  0.08934089  0.18083864  0.55905355  1
  Br  Br20  1  0.65267339  0.23218435  0.16419782  1
  Br  Br21  1  0.12178510  0.53028734  0.94094645  1
  Br  Br22  1  0.28929239  0.11323914  0.01521948  1
  Br  Br23  1  0.31916136  0.37821490  0.90850225  1
  Br  Br24  1  0.96971266  0.41065911  0.59149775  1
  Br  Br25  1  0.91065911  0.81916136  0.44094645  1
  Br  Br26  1  0.22592709  0.21070761  0.32394674  1
  Br  Br27  1  0.98847556  0.15267339  0.92048903  1
  Br  Br28  1  0.73218435  0.06798653  0.57951097  1
  Br  Br29  1  0.77407291  0.78929239  0.67605326  1
  Br  Br30  1  0.56798653  0.48847556  0.33580218  1
  Br  Br31  1  0.34732661  0.76781565  0.83580218  1
  Br  Br32  1  0.40198035  0.72592709  0.51521948  1
  Br  Br33  1  0.43201347  0.51152444  0.66419782  1
  Br  Br34  1  0.87821490  0.46971266  0.05905355  1
  Br  Br35  1  0.61323914  0.09801965  0.82394674  1
  Br  Br36  1  0.68083864  0.62178510  0.09149775  1
  Br  Br37  1  0.38676086  0.90198035  0.17605326  1
  Br  Br38  1  0.71070761  0.88676086  0.98478052  1
  Br  Br39  1  0.03028734  0.58934089  0.40850225  1
  N  N40  1  0.12200926  0.40657863  0.22702443  1
  N  N41  1  0.09342137  0.82044580  0.71543062  1
  N  N42  1  0.39498483  0.62200926  0.21543062  1
  N  N43  1  0.90657863  0.17955420  0.28456938  1
  N  N44  1  0.67955420  0.89498483  0.27297557  1
  N  N45  1  0.87799074  0.59342137  0.77297557  1
  N  N46  1  0.32044580  0.10501517  0.72702443  1
  N  N47  1  0.60501517  0.37799074  0.78456938  1
