# generated using pymatgen
data_Zr(SeCl6)2
_symmetry_space_group_name_H-M   'P 1'
_cell_length_a   9.10645012
_cell_length_b   9.10644930
_cell_length_c   12.98667777
_cell_angle_alpha   109.37554955
_cell_angle_beta   109.37554799
_cell_angle_gamma   93.08172530
_symmetry_Int_Tables_number   1
_chemical_formula_structural   Zr(SeCl6)2
_chemical_formula_sum   'Zr2 Se4 Cl24'
_cell_volume   942.03932203
_cell_formula_units_Z   2
loop_
 _symmetry_equiv_pos_site_id
 _symmetry_equiv_pos_as_xyz
  1  'x, y, z'
loop_
 _atom_site_type_symbol
 _atom_site_label
 _atom_site_symmetry_multiplicity
 _atom_site_fract_x
 _atom_site_fract_y
 _atom_site_fract_z
 _atom_site_occupancy
  Zr  Zr0  1  0.12332417  0.62332417  0.24664834  1
  Zr  Zr1  1  0.87332417  0.87332417  0.74664834  1
  Se  Se2  1  0.67568788  0.22321014  0.91092583  1
  Se  Se3  1  0.93771569  0.98523795  0.41092583  1
  Se  Se4  1  0.47321014  0.42568788  0.41092583  1
  Se  Se5  1  0.23523795  0.68771569  0.91092583  1
  Cl  Cl6  1  0.10338099  0.74145233  0.09768303  1
  Cl  Cl7  1  0.31442584  0.65979184  0.76459308  1
  Cl  Cl8  1  0.71171476  0.41885023  0.40422410  1
  Cl  Cl9  1  0.14670579  0.97647165  0.90468765  1
  Cl  Cl10  1  0.92265603  0.60836654  0.75481246  1
  Cl  Cl11  1  0.45016724  0.10480123  0.76459308  1
  Cl  Cl12  1  0.47023242  0.79921953  0.05219968  1
  Cl  Cl13  1  0.85836654  0.67265603  0.25481246  1
  Cl  Cl14  1  0.69250934  0.98537387  0.40422410  1
  Cl  Cl15  1  0.60623069  0.74430203  0.59768303  1
  Cl  Cl16  1  0.39644592  0.58215643  0.25481246  1
  Cl  Cl17  1  0.99430203  0.35623069  0.09768303  1
  Cl  Cl18  1  0.75798186  0.92821600  0.90468765  1
  Cl  Cl19  1  0.50298015  0.33196726  0.55219968  1
  Cl  Cl20  1  0.58196726  0.25298015  0.05219968  1
  Cl  Cl21  1  0.83215643  0.14644592  0.75481246  1
  Cl  Cl22  1  0.99145233  0.85338099  0.59768303  1
  Cl  Cl23  1  0.22647165  0.89670579  0.40468765  1
  Cl  Cl24  1  0.35480123  0.20016724  0.26459308  1
  Cl  Cl25  1  0.66885023  0.46171476  0.90422410  1
  Cl  Cl26  1  0.04921953  0.22023242  0.55219968  1
  Cl  Cl27  1  0.17821600  0.50798186  0.40468765  1
  Cl  Cl28  1  0.23537387  0.44250934  0.90422410  1
  Cl  Cl29  1  0.90979184  0.06442584  0.26459308  1
