# generated using pymatgen
data_Li5Mn3O8
_symmetry_space_group_name_H-M   'P 1'
_cell_length_a   2.96660638
_cell_length_b   5.11496942
_cell_length_c   9.87635648
_cell_angle_alpha   78.80724566
_cell_angle_beta   91.59194112
_cell_angle_gamma   91.79533683
_symmetry_Int_Tables_number   1
_chemical_formula_structural   Li5Mn3O8
_chemical_formula_sum   'Li5 Mn3 O8'
_cell_volume   146.90619977
_cell_formula_units_Z   1
loop_
 _symmetry_equiv_pos_site_id
 _symmetry_equiv_pos_as_xyz
  1  'x, y, z'
loop_
 _atom_site_type_symbol
 _atom_site_label
 _atom_site_symmetry_multiplicity
 _atom_site_fract_x
 _atom_site_fract_y
 _atom_site_fract_z
 _atom_site_occupancy
  Li  Li0  1  0.00548635  0.21853452  0.27737720  1
  Li  Li1  1  0.51555055  0.25177435  0.72765014  1
  Li  Li2  1  0.48444945  0.74822565  0.27234986  1
  Li  Li3  1  0.99451365  0.78146548  0.72262280  1
  Li  Li4  1  0.50000000  0.00000000  0.50000000  1
  Mn  Mn5  1  0.00000000  0.00000000  -0.00000000  1
  Mn  Mn6  1  0.00000000  0.50000000  0.50000000  1
  Mn  Mn7  1  0.50000000  0.50000000  -0.00000000  1
  O  O8  1  0.45663950  0.14396381  0.11359959  1
  O  O9  1  0.99931211  0.15508161  0.61851504  1
  O  O10  1  0.01492201  0.62732333  0.10711633  1
  O  O11  1  0.51144992  0.61247784  0.60997825  1
  O  O12  1  0.48855008  0.38752216  0.39002175  1
  O  O13  1  0.98507799  0.37267667  0.89288367  1
  O  O14  1  0.00068789  0.84491839  0.38148496  1
  O  O15  1  0.54336050  0.85603619  0.88640041  1
