# generated using pymatgen
data_EuCo8P5
_symmetry_space_group_name_H-M   'P 1'
_cell_length_a   3.53746956
_cell_length_b   9.23875405
_cell_length_c   10.50026043
_cell_angle_alpha   90.00000000
_cell_angle_beta   90.00000000
_cell_angle_gamma   90.00000000
_symmetry_Int_Tables_number   1
_chemical_formula_structural   EuCo8P5
_chemical_formula_sum   'Eu2 Co16 P10'
_cell_volume   343.16752918
_cell_formula_units_Z   2
loop_
 _symmetry_equiv_pos_site_id
 _symmetry_equiv_pos_as_xyz
  1  'x, y, z'
loop_
 _atom_site_type_symbol
 _atom_site_label
 _atom_site_symmetry_multiplicity
 _atom_site_fract_x
 _atom_site_fract_y
 _atom_site_fract_z
 _atom_site_occupancy
  Eu  Eu0  1  0.75000000  0.82204873  0.75000000  1
  Eu  Eu1  1  0.25000000  0.17795127  0.25000000  1
  Co  Co2  1  0.25000000  0.47960486  0.41766965  1
  Co  Co3  1  0.25000000  0.54434379  0.75000000  1
  Co  Co4  1  0.75000000  0.11070489  0.50546969  1
  Co  Co5  1  0.75000000  0.52039514  0.58233035  1
  Co  Co6  1  0.75000000  0.14929572  0.75000000  1
  Co  Co7  1  0.75000000  0.69724885  0.39028053  1
  Co  Co8  1  0.75000000  0.45565621  0.25000000  1
  Co  Co9  1  0.25000000  0.30275115  0.89028053  1
  Co  Co10  1  0.25000000  0.85070428  0.25000000  1
  Co  Co11  1  0.25000000  0.30275115  0.60971947  1
  Co  Co12  1  0.75000000  0.52039514  0.91766965  1
  Co  Co13  1  0.75000000  0.69724885  0.10971947  1
  Co  Co14  1  0.25000000  0.88929511  0.49453031  1
  Co  Co15  1  0.75000000  0.11070489  0.99453031  1
  Co  Co16  1  0.25000000  0.47960486  0.08233035  1
  Co  Co17  1  0.25000000  0.88929511  0.00546969  1
  P  P18  1  0.25000000  0.66130681  0.94102006  1
  P  P19  1  0.25000000  0.06621752  0.62974050  1
  P  P20  1  0.25000000  0.61464647  0.25000000  1
  P  P21  1  0.75000000  0.33869319  0.44102006  1
  P  P22  1  0.75000000  0.93378248  0.37025950  1
  P  P23  1  0.75000000  0.33869319  0.05897994  1
  P  P24  1  0.25000000  0.06621752  0.87025950  1
  P  P25  1  0.25000000  0.66130681  0.55897994  1
  P  P26  1  0.75000000  0.38535353  0.75000000  1
  P  P27  1  0.75000000  0.93378248  0.12974050  1
