# generated using pymatgen
data_K3CaV5O15
_symmetry_space_group_name_H-M   'P 1'
_cell_length_a   7.96624292
_cell_length_b   15.45800978
_cell_length_c   15.45801000
_cell_angle_alpha   117.65589208
_cell_angle_beta   90.00000000
_cell_angle_gamma   90.00000000
_symmetry_Int_Tables_number   1
_chemical_formula_structural   K3CaV5O15
_chemical_formula_sum   'K12 Ca4 V20 O60'
_cell_volume   1686.05781424
_cell_formula_units_Z   4
loop_
 _symmetry_equiv_pos_site_id
 _symmetry_equiv_pos_as_xyz
  1  'x, y, z'
loop_
 _atom_site_type_symbol
 _atom_site_label
 _atom_site_symmetry_multiplicity
 _atom_site_fract_x
 _atom_site_fract_y
 _atom_site_fract_z
 _atom_site_occupancy
  K  K0  1  0.20136330  0.37989948  0.37989948  1
  K  K1  1  0.20136330  0.12010052  0.12010052  1
  K  K2  1  0.07810880  0.39975950  0.10024050  1
  K  K3  1  0.50000000  0.16348858  0.83651142  1
  K  K4  1  0.79863670  0.87989948  0.87989948  1
  K  K5  1  0.07810880  0.10024050  0.39975950  1
  K  K6  1  0.50000000  0.66348858  0.33651142  1
  K  K7  1  0.92189120  0.60024050  0.89975950  1
  K  K8  1  0.92189120  0.89975950  0.60024050  1
  K  K9  1  0.50000000  0.83651142  0.16348858  1
  K  K10  1  0.50000000  0.33651142  0.66348858  1
  K  K11  1  0.79863670  0.62010052  0.62010052  1
  Ca  Ca12  1  0.00000000  0.34493293  0.65506707  1
  Ca  Ca13  1  0.00000000  0.65506707  0.34493293  1
  Ca  Ca14  1  0.00000000  0.15506707  0.84493293  1
  Ca  Ca15  1  0.00000000  0.84493293  0.15506707  1
  V  V16  1  0.48272397  0.15499882  0.34500118  1
  V  V17  1  0.77860629  0.15591619  0.02165974  1
  V  V18  1  0.27615536  0.39126543  0.88764343  1
  V  V19  1  0.77860629  0.47834026  0.34408381  1
  V  V20  1  0.72384464  0.11235657  0.60873457  1
  V  V21  1  0.27615536  0.10873457  0.61235657  1
  V  V22  1  0.72384464  0.38764343  0.89126543  1
  V  V23  1  0.22139371  0.65591619  0.52165974  1
  V  V24  1  0.27615536  0.88764343  0.39126543  1
  V  V25  1  0.22139371  0.84408381  0.97834026  1
  V  V26  1  0.51727603  0.84500118  0.65499882  1
  V  V27  1  0.27615536  0.61235657  0.10873457  1
  V  V28  1  0.22139371  0.52165974  0.65591619  1
  V  V29  1  0.72384464  0.60873457  0.11235657  1
  V  V30  1  0.77860629  0.34408381  0.47834026  1
  V  V31  1  0.72384464  0.89126543  0.38764343  1
  V  V32  1  0.77860629  0.02165974  0.15591619  1
  V  V33  1  0.51727603  0.65499882  0.84500118  1
  V  V34  1  0.22139371  0.97834026  0.84408381  1
  V  V35  1  0.48272397  0.34500118  0.15499882  1
  O  O36  1  0.55892037  0.59355851  0.90644149  1
  O  O37  1  0.55892037  0.90644149  0.59355851  1
  O  O38  1  0.18569526  0.89908562  0.29866595  1
  O  O39  1  0.24891279  0.09992036  0.90952939  1
  O  O40  1  0.60083508  0.42241852  0.26663022  1
  O  O41  1  0.50000000  0.36509881  0.86509881  1
  O  O42  1  0.24891279  0.90952939  0.09992036  1
  O  O43  1  0.60083508  0.07758148  0.23336978  1
  O  O44  1  0.04206659  0.96556389  0.78238739  1
  O  O45  1  0.04206659  0.53443611  0.71761261  1
  O  O46  1  0.19887563  0.39428196  0.78803270  1
  O  O47  1  0.77480207  0.00558881  0.49441119  1
  O  O48  1  0.19887563  0.71196730  0.10571804  1
  O  O49  1  0.29998244  0.18677764  0.31322236  1
  O  O50  1  0.50000000  0.13490119  0.63490119  1
  O  O51  1  0.24891279  0.59047061  0.40007964  1
  O  O52  1  0.60083508  0.26663022  0.42241852  1
  O  O53  1  0.80112437  0.28803270  0.89428196  1
  O  O54  1  0.44107963  0.09355851  0.40644149  1
  O  O55  1  0.18569526  0.60091438  0.20133405  1
  O  O56  1  0.80112437  0.21196730  0.60571804  1
  O  O57  1  0.39916492  0.92241852  0.76663022  1
  O  O58  1  0.75108721  0.90007964  0.09047061  1
  O  O59  1  0.80112437  0.60571804  0.21196730  1
  O  O60  1  0.19887563  0.10571804  0.71196730  1
  O  O61  1  0.18912158  0.93029653  0.93029653  1
  O  O62  1  0.81430474  0.10091438  0.70133405  1
  O  O63  1  0.95793341  0.28238739  0.46556389  1
  O  O64  1  0.81430474  0.39908562  0.79866595  1
  O  O65  1  0.95793341  0.46556389  0.28238739  1
  O  O66  1  0.75108721  0.40952939  0.59992036  1
  O  O67  1  0.39916492  0.76663022  0.92241852  1
  O  O68  1  0.18569526  0.20133405  0.60091438  1
  O  O69  1  0.81087842  0.06970347  0.06970347  1
  O  O70  1  0.22519793  0.50558881  0.99441119  1
  O  O71  1  0.70001756  0.81322236  0.68677764  1
  O  O72  1  0.18569526  0.29866595  0.89908562  1
  O  O73  1  0.29998244  0.31322236  0.18677764  1
  O  O74  1  0.77480207  0.49441119  0.00558881  1
  O  O75  1  0.50000000  0.86509881  0.36509881  1
  O  O76  1  0.75108721  0.59992036  0.40952939  1
  O  O77  1  0.22519793  0.99441119  0.50558881  1
  O  O78  1  0.95793341  0.21761261  0.03443611  1
  O  O79  1  0.50000000  0.63490119  0.13490119  1
  O  O80  1  0.39916492  0.73336978  0.57758148  1
  O  O81  1  0.70001756  0.68677764  0.81322236  1
  O  O82  1  0.04206659  0.71761261  0.53443611  1
  O  O83  1  0.24891279  0.40007964  0.59047061  1
  O  O84  1  0.60083508  0.23336978  0.07758148  1
  O  O85  1  0.18912158  0.56970347  0.56970347  1
  O  O86  1  0.81430474  0.79866595  0.39908562  1
  O  O87  1  0.80112437  0.89428196  0.28803270  1
  O  O88  1  0.81087842  0.43029653  0.43029653  1
  O  O89  1  0.19887563  0.78803270  0.39428196  1
  O  O90  1  0.04206659  0.78238739  0.96556389  1
  O  O91  1  0.75108721  0.09047061  0.90007964  1
  O  O92  1  0.95793341  0.03443611  0.21761261  1
  O  O93  1  0.39916492  0.57758148  0.73336978  1
  O  O94  1  0.44107963  0.40644149  0.09355851  1
  O  O95  1  0.81430474  0.70133405  0.10091438  1
