# generated using pymatgen
data_Li2Ge7O15
_symmetry_space_group_name_H-M   'P 1'
_cell_length_a   7.46664702
_cell_length_b   9.88425921
_cell_length_c   17.04281660
_cell_angle_alpha   90.00000000
_cell_angle_beta   90.00000000
_cell_angle_gamma   90.00000000
_symmetry_Int_Tables_number   1
_chemical_formula_structural   Li2Ge7O15
_chemical_formula_sum   'Li8 Ge28 O60'
_cell_volume   1257.79863025
_cell_formula_units_Z   4
loop_
 _symmetry_equiv_pos_site_id
 _symmetry_equiv_pos_as_xyz
  1  'x, y, z'
loop_
 _atom_site_type_symbol
 _atom_site_label
 _atom_site_symmetry_multiplicity
 _atom_site_fract_x
 _atom_site_fract_y
 _atom_site_fract_z
 _atom_site_occupancy
  Li  Li0  1  0.50000000  0.75000000  0.25999726  1
  Li  Li1  1  0.00000000  0.25000000  0.24000274  1
  Li  Li2  1  0.50000000  0.25000000  0.74000274  1
  Li  Li3  1  0.00000000  0.75000000  0.75999726  1
  Li  Li4  1  0.00000000  0.50000000  0.50000000  1
  Li  Li5  1  0.50000000  0.50000000  0.00000000  1
  Li  Li6  1  0.50000000  0.00000000  0.00000000  1
  Li  Li7  1  0.00000000  0.00000000  0.50000000  1
  O  O8  1  0.85754300  0.33167887  0.49341905  1
  O  O9  1  0.35754300  0.66832113  0.00658095  1
  O  O10  1  0.64245700  0.83167887  0.00658095  1
  O  O11  1  0.14245700  0.16832113  0.49341905  1
  O  O12  1  0.14245700  0.66832113  0.50658095  1
  O  O13  1  0.64245700  0.33167887  0.99341905  1
  O  O14  1  0.35754300  0.16832113  0.99341905  1
  O  O15  1  0.85754300  0.83167887  0.50658095  1
  O  O16  1  0.85500344  0.09130185  0.41709554  1
  O  O17  1  0.35500344  0.90869815  0.08290446  1
  O  O18  1  0.64499656  0.59130185  0.08290446  1
  O  O19  1  0.14499656  0.40869815  0.41709554  1
  O  O20  1  0.14499656  0.90869815  0.58290446  1
  O  O21  1  0.64499656  0.09130185  0.91709554  1
  O  O22  1  0.35500344  0.40869815  0.91709554  1
  O  O23  1  0.85500344  0.59130185  0.58290446  1
  O  O24  1  0.50125420  0.40442764  0.35899766  1
  O  O25  1  0.00125420  0.59557236  0.14100234  1
  O  O26  1  0.99874580  0.90442764  0.14100234  1
  O  O27  1  0.49874580  0.09557236  0.35899766  1
  O  O28  1  0.49874580  0.59557236  0.64100234  1
  O  O29  1  0.99874580  0.40442764  0.85899766  1
  O  O30  1  0.00125420  0.09557236  0.85899766  1
  O  O31  1  0.50125420  0.90442764  0.64100234  1
  O  O32  1  0.86140028  0.33001060  0.33073417  1
  O  O33  1  0.36140028  0.66998940  0.16926583  1
  O  O34  1  0.63859972  0.83001060  0.16926583  1
  O  O35  1  0.13859972  0.16998940  0.33073417  1
  O  O36  1  0.13859972  0.66998940  0.66926583  1
  O  O37  1  0.63859972  0.33001060  0.83073417  1
  O  O38  1  0.36140028  0.16998940  0.83073417  1
  O  O39  1  0.86140028  0.83001060  0.66926583  1
  O  O40  1  0.79984521  0.06367470  0.24906807  1
  O  O41  1  0.29984521  0.93632530  0.25093193  1
  O  O42  1  0.70015479  0.56367470  0.25093193  1
  O  O43  1  0.20015479  0.43632530  0.24906807  1
  O  O44  1  0.20015479  0.93632530  0.75093193  1
  O  O45  1  0.70015479  0.06367470  0.74906807  1
  O  O46  1  0.29984521  0.43632530  0.74906807  1
  O  O47  1  0.79984521  0.56367470  0.75093193  1
  O  O48  1  0.80969112  0.34651246  0.14909467  1
  O  O49  1  0.30969112  0.65348754  0.35090533  1
  O  O50  1  0.69030888  0.84651246  0.35090533  1
  O  O51  1  0.19030888  0.15348754  0.14909467  1
  O  O52  1  0.19030888  0.65348754  0.85090533  1
  O  O53  1  0.69030888  0.34651246  0.64909467  1
  O  O54  1  0.30969112  0.15348754  0.64909467  1
  O  O55  1  0.80969112  0.84651246  0.85090533  1
  O  O56  1  0.70797021  0.08825044  0.08871847  1
  O  O57  1  0.20797021  0.91174956  0.41128153  1
  O  O58  1  0.79202979  0.58825044  0.41128153  1
  O  O59  1  0.29202979  0.41174956  0.08871847  1
  O  O60  1  0.29202979  0.91174956  0.91128153  1
  O  O61  1  0.79202979  0.08825044  0.58871847  1
  O  O62  1  0.20797021  0.41174956  0.58871847  1
  O  O63  1  0.70797021  0.58825044  0.91128153  1
  O  O64  1  0.50000000  0.75000000  0.48415277  1
  O  O65  1  0.00000000  0.25000000  0.01584723  1
  O  O66  1  0.50000000  0.25000000  0.51584723  1
  O  O67  1  0.00000000  0.75000000  0.98415277  1
  Ge  Ge68  1  0.71404732  0.02784564  0.34438982  1
  Ge  Ge69  1  0.21404732  0.97215436  0.15561018  1
  Ge  Ge70  1  0.78595268  0.52784564  0.15561018  1
  Ge  Ge71  1  0.28595268  0.47215436  0.34438982  1
  Ge  Ge72  1  0.28595268  0.97215436  0.65561018  1
  Ge  Ge73  1  0.78595268  0.02784564  0.84438982  1
  Ge  Ge74  1  0.21404732  0.47215436  0.84438982  1
  Ge  Ge75  1  0.71404732  0.52784564  0.65561018  1
  Ge  Ge76  1  0.71685227  0.46799413  0.34002279  1
  Ge  Ge77  1  0.21685227  0.53200587  0.15997721  1
  Ge  Ge78  1  0.78314773  0.96799413  0.15997721  1
  Ge  Ge79  1  0.28314773  0.03200587  0.34002279  1
  Ge  Ge80  1  0.28314773  0.53200587  0.65997721  1
  Ge  Ge81  1  0.78314773  0.46799413  0.84002279  1
  Ge  Ge82  1  0.21685227  0.03200587  0.84002279  1
  Ge  Ge83  1  0.71685227  0.96799413  0.65997721  1
  Ge  Ge84  1  0.78590895  0.25105555  0.05920577  1
  Ge  Ge85  1  0.28590895  0.74894445  0.44079423  1
  Ge  Ge86  1  0.71409105  0.75105555  0.44079423  1
  Ge  Ge87  1  0.21409105  0.24894445  0.05920577  1
  Ge  Ge88  1  0.21409105  0.74894445  0.94079423  1
  Ge  Ge89  1  0.71409105  0.25105555  0.55920577  1
  Ge  Ge90  1  0.28590895  0.24894445  0.55920577  1
  Ge  Ge91  1  0.78590895  0.75105555  0.94079423  1
  Ge  Ge92  1  0.50000000  0.75000000  0.08684538  1
  Ge  Ge93  1  0.00000000  0.25000000  0.41315462  1
  Ge  Ge94  1  0.50000000  0.25000000  0.91315462  1
  Ge  Ge95  1  0.00000000  0.75000000  0.58684538  1
