# generated using pymatgen
data_Re2Te5
_symmetry_space_group_name_H-M   'P 1'
_cell_length_a   13.40349634
_cell_length_b   13.46490721
_cell_length_c   14.50695698
_cell_angle_alpha   90.00000000
_cell_angle_beta   90.00000000
_cell_angle_gamma   90.00000000
_symmetry_Int_Tables_number   1
_chemical_formula_structural   Re2Te5
_chemical_formula_sum   'Re24 Te60'
_cell_volume   2618.16967409
_cell_formula_units_Z   12
loop_
 _symmetry_equiv_pos_site_id
 _symmetry_equiv_pos_as_xyz
  1  'x, y, z'
loop_
 _atom_site_type_symbol
 _atom_site_label
 _atom_site_symmetry_multiplicity
 _atom_site_fract_x
 _atom_site_fract_y
 _atom_site_fract_z
 _atom_site_occupancy
  Re  Re0  1  0.05433614  0.54639947  0.88578919  1
  Re  Re1  1  0.05433614  0.04639947  0.61421081  1
  Re  Re2  1  0.94566386  0.45360053  0.11421081  1
  Re  Re3  1  0.13185230  0.97778928  0.45364841  1
  Re  Re4  1  0.55433614  0.95360053  0.88578919  1
  Re  Re5  1  0.49700992  0.63234722  0.54795276  1
  Re  Re6  1  0.86814770  0.02221072  0.54635159  1
  Re  Re7  1  0.44566386  0.04639947  0.11421081  1
  Re  Re8  1  0.36814770  0.97778928  0.95364841  1
  Re  Re9  1  0.49700992  0.13234722  0.95204724  1
  Re  Re10  1  0.55433614  0.45360053  0.61421081  1
  Re  Re11  1  0.63185230  0.02221072  0.04635159  1
  Re  Re12  1  0.99700992  0.86765278  0.54795276  1
  Re  Re13  1  0.36814770  0.47778928  0.54635159  1
  Re  Re14  1  0.50299008  0.36765278  0.45204724  1
  Re  Re15  1  0.00299008  0.13234722  0.45204724  1
  Re  Re16  1  0.63185230  0.52221072  0.45364841  1
  Re  Re17  1  0.99700992  0.36765278  0.95204724  1
  Re  Re18  1  0.50299008  0.86765278  0.04795276  1
  Re  Re19  1  0.86814770  0.52221072  0.95364841  1
  Re  Re20  1  0.94566386  0.95360053  0.38578919  1
  Re  Re21  1  0.44566386  0.54639947  0.38578919  1
  Re  Re22  1  0.00299008  0.63234722  0.04795276  1
  Re  Re23  1  0.13185230  0.47778928  0.04635159  1
  Te  Te24  1  0.57312306  0.20330613  0.11198867  1
  Te  Te25  1  0.69197116  0.84284713  0.97972044  1
  Te  Te26  1  0.68040875  0.06314145  0.61685059  1
  Te  Te27  1  0.81959125  0.06314145  0.11685059  1
  Te  Te28  1  0.03566833  0.81912024  0.12079890  1
  Te  Te29  1  0.31959125  0.43685855  0.11685059  1
  Te  Te30  1  0.19197116  0.15715287  0.52027956  1
  Te  Te31  1  0.19197116  0.65715287  0.97972044  1
  Te  Te32  1  0.53566833  0.18087976  0.37920110  1
  Te  Te33  1  0.81959125  0.56314145  0.38314941  1
  Te  Te34  1  0.68409366  0.60931025  0.61606785  1
  Te  Te35  1  0.08062574  0.56253413  0.21003894  1
  Te  Te36  1  0.13649981  0.61439149  0.72394645  1
  Te  Te37  1  0.30802884  0.65715287  0.47972044  1
  Te  Te38  1  0.92687694  0.70330613  0.88801133  1
  Te  Te39  1  0.68040875  0.56314145  0.88314941  1
  Te  Te40  1  0.96433167  0.18087976  0.87920110  1
  Te  Te41  1  0.18040875  0.93685855  0.88314941  1
  Te  Te42  1  0.80802884  0.84284713  0.47972044  1
  Te  Te43  1  0.46433167  0.31912024  0.87920110  1
  Te  Te44  1  0.63649981  0.38560851  0.77605355  1
  Te  Te45  1  0.13649981  0.11439149  0.77605355  1
  Te  Te46  1  0.91937426  0.93746587  0.71003894  1
  Te  Te47  1  0.96433167  0.68087976  0.62079890  1
  Te  Te48  1  0.41937426  0.06253413  0.78996106  1
  Te  Te49  1  0.00000000  0.50000000  0.50000000  1
  Te  Te50  1  0.57312306  0.70330613  0.38801133  1
  Te  Te51  1  0.86350019  0.88560851  0.22394645  1
  Te  Te52  1  0.30802884  0.15715287  0.02027956  1
  Te  Te53  1  0.18409366  0.89068975  0.61606785  1
  Te  Te54  1  0.31959125  0.93685855  0.38314941  1
  Te  Te55  1  0.18409366  0.39068975  0.88393215  1
  Te  Te56  1  0.36350019  0.11439149  0.27605355  1
  Te  Te57  1  0.42687694  0.79669387  0.88801133  1
  Te  Te58  1  0.03566833  0.31912024  0.37920110  1
  Te  Te59  1  0.00000000  0.00000000  0.00000000  1
  Te  Te60  1  0.80802884  0.34284713  0.02027956  1
  Te  Te61  1  0.53566833  0.68087976  0.12079890  1
  Te  Te62  1  0.46433167  0.81912024  0.62079890  1
  Te  Te63  1  0.08062574  0.06253413  0.28996106  1
  Te  Te64  1  0.41937426  0.56253413  0.71003894  1
  Te  Te65  1  0.50000000  0.50000000  0.00000000  1
  Te  Te66  1  0.07312306  0.29669387  0.11198867  1
  Te  Te67  1  0.31590634  0.39068975  0.38393215  1
  Te  Te68  1  0.58062574  0.93746587  0.21003894  1
  Te  Te69  1  0.69197116  0.34284713  0.52027956  1
  Te  Te70  1  0.91937426  0.43746587  0.78996106  1
  Te  Te71  1  0.07312306  0.79669387  0.38801133  1
  Te  Te72  1  0.86350019  0.38560851  0.27605355  1
  Te  Te73  1  0.63649981  0.88560851  0.72394645  1
  Te  Te74  1  0.58062574  0.43746587  0.28996106  1
  Te  Te75  1  0.42687694  0.29669387  0.61198867  1
  Te  Te76  1  0.31590634  0.89068975  0.11606785  1
  Te  Te77  1  0.81590634  0.10931025  0.38393215  1
  Te  Te78  1  0.36350019  0.61439149  0.22394645  1
  Te  Te79  1  0.68409366  0.10931025  0.88393215  1
  Te  Te80  1  0.81590634  0.60931025  0.11606785  1
  Te  Te81  1  0.18040875  0.43685855  0.61685059  1
  Te  Te82  1  0.92687694  0.20330613  0.61198867  1
  Te  Te83  1  0.50000000  0.00000000  0.50000000  1
