# generated using pymatgen
data_Tl3Ag3(AsS3)2
_symmetry_space_group_name_H-M   'P 1'
_cell_length_a   11.36361057
_cell_length_b   11.71961507
_cell_length_c   12.00955487
_cell_angle_alpha   90.00000000
_cell_angle_beta   90.00000000
_cell_angle_gamma   116.63247724
_symmetry_Int_Tables_number   1
_chemical_formula_structural   Tl3Ag3(AsS3)2
_chemical_formula_sum   'Tl12 Ag12 As8 S24'
_cell_volume   1429.70250278
_cell_formula_units_Z   4
loop_
 _symmetry_equiv_pos_site_id
 _symmetry_equiv_pos_as_xyz
  1  'x, y, z'
loop_
 _atom_site_type_symbol
 _atom_site_label
 _atom_site_symmetry_multiplicity
 _atom_site_fract_x
 _atom_site_fract_y
 _atom_site_fract_z
 _atom_site_occupancy
  Tl  Tl0  1  0.72322075  0.52340443  0.01486222  1
  Tl  Tl1  1  0.89681964  0.11305773  0.88389739  1
  Tl  Tl2  1  0.56494245  0.72674437  0.24725802  1
  Tl  Tl3  1  0.77677925  0.97659557  0.51486222  1
  Tl  Tl4  1  0.22322075  0.02340443  0.48513778  1
  Tl  Tl5  1  0.27677925  0.47659557  0.98513778  1
  Tl  Tl6  1  0.39681964  0.61305773  0.61610261  1
  Tl  Tl7  1  0.60318036  0.38694227  0.38389739  1
  Tl  Tl8  1  0.93505755  0.77325563  0.74725802  1
  Tl  Tl9  1  0.43505755  0.27325563  0.75274198  1
  Tl  Tl10  1  0.06494245  0.22674437  0.25274198  1
  Tl  Tl11  1  0.10318036  0.88694227  0.11610261  1
  Ag  Ag12  1  0.92127473  0.45413557  0.37457134  1
  Ag  Ag13  1  0.42127473  0.95413557  0.12542866  1
  Ag  Ag14  1  0.57872527  0.04586443  0.87457134  1
  Ag  Ag15  1  0.68565839  0.57123831  0.65297419  1
  Ag  Ag16  1  0.45678820  0.92716298  0.64109291  1
  Ag  Ag17  1  0.81434161  0.92876169  0.15297419  1
  Ag  Ag18  1  0.18565839  0.07123831  0.84702581  1
  Ag  Ag19  1  0.07872527  0.54586443  0.62542866  1
  Ag  Ag20  1  0.54321180  0.07283702  0.35890709  1
  Ag  Ag21  1  0.31434161  0.42876169  0.34702581  1
  Ag  Ag22  1  0.04321180  0.57283702  0.14109291  1
  Ag  Ag23  1  0.95678820  0.42716298  0.85890709  1
  As  As24  1  0.40184046  0.24390282  0.09685593  1
  As  As25  1  0.90184046  0.74390282  0.40314407  1
  As  As26  1  0.24972992  0.75594654  0.85553056  1
  As  As27  1  0.09815954  0.25609718  0.59685593  1
  As  As28  1  0.74972992  0.25594654  0.64446944  1
  As  As29  1  0.75027008  0.24405346  0.14446944  1
  As  As30  1  0.25027008  0.74405346  0.35553056  1
  As  As31  1  0.59815954  0.75609718  0.90314407  1
  S  S32  1  0.44348388  0.43811307  0.17704020  1
  S  S33  1  0.46104521  0.83994609  0.42441853  1
  S  S34  1  0.36431692  0.10905855  0.24455216  1
  S  S35  1  0.82595902  0.46289101  0.58395694  1
  S  S36  1  0.29092295  0.71644101  0.17515168  1
  S  S37  1  0.19396893  0.18762858  0.03214080  1
  S  S38  1  0.13568308  0.39094145  0.74455216  1
  S  S39  1  0.80603107  0.81237142  0.96785920  1
  S  S40  1  0.69396893  0.68762858  0.46785920  1
  S  S41  1  0.63568308  0.89094145  0.75544784  1
  S  S42  1  0.96104521  0.33994609  0.07558147  1
  S  S43  1  0.79092295  0.21644101  0.32484832  1
  S  S44  1  0.53895479  0.16005391  0.57558147  1
  S  S45  1  0.94348388  0.93811307  0.32295980  1
  S  S46  1  0.55651612  0.56188693  0.82295980  1
  S  S47  1  0.30603107  0.31237142  0.53214080  1
  S  S48  1  0.17404098  0.53710899  0.41604306  1
  S  S49  1  0.70907705  0.28355899  0.82484832  1
  S  S50  1  0.05651612  0.06188693  0.67704020  1
  S  S51  1  0.03895479  0.66005391  0.92441853  1
  S  S52  1  0.67404098  0.03710899  0.08395694  1
  S  S53  1  0.86431692  0.60905855  0.25544784  1
  S  S54  1  0.20907705  0.78355899  0.67515168  1
  S  S55  1  0.32595902  0.96289101  0.91604306  1
