# generated using pymatgen
data_Cs3PSe4
_symmetry_space_group_name_H-M   'P 1'
_cell_length_a   10.17821987
_cell_length_b   10.20039029
_cell_length_c   12.26788070
_cell_angle_alpha   90.00000000
_cell_angle_beta   90.00000000
_cell_angle_gamma   90.00000000
_symmetry_Int_Tables_number   1
_chemical_formula_structural   Cs3PSe4
_chemical_formula_sum   'Cs12 P4 Se16'
_cell_volume   1273.67364209
_cell_formula_units_Z   4
loop_
 _symmetry_equiv_pos_site_id
 _symmetry_equiv_pos_as_xyz
  1  'x, y, z'
loop_
 _atom_site_type_symbol
 _atom_site_label
 _atom_site_symmetry_multiplicity
 _atom_site_fract_x
 _atom_site_fract_y
 _atom_site_fract_z
 _atom_site_occupancy
  Cs  Cs0  1  0.40371291  0.84369423  0.75000000  1
  Cs  Cs1  1  0.59628709  0.15630577  0.25000000  1
  Cs  Cs2  1  0.09628709  0.34369423  0.75000000  1
  Cs  Cs3  1  0.70556506  0.53487276  0.95793790  1
  Cs  Cs4  1  0.29443494  0.46512724  0.04206210  1
  Cs  Cs5  1  0.90371291  0.65630577  0.25000000  1
  Cs  Cs6  1  0.20556506  0.96512724  0.04206210  1
  Cs  Cs7  1  0.29443494  0.46512724  0.45793790  1
  Cs  Cs8  1  0.20556506  0.96512724  0.45793790  1
  Cs  Cs9  1  0.70556506  0.53487276  0.54206210  1
  Cs  Cs10  1  0.79443494  0.03487276  0.54206210  1
  Cs  Cs11  1  0.79443494  0.03487276  0.95793790  1
  P  P12  1  0.97908635  0.77471416  0.75000000  1
  P  P13  1  0.52091365  0.27471416  0.75000000  1
  P  P14  1  0.02091365  0.22528584  0.25000000  1
  P  P15  1  0.47908635  0.72528584  0.25000000  1
  Se  Se16  1  0.56454817  0.52279375  0.25000000  1
  Se  Se17  1  0.06454817  0.97720625  0.75000000  1
  Se  Se18  1  0.45442875  0.17168892  0.90061247  1
  Se  Se19  1  0.04557125  0.67168892  0.59938753  1
  Se  Se20  1  0.43545183  0.47720625  0.75000000  1
  Se  Se21  1  0.95442875  0.32831108  0.09938753  1
  Se  Se22  1  0.54557125  0.82831108  0.40061247  1
  Se  Se23  1  0.76009851  0.78407940  0.75000000  1
  Se  Se24  1  0.04557125  0.67168892  0.90061247  1
  Se  Se25  1  0.26009851  0.71592060  0.25000000  1
  Se  Se26  1  0.54557125  0.82831108  0.09938753  1
  Se  Se27  1  0.23990149  0.21592060  0.25000000  1
  Se  Se28  1  0.73990149  0.28407940  0.75000000  1
  Se  Se29  1  0.45442875  0.17168892  0.59938753  1
  Se  Se30  1  0.93545183  0.02279375  0.25000000  1
  Se  Se31  1  0.95442875  0.32831108  0.40061247  1
