# generated using pymatgen
data_Rb3Er3(PS4)4
_symmetry_space_group_name_H-M   'P 1'
_cell_length_a   9.29594322
_cell_length_b   16.34075317
_cell_length_c   18.57737383
_cell_angle_alpha   90.00000000
_cell_angle_beta   95.30548324
_cell_angle_gamma   90.00000000
_symmetry_Int_Tables_number   1
_chemical_formula_structural   Rb3Er3(PS4)4
_chemical_formula_sum   'Rb12 Er12 P16 S64'
_cell_volume   2809.86383462
_cell_formula_units_Z   4
loop_
 _symmetry_equiv_pos_site_id
 _symmetry_equiv_pos_as_xyz
  1  'x, y, z'
loop_
 _atom_site_type_symbol
 _atom_site_label
 _atom_site_symmetry_multiplicity
 _atom_site_fract_x
 _atom_site_fract_y
 _atom_site_fract_z
 _atom_site_occupancy
  Rb  Rb0  1  0.09795442  0.03299445  0.26940013  1
  Rb  Rb1  1  0.78668353  0.89471447  0.06709574  1
  Rb  Rb2  1  0.20494777  0.49405810  0.91779138  1
  Rb  Rb3  1  0.71331647  0.39471447  0.43290426  1
  Rb  Rb4  1  0.90204558  0.96700555  0.73059987  1
  Rb  Rb5  1  0.21331647  0.10528553  0.93290426  1
  Rb  Rb6  1  0.59795442  0.46700555  0.76940013  1
  Rb  Rb7  1  0.28668353  0.60528553  0.56709574  1
  Rb  Rb8  1  0.40204558  0.53299445  0.23059987  1
  Rb  Rb9  1  0.70494777  0.00594190  0.41779138  1
  Rb  Rb10  1  0.79505223  0.50594190  0.08220862  1
  Rb  Rb11  1  0.29505223  0.99405810  0.58220862  1
  Er  Er12  1  0.31250620  0.76078786  0.81736015  1
  Er  Er13  1  0.28866795  0.77233983  0.33631890  1
  Er  Er14  1  0.81438422  0.72509167  0.58593198  1
  Er  Er15  1  0.81250620  0.73921214  0.31736015  1
  Er  Er16  1  0.18561578  0.27490833  0.41406802  1
  Er  Er17  1  0.18749380  0.26078786  0.68263985  1
  Er  Er18  1  0.78866795  0.72766017  0.83631890  1
  Er  Er19  1  0.68749380  0.23921214  0.18263985  1
  Er  Er20  1  0.68561578  0.22509167  0.91406802  1
  Er  Er21  1  0.21133205  0.27233983  0.16368110  1
  Er  Er22  1  0.31438422  0.77490833  0.08593198  1
  Er  Er23  1  0.71133205  0.22766017  0.66368110  1
  P  P24  1  0.41963820  0.35612041  0.58236115  1
  P  P25  1  0.94007531  0.18998629  0.53177803  1
  P  P26  1  0.58036180  0.64387959  0.41763885  1
  P  P27  1  0.08036180  0.85612041  0.91763885  1
  P  P28  1  0.05992469  0.81001371  0.46822197  1
  P  P29  1  0.03639368  0.70472534  0.18952400  1
  P  P30  1  0.46360632  0.20472534  0.31047600  1
  P  P31  1  0.44007531  0.31001371  0.03177803  1
  P  P32  1  0.53639368  0.79527466  0.68952400  1
  P  P33  1  0.01459786  0.62481427  0.73191746  1
  P  P34  1  0.91963820  0.14387959  0.08236115  1
  P  P35  1  0.55992469  0.68998629  0.96822197  1
  P  P36  1  0.51459786  0.87518573  0.23191746  1
  P  P37  1  0.96360632  0.29527466  0.81047600  1
  P  P38  1  0.98540214  0.37518573  0.26808254  1
  P  P39  1  0.48540214  0.12481427  0.76808254  1
  S  S40  1  0.98030716  0.75183922  0.72583073  1
  S  S41  1  0.81738979  0.70503776  0.17190063  1
  S  S42  1  0.77935379  0.69035112  0.98231184  1
  S  S43  1  0.36762411  0.61815721  0.38835296  1
  S  S44  1  0.10049364  0.73007992  0.91014840  1
  S  S45  1  0.54053571  0.37039985  0.95397228  1
  S  S46  1  0.14102956  0.89598930  0.02005065  1
  S  S47  1  0.87096231  0.18005039  0.80432534  1
  S  S48  1  0.13237589  0.11815721  0.11164704  1
  S  S49  1  0.95946429  0.87039985  0.54602772  1
  S  S50  1  0.36188422  0.14409158  0.38795065  1
  S  S51  1  0.35897044  0.39598930  0.47994935  1
  S  S52  1  0.04053571  0.12960015  0.45397228  1
  S  S53  1  0.60049364  0.76992008  0.41014840  1
  S  S54  1  0.62903769  0.68005039  0.69567466  1
  S  S55  1  0.12903769  0.81994961  0.19567466  1
  S  S56  1  0.45946429  0.62960015  0.04602772  1
  S  S57  1  0.77107677  0.39400769  0.23756389  1
  S  S58  1  0.70437857  0.58945572  0.34484393  1
  S  S59  1  0.03300955  0.30482503  0.53764182  1
  S  S60  1  0.01966429  0.85800869  0.36475490  1
  S  S61  1  0.63811578  0.85590842  0.61204935  1
  S  S62  1  0.92541478  0.34488604  0.70830453  1
  S  S63  1  0.07458522  0.65511396  0.29169547  1
  S  S64  1  0.72064621  0.19035112  0.51768816  1
  S  S65  1  0.39932288  0.92331278  0.31143050  1
  S  S66  1  0.46699045  0.80482503  0.96235818  1
  S  S67  1  0.42541478  0.15511396  0.20830453  1
  S  S68  1  0.64102956  0.60401070  0.52005065  1
  S  S69  1  0.01969284  0.24816078  0.27416927  1
  S  S70  1  0.39950636  0.23007992  0.58985160  1
  S  S71  1  0.57458522  0.84488604  0.79169547  1
  S  S72  1  0.37096231  0.31994961  0.30432534  1
  S  S73  1  0.27107677  0.10599231  0.73756389  1
  S  S74  1  0.86188422  0.35590842  0.88795065  1
  S  S75  1  0.27935379  0.80964888  0.48231184  1
  S  S76  1  0.53300955  0.19517497  0.03764182  1
  S  S77  1  0.72892323  0.89400769  0.26243611  1
  S  S78  1  0.22064621  0.30964888  0.01768816  1
  S  S79  1  0.94732324  0.58077283  0.63244470  1
  S  S80  1  0.31738979  0.79496224  0.67190063  1
  S  S81  1  0.51966429  0.64199131  0.86475490  1
  S  S82  1  0.85897044  0.10401070  0.97994935  1
  S  S83  1  0.60067712  0.07668722  0.68856950  1
  S  S84  1  0.96699045  0.69517497  0.46235818  1
  S  S85  1  0.98033571  0.14199131  0.63524510  1
  S  S86  1  0.05267676  0.41922717  0.36755530  1
  S  S87  1  0.51969284  0.25183922  0.77416927  1
  S  S88  1  0.55267676  0.08077283  0.86755530  1
  S  S89  1  0.89932288  0.57668722  0.81143050  1
  S  S90  1  0.79562143  0.08945572  0.15515607  1
  S  S91  1  0.44732324  0.91922717  0.13244470  1
  S  S92  1  0.86762411  0.88184279  0.88835296  1
  S  S93  1  0.20437857  0.91054428  0.84484393  1
  S  S94  1  0.10067712  0.42331278  0.18856950  1
  S  S95  1  0.22892323  0.60599231  0.76243611  1
  S  S96  1  0.13811578  0.64409158  0.11204935  1
  S  S97  1  0.63237589  0.38184279  0.61164704  1
  S  S98  1  0.89950636  0.26992008  0.08985160  1
  S  S99  1  0.48033571  0.35800869  0.13524510  1
  S  S100  1  0.18261021  0.29496224  0.82809937  1
  S  S101  1  0.48030716  0.74816078  0.22583073  1
  S  S102  1  0.68261021  0.20503776  0.32809937  1
  S  S103  1  0.29562143  0.41054428  0.65515607  1
