# generated using pymatgen
data_Ba7B4Se13
_symmetry_space_group_name_H-M   'P 1'
_cell_length_a   10.67042512
_cell_length_b   10.66299933
_cell_length_c   13.84256585
_cell_angle_alpha   89.99341396
_cell_angle_beta   67.33300530
_cell_angle_gamma   89.97847055
_symmetry_Int_Tables_number   1
_chemical_formula_structural   Ba7B4Se13
_chemical_formula_sum   'Ba14 B8 Se26'
_cell_volume   1453.33771581
_cell_formula_units_Z   2
loop_
 _symmetry_equiv_pos_site_id
 _symmetry_equiv_pos_as_xyz
  1  'x, y, z'
loop_
 _atom_site_type_symbol
 _atom_site_label
 _atom_site_symmetry_multiplicity
 _atom_site_fract_x
 _atom_site_fract_y
 _atom_site_fract_z
 _atom_site_occupancy
  Ba  Ba0  1  0.06431209  0.02779652  0.65762509  1
  Ba  Ba1  1  0.27789213  0.47217620  0.65762072  1
  Ba  Ba2  1  0.45119028  0.85659024  0.65331317  1
  Ba  Ba3  1  0.33234697  0.75002157  0.33535121  1
  Ba  Ba4  1  0.66765303  0.24997843  0.66464879  1
  Ba  Ba5  1  0.54880972  0.14340976  0.34668683  1
  Ba  Ba6  1  0.99624681  0.24996034  0.00753097  1
  Ba  Ba7  1  0.93568791  0.97220348  0.34237491  1
  Ba  Ba8  1  0.89530177  0.64334123  0.65337155  1
  Ba  Ba9  1  0.00375319  0.75003966  0.99246903  1
  Ba  Ba10  1  0.10469823  0.35665877  0.34662845  1
  Ba  Ba11  1  0.50389029  0.75002947  0.99212680  1
  Ba  Ba12  1  0.49610971  0.24997053  0.00787320  1
  Ba  Ba13  1  0.72210787  0.52782380  0.34237928  1
  B  B14  1  0.51698120  0.56826628  0.76668301  1
  B  B15  1  0.06723715  0.64948624  0.22458876  1
  B  B16  1  0.48301880  0.43173372  0.23331699  1
  B  B17  1  0.93276285  0.35051376  0.77541124  1
  B  B18  1  0.28374112  0.06832477  0.23338252  1
  B  B19  1  0.29181910  0.14931700  0.77535781  1
  B  B20  1  0.71625888  0.93167523  0.76661748  1
  B  B21  1  0.70818090  0.85068300  0.22464219  1
  Se  Se22  1  0.37645549  0.15290018  0.61882768  1
  Se  Se23  1  0.20562311  0.74997204  0.58826505  1
  Se  Se24  1  0.34112235  0.65073679  0.84120732  1
  Se  Se25  1  0.59698433  0.56271748  0.61061720  1
  Se  Se26  1  0.20773991  0.06288596  0.38943554  1
  Se  Se27  1  0.65887765  0.34926321  0.15879268  1
  Se  Se28  1  0.81738570  0.84913601  0.84128652  1
  Se  Se29  1  0.32153840  0.29808882  0.84681285  1
  Se  Se30  1  0.79437689  0.25002796  0.41173495  1
  Se  Se31  1  0.82810143  0.98942770  0.15068808  1
  Se  Se32  1  0.46681917  0.99924120  0.16257015  1
  Se  Se33  1  0.97865117  0.48910194  0.84951036  1
  Se  Se34  1  0.02134883  0.51089806  0.15048964  1
  Se  Se35  1  0.62920438  0.49927069  0.83757456  1
  Se  Se36  1  0.83169538  0.20173779  0.84691521  1
  Se  Se37  1  0.67846160  0.70191118  0.15318715  1
  Se  Se38  1  0.00457841  0.34689785  0.61888453  1
  Se  Se39  1  0.40301567  0.43728252  0.38938280  1
  Se  Se40  1  0.53318083  0.00075880  0.83742985  1
  Se  Se41  1  0.99542159  0.65310215  0.38111547  1
  Se  Se42  1  0.16830462  0.79826221  0.15308479  1
  Se  Se43  1  0.62354451  0.84709982  0.38117232  1
  Se  Se44  1  0.37079562  0.50072931  0.16242544  1
  Se  Se45  1  0.17189857  0.01057230  0.84931192  1
  Se  Se46  1  0.18261430  0.15086399  0.15871348  1
  Se  Se47  1  0.79226009  0.93711404  0.61056446  1
