# generated using pymatgen
data_HgI2
_symmetry_space_group_name_H-M   'P 1'
_cell_length_a   13.26140994
_cell_length_b   13.26142353
_cell_length_c   15.97792955
_cell_angle_alpha   114.52230563
_cell_angle_beta   114.52231529
_cell_angle_gamma   90.05524116
_symmetry_Int_Tables_number   1
_chemical_formula_structural   HgI2
_chemical_formula_sum   'Hg16 I32'
_cell_volume   2274.39940775
_cell_formula_units_Z   16
loop_
 _symmetry_equiv_pos_site_id
 _symmetry_equiv_pos_as_xyz
  1  'x, y, z'
loop_
 _atom_site_type_symbol
 _atom_site_label
 _atom_site_symmetry_multiplicity
 _atom_site_fract_x
 _atom_site_fract_y
 _atom_site_fract_z
 _atom_site_occupancy
  Hg  Hg0  1  0.56151961  0.56898751  0.87328975  1
  Hg  Hg1  1  0.06898742  0.06151958  0.37328967  1
  Hg  Hg2  1  0.43102311  0.68794512  0.62658127  1
  Hg  Hg3  1  0.93101258  0.93848042  0.62671033  1
  Hg  Hg4  1  0.43848039  0.43101249  0.12671025  1
  Hg  Hg5  1  0.80459271  0.56132303  0.37326398  1
  Hg  Hg6  1  0.68806538  0.19543434  0.12667852  1
  Hg  Hg7  1  0.56897689  0.31205488  0.37341873  1
  Hg  Hg8  1  0.31193462  0.80456566  0.87332148  1
  Hg  Hg9  1  0.06132302  0.30459269  0.87326398  1
  Hg  Hg10  1  0.30456566  0.81193472  0.37332151  1
  Hg  Hg11  1  0.81205489  0.06897689  0.87341874  1
  Hg  Hg12  1  0.93867698  0.69540731  0.12673602  1
  Hg  Hg13  1  0.69543434  0.18806528  0.62667849  1
  Hg  Hg14  1  0.18794511  0.93102311  0.12658126  1
  Hg  Hg15  1  0.19540729  0.43867697  0.62673602  1
  I  I16  1  1.00507104  0.24984317  0.49980445  1
  I  I17  1  0.25015678  0.49492898  1.00019547  1
  I  I18  1  0.63057160  0.12120714  0.24922784  1
  I  I19  1  0.24591505  0.49591147  0.49210935  1
  I  I20  1  0.50533537  0.25010952  0.50006460  1
  I  I21  1  0.75010953  1.00533534  0.00006459  1
  I  I22  1  0.13096466  0.12810418  0.24921417  1
  I  I23  1  0.38124350  0.37210452  0.75083548  1
  I  I24  1  0.25428537  0.00423114  0.50760540  1
  I  I25  1  0.88150839  0.37899595  0.75090667  1
  I  I26  1  0.37879282  0.86942845  0.25077215  1
  I  I27  1  0.75408495  0.50408853  0.50789065  1
  I  I28  1  -0.00507104  0.75015683  0.50019555  1
  I  I29  1  0.24989047  -0.00533534  0.99993541  1
  I  I30  1  0.61875650  0.62789548  0.24916452  1
  I  I31  1  0.87899589  0.38150840  0.25090662  1
  I  I32  1  0.49576866  0.24571469  0.99239456  1
  I  I33  1  0.36942840  0.87879286  0.75077216  1
  I  I34  1  0.49466463  0.74989048  0.49993540  1
  I  I35  1  0.86903534  0.87189582  0.75078583  1
  I  I36  1  0.87210447  0.88124353  0.25083546  1
  I  I37  1  0.99591128  0.74591522  0.99210935  1
  I  I38  1  0.62810419  0.63096461  0.74921412  1
  I  I39  1  0.50423134  0.75428531  0.00760544  1
  I  I40  1  0.62120718  0.13057155  0.74922785  1
  I  I41  1  0.37189581  0.36903539  0.25078588  1
  I  I42  1  0.74571463  0.99576886  0.49239460  1
  I  I43  1  0.12789553  0.11875647  0.74916454  1
  I  I44  1  0.12100411  0.61849160  0.74909338  1
  I  I45  1  0.74984322  0.50507102  -0.00019547  1
  I  I46  1  0.00408872  0.25408478  0.00789065  1
  I  I47  1  0.11849161  0.62100405  0.24909333  1
