# generated using pymatgen
data_BaCaSn3
_symmetry_space_group_name_H-M   'P 1'
_cell_length_a   9.36561952
_cell_length_b   9.36561946
_cell_length_c   17.42364974
_cell_angle_alpha   90.00000000
_cell_angle_beta   90.00000000
_cell_angle_gamma   118.56927221
_symmetry_Int_Tables_number   1
_chemical_formula_structural   BaCaSn3
_chemical_formula_sum   'Ba8 Ca8 Sn24'
_cell_volume   1342.22446980
_cell_formula_units_Z   8
loop_
 _symmetry_equiv_pos_site_id
 _symmetry_equiv_pos_as_xyz
  1  'x, y, z'
loop_
 _atom_site_type_symbol
 _atom_site_label
 _atom_site_symmetry_multiplicity
 _atom_site_fract_x
 _atom_site_fract_y
 _atom_site_fract_z
 _atom_site_occupancy
  Ba  Ba0  1  0.32349995  0.32349995  0.91395809  1
  Ba  Ba1  1  0.28345728  0.71654272  0.50000000  1
  Ba  Ba2  1  0.67650005  0.67650005  0.08604191  1
  Ba  Ba3  1  0.17650005  0.17650005  0.41395809  1
  Ba  Ba4  1  0.71654272  0.28345728  0.50000000  1
  Ba  Ba5  1  0.21654272  0.78345728  0.00000000  1
  Ba  Ba6  1  0.82349995  0.82349995  0.58604191  1
  Ba  Ba7  1  0.78345728  0.21654272  0.00000000  1
  Ca  Ca8  1  0.87557932  0.14413686  0.22849020  1
  Ca  Ca9  1  0.85586314  0.12442068  0.77150980  1
  Ca  Ca10  1  0.62442068  0.35586314  0.72849020  1
  Ca  Ca11  1  0.64413686  0.37557932  0.27150980  1
  Ca  Ca12  1  0.35586314  0.62442068  0.72849020  1
  Ca  Ca13  1  0.37557932  0.64413686  0.27150980  1
  Ca  Ca14  1  0.14413686  0.87557932  0.22849020  1
  Ca  Ca15  1  0.12442068  0.85586314  0.77150980  1
  Sn  Sn16  1  0.30320147  0.06640449  0.59190801  1
  Sn  Sn17  1  0.19679853  0.43359551  0.09190801  1
  Sn  Sn18  1  0.43365617  0.43365617  0.58499283  1
  Sn  Sn19  1  0.04124492  0.48802539  0.83637843  1
  Sn  Sn20  1  0.77974561  0.77974561  0.28073906  1
  Sn  Sn21  1  0.54124492  0.98802539  0.66362157  1
  Sn  Sn22  1  0.98802539  0.54124492  0.66362157  1
  Sn  Sn23  1  0.06640449  0.30320147  0.59190801  1
  Sn  Sn24  1  0.45875508  0.01197461  0.33637843  1
  Sn  Sn25  1  0.95875508  0.51197461  0.16362157  1
  Sn  Sn26  1  0.43359551  0.19679853  0.09190801  1
  Sn  Sn27  1  0.72025439  0.72025439  0.78073906  1
  Sn  Sn28  1  0.56634383  0.56634383  0.41500717  1
  Sn  Sn29  1  0.27974561  0.27974561  0.21926094  1
  Sn  Sn30  1  0.80320147  0.56640449  0.90809199  1
  Sn  Sn31  1  0.56640449  0.80320147  0.90809199  1
  Sn  Sn32  1  0.48802539  0.04124492  0.83637843  1
  Sn  Sn33  1  0.06634383  0.06634383  0.08499283  1
  Sn  Sn34  1  0.01197461  0.45875508  0.33637843  1
  Sn  Sn35  1  0.22025439  0.22025439  0.71926094  1
  Sn  Sn36  1  0.93359551  0.69679853  0.40809199  1
  Sn  Sn37  1  0.51197461  0.95875508  0.16362157  1
  Sn  Sn38  1  0.69679853  0.93359551  0.40809199  1
  Sn  Sn39  1  0.93365617  0.93365617  0.91500717  1
