# generated using pymatgen
data_K2Ni4P4O15
_symmetry_space_group_name_H-M   'P 1'
_cell_length_a   8.65821005
_cell_length_b   8.65821028
_cell_length_c   18.36510872
_cell_angle_alpha   97.86238469
_cell_angle_beta   97.86238492
_cell_angle_gamma   105.92503612
_symmetry_Int_Tables_number   1
_chemical_formula_structural   K2Ni4P4O15
_chemical_formula_sum   'K8 Ni16 P16 O60'
_cell_volume   1289.30289882
_cell_formula_units_Z   4
loop_
 _symmetry_equiv_pos_site_id
 _symmetry_equiv_pos_as_xyz
  1  'x, y, z'
loop_
 _atom_site_type_symbol
 _atom_site_label
 _atom_site_symmetry_multiplicity
 _atom_site_fract_x
 _atom_site_fract_y
 _atom_site_fract_z
 _atom_site_occupancy
  K  K0  1  0.66425714  0.44727573  0.95549357  1
  K  K1  1  0.59023379  0.09305283  0.79701962  1
  K  K2  1  0.33574286  0.55272427  0.04450643  1
  K  K3  1  0.44727573  0.66425714  0.45549357  1
  K  K4  1  0.90694717  0.40976621  0.70298038  1
  K  K5  1  0.40976621  0.90694717  0.20298038  1
  K  K6  1  0.09305283  0.59023379  0.29701962  1
  K  K7  1  0.55272427  0.33574286  0.54450643  1
  Ni  Ni8  1  0.84906939  0.95755851  0.93194032  1
  Ni  Ni9  1  0.91216276  0.26825722  0.06885075  1
  Ni  Ni10  1  0.08783724  0.73174278  0.93114925  1
  Ni  Ni11  1  0.17577785  0.82422215  0.75000000  1
  Ni  Ni12  1  0.73174278  0.08783724  0.43114925  1
  Ni  Ni13  1  0.82422215  0.17577785  0.25000000  1
  Ni  Ni14  1  0.04244149  0.15093061  0.56805968  1
  Ni  Ni15  1  0.26825722  0.91216276  0.56885075  1
  Ni  Ni16  1  0.15093061  0.04244149  0.06805968  1
  Ni  Ni17  1  0.53697380  0.46302620  0.25000000  1
  Ni  Ni18  1  0.95755851  0.84906939  0.43194032  1
  Ni  Ni19  1  0.50000000  0.00000000  0.00000000  1
  Ni  Ni20  1  0.04616785  0.95383215  0.25000000  1
  Ni  Ni21  1  0.00000000  0.50000000  0.50000000  1
  Ni  Ni22  1  0.46302620  0.53697380  0.75000000  1
  Ni  Ni23  1  0.95383215  0.04616785  0.75000000  1
  P  P24  1  0.84104708  0.71833277  0.82008974  1
  P  P25  1  0.99320950  0.68840164  0.09862377  1
  P  P26  1  0.68840164  0.99320950  0.59862377  1
  P  P27  1  0.77644191  0.89486940  0.09842851  1
  P  P28  1  0.28166723  0.15895292  0.67991026  1
  P  P29  1  0.10513060  0.22355809  0.40157149  1
  P  P30  1  0.44521941  0.76490281  0.88016557  1
  P  P31  1  0.89486940  0.77644191  0.59842851  1
  P  P32  1  0.23509719  0.55478059  0.61983443  1
  P  P33  1  0.22355809  0.10513060  0.90157149  1
  P  P34  1  0.00679050  0.31159836  0.90137623  1
  P  P35  1  0.31159836  0.00679050  0.40137623  1
  P  P36  1  0.55478059  0.23509719  0.11983443  1
  P  P37  1  0.15895292  0.28166723  0.17991026  1
  P  P38  1  0.71833277  0.84104708  0.32008974  1
  P  P39  1  0.76490281  0.44521941  0.38016557  1
  O  O40  1  0.58222084  0.70763377  0.26557473  1
  O  O41  1  0.27806439  0.18569014  0.41947024  1
  O  O42  1  0.01390641  0.70113105  0.81259051  1
  O  O43  1  0.18375012  0.61299399  0.69260916  1
  O  O44  1  0.75034630  0.06205505  0.68164016  1
  O  O45  1  0.77562264  0.33291226  0.44036771  1
  O  O46  1  0.98609359  0.29886895  0.18740949  1
  O  O47  1  0.49146940  0.04591337  0.42862616  1
  O  O48  1  0.70763377  0.58222084  0.76557473  1
  O  O49  1  0.95408663  0.50853060  0.07137384  1
  O  O50  1  0.40529571  0.13903451  0.92738596  1
  O  O51  1  0.72193561  0.81430986  0.58052976  1
  O  O52  1  0.10663975  0.17393202  0.68535970  1
  O  O53  1  0.39350049  0.09699119  0.07880748  1
  O  O54  1  0.09699119  0.39350049  0.57880748  1
  O  O55  1  0.16127480  0.28812724  0.09393050  1
  O  O56  1  0.83872520  0.71187276  0.90606950  1
  O  O57  1  0.18569014  0.27806439  0.91947024  1
  O  O58  1  0.22437736  0.66708774  0.55963229  1
  O  O59  1  0.06205505  0.75034630  0.18163916  1
  O  O60  1  0.88461944  0.00598714  0.05149125  1
  O  O61  1  0.89402635  0.21078947  0.94885301  1
  O  O62  1  0.53435696  0.40689699  0.13764412  1
  O  O63  1  0.93794495  0.24965370  0.81835984  1
  O  O64  1  0.10597365  0.78921053  0.05114699  1
  O  O65  1  0.78921053  0.10597365  0.55114699  1
  O  O66  1  0.29236623  0.41777916  0.23442527  1
  O  O67  1  0.24965370  0.93794495  0.31835984  1
  O  O68  1  0.00598714  0.88461944  0.55149125  1
  O  O69  1  0.99401286  0.11538056  0.44850875  1
  O  O70  1  0.21078947  0.89402635  0.44885301  1
  O  O71  1  0.90300881  0.60649951  0.42119252  1
  O  O72  1  0.17393202  0.10663975  0.18535970  1
  O  O73  1  0.13903451  0.40529571  0.42738596  1
  O  O74  1  0.60649951  0.90300881  0.92119252  1
  O  O75  1  0.46564304  0.59310301  0.86235588  1
  O  O76  1  0.04591337  0.49146940  0.92862616  1
  O  O77  1  0.66708774  0.22437736  0.05963229  1
  O  O78  1  0.03977828  0.16531336  0.31773615  1
  O  O79  1  0.96022172  0.83468664  0.68226385  1
  O  O80  1  0.86096549  0.59470429  0.57261404  1
  O  O81  1  0.41777916  0.29236623  0.73442527  1
  O  O82  1  0.38700601  0.81624988  0.80739084  1
  O  O83  1  0.81430986  0.72193561  0.08052976  1
  O  O84  1  0.59310301  0.46564304  0.36235588  1
  O  O85  1  0.59470429  0.86096549  0.07261404  1
  O  O86  1  0.28812724  0.16127480  0.59393050  1
  O  O87  1  0.61299399  0.18375012  0.19260916  1
  O  O88  1  0.33291226  0.77562264  0.94036771  1
  O  O89  1  0.70113105  0.01390641  0.31259051  1
  O  O90  1  0.16531336  0.03977828  0.81773615  1
  O  O91  1  0.40689699  0.53435696  0.63764412  1
  O  O92  1  0.11538056  0.99401286  0.94850875  1
  O  O93  1  0.71187276  0.83872520  0.40606950  1
  O  O94  1  0.83468664  0.96022172  0.18226385  1
  O  O95  1  0.50853060  0.95408663  0.57137384  1
  O  O96  1  0.29886895  0.98609359  0.68740949  1
  O  O97  1  0.82606798  0.89336025  0.81464030  1
  O  O98  1  0.89336025  0.82606798  0.31464030  1
  O  O99  1  0.81624988  0.38700601  0.30739084  1
