# generated using pymatgen
data_Yb(PO3)3
_symmetry_space_group_name_H-M   'P 1'
_cell_length_a   13.18992979
_cell_length_b   13.18992999
_cell_length_c   13.18992965
_cell_angle_alpha   110.49006724
_cell_angle_beta   110.49006756
_cell_angle_gamma   110.49006816
_symmetry_Int_Tables_number   1
_chemical_formula_structural   Yb(PO3)3
_chemical_formula_sum   'Yb8 P24 O72'
_cell_volume   1696.56760309
_cell_formula_units_Z   8
loop_
 _symmetry_equiv_pos_site_id
 _symmetry_equiv_pos_as_xyz
  1  'x, y, z'
loop_
 _atom_site_type_symbol
 _atom_site_label
 _atom_site_symmetry_multiplicity
 _atom_site_fract_x
 _atom_site_fract_y
 _atom_site_fract_z
 _atom_site_occupancy
  Yb  Yb0  1  0.01929565  0.53799972  0.73163936  1
  Yb  Yb1  1  0.98070435  0.46200028  0.26836064  1
  Yb  Yb2  1  0.73163936  0.01929565  0.53799972  1
  Yb  Yb3  1  0.26836064  0.98070435  0.46200028  1
  Yb  Yb4  1  0.50000000  0.50000000  0.50000000  1
  Yb  Yb5  1  0.00000000  0.00000000  0.00000000  1
  Yb  Yb6  1  0.46200028  0.26836064  0.98070435  1
  Yb  Yb7  1  0.53799972  0.73163936  0.01929565  1
  P  P8  1  0.70013092  0.98228968  0.79947562  1
  P  P9  1  0.48125377  0.73554810  0.73031784  1
  P  P10  1  0.26445190  0.26968216  0.51874623  1
  P  P11  1  0.28821661  0.76778473  0.07186392  1
  P  P12  1  0.73031784  0.48125377  0.73554810  1
  P  P13  1  0.37697487  0.78945271  0.32664256  1
  P  P14  1  0.07186392  0.28821661  0.76778473  1
  P  P15  1  0.23221527  0.92813608  0.71178339  1
  P  P16  1  0.20052438  0.29986908  0.01771032  1
  P  P17  1  0.78945271  0.32664256  0.37697487  1
  P  P18  1  0.01771032  0.20052438  0.29986908  1
  P  P19  1  0.98228968  0.79947562  0.70013092  1
  P  P20  1  0.51874623  0.26445190  0.26968216  1
  P  P21  1  0.76778473  0.07186392  0.28821661  1
  P  P22  1  0.32664256  0.37697487  0.78945271  1
  P  P23  1  0.79947562  0.70013092  0.98228968  1
  P  P24  1  0.29986908  0.01771032  0.20052438  1
  P  P25  1  0.62302513  0.21054729  0.67335744  1
  P  P26  1  0.21054729  0.67335744  0.62302513  1
  P  P27  1  0.67335744  0.62302513  0.21054729  1
  P  P28  1  0.71178339  0.23221527  0.92813608  1
  P  P29  1  0.92813608  0.71178339  0.23221527  1
  P  P30  1  0.26968216  0.51874623  0.26445190  1
  P  P31  1  0.73554810  0.73031784  0.48125377  1
  O  O32  1  0.00081927  0.69804246  0.71300234  1
  O  O33  1  0.69804246  0.71300234  0.00081927  1
  O  O34  1  0.31967613  0.91070664  0.11873421  1
  O  O35  1  0.40213555  0.31925305  0.82654038  1
  O  O36  1  0.31925305  0.82654038  0.40213555  1
  O  O37  1  0.18113747  0.28038684  0.74411806  1
  O  O38  1  0.71961316  0.25588194  0.81886253  1
  O  O39  1  0.93561568  0.60210386  0.23494808  1
  O  O40  1  0.60210386  0.23494808  0.93561568  1
  O  O41  1  0.32478645  0.04910627  0.84251603  1
  O  O42  1  0.84251603  0.32478645  0.04910627  1
  O  O43  1  0.72940872  0.55876264  0.85990142  1
  O  O44  1  0.48684526  0.11250765  0.62078304  1
  O  O45  1  0.04910627  0.84251603  0.32478645  1
  O  O46  1  0.17345962  0.59786445  0.68074695  1
  O  O47  1  0.68074695  0.17345962  0.59786445  1
  O  O48  1  0.11250765  0.62078304  0.48684526  1
  O  O49  1  0.28699766  0.99918073  0.30195754  1
  O  O50  1  0.68032387  0.08929336  0.88126579  1
  O  O51  1  0.14009858  0.27059128  0.44123736  1
  O  O52  1  0.63628641  0.67208460  0.50806387  1
  O  O53  1  0.10984500  0.19762303  0.02274710  1
  O  O54  1  0.22807327  0.14108154  0.50128671  1
  O  O55  1  0.49871329  0.77192673  0.85891846  1
  O  O56  1  0.67208460  0.50806387  0.63628641  1
  O  O57  1  0.99918073  0.30195754  0.28699766  1
  O  O58  1  0.97725290  0.89015500  0.80237697  1
  O  O59  1  0.85891846  0.49871329  0.77192673  1
  O  O60  1  0.76505192  0.06438432  0.39789614  1
  O  O61  1  0.85990142  0.72940872  0.55876264  1
  O  O62  1  0.82654038  0.40213555  0.31925305  1
  O  O63  1  0.62699424  0.33841965  0.69043339  1
  O  O64  1  0.50806387  0.63628641  0.67208460  1
  O  O65  1  0.19762303  0.02274710  0.10984500  1
  O  O66  1  0.08929336  0.88126579  0.68032387  1
  O  O67  1  0.74411806  0.18113747  0.28038684  1
  O  O68  1  0.51315474  0.88749235  0.37921696  1
  O  O69  1  0.95089373  0.15748397  0.67521355  1
  O  O70  1  0.44123736  0.14009858  0.27059128  1
  O  O71  1  0.81886253  0.71961316  0.25588194  1
  O  O72  1  0.30195754  0.28699766  0.99918073  1
  O  O73  1  0.67521355  0.95089373  0.15748397  1
  O  O74  1  0.66158035  0.30956661  0.37300576  1
  O  O75  1  0.06438432  0.39789614  0.76505192  1
  O  O76  1  0.02274710  0.10984500  0.19762303  1
  O  O77  1  0.11873421  0.31967613  0.91070664  1
  O  O78  1  0.69043339  0.62699424  0.33841965  1
  O  O79  1  0.28038684  0.74411806  0.18113747  1
  O  O80  1  0.39789614  0.76505192  0.06438432  1
  O  O81  1  0.77192673  0.85891846  0.49871329  1
  O  O82  1  0.37300576  0.66158035  0.30956661  1
  O  O83  1  0.88749235  0.37921696  0.51315474  1
  O  O84  1  0.91070664  0.11873421  0.31967613  1
  O  O85  1  0.88126579  0.68032387  0.08929336  1
  O  O86  1  0.89015500  0.80237697  0.97725290  1
  O  O87  1  0.55876264  0.85990142  0.72940872  1
  O  O88  1  0.27059128  0.44123736  0.14009858  1
  O  O89  1  0.14108154  0.50128671  0.22807327  1
  O  O90  1  0.37921696  0.51315474  0.88749235  1
  O  O91  1  0.59786445  0.68074695  0.17345962  1
  O  O92  1  0.50128671  0.22807327  0.14108154  1
  O  O93  1  0.80237697  0.97725290  0.89015500  1
  O  O94  1  0.36371359  0.32791540  0.49193613  1
  O  O95  1  0.71300234  0.00081927  0.69804246  1
  O  O96  1  0.23494808  0.93561568  0.60210386  1
  O  O97  1  0.62078304  0.48684526  0.11250765  1
  O  O98  1  0.15748397  0.67521355  0.95089373  1
  O  O99  1  0.25588194  0.81886253  0.71961316  1
  O  O100  1  0.49193613  0.36371359  0.32791540  1
  O  O101  1  0.32791540  0.49193613  0.36371359  1
  O  O102  1  0.33841965  0.69043339  0.62699424  1
  O  O103  1  0.30956661  0.37300576  0.66158035  1
