# generated using pymatgen
data_Ba6Nb4S13O3
_symmetry_space_group_name_H-M   'P 1'
_cell_length_a   7.95007026
_cell_length_b   14.52291390
_cell_length_c   24.58028322
_cell_angle_alpha   90.00000000
_cell_angle_beta   90.00000000
_cell_angle_gamma   90.00000000
_symmetry_Int_Tables_number   1
_chemical_formula_structural   Ba6Nb4S13O3
_chemical_formula_sum   'Ba24 Nb16 S52 O12'
_cell_volume   2837.99490912
_cell_formula_units_Z   4
loop_
 _symmetry_equiv_pos_site_id
 _symmetry_equiv_pos_as_xyz
  1  'x, y, z'
loop_
 _atom_site_type_symbol
 _atom_site_label
 _atom_site_symmetry_multiplicity
 _atom_site_fract_x
 _atom_site_fract_y
 _atom_site_fract_z
 _atom_site_occupancy
  Ba  Ba0  1  0.60700410  0.25000000  0.55044095  1
  Ba  Ba1  1  0.76173435  0.75000000  0.15646239  1
  Ba  Ba2  1  0.40315881  0.91760390  0.27472727  1
  Ba  Ba3  1  0.90315881  0.41760390  0.22527273  1
  Ba  Ba4  1  0.59684119  0.08239610  0.72527273  1
  Ba  Ba5  1  0.76717796  0.98410903  0.41727341  1
  Ba  Ba6  1  0.76717796  0.51589097  0.41727341  1
  Ba  Ba7  1  0.26173435  0.25000000  0.34353761  1
  Ba  Ba8  1  0.39299590  0.75000000  0.44955905  1
  Ba  Ba9  1  0.73826565  0.75000000  0.65646239  1
  Ba  Ba10  1  0.23282204  0.01589097  0.58272659  1
  Ba  Ba11  1  0.09684119  0.58239610  0.77472727  1
  Ba  Ba12  1  0.73282204  0.98410903  0.91727341  1
  Ba  Ba13  1  0.10700410  0.75000000  0.94955905  1
  Ba  Ba14  1  0.26717796  0.48410903  0.08272659  1
  Ba  Ba15  1  0.23826565  0.25000000  0.84353761  1
  Ba  Ba16  1  0.09684119  0.91760390  0.77472727  1
  Ba  Ba17  1  0.90315881  0.08239610  0.22527273  1
  Ba  Ba18  1  0.40315881  0.58239610  0.27472727  1
  Ba  Ba19  1  0.23282204  0.48410903  0.58272659  1
  Ba  Ba20  1  0.89299590  0.25000000  0.05044095  1
  Ba  Ba21  1  0.26717796  0.01589097  0.08272659  1
  Ba  Ba22  1  0.73282204  0.51589097  0.91727341  1
  Ba  Ba23  1  0.59684119  0.41760390  0.72527273  1
  Nb  Nb24  1  0.78425787  0.49613004  0.08378545  1
  Nb  Nb25  1  0.10296986  0.25000000  0.67008050  1
  Nb  Nb26  1  0.72132135  0.25000000  0.83598950  1
  Nb  Nb27  1  0.21574213  0.99613004  0.91621455  1
  Nb  Nb28  1  0.60296986  0.75000000  0.82991950  1
  Nb  Nb29  1  0.89703014  0.75000000  0.32991950  1
  Nb  Nb30  1  0.39703014  0.25000000  0.17008050  1
  Nb  Nb31  1  0.22132135  0.75000000  0.66401050  1
  Nb  Nb32  1  0.28425787  0.99613004  0.41621455  1
  Nb  Nb33  1  0.21574213  0.50386996  0.91621455  1
  Nb  Nb34  1  0.78425787  0.00386996  0.08378545  1
  Nb  Nb35  1  0.71574213  0.49613004  0.58378545  1
  Nb  Nb36  1  0.71574213  0.00386996  0.58378545  1
  Nb  Nb37  1  0.77867865  0.25000000  0.33598950  1
  Nb  Nb38  1  0.27867865  0.75000000  0.16401050  1
  Nb  Nb39  1  0.28425787  0.50386996  0.41621455  1
  S  S40  1  0.12124563  0.04125857  0.34281410  1
  S  S41  1  0.10240184  0.75000000  0.58072156  1
  S  S42  1  0.38050182  0.61789787  0.67901807  1
  S  S43  1  0.62124563  0.95874143  0.15718590  1
  S  S44  1  0.70595955  0.75000000  0.91620939  1
  S  S45  1  0.37771301  0.59106791  0.97283321  1
  S  S46  1  0.09437461  0.38377228  0.96209736  1
  S  S47  1  0.37771301  0.90893209  0.97283321  1
  S  S48  1  0.59437461  0.61622772  0.53790264  1
  S  S49  1  0.88050182  0.38210213  0.82098193  1
  S  S50  1  0.38050182  0.88210213  0.67901807  1
  S  S51  1  0.40562539  0.11622772  0.46209736  1
  S  S52  1  0.81245712  0.25000000  0.66839159  1
  S  S53  1  0.29404045  0.25000000  0.08379061  1
  S  S54  1  0.87771301  0.40893209  0.52716679  1
  S  S55  1  0.29742795  0.12031186  0.21244384  1
  S  S56  1  0.12124563  0.45874143  0.34281410  1
  S  S57  1  0.20257205  0.12031186  0.71244384  1
  S  S58  1  0.11949818  0.88210213  0.17901807  1
  S  S59  1  0.62228699  0.40893209  0.02716679  1
  S  S60  1  0.61949818  0.38210213  0.32098193  1
  S  S61  1  0.20595955  0.25000000  0.58379061  1
  S  S62  1  0.18754288  0.75000000  0.33160841  1
  S  S63  1  0.11949818  0.61789787  0.17901807  1
  S  S64  1  0.39759816  0.75000000  0.08072156  1
  S  S65  1  0.90562539  0.61622772  0.03790264  1
  S  S66  1  0.89759816  0.25000000  0.41927844  1
  S  S67  1  0.70257205  0.62031186  0.78755616  1
  S  S68  1  0.12228699  0.59106791  0.47283321  1
  S  S69  1  0.12228699  0.90893209  0.47283321  1
  S  S70  1  0.37875437  0.45874143  0.84281410  1
  S  S71  1  0.87771301  0.09106791  0.52716679  1
  S  S72  1  0.88050182  0.11789787  0.82098193  1
  S  S73  1  0.79404045  0.75000000  0.41620939  1
  S  S74  1  0.90562539  0.88377228  0.03790264  1
  S  S75  1  0.59437461  0.88377228  0.53790264  1
  S  S76  1  0.68754288  0.25000000  0.16839159  1
  S  S77  1  0.09437461  0.11622772  0.96209736  1
  S  S78  1  0.20257205  0.37968814  0.71244384  1
  S  S79  1  0.40562539  0.38377228  0.46209736  1
  S  S80  1  0.37875437  0.04125857  0.84281410  1
  S  S81  1  0.79742795  0.62031186  0.28755616  1
  S  S82  1  0.61949818  0.11789787  0.32098193  1
  S  S83  1  0.60240184  0.25000000  0.91927844  1
  S  S84  1  0.62228699  0.09106791  0.02716679  1
  S  S85  1  0.87875437  0.54125857  0.65718590  1
  S  S86  1  0.70257205  0.87968814  0.78755616  1
  S  S87  1  0.31245712  0.75000000  0.83160841  1
  S  S88  1  0.29742795  0.37968814  0.21244384  1
  S  S89  1  0.87875437  0.95874143  0.65718590  1
  S  S90  1  0.62124563  0.54125857  0.15718590  1
  S  S91  1  0.79742795  0.87968814  0.28755616  1
  O  O92  1  0.54723717  0.25000000  0.78585248  1
  O  O93  1  0.45196336  0.58128769  0.39070191  1
  O  O94  1  0.45276283  0.75000000  0.21414752  1
  O  O95  1  0.45196336  0.91871231  0.39070191  1
  O  O96  1  0.54803664  0.41871231  0.60929809  1
  O  O97  1  0.04803664  0.58128769  0.89070191  1
  O  O98  1  0.95196336  0.08128769  0.10929809  1
  O  O99  1  0.04723717  0.75000000  0.71414752  1
  O  O100  1  0.95196336  0.41871231  0.10929809  1
  O  O101  1  0.04803664  0.91871231  0.89070191  1
  O  O102  1  0.95276283  0.25000000  0.28585248  1
  O  O103  1  0.54803664  0.08128769  0.60929809  1
