# generated using pymatgen
data_Mo6PbCl14
_symmetry_space_group_name_H-M   'P 1'
_cell_length_a   13.08628696
_cell_length_b   13.08628696
_cell_length_c   13.08628696
_cell_angle_alpha   90.00000000
_cell_angle_beta   90.00000000
_cell_angle_gamma   90.00000000
_symmetry_Int_Tables_number   1
_chemical_formula_structural   Mo6PbCl14
_chemical_formula_sum   'Mo24 Pb4 Cl56'
_cell_volume   2241.03850330
_cell_formula_units_Z   4
loop_
 _symmetry_equiv_pos_site_id
 _symmetry_equiv_pos_as_xyz
  1  'x, y, z'
loop_
 _atom_site_type_symbol
 _atom_site_label
 _atom_site_symmetry_multiplicity
 _atom_site_fract_x
 _atom_site_fract_y
 _atom_site_fract_z
 _atom_site_occupancy
  Mo  Mo0  1  0.03733330  0.36538544  0.52900975  1
  Mo  Mo1  1  0.52900975  0.03733330  0.36538544  1
  Mo  Mo2  1  0.86538544  0.47099025  0.53733330  1
  Mo  Mo3  1  0.36538544  0.97099025  0.46266670  1
  Mo  Mo4  1  0.97099025  0.46266670  0.36538544  1
  Mo  Mo5  1  0.13461456  0.97099025  0.03733330  1
  Mo  Mo6  1  0.63461456  0.47099025  0.96266670  1
  Mo  Mo7  1  0.47099025  0.53733330  0.86538544  1
  Mo  Mo8  1  0.97099025  0.03733330  0.13461456  1
  Mo  Mo9  1  0.03733330  0.13461456  0.97099025  1
  Mo  Mo10  1  0.86538544  0.02900975  0.96266670  1
  Mo  Mo11  1  0.02900975  0.96266670  0.86538544  1
  Mo  Mo12  1  0.96266670  0.63461456  0.47099025  1
  Mo  Mo13  1  0.13461456  0.52900975  0.46266670  1
  Mo  Mo14  1  0.02900975  0.53733330  0.63461456  1
  Mo  Mo15  1  0.53733330  0.86538544  0.47099025  1
  Mo  Mo16  1  0.96266670  0.86538544  0.02900975  1
  Mo  Mo17  1  0.47099025  0.96266670  0.63461456  1
  Mo  Mo18  1  0.52900975  0.46266670  0.13461456  1
  Mo  Mo19  1  0.36538544  0.52900975  0.03733330  1
  Mo  Mo20  1  0.53733330  0.63461456  0.02900975  1
  Mo  Mo21  1  0.63461456  0.02900975  0.53733330  1
  Mo  Mo22  1  0.46266670  0.13461456  0.52900975  1
  Mo  Mo23  1  0.46266670  0.36538544  0.97099025  1
  Pb  Pb24  1  0.00000000  0.00000000  0.50000000  1
  Pb  Pb25  1  0.50000000  0.50000000  0.50000000  1
  Pb  Pb26  1  0.50000000  0.00000000  0.00000000  1
  Pb  Pb27  1  0.00000000  0.50000000  0.00000000  1
  Cl  Cl28  1  0.18955176  0.92805450  0.40890837  1
  Cl  Cl29  1  0.18852643  0.06363611  0.87964196  1
  Cl  Cl30  1  0.43636389  0.87964196  0.31147357  1
  Cl  Cl31  1  0.81147357  0.56363611  0.37964196  1
  Cl  Cl32  1  0.42805450  0.90890837  0.81044824  1
  Cl  Cl33  1  0.09109163  0.18955176  0.57194550  1
  Cl  Cl34  1  0.31147357  0.43636389  0.87964196  1
  Cl  Cl35  1  0.81044824  0.07194550  0.59109163  1
  Cl  Cl36  1  0.57194550  0.09109163  0.18955176  1
  Cl  Cl37  1  0.93636389  0.12035804  0.81147357  1
  Cl  Cl38  1  0.68955176  0.07194550  0.90890837  1
  Cl  Cl39  1  0.56363611  0.12035804  0.68852643  1
  Cl  Cl40  1  0.36463490  0.13536510  0.36463490  1
  Cl  Cl41  1  0.87964196  0.31147357  0.43636389  1
  Cl  Cl42  1  0.86463490  0.86463490  0.86463490  1
  Cl  Cl43  1  0.93636389  0.37964196  0.68852643  1
  Cl  Cl44  1  0.62035804  0.18852643  0.43636389  1
  Cl  Cl45  1  0.59109163  0.81044824  0.07194550  1
  Cl  Cl46  1  0.68955176  0.42805450  0.59109163  1
  Cl  Cl47  1  0.13536510  0.36463490  0.36463490  1
  Cl  Cl48  1  0.37964196  0.68852643  0.93636389  1
  Cl  Cl49  1  0.07194550  0.59109163  0.81044824  1
  Cl  Cl50  1  0.68852643  0.93636389  0.37964196  1
  Cl  Cl51  1  0.31044824  0.57194550  0.40890837  1
  Cl  Cl52  1  0.42805450  0.59109163  0.68955176  1
  Cl  Cl53  1  0.68852643  0.56363611  0.12035804  1
  Cl  Cl54  1  0.62035804  0.31147357  0.06363611  1
  Cl  Cl55  1  0.07194550  0.90890837  0.68955176  1
  Cl  Cl56  1  0.36463490  0.36463490  0.13536510  1
  Cl  Cl57  1  0.40890837  0.31044824  0.57194550  1
  Cl  Cl58  1  0.92805450  0.40890837  0.18955176  1
  Cl  Cl59  1  0.43636389  0.62035804  0.18852643  1
  Cl  Cl60  1  0.18955176  0.57194550  0.09109163  1
  Cl  Cl61  1  0.06363611  0.62035804  0.31147357  1
  Cl  Cl62  1  0.13536510  0.13536510  0.13536510  1
  Cl  Cl63  1  0.12035804  0.68852643  0.56363611  1
  Cl  Cl64  1  0.37964196  0.81147357  0.56363611  1
  Cl  Cl65  1  0.81044824  0.42805450  0.90890837  1
  Cl  Cl66  1  0.31147357  0.06363611  0.62035804  1
  Cl  Cl67  1  0.90890837  0.68955176  0.07194550  1
  Cl  Cl68  1  0.81147357  0.93636389  0.12035804  1
  Cl  Cl69  1  0.56363611  0.37964196  0.81147357  1
  Cl  Cl70  1  0.12035804  0.81147357  0.93636389  1
  Cl  Cl71  1  0.40890837  0.18955176  0.92805450  1
  Cl  Cl72  1  0.31044824  0.92805450  0.09109163  1
  Cl  Cl73  1  0.09109163  0.31044824  0.92805450  1
  Cl  Cl74  1  0.59109163  0.68955176  0.42805450  1
  Cl  Cl75  1  0.86463490  0.63536510  0.63536510  1
  Cl  Cl76  1  0.92805450  0.09109163  0.31044824  1
  Cl  Cl77  1  0.57194550  0.40890837  0.31044824  1
  Cl  Cl78  1  0.87964196  0.18852643  0.06363611  1
  Cl  Cl79  1  0.90890837  0.81044824  0.42805450  1
  Cl  Cl80  1  0.63536510  0.63536510  0.86463490  1
  Cl  Cl81  1  0.63536510  0.86463490  0.63536510  1
  Cl  Cl82  1  0.18852643  0.43636389  0.62035804  1
  Cl  Cl83  1  0.06363611  0.87964196  0.18852643  1
