# generated using pymatgen
data_Li4MnCo2O7
_symmetry_space_group_name_H-M   'P 1'
_cell_length_a   2.90091877
_cell_length_b   13.61383556
_cell_length_c   6.59123803
_cell_angle_alpha   86.50647820
_cell_angle_beta   77.28751248
_cell_angle_gamma   96.11607559
_symmetry_Int_Tables_number   1
_chemical_formula_structural   Li4MnCo2O7
_chemical_formula_sum   'Li8 Mn2 Co4 O14'
_cell_volume   251.52179327
_cell_formula_units_Z   2
loop_
 _symmetry_equiv_pos_site_id
 _symmetry_equiv_pos_as_xyz
  1  'x, y, z'
loop_
 _atom_site_type_symbol
 _atom_site_label
 _atom_site_symmetry_multiplicity
 _atom_site_fract_x
 _atom_site_fract_y
 _atom_site_fract_z
 _atom_site_occupancy
  Li  Li0  1  0.35367603  0.07412358  0.36677151  1
  Li  Li1  1  0.07372310  0.21132010  0.06387490  1
  Li  Li2  1  0.78450430  0.35340455  0.78439494  1
  Li  Li3  1  0.64550430  0.93505294  0.64404433  1
  Li  Li4  1  0.92971005  0.78458741  0.92516632  1
  Li  Li5  1  0.49690211  0.49693387  0.50312965  1
  Li  Li6  1  0.21706055  0.64861093  0.21449083  1
  Li  Li7  1  0.71320371  0.13964054  0.71323411  1
  Mn  Mn8  1  0.00816824  0.00355312  0.98721663  1
  Mn  Mn9  1  0.14126313  0.42663293  0.14410666  1
  Co  Co10  1  0.40794486  0.27543358  0.45954286  1
  Co  Co11  1  0.85943299  0.57422029  0.85535430  1
  Co  Co12  1  0.57144496  0.71417696  0.57128804  1
  Co  Co13  1  0.28613936  0.85849098  0.28621126  1
  O  O14  1  0.53011862  0.09379082  0.03355357  1
  O  O15  1  0.25855128  0.25485070  0.73774914  1
  O  O16  1  0.97563247  0.38863515  0.43736920  1
  O  O17  1  0.82832380  0.95825466  0.30160706  1
  O  O18  1  0.10950574  0.81550724  0.59649476  1
  O  O19  1  0.67457499  0.52279892  0.17364895  1
  O  O20  1  0.39381169  0.67579163  0.88816924  1
  O  O21  1  0.16395217  0.03155738  0.70365304  1
  O  O22  1  0.90003039  0.18732118  0.38726139  1
  O  O23  1  0.61296662  0.33494117  0.10900694  1
  O  O24  1  0.46602657  0.90410981  0.97205668  1
  O  O25  1  0.75063765  0.75700616  0.25572986  1
  O  O26  1  0.31290881  0.46862933  0.84281172  1
  O  O27  1  0.03428149  0.61062407  0.54206210  1
