# generated using pymatgen
data_W2NCl9
_symmetry_space_group_name_H-M   'P 1'
_cell_length_a   9.17433956
_cell_length_b   9.12837519
_cell_length_c   17.30403885
_cell_angle_alpha   90.00000000
_cell_angle_beta   90.00000000
_cell_angle_gamma   90.05182328
_symmetry_Int_Tables_number   1
_chemical_formula_structural   W2NCl9
_chemical_formula_sum   'W8 N4 Cl36'
_cell_volume   1449.15752332
_cell_formula_units_Z   4
loop_
 _symmetry_equiv_pos_site_id
 _symmetry_equiv_pos_as_xyz
  1  'x, y, z'
loop_
 _atom_site_type_symbol
 _atom_site_label
 _atom_site_symmetry_multiplicity
 _atom_site_fract_x
 _atom_site_fract_y
 _atom_site_fract_z
 _atom_site_occupancy
  W  W0  1  0.46086249  0.64895521  0.19129047  1
  W  W1  1  0.96086249  0.14895521  0.30870953  1
  W  W2  1  0.03913751  0.85104479  0.69129047  1
  W  W3  1  0.04136637  0.85949263  0.90712366  1
  W  W4  1  0.95863363  0.14050737  0.09287634  1
  W  W5  1  0.54136637  0.35949263  0.59287634  1
  W  W6  1  0.53913751  0.35104479  0.80870953  1
  W  W7  1  0.45863363  0.64050737  0.40712366  1
  N  N8  1  0.54142897  0.35887809  0.69435375  1
  N  N9  1  0.95857103  0.14112191  0.19435375  1
  N  N10  1  0.45857103  0.64112191  0.30564625  1
  N  N11  1  0.04142897  0.85887809  0.80564625  1
  Cl  Cl12  1  0.47675531  0.59595886  0.80871194  1
  Cl  Cl13  1  0.96432179  0.16304600  0.44188373  1
  Cl  Cl14  1  0.60948129  0.12250207  0.56915758  1
  Cl  Cl15  1  0.39051871  0.87749793  0.43084242  1
  Cl  Cl16  1  0.46432179  0.66304600  0.05811627  1
  Cl  Cl17  1  0.21739792  0.58428970  0.19203307  1
  Cl  Cl18  1  0.70459612  0.71095719  0.19836529  1
  Cl  Cl19  1  0.52324469  0.40404114  0.19128806  1
  Cl  Cl20  1  0.60261000  0.10737400  0.79729773  1
  Cl  Cl21  1  0.03083020  0.88999408  0.07553273  1
  Cl  Cl22  1  0.89739000  0.39262600  0.29729773  1
  Cl  Cl23  1  0.39739000  0.89262600  0.20270227  1
  Cl  Cl24  1  0.30026596  0.29704246  0.57493586  1
  Cl  Cl25  1  0.28260208  0.91571030  0.69203307  1
  Cl  Cl26  1  0.71739792  0.08428970  0.30796693  1
  Cl  Cl27  1  0.77809564  0.43629507  0.57431492  1
  Cl  Cl28  1  0.79540388  0.78904281  0.69836529  1
  Cl  Cl29  1  0.80026596  0.79704246  0.92506414  1
  Cl  Cl30  1  0.46916980  0.61000592  0.57553273  1
  Cl  Cl31  1  0.27809564  0.93629507  0.92568508  1
  Cl  Cl32  1  0.22190436  0.56370493  0.42568508  1
  Cl  Cl33  1  0.89051871  0.37749793  0.06915758  1
  Cl  Cl34  1  0.10261000  0.60737400  0.70270227  1
  Cl  Cl35  1  0.53083020  0.38999408  0.42446727  1
  Cl  Cl36  1  0.03567821  0.83695400  0.55811627  1
  Cl  Cl37  1  0.53567821  0.33695400  0.94188373  1
  Cl  Cl38  1  0.29540388  0.28904281  0.80163471  1
  Cl  Cl39  1  0.97675531  0.09595886  0.69128806  1
  Cl  Cl40  1  0.78260208  0.41571030  0.80796693  1
  Cl  Cl41  1  0.69973404  0.70295754  0.42506414  1
  Cl  Cl42  1  0.72190436  0.06370493  0.07431492  1
  Cl  Cl43  1  0.19973404  0.20295754  0.07493586  1
  Cl  Cl44  1  0.96916980  0.11000592  0.92446727  1
  Cl  Cl45  1  0.02324469  0.90404114  0.30871194  1
  Cl  Cl46  1  0.20459612  0.21095719  0.30163471  1
  Cl  Cl47  1  0.10948129  0.62250207  0.93084242  1
