# generated using pymatgen
data_K3In2As3
_symmetry_space_group_name_H-M   'P 1'
_cell_length_a   6.90032338
_cell_length_b   10.61818749
_cell_length_c   15.09912121
_cell_angle_alpha   90.00000000
_cell_angle_beta   90.00000000
_cell_angle_gamma   108.96130005
_symmetry_Int_Tables_number   1
_chemical_formula_structural   K3In2As3
_chemical_formula_sum   'K12 In8 As12'
_cell_volume   1046.26684909
_cell_formula_units_Z   4
loop_
 _symmetry_equiv_pos_site_id
 _symmetry_equiv_pos_as_xyz
  1  'x, y, z'
loop_
 _atom_site_type_symbol
 _atom_site_label
 _atom_site_symmetry_multiplicity
 _atom_site_fract_x
 _atom_site_fract_y
 _atom_site_fract_z
 _atom_site_occupancy
  K  K0  1  0.93023511  0.31627468  0.32414065  1
  K  K1  1  0.88603957  0.31627468  0.82414065  1
  K  K2  1  0.38603957  0.31627468  0.67585935  1
  K  K3  1  0.43023511  0.31627468  0.17585935  1
  K  K4  1  0.65114283  0.00000000  0.13758831  1
  K  K5  1  0.11396043  0.68372532  0.17585935  1
  K  K6  1  0.34885717  0.00000000  0.86241169  1
  K  K7  1  0.61396043  0.68372532  0.32414065  1
  K  K8  1  0.15114283  0.00000000  0.36241169  1
  K  K9  1  0.56976489  0.68372532  0.82414065  1
  K  K10  1  0.84885717  0.00000000  0.63758831  1
  K  K11  1  0.06976489  0.68372532  0.67585935  1
  In  In12  1  0.76130049  0.52260098  0.50000000  1
  In  In13  1  0.73869951  0.47739902  0.00000000  1
  In  In14  1  0.26130049  0.52260098  0.00000000  1
  In  In15  1  0.08346537  0.16693074  0.00000000  1
  In  In16  1  0.23869951  0.47739902  0.50000000  1
  In  In17  1  0.91653463  0.83306926  0.00000000  1
  In  In18  1  0.58346537  0.16693074  0.50000000  1
  In  In19  1  0.41653463  0.83306926  0.50000000  1
  As  As20  1  0.39951566  0.34895626  0.90220459  1
  As  As21  1  0.66188347  0.00000000  0.38147913  1
  As  As22  1  0.05055940  0.65104374  0.90220459  1
  As  As23  1  0.94944060  0.34895626  0.09779541  1
  As  As24  1  0.60048434  0.65104374  0.09779541  1
  As  As25  1  0.10048434  0.65104374  0.40220459  1
  As  As26  1  0.89951566  0.34895626  0.59779541  1
  As  As27  1  0.16188347  0.00000000  0.11852087  1
  As  As28  1  0.44944060  0.34895626  0.40220459  1
  As  As29  1  0.83811653  0.00000000  0.88147913  1
  As  As30  1  0.33811653  0.00000000  0.61852087  1
  As  As31  1  0.55055940  0.65104374  0.59779541  1
