# generated using pymatgen
data_Gd2Mo(SeO4)3
_symmetry_space_group_name_H-M   'P 1'
_cell_length_a   6.66175322
_cell_length_b   7.21906207
_cell_length_c   10.99860812
_cell_angle_alpha   85.18584402
_cell_angle_beta   73.05095933
_cell_angle_gamma   86.42163674
_symmetry_Int_Tables_number   1
_chemical_formula_structural   Gd2Mo(SeO4)3
_chemical_formula_sum   'Gd4 Mo2 Se6 O24'
_cell_volume   503.78123816
_cell_formula_units_Z   2
loop_
 _symmetry_equiv_pos_site_id
 _symmetry_equiv_pos_as_xyz
  1  'x, y, z'
loop_
 _atom_site_type_symbol
 _atom_site_label
 _atom_site_symmetry_multiplicity
 _atom_site_fract_x
 _atom_site_fract_y
 _atom_site_fract_z
 _atom_site_occupancy
  Gd  Gd0  1  0.76806255  0.86108482  0.99046140  1
  Gd  Gd1  1  0.29399884  0.32050125  0.33297678  1
  Gd  Gd2  1  0.23193745  0.13891518  0.00953860  1
  Gd  Gd3  1  0.70600116  0.67949875  0.66702322  1
  Mo  Mo4  1  0.77798881  0.60885793  0.29226322  1
  Mo  Mo5  1  0.22201119  0.39114207  0.70773678  1
  Se  Se6  1  0.29892959  0.84070635  0.28383077  1
  Se  Se7  1  0.71047987  0.36037155  0.00753364  1
  Se  Se8  1  0.83980141  0.14092500  0.35854146  1
  Se  Se9  1  0.70107041  0.15929365  0.71616923  1
  Se  Se10  1  0.16019859  0.85907500  0.64145854  1
  Se  Se11  1  0.28952013  0.63962845  0.99246636  1
  O  O12  1  0.21939699  0.46136429  0.91617040  1
  O  O13  1  0.67718049  0.33219134  0.32082859  1
  O  O14  1  0.39982160  0.00312328  0.35033765  1
  O  O15  1  0.71725919  0.66936588  0.45236820  1
  O  O16  1  0.32281951  0.66780866  0.67917141  1
  O  O17  1  0.04733888  0.52770412  0.26469519  1
  O  O18  1  0.78060301  0.53863571  0.08382960  1
  O  O19  1  0.45834298  0.31057741  0.10730783  1
  O  O20  1  0.05489987  0.76790969  0.53724598  1
  O  O21  1  0.28274081  0.33063412  0.54763180  1
  O  O22  1  0.80611151  0.82748001  0.20070303  1
  O  O23  1  0.85710664  0.16349936  0.04059876  1
  O  O24  1  0.07166114  0.15229873  0.23179258  1
  O  O25  1  0.55708986  0.37011310  0.69531150  1
  O  O26  1  0.94510013  0.23209031  0.46275402  1
  O  O27  1  0.14289336  0.83650064  0.95940124  1
  O  O28  1  0.54165702  0.68942259  0.89269217  1
  O  O29  1  0.44291014  0.62988690  0.30468850  1
  O  O30  1  0.58334670  0.10249199  0.88136920  1
  O  O31  1  0.41665330  0.89750801  0.11863080  1
  O  O32  1  0.60017840  0.99687672  0.64966235  1
  O  O33  1  0.95266112  0.47229588  0.73530481  1
  O  O34  1  0.19388849  0.17251999  0.79929697  1
  O  O35  1  0.92833886  0.84770127  0.76820742  1
