# generated using pymatgen
data_Ba2SnTe5
_symmetry_space_group_name_H-M   'P 1'
_cell_length_a   6.98901457
_cell_length_b   7.08230044
_cell_length_c   24.56861257
_cell_angle_alpha   90.00000000
_cell_angle_beta   90.00000000
_cell_angle_gamma   90.00000000
_symmetry_Int_Tables_number   1
_chemical_formula_structural   Ba2SnTe5
_chemical_formula_sum   'Ba8 Sn4 Te20'
_cell_volume   1216.10457926
_cell_formula_units_Z   4
loop_
 _symmetry_equiv_pos_site_id
 _symmetry_equiv_pos_as_xyz
  1  'x, y, z'
loop_
 _atom_site_type_symbol
 _atom_site_label
 _atom_site_symmetry_multiplicity
 _atom_site_fract_x
 _atom_site_fract_y
 _atom_site_fract_z
 _atom_site_occupancy
  Ba  Ba0  1  0.99404731  0.98951125  0.09976299  1
  Ba  Ba1  1  0.99404731  0.98951125  0.40023701  1
  Ba  Ba2  1  0.00595269  0.01048875  0.59976299  1
  Ba  Ba3  1  0.49404731  0.51048875  0.09976299  1
  Ba  Ba4  1  0.49404731  0.51048875  0.40023701  1
  Ba  Ba5  1  0.50595269  0.48951125  0.59976299  1
  Ba  Ba6  1  0.50595269  0.48951125  0.90023701  1
  Ba  Ba7  1  0.00595269  0.01048875  0.90023701  1
  Sn  Sn8  1  0.89863901  0.41441342  0.75000000  1
  Sn  Sn9  1  0.60136099  0.91441342  0.25000000  1
  Sn  Sn10  1  0.39863901  0.08558658  0.75000000  1
  Sn  Sn11  1  0.10136099  0.58558658  0.25000000  1
  Te  Te12  1  0.50813861  0.52197548  0.25000000  1
  Te  Te13  1  0.99186139  0.02197548  0.75000000  1
  Te  Te14  1  0.99188573  0.48346261  0.14465314  1
  Te  Te15  1  0.35604906  0.14228888  0.00359080  1
  Te  Te16  1  0.49188573  0.01653739  0.35534686  1
  Te  Te17  1  0.85604906  0.35771112  0.00359080  1
  Te  Te18  1  0.00811427  0.51653739  0.64465314  1
  Te  Te19  1  0.00813861  0.97802452  0.25000000  1
  Te  Te20  1  0.49188573  0.01653739  0.14465314  1
  Te  Te21  1  0.64395094  0.85771112  0.99640920  1
  Te  Te22  1  0.14395094  0.64228888  0.50359080  1
  Te  Te23  1  0.50811427  0.98346261  0.85534686  1
  Te  Te24  1  0.64395094  0.85771112  0.50359080  1
  Te  Te25  1  0.00811427  0.51653739  0.85534686  1
  Te  Te26  1  0.35604906  0.14228888  0.49640920  1
  Te  Te27  1  0.49186139  0.47802452  0.75000000  1
  Te  Te28  1  0.50811427  0.98346261  0.64465314  1
  Te  Te29  1  0.85604906  0.35771112  0.49640920  1
  Te  Te30  1  0.99188573  0.48346261  0.35534686  1
  Te  Te31  1  0.14395094  0.64228888  0.99640920  1
