# generated using pymatgen
data_Li4MnCo2O7
_symmetry_space_group_name_H-M   'P 1'
_cell_length_a   2.88930641
_cell_length_b   5.90696166
_cell_length_c   14.84900517
_cell_angle_alpha   83.89306591
_cell_angle_beta   84.41688975
_cell_angle_gamma   89.99999503
_symmetry_Int_Tables_number   1
_chemical_formula_structural   Li4MnCo2O7
_chemical_formula_sum   'Li8 Mn2 Co4 O14'
_cell_volume   250.78098701
_cell_formula_units_Z   2
loop_
 _symmetry_equiv_pos_site_id
 _symmetry_equiv_pos_as_xyz
  1  'x, y, z'
loop_
 _atom_site_type_symbol
 _atom_site_label
 _atom_site_symmetry_multiplicity
 _atom_site_fract_x
 _atom_site_fract_y
 _atom_site_fract_z
 _atom_site_occupancy
  Li  Li0  1  0.42270027  0.21918861  0.15459845  1
  Li  Li1  1  0.29075515  0.63954534  0.41848870  1
  Li  Li2  1  0.14440195  0.07534378  0.71119610  1
  Li  Li3  1  0.85670676  0.93359553  0.28658649  1
  Li  Li4  1  0.71526326  0.35792542  0.56947449  1
  Li  Li5  1  0.57281654  0.78426432  0.85436792  1
  Li  Li6  1  0.99700584  0.49893545  0.00598832  1
  Li  Li7  1  0.85709923  0.42235505  0.28580154  1
  Mn  Mn8  1  0.99809939  -0.00153479  0.00380121  1
  Mn  Mn9  1  0.28932110  0.14835290  0.42135680  1
  Co  Co10  1  0.71489896  0.85868063  0.57020307  1
  Co  Co11  1  0.57211049  0.28886562  0.85578003  1
  Co  Co12  1  0.41979109  0.69609901  0.16041682  1
  Co  Co13  1  0.14412689  0.56924703  0.71174621  1
  O  O14  1  0.49859418  0.22230252  0.00281164  1
  O  O15  1  0.35985312  0.68420134  0.28029376  1
  O  O16  1  0.21904080  0.09331370  0.56191839  1
  O  O17  1  0.93349894  0.94880019  0.13300312  1
  O  O18  1  0.78541529  0.36506563  0.42916842  1
  O  O19  1  0.64451460  0.81315639  0.71096980  1
  O  O20  1  0.07292877  0.51547426  0.85414347  1
  O  O21  1  0.35154275  0.17451344  0.29691550  1
  O  O22  1  0.21430945  0.62608606  0.57138209  1
  O  O23  1  0.06611891  0.05697951  0.86776119  1
  O  O24  1  0.78516754  0.91773646  0.42966492  1
  O  O25  1  0.64338879  0.33040514  0.71322243  1
  O  O26  1  0.50101086  0.77987154  -0.00202172  1
  O  O27  1  0.92951909  0.48122992  0.14096083  1
