# generated using pymatgen
data_Ce4MnSe6O
_symmetry_space_group_name_H-M   'P 1'
_cell_length_a   9.66467251
_cell_length_b   9.66467221
_cell_length_c   7.06773999
_cell_angle_alpha   90.00000000
_cell_angle_beta   90.00000000
_cell_angle_gamma   119.99999756
_symmetry_Int_Tables_number   1
_chemical_formula_structural   Ce4MnSe6O
_chemical_formula_sum   'Ce8 Mn2 Se12 O2'
_cell_volume   571.72275524
_cell_formula_units_Z   2
loop_
 _symmetry_equiv_pos_site_id
 _symmetry_equiv_pos_as_xyz
  1  'x, y, z'
loop_
 _atom_site_type_symbol
 _atom_site_label
 _atom_site_symmetry_multiplicity
 _atom_site_fract_x
 _atom_site_fract_y
 _atom_site_fract_z
 _atom_site_occupancy
  Ce  Ce0  1  0.66666700  0.33333300  0.70993366  1
  Ce  Ce1  1  0.59663356  0.79831678  0.65899580  1
  Ce  Ce2  1  0.79831678  0.20168322  0.15899580  1
  Ce  Ce3  1  0.40336644  0.20168322  0.15899580  1
  Ce  Ce4  1  0.79831678  0.59663356  0.15899580  1
  Ce  Ce5  1  0.33333300  0.66666700  0.20993366  1
  Ce  Ce6  1  0.20168322  0.40336644  0.65899580  1
  Ce  Ce7  1  0.20168322  0.79831678  0.65899580  1
  Mn  Mn8  1  0.00000000  0.00000000  0.99589892  1
  Mn  Mn9  1  0.00000000  0.00000000  0.49589892  1
  Se  Se10  1  0.12770861  0.87229139  0.26167493  1
  Se  Se11  1  0.12770861  0.25541823  0.26167493  1
  Se  Se12  1  0.87229139  0.12770861  0.76167493  1
  Se  Se13  1  0.52951712  0.47048288  0.44537153  1
  Se  Se14  1  0.05903424  0.52951712  0.94537153  1
  Se  Se15  1  0.25541823  0.12770861  0.76167493  1
  Se  Se16  1  0.47048288  0.52951712  0.94537153  1
  Se  Se17  1  0.47048288  0.94096576  0.94537153  1
  Se  Se18  1  0.74458177  0.87229139  0.26167493  1
  Se  Se19  1  0.87229139  0.74458177  0.76167493  1
  Se  Se20  1  0.94096576  0.47048288  0.44537153  1
  Se  Se21  1  0.52951712  0.05903424  0.44537153  1
  O  O22  1  0.66666700  0.33333300  0.04870163  1
  O  O23  1  0.33333300  0.66666700  0.54870163  1
