# generated using pymatgen
data_LiCo(PO3)3
_symmetry_space_group_name_H-M   'P 1'
_cell_length_a   9.71210780
_cell_length_b   9.43960071
_cell_length_c   9.43482207
_cell_angle_alpha   108.65477759
_cell_angle_beta   104.88937917
_cell_angle_gamma   109.43722822
_symmetry_Int_Tables_number   1
_chemical_formula_structural   LiCo(PO3)3
_chemical_formula_sum   'Li4 Co4 P12 O36'
_cell_volume   706.00849178
_cell_formula_units_Z   4
loop_
 _symmetry_equiv_pos_site_id
 _symmetry_equiv_pos_as_xyz
  1  'x, y, z'
loop_
 _atom_site_type_symbol
 _atom_site_label
 _atom_site_symmetry_multiplicity
 _atom_site_fract_x
 _atom_site_fract_y
 _atom_site_fract_z
 _atom_site_occupancy
  Li  Li0  1  0.67593293  0.84889987  0.64411883  1
  Li  Li1  1  0.49727987  0.06775037  0.65295790  1
  Li  Li2  1  0.32406707  0.15110013  0.35588117  1
  Li  Li3  1  0.50272013  0.93224963  0.34704110  1
  Co  Co4  1  0.78733109  0.70243223  0.90137457  1
  Co  Co5  1  0.72465777  0.76962911  0.25167390  1
  Co  Co6  1  0.27534223  0.23037089  0.74832610  1
  Co  Co7  1  0.21266891  0.29756777  0.09862543  1
  P  P8  1  0.40864318  0.56705511  0.69343136  1
  P  P9  1  0.29355762  0.66194196  0.42884791  1
  P  P10  1  0.16150263  0.78757782  0.05508338  1
  P  P11  1  0.89639288  0.15031331  0.51247389  1
  P  P12  1  0.64574576  0.39075221  0.99780590  1
  P  P13  1  0.10360712  0.84968669  0.48752611  1
  P  P14  1  0.35425424  0.60924779  0.00219410  1
  P  P15  1  0.92321647  0.08845344  0.18871803  1
  P  P16  1  0.59135682  0.43294489  0.30656864  1
  P  P17  1  0.70644238  0.33805804  0.57115209  1
  P  P18  1  0.07678353  0.91154656  0.81128197  1
  P  P19  1  0.83849737  0.21242218  0.94491662  1
  O  O20  1  0.50427343  0.25138956  0.84487295  1
  O  O21  1  0.25449702  0.52068097  0.27353415  1
  O  O22  1  0.64442394  0.61799278  0.36575097  1
  O  O23  1  0.06962129  0.81301723  0.63438171  1
  O  O24  1  0.37006424  0.64042723  0.84899638  1
  O  O25  1  0.28968678  0.59902697  0.56905787  1
  O  O26  1  0.44413350  0.82362931  0.49719876  1
  O  O27  1  0.35557606  0.38200722  0.63424903  1
  O  O28  1  0.99537908  0.72624057  0.04456846  1
  O  O29  1  0.19607017  0.62639683  0.99863148  1
  O  O30  1  0.90942858  0.86039859  0.80378577  1
  O  O31  1  0.00462092  0.27375943  0.95543154  1
  O  O32  1  0.04530141  0.17551082  0.63297867  1
  O  O33  1  0.49572657  0.74861044  0.15512705  1
  O  O34  1  0.82995862  0.16376505  0.09330760  1
  O  O35  1  0.42021997  0.31803282  0.26661380  1
  O  O36  1  0.09057142  0.13960141  0.19621423  1
  O  O37  1  0.70317237  0.07489049  0.78722280  1
  O  O38  1  0.86067577  0.30326424  0.59577973  1
  O  O39  1  0.17004138  0.83623495  0.90669240  1
  O  O40  1  0.55586650  0.17637069  0.50280124  1
  O  O41  1  0.93037871  0.18698177  0.36561829  1
  O  O42  1  0.71031322  0.40097303  0.43094213  1
  O  O43  1  0.18829393  0.09755292  0.88232171  1
  O  O44  1  0.74739395  0.98509560  0.44035785  1
  O  O45  1  0.67708380  0.56891686  0.03013444  1
  O  O46  1  0.74550298  0.47931903  0.72646585  1
  O  O47  1  0.25260605  0.01490440  0.55964215  1
  O  O48  1  0.81170607  0.90244708  0.11767729  1
  O  O49  1  0.62993576  0.35957277  0.15100362  1
  O  O50  1  0.13932423  0.69673576  0.40422027  1
  O  O51  1  0.57978003  0.68196718  0.73338620  1
  O  O52  1  0.32291620  0.43108314  0.96986556  1
  O  O53  1  0.80392983  0.37360317  0.00136852  1
  O  O54  1  0.29682763  0.92510951  0.21277720  1
  O  O55  1  0.95469859  0.82448918  0.36702133  1
