# generated using pymatgen
data_SiMoP3O11
_symmetry_space_group_name_H-M   'P 1'
_cell_length_a   8.63517330
_cell_length_b   8.63530678
_cell_length_c   14.46370853
_cell_angle_alpha   72.63295238
_cell_angle_beta   72.63211033
_cell_angle_gamma   60.00113176
_symmetry_Int_Tables_number   1
_chemical_formula_structural   SiMoP3O11
_chemical_formula_sum   'Si4 Mo4 P12 O44'
_cell_volume   876.79982074
_cell_formula_units_Z   4
loop_
 _symmetry_equiv_pos_site_id
 _symmetry_equiv_pos_as_xyz
  1  'x, y, z'
loop_
 _atom_site_type_symbol
 _atom_site_label
 _atom_site_symmetry_multiplicity
 _atom_site_fract_x
 _atom_site_fract_y
 _atom_site_fract_z
 _atom_site_occupancy
  Si  Si0  1  0.53924061  0.03922986  0.38228391  1
  Si  Si1  1  0.03923942  0.53923722  0.88228375  1
  Si  Si2  1  0.96076058  0.46076278  0.11771625  1
  Si  Si3  1  0.46075939  0.96077014  0.61771609  1
  Mo  Mo4  1  0.65949418  0.15947941  0.02154463  1
  Mo  Mo5  1  0.84051544  0.34051238  0.47845555  1
  Mo  Mo6  1  0.34050582  0.84052059  0.97845537  1
  Mo  Mo7  1  0.15948456  0.65948762  0.52154445  1
  P  P8  1  0.28053102  0.08877103  0.14208505  1
  P  P9  1  0.48861384  0.58876910  0.64207175  1
  P  P10  1  0.98857832  0.78055176  0.14207749  1
  P  P11  1  0.21944871  0.01140919  0.35792114  1
  P  P12  1  0.51138616  0.41123090  0.35792825  1
  P  P13  1  0.91123603  0.71945312  0.35791041  1
  P  P14  1  0.58874792  0.48861291  0.14207954  1
  P  P15  1  0.78055129  0.98859081  0.64207886  1
  P  P16  1  0.41125208  0.51138709  0.85792046  1
  P  P17  1  0.71946898  0.91122897  0.85791495  1
  P  P18  1  0.01142168  0.21944824  0.85792251  1
  P  P19  1  0.08876397  0.28054688  0.64208959  1
  O  O20  1  0.97295703  0.84751316  0.61845664  1
  O  O21  1  0.53959590  0.66887731  0.07255355  1
  O  O22  1  0.84749155  0.97295349  0.11847015  1
  O  O23  1  0.46040410  0.33112269  0.92744645  1
  O  O24  1  0.14201629  0.29186503  0.15813967  1
  O  O25  1  0.15250845  0.02704651  0.88152985  1
  O  O26  1  0.52705452  0.93894421  0.88153509  1
  O  O27  1  0.02704297  0.15248684  0.38154336  1
  O  O28  1  0.21891490  0.03963503  0.07255546  1
  O  O29  1  0.97211440  0.24998036  0.75001037  1
  O  O30  1  0.70814069  0.85797660  0.34185855  1
  O  O31  1  0.02788560  0.75001964  0.24998963  1
  O  O32  1  0.06105831  0.47295385  0.61847708  1
  O  O33  1  0.34751745  0.56106876  0.61846256  1
  O  O34  1  0.85798371  0.70813497  0.84186033  1
  O  O35  1  0.47294548  0.06105579  0.11846491  1
  O  O36  1  0.40803577  0.79184134  0.65814221  1
  O  O37  1  0.09202477  0.35799778  0.84184306  1
  O  O38  1  0.03962117  0.21894394  0.57255666  1
  O  O39  1  0.96037883  0.78105606  0.42744334  1
  O  O40  1  0.16883403  0.71896945  0.07252772  1
  O  O41  1  0.24996291  0.97212640  0.25000499  1
  O  O42  1  0.64199908  0.90798928  0.65815783  1
  O  O43  1  0.78108510  0.96036497  0.92744454  1
  O  O44  1  0.93894169  0.52704615  0.38152292  1
  O  O45  1  0.71895775  0.16885406  0.57254206  1
  O  O46  1  0.56106043  0.34751582  0.11846227  1
  O  O47  1  0.52789284  0.47212738  0.74999489  1
  O  O48  1  0.20817371  0.59195471  0.84185583  1
  O  O49  1  0.83116597  0.28103055  0.92747228  1
  O  O50  1  0.28104225  0.83114594  0.42745794  1
  O  O51  1  0.75003709  0.02787360  0.74999501  1
  O  O52  1  0.33112387  0.46037034  0.42746146  1
  O  O53  1  0.47210716  0.52787262  0.25000511  1
  O  O54  1  0.50000000  0.00000000  0.50000000  1
  O  O55  1  0.66887613  0.53962966  0.57253854  1
  O  O56  1  0.79182629  0.40804529  0.15814417  1
  O  O57  1  0.29185931  0.14202340  0.65814145  1
  O  O58  1  0.90797523  0.64200222  0.15815694  1
  O  O59  1  0.35800092  0.09201072  0.34184217  1
  O  O60  1  0.59196423  0.20815866  0.34185779  1
  O  O61  1  0.00000000  0.50000000  0.00000000  1
  O  O62  1  0.43893957  0.65248418  0.88153773  1
  O  O63  1  0.65248255  0.43893124  0.38153744  1
