# generated using pymatgen
data_Na3W3Cl13
_symmetry_space_group_name_H-M   'P 1'
_cell_length_a   9.22313165
_cell_length_b   9.22070015
_cell_length_c   25.27450236
_cell_angle_alpha   90.00000000
_cell_angle_beta   90.00000000
_cell_angle_gamma   119.12554739
_symmetry_Int_Tables_number   1
_chemical_formula_structural   Na3W3Cl13
_chemical_formula_sum   'Na12 W12 Cl52'
_cell_volume   1877.65291863
_cell_formula_units_Z   4
loop_
 _symmetry_equiv_pos_site_id
 _symmetry_equiv_pos_as_xyz
  1  'x, y, z'
loop_
 _atom_site_type_symbol
 _atom_site_label
 _atom_site_symmetry_multiplicity
 _atom_site_fract_x
 _atom_site_fract_y
 _atom_site_fract_z
 _atom_site_occupancy
  Na  Na0  1  0.65212333  0.42897362  0.25021860  1
  Na  Na1  1  0.01225178  0.40635382  0.89789157  1
  Na  Na2  1  0.98774822  0.59364618  0.10210843  1
  Na  Na3  1  0.51225178  0.90635382  0.60210843  1
  Na  Na4  1  0.68326338  0.73223389  0.89843194  1
  Na  Na5  1  0.84787667  0.07102638  0.75021860  1
  Na  Na6  1  0.31673662  0.26776611  0.10156806  1
  Na  Na7  1  0.15212333  0.92897362  0.24978140  1
  Na  Na8  1  0.48774822  0.09364618  0.39789157  1
  Na  Na9  1  0.81673662  0.76776611  0.39843194  1
  Na  Na10  1  0.34787667  0.57102638  0.74978140  1
  Na  Na11  1  0.18326338  0.23223389  0.60156806  1
  W  W12  1  0.35173693  0.24539048  0.87230013  1
  W  W13  1  0.14826307  0.25460952  0.37230013  1
  W  W14  1  0.97536374  0.42496692  0.37071857  1
  W  W15  1  0.81706609  0.09620185  0.12653070  1
  W  W16  1  0.47536374  0.92496692  0.12928143  1
  W  W17  1  0.52463626  0.07503308  0.87071857  1
  W  W18  1  0.64826307  0.75460952  0.12769987  1
  W  W19  1  0.31706609  0.59620185  0.37346930  1
  W  W20  1  0.68293391  0.40379815  0.62653070  1
  W  W21  1  0.85173693  0.74539048  0.62769987  1
  W  W22  1  0.18293391  0.90379815  0.87346930  1
  W  W23  1  0.02463626  0.57503308  0.62928143  1
  Cl  Cl24  1  0.04878382  0.97452267  0.67998199  1
  Cl  Cl25  1  0.95121618  0.02547733  0.32001801  1
  Cl  Cl26  1  0.86117343  0.37467611  0.56248865  1
  Cl  Cl27  1  0.94065987  0.22086822  0.43678547  1
  Cl  Cl28  1  0.14979727  0.03094722  0.42775844  1
  Cl  Cl29  1  0.85488909  0.72524208  0.17968117  1
  Cl  Cl30  1  0.64979727  0.53094722  0.07224156  1
  Cl  Cl31  1  0.13882657  0.62532389  0.43751135  1
  Cl  Cl32  1  0.74933722  0.22404106  0.31846470  1
  Cl  Cl33  1  0.53385508  0.81573322  0.43172094  1
  Cl  Cl34  1  0.65320625  0.16991233  0.67631919  1
  Cl  Cl35  1  0.44065987  0.72086822  0.06321453  1
  Cl  Cl36  1  0.84719345  0.57202114  0.70046461  1
  Cl  Cl37  1  0.55319849  0.62568083  0.32494033  1
  Cl  Cl38  1  0.94671012  0.62952233  0.31720531  1
  Cl  Cl39  1  0.05319849  0.12568083  0.17505967  1
  Cl  Cl40  1  0.25182142  0.57280502  0.57662119  1
  Cl  Cl41  1  0.75066278  0.27595894  0.81846470  1
  Cl  Cl42  1  0.55328988  0.87047767  0.81720531  1
  Cl  Cl43  1  0.24933722  0.72404106  0.18153530  1
  Cl  Cl44  1  0.84679375  0.33008767  0.17631919  1
  Cl  Cl45  1  0.96614492  0.68426678  0.93172094  1
  Cl  Cl46  1  0.85020273  0.96905278  0.57224156  1
  Cl  Cl47  1  0.94680151  0.87431917  0.82494033  1
  Cl  Cl48  1  0.45121618  0.52547733  0.17998199  1
  Cl  Cl49  1  0.44671012  0.12952233  0.18279469  1
  Cl  Cl50  1  0.35488909  0.22524208  0.32031883  1
  Cl  Cl51  1  0.36117343  0.87467611  0.93751135  1
  Cl  Cl52  1  0.63882657  0.12532389  0.06248865  1
  Cl  Cl53  1  0.25066278  0.77595894  0.68153530  1
  Cl  Cl54  1  0.34679375  0.83008767  0.32368081  1
  Cl  Cl55  1  0.03385508  0.31573322  0.06827906  1
  Cl  Cl56  1  0.54878382  0.47452267  0.82001801  1
  Cl  Cl57  1  0.65477325  0.57816678  0.56047279  1
  Cl  Cl58  1  0.24817858  0.92719498  0.07662119  1
  Cl  Cl59  1  0.15477325  0.07816678  0.93952721  1
  Cl  Cl60  1  0.55934013  0.27913178  0.93678547  1
  Cl  Cl61  1  0.05328988  0.37047767  0.68279469  1
  Cl  Cl62  1  0.65280655  0.92797886  0.20046461  1
  Cl  Cl63  1  0.35020273  0.46905278  0.92775844  1
  Cl  Cl64  1  0.15280655  0.42797886  0.29953539  1
  Cl  Cl65  1  0.75182142  0.07280502  0.92337881  1
  Cl  Cl66  1  0.34522675  0.42183322  0.43952721  1
  Cl  Cl67  1  0.05934013  0.77913178  0.56321453  1
  Cl  Cl68  1  0.15320625  0.66991233  0.82368081  1
  Cl  Cl69  1  0.64511091  0.77475792  0.67968117  1
  Cl  Cl70  1  0.46614492  0.18426678  0.56827906  1
  Cl  Cl71  1  0.74817858  0.42719498  0.42337881  1
  Cl  Cl72  1  0.34719345  0.07202114  0.79953539  1
  Cl  Cl73  1  0.14511091  0.27475792  0.82031883  1
  Cl  Cl74  1  0.84522675  0.92183322  0.06047279  1
  Cl  Cl75  1  0.44680151  0.37431917  0.67505967  1
