# generated using pymatgen
data_Co(PO3)3
_symmetry_space_group_name_H-M   'P 1'
_cell_length_a   5.12031204
_cell_length_b   11.92702271
_cell_length_c   12.94471189
_cell_angle_alpha   90.00000000
_cell_angle_beta   90.00000000
_cell_angle_gamma   90.00000000
_symmetry_Int_Tables_number   1
_chemical_formula_structural   Co(PO3)3
_chemical_formula_sum   'Co4 P12 O36'
_cell_volume   790.53456459
_cell_formula_units_Z   4
loop_
 _symmetry_equiv_pos_site_id
 _symmetry_equiv_pos_as_xyz
  1  'x, y, z'
loop_
 _atom_site_type_symbol
 _atom_site_label
 _atom_site_symmetry_multiplicity
 _atom_site_fract_x
 _atom_site_fract_y
 _atom_site_fract_z
 _atom_site_occupancy
  Co  Co0  1  0.00000000  0.00000000  0.00000000  1
  Co  Co1  1  0.00000000  0.00000000  0.50000000  1
  Co  Co2  1  0.00000000  0.50000000  0.00000000  1
  Co  Co3  1  0.00000000  0.50000000  0.50000000  1
  P  P4  1  0.23928315  0.75000000  0.00000000  1
  P  P5  1  0.23928315  0.75000000  0.50000000  1
  P  P6  1  0.49596151  0.08341259  0.63157380  1
  P  P7  1  0.49596151  0.08341259  0.86842620  1
  P  P8  1  0.49596151  0.41658741  0.13157380  1
  P  P9  1  0.49596151  0.41658741  0.36842620  1
  P  P10  1  0.50403849  0.58341259  0.63157380  1
  P  P11  1  0.50403849  0.58341259  0.86842620  1
  P  P12  1  0.50403849  0.91658741  0.13157380  1
  P  P13  1  0.50403849  0.91658741  0.36842620  1
  P  P14  1  0.76071685  0.25000000  0.00000000  1
  P  P15  1  0.76071685  0.25000000  0.50000000  1
  O  O16  1  0.08752225  0.65397573  0.04567148  1
  O  O17  1  0.08752225  0.65397573  0.45432852  1
  O  O18  1  0.08752225  0.84602427  0.54567148  1
  O  O19  1  0.08752225  0.84602427  0.95432852  1
  O  O20  1  0.20824775  0.06093988  0.61846034  1
  O  O21  1  0.20824775  0.06093988  0.88153966  1
  O  O22  1  0.20824775  0.43906012  0.11846034  1
  O  O23  1  0.20824775  0.43906012  0.38153966  1
  O  O24  1  0.31617131  0.00317774  0.09125171  1
  O  O25  1  0.31617131  0.00317774  0.40874829  1
  O  O26  1  0.31617131  0.49682226  0.59125171  1
  O  O27  1  0.31617131  0.49682226  0.90874829  1
  O  O28  1  0.43847872  0.70613028  0.58662725  1
  O  O29  1  0.43847872  0.70613028  0.91337275  1
  O  O30  1  0.43847872  0.79386972  0.08662725  1
  O  O31  1  0.43847872  0.79386972  0.41337275  1
  O  O32  1  0.44377416  0.60814034  0.75000000  1
  O  O33  1  0.44377416  0.89185966  0.25000000  1
  O  O34  1  0.55622584  0.10814034  0.75000000  1
  O  O35  1  0.55622584  0.39185966  0.25000000  1
  O  O36  1  0.56152128  0.20613028  0.58662725  1
  O  O37  1  0.56152128  0.20613028  0.91337275  1
  O  O38  1  0.56152128  0.29386972  0.08662725  1
  O  O39  1  0.56152128  0.29386972  0.41337275  1
  O  O40  1  0.68382869  0.99682226  0.59125171  1
  O  O41  1  0.68382869  0.99682226  0.90874829  1
  O  O42  1  0.68382869  0.50317774  0.09125171  1
  O  O43  1  0.68382869  0.50317774  0.40874829  1
  O  O44  1  0.79175225  0.56093988  0.61846034  1
  O  O45  1  0.79175225  0.56093988  0.88153966  1
  O  O46  1  0.79175225  0.93906012  0.11846034  1
  O  O47  1  0.79175225  0.93906012  0.38153966  1
  O  O48  1  0.91247775  0.15397573  0.04567148  1
  O  O49  1  0.91247775  0.15397573  0.45432852  1
  O  O50  1  0.91247775  0.34602427  0.54567148  1
  O  O51  1  0.91247775  0.34602427  0.95432852  1
