# generated using pymatgen
data_Zr7P4
_symmetry_space_group_name_H-M   'P 1'
_cell_length_a   3.62934703
_cell_length_b   8.16755961
_cell_length_c   14.82302031
_cell_angle_alpha   104.51233176
_cell_angle_beta   90.00000000
_cell_angle_gamma   102.83714404
_symmetry_Int_Tables_number   1
_chemical_formula_structural   Zr7P4
_chemical_formula_sum   'Zr14 P8'
_cell_volume   414.02366827
_cell_formula_units_Z   2
loop_
 _symmetry_equiv_pos_site_id
 _symmetry_equiv_pos_as_xyz
  1  'x, y, z'
loop_
 _atom_site_type_symbol
 _atom_site_label
 _atom_site_symmetry_multiplicity
 _atom_site_fract_x
 _atom_site_fract_y
 _atom_site_fract_z
 _atom_site_occupancy
  Zr  Zr0  1  0.65982347  0.31964694  0.97054946  1
  Zr  Zr1  1  0.00440668  0.00881337  0.66753245  1
  Zr  Zr2  1  0.82411881  0.64823762  0.45859784  1
  Zr  Zr3  1  0.17588119  0.35176238  0.54140216  1
  Zr  Zr4  1  0.43183913  0.86367826  0.83121318  1
  Zr  Zr5  1  0.00000000  0.00000000  0.00000000  1
  Zr  Zr6  1  0.56816087  0.13632174  0.16878682  1
  Zr  Zr7  1  0.20507085  0.41014171  0.79697638  1
  Zr  Zr8  1  0.99559332  0.99118663  0.33246755  1
  Zr  Zr9  1  0.19603533  0.39207065  0.31073504  1
  Zr  Zr10  1  0.79492915  0.58985829  0.20302362  1
  Zr  Zr11  1  0.80396467  0.60792935  0.68926496  1
  Zr  Zr12  1  0.34017653  0.68035306  0.02945054  1
  Zr  Zr13  1  0.50000000  0.00000000  0.50000000  1
  P  P14  1  0.37472033  0.74944066  0.60190580  1
  P  P15  1  0.06303075  0.12606150  0.85247776  1
  P  P16  1  0.62527967  0.25055934  0.39809420  1
  P  P17  1  0.63039393  0.26078786  0.65964713  1
  P  P18  1  0.93696925  0.87393850  0.14752224  1
  P  P19  1  0.17657685  0.35315370  0.11200625  1
  P  P20  1  0.36960607  0.73921214  0.34035287  1
  P  P21  1  0.82342315  0.64684630  0.88799375  1
