# generated using pymatgen
data_Na2Gd2B2O7
_symmetry_space_group_name_H-M   'P 1'
_cell_length_a   6.37159622
_cell_length_b   10.43595481
_cell_length_c   10.75874370
_cell_angle_alpha   117.89697957
_cell_angle_beta   90.00000000
_cell_angle_gamma   90.00000000
_symmetry_Int_Tables_number   1
_chemical_formula_structural   Na2Gd2B2O7
_chemical_formula_sum   'Na8 Gd8 B8 O28'
_cell_volume   632.25347683
_cell_formula_units_Z   4
loop_
 _symmetry_equiv_pos_site_id
 _symmetry_equiv_pos_as_xyz
  1  'x, y, z'
loop_
 _atom_site_type_symbol
 _atom_site_label
 _atom_site_symmetry_multiplicity
 _atom_site_fract_x
 _atom_site_fract_y
 _atom_site_fract_z
 _atom_site_occupancy
  Na  Na0  1  0.55805247  0.75924094  0.52339833  1
  Na  Na1  1  0.05805247  0.74075906  0.47660167  1
  Na  Na2  1  0.22428350  0.54799953  0.61008453  1
  Na  Na3  1  0.94194753  0.25924094  0.52339833  1
  Na  Na4  1  0.72428350  0.95200047  0.38991547  1
  Na  Na5  1  0.27571650  0.04799953  0.61008453  1
  Na  Na6  1  0.77571650  0.45200047  0.38991547  1
  Na  Na7  1  0.44194753  0.24075906  0.47660167  1
  Gd  Gd8  1  0.04252445  0.68161195  0.98320771  1
  Gd  Gd9  1  0.58100354  0.41182163  0.81513905  1
  Gd  Gd10  1  0.45747555  0.18161195  0.98320771  1
  Gd  Gd11  1  0.08100354  0.08817837  0.18486095  1
  Gd  Gd12  1  0.95747555  0.31838805  0.01679229  1
  Gd  Gd13  1  0.54252445  0.81838805  0.01679229  1
  Gd  Gd14  1  0.41899646  0.58817837  0.18486095  1
  Gd  Gd15  1  0.91899646  0.91182163  0.81513905  1
  B  B16  1  0.75364008  0.57800623  0.68280011  1
  B  B17  1  0.84826513  0.65018634  0.20953913  1
  B  B18  1  0.15173487  0.34981366  0.79046087  1
  B  B19  1  0.74635992  0.07800623  0.68280011  1
  B  B20  1  0.65173487  0.15018634  0.20953913  1
  B  B21  1  0.34826513  0.84981366  0.79046087  1
  B  B22  1  0.24635992  0.42199377  0.31719989  1
  B  B23  1  0.25364008  0.92199377  0.31719989  1
  O  O24  1  0.62192951  0.40187626  0.02478384  1
  O  O25  1  0.26360771  0.36842696  0.16955288  1
  O  O26  1  0.54079886  0.91158200  0.84949843  1
  O  O27  1  0.74517790  0.73045035  0.15335528  1
  O  O28  1  0.64635790  0.15927459  0.62990878  1
  O  O29  1  0.14635790  0.34072541  0.37009122  1
  O  O30  1  0.12192951  0.09812374  0.97521616  1
  O  O31  1  0.17004896  0.05792661  0.39928279  1
  O  O32  1  0.76360771  0.13157304  0.83044712  1
  O  O33  1  0.24517790  0.76954965  0.84664472  1
  O  O34  1  0.24365849  0.36614869  0.68393667  1
  O  O35  1  0.87807049  0.90187626  0.02478384  1
  O  O36  1  0.37807049  0.59812374  0.97521616  1
  O  O37  1  0.75482210  0.23045035  0.15335528  1
  O  O38  1  0.35364210  0.84072541  0.37009122  1
  O  O39  1  0.25634151  0.86614869  0.68393667  1
  O  O40  1  0.23639229  0.86842696  0.16955288  1
  O  O41  1  0.45920114  0.08841800  0.15050157  1
  O  O42  1  0.75634151  0.63385131  0.31606333  1
  O  O43  1  0.82995104  0.94207339  0.60071721  1
  O  O44  1  0.04079886  0.58841800  0.15050157  1
  O  O45  1  0.74365849  0.13385131  0.31606333  1
  O  O46  1  0.95920114  0.41158200  0.84949843  1
  O  O47  1  0.67004896  0.44207339  0.60071721  1
  O  O48  1  0.32995104  0.55792661  0.39928279  1
  O  O49  1  0.25482210  0.26954965  0.84664472  1
  O  O50  1  0.85364210  0.65927459  0.62990878  1
  O  O51  1  0.73639229  0.63157304  0.83044712  1
