# generated using pymatgen
data_Yb7Al5Ge8
_symmetry_space_group_name_H-M   'P 1'
_cell_length_a   4.25791876
_cell_length_b   8.31129518
_cell_length_c   12.85658899
_cell_angle_alpha   95.49312548
_cell_angle_beta   90.00000000
_cell_angle_gamma   104.84188935
_symmetry_Int_Tables_number   1
_chemical_formula_structural   Yb7Al5Ge8
_chemical_formula_sum   'Yb7 Al5 Ge8'
_cell_volume   437.63786925
_cell_formula_units_Z   1
loop_
 _symmetry_equiv_pos_site_id
 _symmetry_equiv_pos_as_xyz
  1  'x, y, z'
loop_
 _atom_site_type_symbol
 _atom_site_label
 _atom_site_symmetry_multiplicity
 _atom_site_fract_x
 _atom_site_fract_y
 _atom_site_fract_z
 _atom_site_occupancy
  Yb  Yb0  1  0.84008832  0.68017664  0.45758159  1
  Yb  Yb1  1  0.81125204  0.62250409  0.13366281  1
  Yb  Yb2  1  0.98252679  0.96505358  0.70156893  1
  Yb  Yb3  1  0.01747321  0.03494642  0.29843107  1
  Yb  Yb4  1  0.00000000  0.00000000  0.00000000  1
  Yb  Yb5  1  0.15991168  0.31982336  0.54241841  1
  Yb  Yb6  1  0.18874796  0.37749591  0.86633719  1
  Al  Al7  1  0.77597905  0.55195810  0.69835264  1
  Al  Al8  1  0.22402095  0.44804190  0.30164736  1
  Al  Al9  1  0.39107769  0.78215538  0.82899307  1
  Al  Al10  1  0.60892231  0.21784462  0.17100693  1
  Al  Al11  1  0.50000000  0.00000000  0.50000000  1
  Ge  Ge12  1  0.17595674  0.35191348  0.10543060  1
  Ge  Ge13  1  0.65181050  0.30362101  0.37995992  1
  Ge  Ge14  1  0.82404326  0.64808652  0.89456940  1
  Ge  Ge15  1  0.55349990  0.10699980  0.85916826  1
  Ge  Ge16  1  0.44650010  0.89300020  0.14083174  1
  Ge  Ge17  1  0.61285338  0.22570676  0.68412985  1
  Ge  Ge18  1  0.38714662  0.77429324  0.31587015  1
  Ge  Ge19  1  0.34818950  0.69637899  0.62004008  1
