# generated using pymatgen
data_Cs7Np3(Cl2O)6
_symmetry_space_group_name_H-M   'P 1'
_cell_length_a   13.35161683
_cell_length_b   13.35161683
_cell_length_c   13.35161683
_cell_angle_alpha   109.47122063
_cell_angle_beta   109.47122063
_cell_angle_gamma   109.47122063
_symmetry_Int_Tables_number   1
_chemical_formula_structural   Cs7Np3(Cl2O)6
_chemical_formula_sum   'Cs14 Np6 Cl24 O12'
_cell_volume   1832.22873517
_cell_formula_units_Z   2
loop_
 _symmetry_equiv_pos_site_id
 _symmetry_equiv_pos_as_xyz
  1  'x, y, z'
loop_
 _atom_site_type_symbol
 _atom_site_label
 _atom_site_symmetry_multiplicity
 _atom_site_fract_x
 _atom_site_fract_y
 _atom_site_fract_z
 _atom_site_occupancy
  Cs  Cs0  1  0.20209724  0.00000000  0.50000000  1
  Cs  Cs1  1  0.00000000  0.50000000  0.20209724  1
  Cs  Cs2  1  0.50000000  0.20209724  -0.00000000  1
  Cs  Cs3  1  0.29790276  0.29790276  0.29790276  1
  Cs  Cs4  1  -0.00000000  0.50000000  0.70209724  1
  Cs  Cs5  1  0.70209724  -0.00000000  0.50000000  1
  Cs  Cs6  1  0.50000000  0.70209724  -0.00000000  1
  Cs  Cs7  1  0.79790276  0.79790276  0.79790276  1
  Cs  Cs8  1  0.37500000  0.75000000  0.62500000  1
  Cs  Cs9  1  0.12500000  0.25000000  0.87500000  1
  Cs  Cs10  1  0.75000000  0.62500000  0.37500000  1
  Cs  Cs11  1  0.25000000  0.87500000  0.12500000  1
  Cs  Cs12  1  0.62500000  0.37500000  0.75000000  1
  Cs  Cs13  1  0.87500000  0.12500000  0.25000000  1
  Np  Np14  1  0.62500000  0.25000000  0.37500000  1
  Np  Np15  1  0.87500000  0.75000000  0.12500000  1
  Np  Np16  1  0.25000000  0.37500000  0.62500000  1
  Np  Np17  1  0.75000000  0.12500000  0.87500000  1
  Np  Np18  1  0.37500000  0.62500000  0.25000000  1
  Np  Np19  1  0.12500000  0.87500000  0.75000000  1
  Cl  Cl20  1  0.69029505  0.47393974  0.54509598  1
  Cl  Cl21  1  0.57115624  0.02606026  0.21635531  1
  Cl  Cl22  1  0.92884376  0.64519907  0.95490402  1
  Cl  Cl23  1  0.80970495  0.85480093  0.28364469  1
  Cl  Cl24  1  0.04509598  0.97393974  0.19029505  1
  Cl  Cl25  1  0.71635531  0.52606026  0.07115624  1
  Cl  Cl26  1  0.45490402  0.14519907  0.42884376  1
  Cl  Cl27  1  0.78364469  0.35480093  0.30970495  1
  Cl  Cl28  1  0.47393974  0.54509598  0.69029505  1
  Cl  Cl29  1  0.02606026  0.21635531  0.57115624  1
  Cl  Cl30  1  0.64519907  0.95490402  0.92884376  1
  Cl  Cl31  1  0.85480093  0.28364469  0.80970495  1
  Cl  Cl32  1  0.97393974  0.19029505  0.04509598  1
  Cl  Cl33  1  0.52606026  0.07115624  0.71635531  1
  Cl  Cl34  1  0.14519907  0.42884376  0.45490402  1
  Cl  Cl35  1  0.35480093  0.30970495  0.78364469  1
  Cl  Cl36  1  0.54509598  0.69029505  0.47393974  1
  Cl  Cl37  1  0.21635531  0.57115624  0.02606026  1
  Cl  Cl38  1  0.95490402  0.92884376  0.64519907  1
  Cl  Cl39  1  0.28364469  0.80970495  0.85480093  1
  Cl  Cl40  1  0.19029505  0.04509598  0.97393974  1
  Cl  Cl41  1  0.07115624  0.71635531  0.52606026  1
  Cl  Cl42  1  0.42884376  0.45490402  0.14519907  1
  Cl  Cl43  1  0.30970495  0.78364469  0.35480093  1
  O  O44  1  0.74240799  0.25000000  0.49240799  1
  O  O45  1  0.75759201  0.75000000  0.00759201  1
  O  O46  1  0.99240799  0.75000000  0.24240799  1
  O  O47  1  0.50759201  0.25000000  0.25759201  1
  O  O48  1  0.25000000  0.49240799  0.74240799  1
  O  O49  1  0.75000000  0.00759201  0.75759201  1
  O  O50  1  0.75000000  0.24240799  0.99240799  1
  O  O51  1  0.25000000  0.25759201  0.50759201  1
  O  O52  1  0.49240799  0.74240799  0.25000000  1
  O  O53  1  0.00759201  0.75759201  0.75000000  1
  O  O54  1  0.24240799  0.99240799  0.75000000  1
  O  O55  1  0.25759201  0.50759201  0.25000000  1
