# generated using pymatgen
data_Gd2MoO6
_symmetry_space_group_name_H-M   'P 1'
_cell_length_a   5.47713958
_cell_length_b   10.07504320
_cell_length_c   10.07504316
_cell_angle_alpha   68.23311253
_cell_angle_beta   75.07873222
_cell_angle_gamma   75.07873379
_symmetry_Int_Tables_number   1
_chemical_formula_structural   Gd2MoO6
_chemical_formula_sum   'Gd8 Mo4 O24'
_cell_volume   490.71739428
_cell_formula_units_Z   4
loop_
 _symmetry_equiv_pos_site_id
 _symmetry_equiv_pos_as_xyz
  1  'x, y, z'
loop_
 _atom_site_type_symbol
 _atom_site_label
 _atom_site_symmetry_multiplicity
 _atom_site_fract_x
 _atom_site_fract_y
 _atom_site_fract_z
 _atom_site_occupancy
  Gd  Gd0  1  0.38041277  0.21494188  0.44694679  1
  Gd  Gd1  1  0.61958723  0.78505812  0.55305321  1
  Gd  Gd2  1  0.75000000  0.39147250  0.60852750  1
  Gd  Gd3  1  0.25000000  0.60852750  0.39147250  1
  Gd  Gd4  1  0.88041277  0.44694679  0.21494188  1
  Gd  Gd5  1  0.75000000  0.86464425  0.13535575  1
  Gd  Gd6  1  0.11958723  0.55305321  0.78505812  1
  Gd  Gd7  1  0.25000000  0.13535575  0.86464425  1
  Mo  Mo8  1  0.44027370  0.70359228  0.98882865  1
  Mo  Mo9  1  0.55972630  0.29640772  0.01117135  1
  Mo  Mo10  1  0.05972630  0.01117135  0.29640772  1
  Mo  Mo11  1  0.94027370  0.98882865  0.70359228  1
  O  O12  1  0.42152470  0.60881214  0.57473049  1
  O  O13  1  0.25936876  0.43095771  0.02483169  1
  O  O14  1  0.13734573  0.18051055  0.28803488  1
  O  O15  1  0.86532386  0.32690755  0.88418617  1
  O  O16  1  0.36532386  0.88418617  0.32690755  1
  O  O17  1  0.13467614  0.67309245  0.11581383  1
  O  O18  1  0.36265427  0.71196512  0.81948945  1
  O  O19  1  0.75936876  0.02483169  0.43095771  1
  O  O20  1  0.07847530  0.42526951  0.39118786  1
  O  O21  1  0.74063124  0.56904229  0.97516831  1
  O  O22  1  0.48431910  0.88723998  0.95269354  1
  O  O23  1  0.91468464  0.80916116  0.33697661  1
  O  O24  1  0.08531536  0.19083884  0.66302339  1
  O  O25  1  0.58531536  0.66302339  0.19083884  1
  O  O26  1  0.63467614  0.11581383  0.67309245  1
  O  O27  1  0.01568090  0.04730646  0.11276002  1
  O  O28  1  0.51568090  0.11276002  0.04730646  1
  O  O29  1  0.41468464  0.33697661  0.80916116  1
  O  O30  1  0.63734573  0.28803488  0.18051055  1
  O  O31  1  0.98431910  0.95269354  0.88723998  1
  O  O32  1  0.86265427  0.81948945  0.71196512  1
  O  O33  1  0.57847530  0.39118786  0.42526951  1
  O  O34  1  0.92152470  0.57473049  0.60881214  1
  O  O35  1  0.24063124  0.97516831  0.56904229  1
