# generated using pymatgen
data_Rb7Th2(P2Se7)3
_symmetry_space_group_name_H-M   'P 1'
_cell_length_a   11.82626855
_cell_length_b   12.66202719
_cell_length_c   16.53794973
_cell_angle_alpha   86.77197763
_cell_angle_beta   75.68141275
_cell_angle_gamma   86.86471480
_symmetry_Int_Tables_number   1
_chemical_formula_structural   Rb7Th2(P2Se7)3
_chemical_formula_sum   'Rb14 Th4 P12 Se42'
_cell_volume   2393.60199645
_cell_formula_units_Z   2
loop_
 _symmetry_equiv_pos_site_id
 _symmetry_equiv_pos_as_xyz
  1  'x, y, z'
loop_
 _atom_site_type_symbol
 _atom_site_label
 _atom_site_symmetry_multiplicity
 _atom_site_fract_x
 _atom_site_fract_y
 _atom_site_fract_z
 _atom_site_occupancy
  Rb  Rb0  1  0.52634873  0.99636357  0.17634421  1
  Rb  Rb1  1  0.41170638  0.83572025  0.59117666  1
  Rb  Rb2  1  0.06695080  0.16941640  0.89457997  1
  Rb  Rb3  1  0.63658193  0.29144009  0.98964584  1
  Rb  Rb4  1  0.95945899  0.98454310  0.65421264  1
  Rb  Rb5  1  0.27365858  0.50873556  0.74881021  1
  Rb  Rb6  1  0.58829362  0.16427975  0.40882334  1
  Rb  Rb7  1  0.72634142  0.49126444  0.25118979  1
  Rb  Rb8  1  0.71340117  0.30608657  0.67780809  1
  Rb  Rb9  1  0.36341807  0.70855991  0.01035416  1
  Rb  Rb10  1  0.93304920  0.83058360  0.10542003  1
  Rb  Rb11  1  0.04054101  0.01545690  0.34578736  1
  Rb  Rb12  1  0.47365127  0.00363643  0.82365579  1
  Rb  Rb13  1  0.28659883  0.69391343  0.32219191  1
  Th  Th14  1  0.19883817  0.36200858  0.49020391  1
  Th  Th15  1  0.14224958  0.31645466  0.14918929  1
  Th  Th16  1  0.85775042  0.68354534  0.85081071  1
  Th  Th17  1  0.80116183  0.63799142  0.50979609  1
  P  P18  1  0.59947540  0.65681316  0.74846577  1
  P  P19  1  0.22000396  0.02512275  0.08544411  1
  P  P20  1  0.42304844  0.22069391  0.64901223  1
  P  P21  1  0.91841232  0.46495352  0.99227980  1
  P  P22  1  0.40052460  0.34318684  0.25153423  1
  P  P23  1  0.07344900  0.63921029  0.59312963  1
  P  P24  1  0.74728226  0.84767192  0.35966032  1
  P  P25  1  0.92655100  0.36078971  0.40687037  1
  P  P26  1  0.08158768  0.53504648  0.00772020  1
  P  P27  1  0.57695156  0.77930609  0.35098777  1
  P  P28  1  0.25271774  0.15232808  0.64033968  1
  P  P29  1  0.77999604  0.97487725  0.91455589  1
  Se  Se30  1  0.95861792  0.50099311  0.61213558  1
  Se  Se31  1  0.74531199  0.41938781  0.46255829  1
  Se  Se32  1  0.43262265  0.35317417  0.55195142  1
  Se  Se33  1  0.26862562  0.12827861  0.50494635  1
  Se  Se34  1  0.92209765  0.28509793  0.28932476  1
  Se  Se35  1  0.01172275  0.76076784  0.50858449  1
  Se  Se36  1  0.56936650  0.25899951  0.21192013  1
  Se  Se37  1  0.59966805  0.73280841  0.22242814  1
  Se  Se38  1  0.25468801  0.58061219  0.53744171  1
  Se  Se39  1  0.43829150  0.90184251  0.38717776  1
  Se  Se40  1  0.25909238  0.90353765  0.17691796  1
  Se  Se41  1  0.40629767  0.44636132  0.35570567  1
  Se  Se42  1  0.35972629  0.43188991  0.14014978  1
  Se  Se43  1  0.73137438  0.87172139  0.49505365  1
  Se  Se44  1  0.04580153  0.10542503  0.14247289  1
  Se  Se45  1  0.43063350  0.74100049  0.78807987  1
  Se  Se46  1  0.66364143  0.83430396  0.93237465  1
  Se  Se47  1  0.07790235  0.71490207  0.71067524  1
  Se  Se48  1  0.08924759  0.68315797  0.93061452  1
  Se  Se49  1  0.12192444  0.28802578  0.67090766  1
  Se  Se50  1  0.78659063  0.04771761  0.02935701  1
  Se  Se51  1  0.77725949  0.58940811  0.02799818  1
  Se  Se52  1  0.40033195  0.26719159  0.77757186  1
  Se  Se53  1  0.95419847  0.89457497  0.85752711  1
  Se  Se54  1  0.78604431  0.98713122  0.27771704  1
  Se  Se55  1  0.64027371  0.56811009  0.85985022  1
  Se  Se56  1  0.33635857  0.16569604  0.06762535  1
  Se  Se57  1  0.22274051  0.41059189  0.97200182  1
  Se  Se58  1  0.56737735  0.64682583  0.44804858  1
  Se  Se59  1  0.76220804  0.74868654  0.69220557  1
  Se  Se60  1  0.21395569  0.01286878  0.72228296  1
  Se  Se61  1  0.04138208  0.49900689  0.38786442  1
  Se  Se62  1  0.23779196  0.25131346  0.30779443  1
  Se  Se63  1  0.94672549  0.44689558  0.85633365  1
  Se  Se64  1  0.91075241  0.31684203  0.06938548  1
  Se  Se65  1  0.56170850  0.09815749  0.61282224  1
  Se  Se66  1  0.21340937  0.95228239  0.97064299  1
  Se  Se67  1  0.74090762  0.09646235  0.82308204  1
  Se  Se68  1  0.05327451  0.55310442  0.14366635  1
  Se  Se69  1  0.59370233  0.55363868  0.64429433  1
  Se  Se70  1  0.98827725  0.23923216  0.49141551  1
  Se  Se71  1  0.87807556  0.71197422  0.32909234  1
