# generated using pymatgen
data_Tb3Ga5O12
_symmetry_space_group_name_H-M   'P 1'
_cell_length_a   10.77623348
_cell_length_b   10.77623349
_cell_length_c   10.77623349
_cell_angle_alpha   109.47122064
_cell_angle_beta   109.47122065
_cell_angle_gamma   109.47122061
_symmetry_Int_Tables_number   1
_chemical_formula_structural   Tb3Ga5O12
_chemical_formula_sum   'Tb12 Ga20 O48'
_cell_volume   963.33887662
_cell_formula_units_Z   4
loop_
 _symmetry_equiv_pos_site_id
 _symmetry_equiv_pos_as_xyz
  1  'x, y, z'
loop_
 _atom_site_type_symbol
 _atom_site_label
 _atom_site_symmetry_multiplicity
 _atom_site_fract_x
 _atom_site_fract_y
 _atom_site_fract_z
 _atom_site_occupancy
  O  O0  1  0.29443782  0.47196014  0.37705302  1
  O  O1  1  0.02803986  0.32247769  0.90509288  1
  O  O2  1  0.12294698  0.59490712  0.91738480  1
  O  O3  1  0.20556218  0.58261520  0.17752231  1
  O  O4  1  0.20556218  0.12294698  0.02803986  1
  O  O5  1  0.58261520  0.17752231  0.20556218  1
  O  O6  1  0.59490712  0.17752231  0.47196014  1
  O  O7  1  0.17752231  0.20556218  0.58261520  1
  O  O8  1  0.90509288  0.37705302  0.58261520  1
  O  O9  1  0.32247769  0.91738480  0.29443782  1
  O  O10  1  0.91738480  0.29443782  0.32247769  1
  O  O11  1  0.02803986  0.20556218  0.12294698  1
  O  O12  1  0.17752231  0.47196014  0.59490712  1
  O  O13  1  0.58261520  0.90509288  0.37705302  1
  O  O14  1  0.12294698  0.02803986  0.20556218  1
  O  O15  1  0.47196014  0.59490712  0.17752231  1
  O  O16  1  0.37705302  0.58261520  0.90509288  1
  O  O17  1  0.90509288  0.02803986  0.32247769  1
  O  O18  1  0.59490712  0.91738480  0.12294698  1
  O  O19  1  0.09490712  0.62294698  0.41738480  1
  O  O20  1  0.91738480  0.12294698  0.59490712  1
  O  O21  1  0.37705302  0.29443782  0.47196014  1
  O  O22  1  0.32247769  0.90509288  0.02803986  1
  O  O23  1  0.29443782  0.32247769  0.91738480  1
  O  O24  1  0.70556218  0.52803986  0.62294698  1
  O  O25  1  0.97196014  0.67752231  0.09490712  1
  O  O26  1  0.87705302  0.40509288  0.08261520  1
  O  O27  1  0.79443782  0.41738480  0.82247769  1
  O  O28  1  0.79443782  0.87705302  0.97196014  1
  O  O29  1  0.41738480  0.82247769  0.79443782  1
  O  O30  1  0.40509288  0.82247769  0.52803986  1
  O  O31  1  0.82247769  0.79443782  0.41738480  1
  O  O32  1  0.70556218  0.67752231  0.08261520  1
  O  O33  1  0.67752231  0.09490712  0.97196014  1
  O  O34  1  0.62294698  0.70556218  0.52803986  1
  O  O35  1  0.52803986  0.62294698  0.70556218  1
  O  O36  1  0.08261520  0.87705302  0.40509288  1
  O  O37  1  0.40509288  0.08261520  0.87705302  1
  O  O38  1  0.09490712  0.97196014  0.67752231  1
  O  O39  1  0.62294698  0.41738480  0.09490712  1
  O  O40  1  0.52803986  0.40509288  0.82247769  1
  O  O41  1  0.87705302  0.97196014  0.79443782  1
  O  O42  1  0.41738480  0.09490712  0.62294698  1
  O  O43  1  0.82247769  0.52803986  0.40509288  1
  O  O44  1  0.97196014  0.79443782  0.87705302  1
  O  O45  1  0.08261520  0.70556218  0.67752231  1
  O  O46  1  0.67752231  0.08261520  0.70556218  1
  O  O47  1  0.47196014  0.37705302  0.29443782  1
  Ga  Ga48  1  0.25000000  0.12500000  0.87500000  1
  Ga  Ga49  1  0.75000000  0.87500000  0.12500000  1
  Ga  Ga50  1  0.37500000  0.25000000  0.62500000  1
  Ga  Ga51  1  0.62500000  0.37500000  0.25000000  1
  Ga  Ga52  1  0.12500000  0.75000000  0.87500000  1
  Ga  Ga53  1  0.87500000  0.12500000  0.75000000  1
  Ga  Ga54  1  0.75000000  0.37500000  0.62500000  1
  Ga  Ga55  1  0.37500000  0.62500000  0.75000000  1
  Ga  Ga56  1  0.12500000  0.87500000  0.25000000  1
  Ga  Ga57  1  0.87500000  0.25000000  0.12500000  1
  Ga  Ga58  1  0.62500000  0.75000000  0.37500000  1
  Ga  Ga59  1  0.25000000  0.62500000  0.37500000  1
  Ga  Ga60  1  0.50000000  0.50000000  0.50000000  1
  Ga  Ga61  1  0.50000000  0.50000000  0.00000000  1
  Ga  Ga62  1  0.50000000  0.00000000  0.50000000  1
  Ga  Ga63  1  0.00000000  0.50000000  0.50000000  1
  Ga  Ga64  1  0.50000000  0.00000000  0.00000000  1
  Ga  Ga65  1  0.00000000  0.00000000  0.50000000  1
  Ga  Ga66  1  0.00000000  0.50000000  0.00000000  1
  Ga  Ga67  1  0.00000000  0.00000000  0.00000000  1
  Tb  Tb68  1  0.25000000  0.87500000  0.62500000  1
  Tb  Tb69  1  0.87500000  0.62500000  0.25000000  1
  Tb  Tb70  1  0.62500000  0.87500000  0.75000000  1
  Tb  Tb71  1  0.87500000  0.75000000  0.62500000  1
  Tb  Tb72  1  0.62500000  0.25000000  0.87500000  1
  Tb  Tb73  1  0.75000000  0.62500000  0.87500000  1
  Tb  Tb74  1  0.75000000  0.12500000  0.37500000  1
  Tb  Tb75  1  0.12500000  0.37500000  0.75000000  1
  Tb  Tb76  1  0.37500000  0.12500000  0.25000000  1
  Tb  Tb77  1  0.12500000  0.25000000  0.37500000  1
  Tb  Tb78  1  0.37500000  0.75000000  0.12500000  1
  Tb  Tb79  1  0.25000000  0.37500000  0.12500000  1
