# generated using pymatgen
data_Li2MgMn3O8
_symmetry_space_group_name_H-M   'P 1'
_cell_length_a   8.32995166
_cell_length_b   8.32995166
_cell_length_c   8.32995166
_cell_angle_alpha   90.00000000
_cell_angle_beta   90.00000000
_cell_angle_gamma   90.00000000
_symmetry_Int_Tables_number   1
_chemical_formula_structural   Li2MgMn3O8
_chemical_formula_sum   'Li8 Mg4 Mn12 O32'
_cell_volume   577.99947428
_cell_formula_units_Z   4
loop_
 _symmetry_equiv_pos_site_id
 _symmetry_equiv_pos_as_xyz
  1  'x, y, z'
loop_
 _atom_site_type_symbol
 _atom_site_label
 _atom_site_symmetry_multiplicity
 _atom_site_fract_x
 _atom_site_fract_y
 _atom_site_fract_z
 _atom_site_occupancy
  Li  Li0  1  0.49674217  0.99674217  0.50325783  1
  Li  Li1  1  0.24674217  0.24674217  0.24674217  1
  Li  Li2  1  0.25325783  0.75325783  0.74674217  1
  Li  Li3  1  0.74674217  0.25325783  0.75325783  1
  Li  Li4  1  0.99674217  0.50325783  0.49674217  1
  Li  Li5  1  0.75325783  0.74674217  0.25325783  1
  Li  Li6  1  0.50325783  0.49674217  0.99674217  1
  Li  Li7  1  0.00325783  0.00325783  0.00325783  1
  Mg  Mg8  1  0.37500000  0.12500000  0.87500000  1
  Mg  Mg9  1  0.12500000  0.87500000  0.37500000  1
  Mg  Mg10  1  0.87500000  0.37500000  0.12500000  1
  Mg  Mg11  1  0.62500000  0.62500000  0.62500000  1
  Mn  Mn12  1  0.12500000  0.38013603  0.86986397  1
  Mn  Mn13  1  0.37500000  0.61986397  0.36986397  1
  Mn  Mn14  1  0.63013603  0.87500000  0.88013603  1
  Mn  Mn15  1  0.61986397  0.36986397  0.37500000  1
  Mn  Mn16  1  0.38013603  0.86986397  0.12500000  1
  Mn  Mn17  1  0.88013603  0.63013603  0.87500000  1
  Mn  Mn18  1  0.87500000  0.88013603  0.63013603  1
  Mn  Mn19  1  0.62500000  0.11986397  0.13013603  1
  Mn  Mn20  1  0.11986397  0.13013603  0.62500000  1
  Mn  Mn21  1  0.13013603  0.62500000  0.11986397  1
  Mn  Mn22  1  0.36986397  0.37500000  0.61986397  1
  Mn  Mn23  1  0.86986397  0.12500000  0.38013603  1
  O  O24  1  0.12496427  0.39266406  0.09921087  1
  O  O25  1  0.60733594  0.59921087  0.37503573  1
  O  O26  1  0.39266406  0.09921087  0.12496427  1
  O  O27  1  0.62496427  0.10733594  0.90078913  1
  O  O28  1  0.09921087  0.12496427  0.39266406  1
  O  O29  1  0.36564552  0.63435448  0.13435448  1
  O  O30  1  0.15078913  0.85733594  0.12503573  1
  O  O31  1  0.87503573  0.89266406  0.40078913  1
  O  O32  1  0.40078913  0.87503573  0.89266406  1
  O  O33  1  0.59921087  0.37503573  0.60733594  1
  O  O34  1  0.38435448  0.38435448  0.38435448  1
  O  O35  1  0.37496427  0.84921087  0.35733594  1
  O  O36  1  0.90078913  0.62496427  0.10733594  1
  O  O37  1  0.85733594  0.12503573  0.15078913  1
  O  O38  1  0.89266406  0.40078913  0.87503573  1
  O  O39  1  0.14266406  0.62503573  0.34921087  1
  O  O40  1  0.65078913  0.64266406  0.87496427  1
  O  O41  1  0.61564552  0.88435448  0.11564552  1
  O  O42  1  0.35733594  0.37496427  0.84921087  1
  O  O43  1  0.87496427  0.65078913  0.64266406  1
  O  O44  1  0.62503573  0.34921087  0.14266406  1
  O  O45  1  0.63435448  0.13435448  0.36564552  1
  O  O46  1  0.84921087  0.35733594  0.37496427  1
  O  O47  1  0.88435448  0.11564552  0.61564552  1
  O  O48  1  0.11564552  0.61564552  0.88435448  1
  O  O49  1  0.37503573  0.60733594  0.59921087  1
  O  O50  1  0.10733594  0.90078913  0.62496427  1
  O  O51  1  0.34921087  0.14266406  0.62503573  1
  O  O52  1  0.13435448  0.36564552  0.63435448  1
  O  O53  1  0.64266406  0.87496427  0.65078913  1
  O  O54  1  0.86564552  0.86564552  0.86564552  1
  O  O55  1  0.12503573  0.15078913  0.85733594  1
