# generated using pymatgen
data_Li4MnCo2O7
_symmetry_space_group_name_H-M   'P 1'
_cell_length_a   2.92121767
_cell_length_b   9.84701773
_cell_length_c   9.76463834
_cell_angle_alpha   113.94920632
_cell_angle_beta   90.00000000
_cell_angle_gamma   98.53016406
_symmetry_Int_Tables_number   1
_chemical_formula_structural   Li4MnCo2O7
_chemical_formula_sum   'Li8 Mn2 Co4 O14'
_cell_volume   253.29656581
_cell_formula_units_Z   2
loop_
 _symmetry_equiv_pos_site_id
 _symmetry_equiv_pos_as_xyz
  1  'x, y, z'
loop_
 _atom_site_type_symbol
 _atom_site_label
 _atom_site_symmetry_multiplicity
 _atom_site_fract_x
 _atom_site_fract_y
 _atom_site_fract_z
 _atom_site_occupancy
  Li  Li0  1  0.64523176  0.29046353  0.07304571  1
  Li  Li1  1  0.92540833  0.85081767  0.22423690  1
  Li  Li2  1  0.22411443  0.44822785  0.37319148  1
  Li  Li3  1  0.49227562  0.98455124  0.50095658  1
  Li  Li4  1  0.78511584  0.57023268  0.63703022  1
  Li  Li5  1  0.06664115  0.13328130  0.77333964  1
  Li  Li6  1  0.35885775  0.71771549  0.92157234  1
  Li  Li7  1  0.85899496  0.71798991  0.42701661  1
  Mn  Mn8  1  0.00016339  0.00032678  0.99579002  1
  Mn  Mn9  1  0.28957876  0.57915851  0.15245274  1
  Co  Co10  1  0.57232573  0.14465046  0.28862748  1
  Co  Co11  1  0.14255082  0.28510163  0.57276583  1
  Co  Co12  1  0.41842098  0.83684295  0.68732111  1
  Co  Co13  1  0.71396293  0.42792486  0.85856806  1
  O  O14  1  0.53383995  0.06768090  0.90781166  1
  O  O15  1  0.81635867  0.63271634  0.04469300  1
  O  O16  1  0.09846741  0.19693481  0.17623400  1
  O  O17  1  0.38427811  0.76855622  0.30390739  1
  O  O18  1  0.67304103  0.34608305  0.46439329  1
  O  O19  1  0.96336008  0.92671916  0.61373442  1
  O  O20  1  0.24494504  0.48989009  0.75507397  1
  O  O21  1  0.75355699  0.50711398  0.23688396  1
  O  O22  1  0.04073674  0.08147449  0.38858835  1
  O  O23  1  0.32386373  0.64772646  0.54751030  1
  O  O24  1  0.61251030  0.22502061  0.67882734  1
  O  O25  1  0.90401092  0.80802184  0.83238117  1
  O  O26  1  0.18709676  0.37419453  0.96808896  1
  O  O27  1  0.47029184  0.94058268  0.09595747  1
