# generated using pymatgen
data_GdFe3(BO3)4
_symmetry_space_group_name_H-M   'P 1'
_cell_length_a   9.65536048
_cell_length_b   9.65536039
_cell_length_c   7.68200953
_cell_angle_alpha   90.00000000
_cell_angle_beta   90.00000000
_cell_angle_gamma   120.00000032
_symmetry_Int_Tables_number   1
_chemical_formula_structural   GdFe3(BO3)4
_chemical_formula_sum   'Gd3 Fe9 B12 O36'
_cell_volume   620.21526777
_cell_formula_units_Z   3
loop_
 _symmetry_equiv_pos_site_id
 _symmetry_equiv_pos_as_xyz
  1  'x, y, z'
loop_
 _atom_site_type_symbol
 _atom_site_label
 _atom_site_symmetry_multiplicity
 _atom_site_fract_x
 _atom_site_fract_y
 _atom_site_fract_z
 _atom_site_occupancy
  Gd  Gd0  1  0.00000000  0.33352328  0.66666700  1
  Gd  Gd1  1  0.66647672  0.66647672  0.00000000  1
  Gd  Gd2  1  0.33352328  0.00000000  0.33333300  1
  Fe  Fe3  1  0.45032529  0.78449217  0.66363710  1
  Fe  Fe4  1  0.66583312  0.21550783  0.00302990  1
  Fe  Fe5  1  0.78449217  0.45032529  0.33636290  1
  Fe  Fe6  1  0.11614084  0.11614084  0.00000000  1
  Fe  Fe7  1  0.88385916  0.00000000  0.33333300  1
  Fe  Fe8  1  0.33416688  0.54967471  0.33030410  1
  Fe  Fe9  1  0.54967471  0.33416688  0.66969590  1
  Fe  Fe10  1  0.21550783  0.66583312  0.99697010  1
  Fe  Fe11  1  0.00000000  0.88385916  0.66666700  1
  B  B12  1  0.66724685  0.66724685  0.50000000  1
  B  B13  1  1.00000000  0.33275315  0.16666700  1
  B  B14  1  0.21951525  0.21951525  0.50000000  1
  B  B15  1  0.44784727  0.33061762  0.17044160  1
  B  B16  1  0.66938238  0.11722965  0.50377560  1
  B  B17  1  1.00000000  0.78048475  0.16666700  1
  B  B18  1  0.55215273  0.88277035  0.16289140  1
  B  B19  1  0.78048475  0.00000000  0.83333300  1
  B  B20  1  0.88277035  0.55215273  0.83710860  1
  B  B21  1  0.11722965  0.66938238  0.49622440  1
  B  B22  1  0.33275315  0.00000000  0.83333300  1
  B  B23  1  0.33061762  0.44784727  0.82955840  1
  O  O24  1  0.47604398  0.14379290  0.83579272  1
  O  O25  1  0.58872106  0.32575395  0.17712534  1
  O  O26  1  0.69216141  0.87836182  0.18163215  1
  O  O27  1  0.14379290  0.47604398  0.16420728  1
  O  O28  1  0.52395602  0.66774891  0.49754028  1
  O  O29  1  0.85620710  0.33225109  0.16912572  1
  O  O30  1  0.21257888  0.35866016  0.48363781  1
  O  O31  1  0.92385717  0.00000000  0.83333300  1
  O  O32  1  0.67424605  0.26296711  0.51045934  1
  O  O33  1  0.47771047  0.45744814  0.81679930  1
  O  O34  1  1.00000000  0.18925643  0.16666700  1
  O  O35  1  0.33225109  0.85620710  0.83087428  1
  O  O36  1  0.66774891  0.52395602  0.50245972  1
  O  O37  1  0.18620041  0.30783859  0.84829915  1
  O  O38  1  0.18925643  0.00000000  0.83333300  1
  O  O39  1  0.87836182  0.69216141  0.81836785  1
  O  O40  1  0.81379959  0.12163818  0.48503485  1
  O  O41  1  0.52228953  0.97973767  0.51653370  1
  O  O42  1  0.97973767  0.52228953  0.48346630  1
  O  O43  1  0.07614283  0.07614283  0.50000000  1
  O  O44  1  0.02026233  0.54255186  0.84986770  1
  O  O45  1  0.32575395  0.58872106  0.82287466  1
  O  O46  1  0.73703289  0.41127894  0.84379234  1
  O  O47  1  0.85391873  0.64133984  0.18302919  1
  O  O48  1  0.14608127  0.78742112  0.15030381  1
  O  O49  1  0.12163818  0.81379959  0.51496515  1
  O  O50  1  0.54255186  0.02026233  0.15013230  1
  O  O51  1  0.81074357  0.81074357  0.50000000  1
  O  O52  1  0.00000000  0.92385717  0.16666700  1
  O  O53  1  0.45744814  0.47771047  0.18320070  1
  O  O54  1  0.26296711  0.67424605  0.48954066  1
  O  O55  1  0.64133984  0.85391873  0.81697081  1
  O  O56  1  0.78742112  0.14608127  0.84969619  1
  O  O57  1  0.41127894  0.73703289  0.15620766  1
  O  O58  1  0.35866016  0.21257888  0.51636219  1
  O  O59  1  0.30783859  0.18620041  0.15170085  1
