# generated using pymatgen
data_CaCu
_symmetry_space_group_name_H-M   'P 1'
_cell_length_a   4.26325503
_cell_length_b   5.80624791
_cell_length_c   38.38016680
_cell_angle_alpha   90.00000000
_cell_angle_beta   90.00000000
_cell_angle_gamma   90.00000000
_symmetry_Int_Tables_number   1
_chemical_formula_structural   CaCu
_chemical_formula_sum   'Ca20 Cu20'
_cell_volume   950.04405791
_cell_formula_units_Z   20
loop_
 _symmetry_equiv_pos_site_id
 _symmetry_equiv_pos_as_xyz
  1  'x, y, z'
loop_
 _atom_site_type_symbol
 _atom_site_label
 _atom_site_symmetry_multiplicity
 _atom_site_fract_x
 _atom_site_fract_y
 _atom_site_fract_z
 _atom_site_occupancy
  Ca  Ca0  1  0.75000000  0.37228416  0.53580248  1
  Ca  Ca1  1  0.25000000  0.37659589  0.76430863  1
  Ca  Ca2  1  0.25000000  0.62771584  0.46419752  1
  Ca  Ca3  1  0.75000000  0.37228789  0.13586180  1
  Ca  Ca4  1  0.25000000  0.62771211  0.86413820  1
  Ca  Ca5  1  0.25000000  0.12340411  0.26430863  1
  Ca  Ca6  1  0.75000000  0.12771211  0.63586180  1
  Ca  Ca7  1  0.25000000  0.87228416  0.96419752  1
  Ca  Ca8  1  0.25000000  0.62419445  0.66411904  1
  Ca  Ca9  1  0.75000000  0.62340411  0.23569137  1
  Ca  Ca10  1  0.25000000  0.87228789  0.36413820  1
  Ca  Ca11  1  0.75000000  0.87659589  0.73569137  1
  Ca  Ca12  1  0.75000000  0.37223753  0.93600525  1
  Ca  Ca13  1  0.25000000  0.87580555  0.16411904  1
  Ca  Ca14  1  0.75000000  0.12776247  0.43600525  1
  Ca  Ca15  1  0.75000000  0.12419445  0.83588096  1
  Ca  Ca16  1  0.25000000  0.62776247  0.06399475  1
  Ca  Ca17  1  0.75000000  0.12771584  0.03580248  1
  Ca  Ca18  1  0.75000000  0.37580555  0.33588096  1
  Ca  Ca19  1  0.25000000  0.87223753  0.56399475  1
  Cu  Cu20  1  0.25000000  0.39328464  0.59397070  1
  Cu  Cu21  1  0.25000000  0.85755242  0.79378486  1
  Cu  Cu22  1  0.25000000  0.64244758  0.29378486  1
  Cu  Cu23  1  0.75000000  0.85503222  0.30605600  1
  Cu  Cu24  1  0.75000000  0.89329816  0.10622940  1
  Cu  Cu25  1  0.75000000  0.35755242  0.70621514  1
  Cu  Cu26  1  0.25000000  0.10670184  0.89377060  1
  Cu  Cu27  1  0.75000000  0.60671536  0.40602930  1
  Cu  Cu28  1  0.75000000  0.89328464  0.90602930  1
  Cu  Cu29  1  0.75000000  0.60670184  0.60622940  1
  Cu  Cu30  1  0.75000000  0.60658808  0.00592341  1
  Cu  Cu31  1  0.25000000  0.10671536  0.09397070  1
  Cu  Cu32  1  0.75000000  0.64496778  0.80605600  1
  Cu  Cu33  1  0.25000000  0.10658808  0.49407659  1
  Cu  Cu34  1  0.75000000  0.89341192  0.50592341  1
  Cu  Cu35  1  0.25000000  0.39329816  0.39377060  1
  Cu  Cu36  1  0.25000000  0.39341192  0.99407659  1
  Cu  Cu37  1  0.25000000  0.14496778  0.69394400  1
  Cu  Cu38  1  0.25000000  0.35503222  0.19394400  1
  Cu  Cu39  1  0.75000000  0.14244758  0.20621514  1
