# generated using pymatgen
data_Tm2Fe14B
_symmetry_space_group_name_H-M   'P 1'
_cell_length_a   8.70990165
_cell_length_b   8.70990165
_cell_length_c   11.81841413
_cell_angle_alpha   90.00000000
_cell_angle_beta   90.00000000
_cell_angle_gamma   90.00000000
_symmetry_Int_Tables_number   1
_chemical_formula_structural   Tm2Fe14B
_chemical_formula_sum   'Tm8 Fe56 B4'
_cell_volume   896.57310353
_cell_formula_units_Z   4
loop_
 _symmetry_equiv_pos_site_id
 _symmetry_equiv_pos_as_xyz
  1  'x, y, z'
loop_
 _atom_site_type_symbol
 _atom_site_label
 _atom_site_symmetry_multiplicity
 _atom_site_fract_x
 _atom_site_fract_y
 _atom_site_fract_z
 _atom_site_occupancy
  B  B0  1  0.62508189  0.37491811  0.00000000  1
  B  B1  1  0.12508189  0.12508189  0.50000000  1
  B  B2  1  0.87491811  0.87491811  0.50000000  1
  B  B3  1  0.37491811  0.62508189  0.00000000  1
  Fe  Fe4  1  0.35830841  0.03721316  0.17410399  1
  Fe  Fe5  1  0.64169159  0.96278684  0.17410399  1
  Fe  Fe6  1  0.03721316  0.35830841  0.82589601  1
  Fe  Fe7  1  0.53721316  0.14169159  0.67410399  1
  Fe  Fe8  1  0.46278684  0.85830841  0.67410399  1
  Fe  Fe9  1  0.14169159  0.53721316  0.32589601  1
  Fe  Fe10  1  0.85830841  0.46278684  0.32589601  1
  Fe  Fe11  1  0.96278684  0.64169159  0.82589601  1
  Fe  Fe12  1  0.64169159  0.96278684  0.82589601  1
  Fe  Fe13  1  0.35830841  0.03721316  0.82589601  1
  Fe  Fe14  1  0.96278684  0.64169159  0.17410399  1
  Fe  Fe15  1  0.46278684  0.85830841  0.32589601  1
  Fe  Fe16  1  0.53721316  0.14169159  0.32589601  1
  Fe  Fe17  1  0.85830841  0.46278684  0.67410399  1
  Fe  Fe18  1  0.14169159  0.53721316  0.67410399  1
  Fe  Fe19  1  0.03721316  0.35830841  0.17410399  1
  Fe  Fe20  1  0.56587817  0.22434501  0.12583002  1
  Fe  Fe21  1  0.43412183  0.77565499  0.12583002  1
  Fe  Fe22  1  0.22434501  0.56587817  0.87416998  1
  Fe  Fe23  1  0.72434501  0.93412183  0.62583002  1
  Fe  Fe24  1  0.27565499  0.06587817  0.62583002  1
  Fe  Fe25  1  0.93412183  0.72434501  0.37416998  1
  Fe  Fe26  1  0.06587817  0.27565499  0.37416998  1
  Fe  Fe27  1  0.77565499  0.43412183  0.87416998  1
  Fe  Fe28  1  0.43412183  0.77565499  0.87416998  1
  Fe  Fe29  1  0.56587817  0.22434501  0.87416998  1
  Fe  Fe30  1  0.77565499  0.43412183  0.12583002  1
  Fe  Fe31  1  0.27565499  0.06587817  0.37416998  1
  Fe  Fe32  1  0.72434501  0.93412183  0.37416998  1
  Fe  Fe33  1  0.06587817  0.27565499  0.62583002  1
  Fe  Fe34  1  0.93412183  0.72434501  0.62583002  1
  Fe  Fe35  1  0.22434501  0.56587817  0.12583002  1
  Fe  Fe36  1  0.68307216  0.68307216  0.75406240  1
  Fe  Fe37  1  0.31692784  0.31692784  0.75406240  1
  Fe  Fe38  1  0.68307216  0.68307216  0.24593760  1
  Fe  Fe39  1  0.18307216  0.81692784  0.25406240  1
  Fe  Fe40  1  0.81692784  0.18307216  0.25406240  1
  Fe  Fe41  1  0.81692784  0.18307216  0.74593760  1
  Fe  Fe42  1  0.18307216  0.81692784  0.74593760  1
  Fe  Fe43  1  0.31692784  0.31692784  0.24593760  1
  Fe  Fe44  1  0.90295505  0.90295505  0.80110302  1
  Fe  Fe45  1  0.09704495  0.09704495  0.80110302  1
  Fe  Fe46  1  0.90295505  0.90295505  0.19889698  1
  Fe  Fe47  1  0.40295505  0.59704495  0.30110302  1
  Fe  Fe48  1  0.59704495  0.40295505  0.30110302  1
  Fe  Fe49  1  0.59704495  0.40295505  0.69889698  1
  Fe  Fe50  1  0.40295505  0.59704495  0.69889698  1
  Fe  Fe51  1  0.09704495  0.09704495  0.19889698  1
  Fe  Fe52  1  0.00000000  0.00000000  0.38391558  1
  Fe  Fe53  1  0.50000000  0.50000000  0.88391558  1
  Fe  Fe54  1  0.50000000  0.50000000  0.11608442  1
  Fe  Fe55  1  0.00000000  0.00000000  0.61608442  1
  Fe  Fe56  1  0.50000000  0.00000000  0.00000000  1
  Fe  Fe57  1  0.50000000  0.00000000  0.50000000  1
  Fe  Fe58  1  0.00000000  0.50000000  0.50000000  1
  Fe  Fe59  1  0.00000000  0.50000000  0.00000000  1
  Tm  Tm60  1  0.85643635  0.14356365  0.00000000  1
  Tm  Tm61  1  0.35643635  0.35643635  0.50000000  1
  Tm  Tm62  1  0.64356365  0.64356365  0.50000000  1
  Tm  Tm63  1  0.14356365  0.85643635  0.00000000  1
  Tm  Tm64  1  0.73348091  0.73348091  0.00000000  1
  Tm  Tm65  1  0.76651909  0.23348091  0.50000000  1
  Tm  Tm66  1  0.23348091  0.76651909  0.50000000  1
  Tm  Tm67  1  0.26651909  0.26651909  0.00000000  1
