# generated using pymatgen
data_TbCuPbSe3
_symmetry_space_group_name_H-M   'P 1'
_cell_length_a   4.06965849
_cell_length_b   10.67910293
_cell_length_c   13.64011174
_cell_angle_alpha   89.99762120
_cell_angle_beta   90.00001834
_cell_angle_gamma   90.00001851
_symmetry_Int_Tables_number   1
_chemical_formula_structural   TbCuPbSe3
_chemical_formula_sum   'Tb4 Cu4 Pb4 Se12'
_cell_volume   592.80337398
_cell_formula_units_Z   4
loop_
 _symmetry_equiv_pos_site_id
 _symmetry_equiv_pos_as_xyz
  1  'x, y, z'
loop_
 _atom_site_type_symbol
 _atom_site_label
 _atom_site_symmetry_multiplicity
 _atom_site_fract_x
 _atom_site_fract_y
 _atom_site_fract_z
 _atom_site_occupancy
  Tb  Tb0  1  0.75000012  0.48629455  0.74172223  1
  Tb  Tb1  1  0.24999933  0.01370041  0.24172159  1
  Tb  Tb2  1  0.74999947  0.98629747  0.75828217  1
  Tb  Tb3  1  0.24999963  0.51371060  0.25828322  1
  Cu  Cu4  1  0.25000363  0.74177163  0.78061104  1
  Cu  Cu5  1  0.75000017  0.75814590  0.28061891  1
  Cu  Cu6  1  0.25000184  0.24174959  0.71937962  1
  Cu  Cu7  1  0.75000017  0.25831754  0.21937181  1
  Pb  Pb8  1  0.74999946  0.72488573  0.99592126  1
  Pb  Pb9  1  0.24999977  0.27511517  0.00408007  1
  Pb  Pb10  1  0.24999970  0.77511393  0.49592277  1
  Pb  Pb11  1  0.74999984  0.22489037  0.50408169  1
  Se  Se12  1  0.74999966  0.44843135  0.11442864  1
  Se  Se13  1  0.24999986  0.41668620  0.60426830  1
  Se  Se14  1  0.74999879  0.08330402  0.10426179  1
  Se  Se15  1  0.24999989  0.55155991  0.88558136  1
  Se  Se16  1  0.74999968  0.94844931  0.38558706  1
  Se  Se17  1  0.75000001  0.58333592  0.39571759  1
  Se  Se18  1  0.24999934  0.76020107  0.17163400  1
  Se  Se19  1  0.25000000  0.05156781  0.61442604  1
  Se  Se20  1  0.25000011  0.91668101  0.89573006  1
  Se  Se21  1  0.24999954  0.26018590  0.32836491  1
  Se  Se22  1  0.75000007  0.23980183  0.82837091  1
  Se  Se23  1  0.74999991  0.73980275  0.67163294  1
