# generated using pymatgen
data_DyCuPbSe3
_symmetry_space_group_name_H-M   'P 1'
_cell_length_a   4.06241081
_cell_length_b   10.60762855
_cell_length_c   13.62857670
_cell_angle_alpha   90.00000000
_cell_angle_beta   90.00000000
_cell_angle_gamma   90.00000000
_symmetry_Int_Tables_number   1
_chemical_formula_structural   DyCuPbSe3
_chemical_formula_sum   'Dy4 Cu4 Pb4 Se12'
_cell_volume   587.29005323
_cell_formula_units_Z   4
loop_
 _symmetry_equiv_pos_site_id
 _symmetry_equiv_pos_as_xyz
  1  'x, y, z'
loop_
 _atom_site_type_symbol
 _atom_site_label
 _atom_site_symmetry_multiplicity
 _atom_site_fract_x
 _atom_site_fract_y
 _atom_site_fract_z
 _atom_site_occupancy
  Dy  Dy0  1  0.25000000  0.01427374  0.24235485  1
  Dy  Dy1  1  0.75000000  0.48572626  0.74235485  1
  Dy  Dy2  1  0.75000000  0.98572626  0.75764515  1
  Dy  Dy3  1  0.25000000  0.51427374  0.25764515  1
  Cu  Cu4  1  0.25000000  0.24105065  0.72262523  1
  Cu  Cu5  1  0.75000000  0.75894935  0.27737477  1
  Cu  Cu6  1  0.75000000  0.25894935  0.22262523  1
  Cu  Cu7  1  0.25000000  0.74105065  0.77737477  1
  Pb  Pb8  1  0.75000000  0.72529144  0.99506972  1
  Pb  Pb9  1  0.25000000  0.77470856  0.49506972  1
  Pb  Pb10  1  0.25000000  0.27470856  0.00493028  1
  Pb  Pb11  1  0.75000000  0.22529144  0.50493028  1
  Se  Se12  1  0.75000000  0.73961364  0.66950454  1
  Se  Se13  1  0.25000000  0.05084888  0.61566447  1
  Se  Se14  1  0.75000000  0.44915112  0.11566447  1
  Se  Se15  1  0.75000000  0.23961364  0.83049546  1
  Se  Se16  1  0.75000000  0.58379591  0.39425419  1
  Se  Se17  1  0.25000000  0.41620409  0.60574581  1
  Se  Se18  1  0.75000000  0.94915112  0.38433553  1
  Se  Se19  1  0.25000000  0.91620409  0.89425419  1
  Se  Se20  1  0.25000000  0.55084888  0.88433553  1
  Se  Se21  1  0.25000000  0.76038636  0.16950454  1
  Se  Se22  1  0.25000000  0.26038636  0.33049546  1
  Se  Se23  1  0.75000000  0.08379591  0.10574581  1
