# generated using pymatgen
data_Zr2In5Ni
_symmetry_space_group_name_H-M   'P 1'
_cell_length_a   6.79309053
_cell_length_b   10.16841901
_cell_length_c   10.16841901
_cell_angle_alpha   90.00000000
_cell_angle_beta   90.00000000
_cell_angle_gamma   90.00000000
_symmetry_Int_Tables_number   1
_chemical_formula_structural   Zr2In5Ni
_chemical_formula_sum   'Zr8 In20 Ni4'
_cell_volume   702.38345040
_cell_formula_units_Z   4
loop_
 _symmetry_equiv_pos_site_id
 _symmetry_equiv_pos_as_xyz
  1  'x, y, z'
loop_
 _atom_site_type_symbol
 _atom_site_label
 _atom_site_symmetry_multiplicity
 _atom_site_fract_x
 _atom_site_fract_y
 _atom_site_fract_z
 _atom_site_occupancy
  Zr  Zr0  1  0.00000000  0.80119373  0.19880627  1
  Zr  Zr1  1  0.50000000  0.69880627  0.69880627  1
  Zr  Zr2  1  0.50000000  0.83776775  0.16223225  1
  Zr  Zr3  1  0.00000000  0.33776775  0.33776775  1
  Zr  Zr4  1  0.00000000  0.19880627  0.80119373  1
  Zr  Zr5  1  0.00000000  0.66223225  0.66223225  1
  Zr  Zr6  1  0.50000000  0.16223225  0.83776775  1
  Zr  Zr7  1  0.50000000  0.30119373  0.30119373  1
  In  In8  1  0.72176438  0.55840774  0.20133454  1
  In  In9  1  0.22176438  0.05840774  0.29866546  1
  In  In10  1  0.29788292  0.50000000  0.50000000  1
  In  In11  1  0.72176438  0.79866546  0.44159226  1
  In  In12  1  0.27823562  0.20133454  0.55840774  1
  In  In13  1  0.72176438  0.44159226  0.79866546  1
  In  In14  1  0.77823562  0.70133454  0.94159226  1
  In  In15  1  0.27823562  0.44159226  0.79866546  1
  In  In16  1  0.22176438  0.70133454  0.94159226  1
  In  In17  1  0.77823562  0.05840774  0.29866546  1
  In  In18  1  0.72176438  0.20133454  0.55840774  1
  In  In19  1  0.77823562  0.29866546  0.05840774  1
  In  In20  1  0.79788292  0.00000000  0.00000000  1
  In  In21  1  0.22176438  0.94159226  0.70133454  1
  In  In22  1  0.27823562  0.55840774  0.20133454  1
  In  In23  1  0.27823562  0.79866546  0.44159226  1
  In  In24  1  0.22176438  0.29866546  0.05840774  1
  In  In25  1  0.20211708  0.00000000  0.00000000  1
  In  In26  1  0.77823562  0.94159226  0.70133454  1
  In  In27  1  0.70211708  0.50000000  0.50000000  1
  Ni  Ni28  1  0.50000000  0.11332942  0.11332942  1
  Ni  Ni29  1  0.50000000  0.88667058  0.88667058  1
  Ni  Ni30  1  0.00000000  0.38667058  0.61332942  1
  Ni  Ni31  1  0.00000000  0.61332942  0.38667058  1
