# generated using pymatgen
data_BaBPO5
_symmetry_space_group_name_H-M   'P 1'
_cell_length_a   7.22841545
_cell_length_b   7.22841545
_cell_length_c   7.06308600
_cell_angle_alpha   90.00000000
_cell_angle_beta   90.00000000
_cell_angle_gamma   119.99999996
_symmetry_Int_Tables_number   1
_chemical_formula_structural   BaBPO5
_chemical_formula_sum   'Ba3 B3 P3 O15'
_cell_volume   319.60336043
_cell_formula_units_Z   3
loop_
 _symmetry_equiv_pos_site_id
 _symmetry_equiv_pos_as_xyz
  1  'x, y, z'
loop_
 _atom_site_type_symbol
 _atom_site_label
 _atom_site_symmetry_multiplicity
 _atom_site_fract_x
 _atom_site_fract_y
 _atom_site_fract_z
 _atom_site_occupancy
  B  B0  1  0.90716320  0.90716320  0.00000000  1
  B  B1  1  0.00000000  0.09283680  0.33333333  1
  B  B2  1  0.09283680  0.00000000  0.66666667  1
  O  O3  1  0.96037110  0.96037110  0.50000000  1
  O  O4  1  0.03962890  0.00000000  0.16666667  1
  O  O5  1  0.00000000  0.03962890  0.83333333  1
  O  O6  1  0.43189639  0.85740442  0.29903763  1
  O  O7  1  0.14259558  0.57449197  0.96570430  1
  O  O8  1  0.42550803  0.56810361  0.63237097  1
  O  O9  1  0.13855632  0.81813067  0.70281284  1
  O  O10  1  0.18186933  0.32042565  0.36947950  1
  O  O11  1  0.67957435  0.86144368  0.03614617  1
  O  O12  1  0.32042565  0.18186933  0.63052050  1
  O  O13  1  0.86144368  0.67957435  0.96385383  1
  O  O14  1  0.81813067  0.13855632  0.29718716  1
  O  O15  1  0.85740442  0.43189639  0.70096237  1
  O  O16  1  0.56810361  0.42550803  0.36762903  1
  O  O17  1  0.57449197  0.14259558  0.03429570  1
  P  P18  1  0.61234639  0.00000000  0.16666667  1
  P  P19  1  0.38765361  0.38765361  0.50000000  1
  P  P20  1  0.00000000  0.61234639  0.83333333  1
  Ba  Ba21  1  0.60657545  0.00000000  0.66666667  1
  Ba  Ba22  1  0.39342455  0.39342455  0.00000000  1
  Ba  Ba23  1  0.00000000  0.60657545  0.33333333  1
