# generated using pymatgen
data_Na4UC3O11
_symmetry_space_group_name_H-M   'P 1'
_cell_length_a   9.43457503
_cell_length_b   9.43457503
_cell_length_c   13.21487307
_cell_angle_alpha   90.00000000
_cell_angle_beta   90.00000000
_cell_angle_gamma   119.99999997
_symmetry_Int_Tables_number   1
_chemical_formula_structural   Na4UC3O11
_chemical_formula_sum   'Na16 U4 C12 O44'
_cell_volume   1018.68125109
_cell_formula_units_Z   4
loop_
 _symmetry_equiv_pos_site_id
 _symmetry_equiv_pos_as_xyz
  1  'x, y, z'
loop_
 _atom_site_type_symbol
 _atom_site_label
 _atom_site_symmetry_multiplicity
 _atom_site_fract_x
 _atom_site_fract_y
 _atom_site_fract_z
 _atom_site_occupancy
  C  C0  1  0.25306637  0.92344692  0.87212641  1
  C  C1  1  0.07655308  0.32961945  0.87212641  1
  C  C2  1  0.67038055  0.74693363  0.87212641  1
  C  C3  1  0.32961945  0.07655308  0.62787359  1
  C  C4  1  0.74693363  0.67038055  0.62787359  1
  C  C5  1  0.92344692  0.25306637  0.62787359  1
  C  C6  1  0.74693363  0.07655308  0.12787359  1
  C  C7  1  0.92344692  0.67038055  0.12787359  1
  C  C8  1  0.32961945  0.25306637  0.12787359  1
  C  C9  1  0.67038055  0.92344692  0.37212641  1
  C  C10  1  0.25306637  0.32961945  0.37212641  1
  C  C11  1  0.07655308  0.74693363  0.37212641  1
  O  O12  1  0.62316823  0.85525009  0.85808198  1
  O  O13  1  0.14474991  0.76791814  0.85808198  1
  O  O14  1  0.23208186  0.37683177  0.85808198  1
  O  O15  1  0.76791814  0.14474991  0.64191802  1
  O  O16  1  0.37683177  0.23208186  0.64191802  1
  O  O17  1  0.85525009  0.62316823  0.64191802  1
  O  O18  1  0.37683177  0.14474991  0.14191802  1
  O  O19  1  0.85525009  0.23208186  0.14191802  1
  O  O20  1  0.76791814  0.62316823  0.14191802  1
  O  O21  1  0.23208186  0.85525009  0.35808198  1
  O  O22  1  0.62316823  0.76791814  0.35808198  1
  O  O23  1  0.14474991  0.37683177  0.35808198  1
  O  O24  1  0.40376557  0.95234228  0.88112016  1
  O  O25  1  0.04765772  0.45142328  0.88112016  1
  O  O26  1  0.54857672  0.59623443  0.88112016  1
  O  O27  1  0.45142328  0.04765772  0.61887984  1
  O  O28  1  0.59623443  0.54857672  0.61887984  1
  O  O29  1  0.95234228  0.40376557  0.61887984  1
  O  O30  1  0.59623443  0.04765772  0.11887984  1
  O  O31  1  0.95234228  0.54857672  0.11887984  1
  O  O32  1  0.45142328  0.40376557  0.11887984  1
  O  O33  1  0.54857672  0.95234228  0.38112016  1
  O  O34  1  0.40376557  0.45142328  0.38112016  1
  O  O35  1  0.04765772  0.59623443  0.38112016  1
  O  O36  1  0.21516648  0.03442367  0.87739648  1
  O  O37  1  0.96557633  0.18074281  0.87739648  1
  O  O38  1  0.81925719  0.78483352  0.87739648  1
  O  O39  1  0.18074281  0.96557633  0.62260352  1
  O  O40  1  0.78483352  0.81925719  0.62260352  1
  O  O41  1  0.03442367  0.21516648  0.62260352  1
  O  O42  1  0.78483352  0.96557633  0.12260352  1
  O  O43  1  0.03442367  0.81925719  0.12260352  1
  O  O44  1  0.18074281  0.21516648  0.12260352  1
  O  O45  1  0.81925719  0.03442367  0.37739648  1
  O  O46  1  0.21516648  0.18074281  0.37739648  1
  O  O47  1  0.96557633  0.78483352  0.37739648  1
  O  O48  1  0.66666667  0.33333333  0.48864065  1
  O  O49  1  0.33333333  0.66666667  0.01135935  1
  O  O50  1  0.33333333  0.66666667  0.51135935  1
  O  O51  1  0.66666667  0.33333333  0.98864065  1
  O  O52  1  0.66666667  0.33333333  0.77074797  1
  O  O53  1  0.33333333  0.66666667  0.72925203  1
  O  O54  1  0.33333333  0.66666667  0.22925203  1
  O  O55  1  0.66666667  0.33333333  0.27074797  1
  Na  Na56  1  0.69189243  0.12881583  0.87551431  1
  Na  Na57  1  0.87118417  0.56307659  0.87551431  1
  Na  Na58  1  0.43692341  0.30810757  0.87551431  1
  Na  Na59  1  0.56307659  0.87118417  0.62448569  1
  Na  Na60  1  0.30810757  0.43692341  0.62448569  1
  Na  Na61  1  0.12881583  0.69189243  0.62448569  1
  Na  Na62  1  0.30810757  0.87118417  0.12448569  1
  Na  Na63  1  0.12881583  0.43692341  0.12448569  1
  Na  Na64  1  0.56307659  0.69189243  0.12448569  1
  Na  Na65  1  0.43692341  0.12881583  0.37551431  1
  Na  Na66  1  0.69189243  0.56307659  0.37551431  1
  Na  Na67  1  0.87118417  0.30810757  0.37551431  1
  Na  Na68  1  0.00000000  0.00000000  0.50000000  1
  Na  Na69  1  0.00000000  0.00000000  0.00000000  1
  Na  Na70  1  0.00000000  0.00000000  0.75000000  1
  Na  Na71  1  0.00000000  0.00000000  0.25000000  1
  U  U72  1  0.66666667  0.33333333  0.62959254  1
  U  U73  1  0.33333333  0.66666667  0.87040746  1
  U  U74  1  0.33333333  0.66666667  0.37040746  1
  U  U75  1  0.66666667  0.33333333  0.12959254  1
