# generated using pymatgen
data_CrP3(HO5)2
_symmetry_space_group_name_H-M   'P 1'
_cell_length_a   7.43542703
_cell_length_b   8.95377872
_cell_length_c   11.85887564
_cell_angle_alpha   90.00000000
_cell_angle_beta   103.01891178
_cell_angle_gamma   90.00000000
_symmetry_Int_Tables_number   1
_chemical_formula_structural   CrP3(HO5)2
_chemical_formula_sum   'Cr4 P12 H8 O40'
_cell_volume   769.21297503
_cell_formula_units_Z   4
loop_
 _symmetry_equiv_pos_site_id
 _symmetry_equiv_pos_as_xyz
  1  'x, y, z'
loop_
 _atom_site_type_symbol
 _atom_site_label
 _atom_site_symmetry_multiplicity
 _atom_site_fract_x
 _atom_site_fract_y
 _atom_site_fract_z
 _atom_site_occupancy
  Cr  Cr0  1  0.53678529  0.91961534  0.79453425  1
  Cr  Cr1  1  0.46321471  0.08038466  0.20546575  1
  Cr  Cr2  1  0.96321471  0.41961534  0.70546575  1
  Cr  Cr3  1  0.03678529  0.58038466  0.29453425  1
  P  P4  1  0.34779659  0.60294105  0.70826932  1
  P  P5  1  0.84779659  0.89705895  0.20826932  1
  P  P6  1  0.22651576  0.38611458  0.51734194  1
  P  P7  1  0.77868599  0.09858831  0.63736458  1
  P  P8  1  0.72651576  0.11388542  0.01734194  1
  P  P9  1  0.27348424  0.88611458  0.98265806  1
  P  P10  1  0.72131401  0.59858831  0.86263542  1
  P  P11  1  0.27868599  0.40141169  0.13736458  1
  P  P12  1  0.77348424  0.61388542  0.48265806  1
  P  P13  1  0.15220341  0.10294105  0.79173068  1
  P  P14  1  0.65220341  0.39705895  0.29173068  1
  P  P15  1  0.22131401  0.90141169  0.36263542  1
  H  H16  1  0.22819785  0.35464529  0.94969240  1
  H  H17  1  0.14382657  0.68237408  0.90255260  1
  H  H18  1  0.27180215  0.85464529  0.55030760  1
  H  H19  1  0.72819785  0.14535471  0.44969240  1
  H  H20  1  0.64382657  0.81762592  0.40255260  1
  H  H21  1  0.35617343  0.18237408  0.59744740  1
  H  H22  1  0.77180215  0.64535471  0.05030760  1
  H  H23  1  0.85617343  0.31762592  0.09744740  1
  O  O24  1  0.02273616  0.96942739  0.29305730  1
  O  O25  1  0.29353890  0.42609332  0.00879129  1
  O  O26  1  0.70646110  0.57390668  0.99120871  1
  O  O27  1  0.87002301  0.49721724  0.83841982  1
  O  O28  1  0.62349992  0.23222963  0.31061372  1
  O  O29  1  0.80782559  0.57228298  0.60828318  1
  O  O30  1  0.37002301  0.00278276  0.33841982  1
  O  O31  1  0.12349992  0.26777037  0.81061372  1
  O  O32  1  0.06150746  0.35381831  0.56870093  1
  O  O33  1  0.20646110  0.92609332  0.49120871  1
  O  O34  1  0.56150746  0.14618169  0.06870093  1
  O  O35  1  0.23260305  0.73852114  0.33066439  1
  O  O36  1  0.82282318  0.43401470  0.24796204  1
  O  O37  1  0.36413403  0.25147009  0.53417998  1
  O  O38  1  0.32282318  0.06598530  0.74796204  1
  O  O39  1  0.43849254  0.85381831  0.93129907  1
  O  O40  1  0.84246029  0.97461143  0.08697604  1
  O  O41  1  0.17717682  0.56598530  0.75203796  1
  O  O42  1  0.47726384  0.46942739  0.20694270  1
  O  O43  1  0.34246029  0.52538857  0.58697604  1
  O  O44  1  0.12997699  0.50278276  0.16158018  1
  O  O45  1  0.65753971  0.47461143  0.41302396  1
  O  O46  1  0.76739695  0.26147886  0.66933561  1
  O  O47  1  0.97726384  0.03057261  0.70694270  1
  O  O48  1  0.26739695  0.23852114  0.16933561  1
  O  O49  1  0.37650008  0.76777037  0.68938628  1
  O  O50  1  0.86413403  0.24852991  0.03417998  1
  O  O51  1  0.52273616  0.53057261  0.79305730  1
  O  O52  1  0.69217441  0.07228298  0.89171682  1
  O  O53  1  0.67717682  0.93401470  0.25203796  1
  O  O54  1  0.30782559  0.92771702  0.10828318  1
  O  O55  1  0.87650008  0.73222963  0.18938628  1
  O  O56  1  0.13586597  0.75147009  0.96582002  1
  O  O57  1  0.62997699  0.99721724  0.66158018  1
  O  O58  1  0.93849254  0.64618169  0.43129907  1
  O  O59  1  0.73260305  0.76147886  0.83066439  1
  O  O60  1  0.15753971  0.02538857  0.91302396  1
  O  O61  1  0.79353890  0.07390668  0.50879129  1
  O  O62  1  0.63586597  0.74852991  0.46582002  1
  O  O63  1  0.19217441  0.42771702  0.39171682  1
