# generated using pymatgen
data_RbInS2
_symmetry_space_group_name_H-M   'P 1'
_cell_length_a   7.99558696
_cell_length_b   7.99558737
_cell_length_c   15.84499975
_cell_angle_alpha   82.76429138
_cell_angle_beta   82.76429100
_cell_angle_gamma   90.01893314
_symmetry_Int_Tables_number   1
_chemical_formula_structural   RbInS2
_chemical_formula_sum   'Rb8 In8 S16'
_cell_volume   996.75716601
_cell_formula_units_Z   8
loop_
 _symmetry_equiv_pos_site_id
 _symmetry_equiv_pos_as_xyz
  1  'x, y, z'
loop_
 _atom_site_type_symbol
 _atom_site_label
 _atom_site_symmetry_multiplicity
 _atom_site_fract_x
 _atom_site_fract_y
 _atom_site_fract_z
 _atom_site_occupancy
  Rb  Rb0  1  0.34730486  0.72298520  0.11178289  1
  Rb  Rb1  1  0.15324724  0.27769938  0.88813680  1
  Rb  Rb2  1  0.84675276  0.72230062  0.11186320  1
  Rb  Rb3  1  0.27769938  0.15324724  0.38813680  1
  Rb  Rb4  1  0.27701480  0.65269514  0.38821711  1
  Rb  Rb5  1  0.72230062  0.84675276  0.61186320  1
  Rb  Rb6  1  0.72298520  0.34730486  0.61178289  1
  Rb  Rb7  1  0.65269514  0.27701480  0.88821711  1
  In  In8  1  0.79022195  0.41341797  0.33933526  1
  In  In9  1  0.58658203  0.20977805  0.16066474  1
  In  In10  1  0.41341797  0.79022195  0.83933526  1
  In  In11  1  0.08306243  0.20983677  0.16003414  1
  In  In12  1  0.91693757  0.79016323  0.83996586  1
  In  In13  1  0.20977805  0.58658203  0.66066474  1
  In  In14  1  0.79016323  0.91693757  0.33996586  1
  In  In15  1  0.20983677  0.08306243  0.66003414  1
  S  S16  1  0.07061503  0.44503016  0.25007587  1
  S  S17  1  0.07034939  0.92965061  0.25000000  1
  S  S18  1  0.55496984  0.92938497  0.24992413  1
  S  S19  1  0.23373653  0.85851929  0.56346226  1
  S  S20  1  0.76729885  0.64062597  0.43499991  1
  S  S21  1  0.64062597  0.76729885  0.93499991  1
  S  S22  1  0.76626347  0.14148071  0.43653774  1
  S  S23  1  0.92965061  0.07034939  0.75000000  1
  S  S24  1  0.44503016  0.07061503  0.75007587  1
  S  S25  1  0.44524751  0.55475249  0.75000000  1
  S  S26  1  0.85851929  0.23373653  0.06346226  1
  S  S27  1  0.55475249  0.44524751  0.25000000  1
  S  S28  1  0.92938497  0.55496984  0.74992413  1
  S  S29  1  0.14148071  0.76626347  0.93653774  1
  S  S30  1  0.23270115  0.35937403  0.56500009  1
  S  S31  1  0.35937403  0.23270115  0.06500009  1
