# generated using pymatgen
data_Li4MnCo2O7
_symmetry_space_group_name_H-M   'P 1'
_cell_length_a   2.89079085
_cell_length_b   7.79995566
_cell_length_c   11.58360984
_cell_angle_alpha   84.48102550
_cell_angle_beta   97.16801335
_cell_angle_gamma   79.32090330
_symmetry_Int_Tables_number   1
_chemical_formula_structural   Li4MnCo2O7
_chemical_formula_sum   'Li8 Mn2 Co4 O14'
_cell_volume   252.74464213
_cell_formula_units_Z   2
loop_
 _symmetry_equiv_pos_site_id
 _symmetry_equiv_pos_as_xyz
  1  'x, y, z'
loop_
 _atom_site_type_symbol
 _atom_site_label
 _atom_site_symmetry_multiplicity
 _atom_site_fract_x
 _atom_site_fract_y
 _atom_site_fract_z
 _atom_site_occupancy
  Li  Li0  1  0.57069585  0.07742350  0.21881420  1
  Li  Li1  1  0.71209431  0.21298932  0.63717694  1
  Li  Li2  1  0.86122553  0.36302915  0.08548022  1
  Li  Li3  1  0.29055709  0.77734715  0.35846233  1
  Li  Li4  1  0.42327018  0.93457791  0.78111928  1
  Li  Li5  1  0.98809718  0.51050894  0.48670330  1
  Li  Li6  1  0.15119827  0.63284057  0.93523711  1
  Li  Li7  1  0.43189668  0.42165547  0.28544983  1
  Mn  Mn8  1  0.00295404  0.99406921  -0.00002271  1
  Mn  Mn9  1  0.13521742  0.15180519  0.42224004  1
  Co  Co10  1  0.28354885  0.29149947  0.85859817  1
  Co  Co11  1  0.56801687  0.57556128  0.71159402  1
  Co  Co12  1  0.73520369  0.69110700  0.16151337  1
  Co  Co13  1  0.85595818  0.85651232  0.56842869  1
  O  O14  1  0.43751879  0.15600780  0.03104439  1
  O  O15  1  0.57932547  0.30325293  0.46190387  1
  O  O16  1  0.72131195  0.44982160  0.89244550  1
  O  O17  1  0.13555451  0.88669141  0.15780143  1
  O  O18  1  0.28127332  0.03436883  0.59691446  1
  O  O19  1  0.84747426  0.61938611  0.31433463  1
  O  O20  1  0.00278317  0.73550345  0.74107079  1
  O  O21  1  0.70751803  0.98415515  0.39919222  1
  O  O22  1  0.85987078  0.11395471  0.83369527  1
  O  O23  1  0.01404079  0.23813200  0.26621258  1
  O  O24  1  0.42429744  0.68722310  0.53581798  1
  O  O25  1  0.55927199  0.84318613  0.96173111  1
  O  O26  1  0.13869477  0.41172904  0.68911859  1
  O  O27  1  0.28113057  0.54566127  0.10792241  1
