# generated using pymatgen
data_ZnCoPHO5
_symmetry_space_group_name_H-M   'P 1'
_cell_length_a   5.27552838
_cell_length_b   5.61646474
_cell_length_c   7.55948395
_cell_angle_alpha   94.31183664
_cell_angle_beta   99.44239937
_cell_angle_gamma   93.32470413
_symmetry_Int_Tables_number   1
_chemical_formula_structural   ZnCoPHO5
_chemical_formula_sum   'Zn2 Co2 P2 H2 O10'
_cell_volume   219.76212456
_cell_formula_units_Z   2
loop_
 _symmetry_equiv_pos_site_id
 _symmetry_equiv_pos_as_xyz
  1  'x, y, z'
loop_
 _atom_site_type_symbol
 _atom_site_label
 _atom_site_symmetry_multiplicity
 _atom_site_fract_x
 _atom_site_fract_y
 _atom_site_fract_z
 _atom_site_occupancy
  Zn  Zn0  1  0.62382469  0.20533152  0.63334855  1
  Zn  Zn1  1  0.37617531  0.79466848  0.36665145  1
  Co  Co2  1  0.00000000  0.00000000  0.00000000  1
  Co  Co3  1  0.00000000  0.50000000  0.00000000  1
  P  P4  1  0.55216558  0.30117637  0.21891202  1
  P  P5  1  0.44783442  0.69882363  0.78108798  1
  H  H6  1  0.10720714  0.26698151  0.73083003  1
  H  H7  1  0.89279286  0.73301849  0.26916997  1
  O  O8  1  0.38424374  0.44362654  0.68398680  1
  O  O9  1  0.61575626  0.55637346  0.31601320  1
  O  O10  1  0.95542654  0.22800828  0.78760824  1
  O  O11  1  0.26876321  0.27272433  0.12101477  1
  O  O12  1  0.73123679  0.72727567  0.87898523  1
  O  O13  1  0.04457346  0.77199172  0.21239176  1
  O  O14  1  0.58429088  0.11528496  0.36620998  1
  O  O15  1  0.74176811  0.25201907  0.08766690  1
  O  O16  1  0.41570912  0.88471504  0.63379002  1
  O  O17  1  0.25823189  0.74798093  0.91233310  1
