# generated using pymatgen
data_La3Si2Rh3
_symmetry_space_group_name_H-M   'P 1'
_cell_length_a   5.91337670
_cell_length_b   7.85116261
_cell_length_c   15.09253590
_cell_angle_alpha   90.00000000
_cell_angle_beta   90.00000000
_cell_angle_gamma   90.00000000
_symmetry_Int_Tables_number   1
_chemical_formula_structural   La3Si2Rh3
_chemical_formula_sum   'La12 Si8 Rh12'
_cell_volume   700.69938400
_cell_formula_units_Z   4
loop_
 _symmetry_equiv_pos_site_id
 _symmetry_equiv_pos_as_xyz
  1  'x, y, z'
loop_
 _atom_site_type_symbol
 _atom_site_label
 _atom_site_symmetry_multiplicity
 _atom_site_fract_x
 _atom_site_fract_y
 _atom_site_fract_z
 _atom_site_occupancy
  La  La0  1  0.14334421  0.47678013  0.89174395  1
  La  La1  1  0.35665579  0.97678013  0.89174395  1
  La  La2  1  0.61687942  0.33924131  0.75000000  1
  La  La3  1  0.38312058  0.66075869  0.25000000  1
  La  La4  1  0.64334421  0.02321987  0.39174395  1
  La  La5  1  0.85665579  0.52321987  0.10825605  1
  La  La6  1  0.85665579  0.52321987  0.39174395  1
  La  La7  1  0.35665579  0.97678013  0.60825605  1
  La  La8  1  0.88312058  0.83924131  0.75000000  1
  La  La9  1  0.14334421  0.47678013  0.60825605  1
  La  La10  1  0.64334421  0.02321987  0.10825605  1
  La  La11  1  0.11687942  0.16075869  0.25000000  1
  Si  Si12  1  0.36266397  0.36952483  0.09532565  1
  Si  Si13  1  0.63733603  0.63047517  0.90467435  1
  Si  Si14  1  0.86266397  0.13047517  0.90467435  1
  Si  Si15  1  0.36266397  0.36952483  0.40467435  1
  Si  Si16  1  0.86266397  0.13047517  0.59532565  1
  Si  Si17  1  0.63733603  0.63047517  0.59532565  1
  Si  Si18  1  0.13733603  0.86952483  0.40467435  1
  Si  Si19  1  0.13733603  0.86952483  0.09532565  1
  Rh  Rh20  1  0.60297293  0.34160660  0.96280082  1
  Rh  Rh21  1  0.39702707  0.65839340  0.03719918  1
  Rh  Rh22  1  0.56294892  0.31634740  0.25000000  1
  Rh  Rh23  1  0.39702707  0.65839340  0.46280082  1
  Rh  Rh24  1  0.06294892  0.18365260  0.75000000  1
  Rh  Rh25  1  0.10297293  0.15839340  0.46280082  1
  Rh  Rh26  1  0.43705108  0.68365260  0.75000000  1
  Rh  Rh27  1  0.93705108  0.81634740  0.25000000  1
  Rh  Rh28  1  0.10297293  0.15839340  0.03719918  1
  Rh  Rh29  1  0.60297293  0.34160660  0.53719918  1
  Rh  Rh30  1  0.89702707  0.84160660  0.53719918  1
  Rh  Rh31  1  0.89702707  0.84160660  0.96280082  1
