# generated using pymatgen
data_Li7Mn2(CoO4)3
_symmetry_space_group_name_H-M   'P 1'
_cell_length_a   2.92183339
_cell_length_b   14.42040431
_cell_length_c   5.13144773
_cell_angle_alpha   89.74362051
_cell_angle_beta   90.00000000
_cell_angle_gamma   90.00000000
_symmetry_Int_Tables_number   1
_chemical_formula_structural   Li7Mn2(CoO4)3
_chemical_formula_sum   'Li7 Mn2 Co3 O12'
_cell_volume   216.20635081
_cell_formula_units_Z   1
loop_
 _symmetry_equiv_pos_site_id
 _symmetry_equiv_pos_as_xyz
  1  'x, y, z'
loop_
 _atom_site_type_symbol
 _atom_site_label
 _atom_site_symmetry_multiplicity
 _atom_site_fract_x
 _atom_site_fract_y
 _atom_site_fract_z
 _atom_site_occupancy
  Li  Li0  1  0.50000000  0.99502066  0.50445175  1
  Li  Li1  1  -0.00000000  0.16686369  0.66263793  1
  Li  Li2  1  0.50000000  0.33333300  0.83333300  1
  Li  Li3  1  -0.00000000  0.49980331  0.00402907  1
  Li  Li4  1  -0.00000000  0.83333300  0.33333300  1
  Li  Li5  1  0.50000000  0.67164634  0.16221525  1
  Li  Li6  1  0.50000000  0.83333300  0.83333300  1
  Mn  Mn7  1  0.00000000  0.99480818  0.98845378  1
  Mn  Mn8  1  0.00000000  0.67185882  0.67821322  1
  Co  Co9  1  0.50000000  0.16609443  0.16416128  1
  Co  Co10  1  -0.00000000  0.33333300  0.33333300  1
  Co  Co11  1  0.50000000  0.50057257  0.50250572  1
  O  O12  1  0.50000000  0.92685029  0.15153542  1
  O  O13  1  -0.00000000  0.08586202  0.29906120  1
  O  O14  1  0.50000000  0.25311638  0.48269839  1
  O  O15  1  -0.00000000  0.42029580  0.65379361  1
  O  O16  1  -0.00000000  0.74142356  0.97234802  1
  O  O17  1  0.50000000  0.59068422  0.81462375  1
  O  O18  1  0.50000000  0.07598278  0.85204325  1
  O  O19  1  -0.00000000  0.24637120  0.01287339  1
  O  O20  1  0.50000000  0.41354962  0.18396761  1
  O  O21  1  0.00000000  0.58080498  0.36760580  1
  O  O22  1  -0.00000000  0.92524244  0.69431798  1
  O  O23  1  0.50000000  0.73981671  0.51513158  1
