# generated using pymatgen
data_Rb2Cr2O7
_symmetry_space_group_name_H-M   'P 1'
_cell_length_a   7.82282501
_cell_length_b   7.88848718
_cell_length_c   14.01886484
_cell_angle_alpha   93.85681778
_cell_angle_beta   90.00000000
_cell_angle_gamma   90.00000000
_symmetry_Int_Tables_number   1
_chemical_formula_structural   Rb2Cr2O7
_chemical_formula_sum   'Rb8 Cr8 O28'
_cell_volume   863.14847401
_cell_formula_units_Z   4
loop_
 _symmetry_equiv_pos_site_id
 _symmetry_equiv_pos_as_xyz
  1  'x, y, z'
loop_
 _atom_site_type_symbol
 _atom_site_label
 _atom_site_symmetry_multiplicity
 _atom_site_fract_x
 _atom_site_fract_y
 _atom_site_fract_z
 _atom_site_occupancy
  Rb  Rb0  1  0.22444658  0.19430337  0.13315949  1
  Rb  Rb1  1  0.27555342  0.69430337  0.63315949  1
  Rb  Rb2  1  0.38229754  0.85805276  0.34170874  1
  Rb  Rb3  1  0.77555342  0.80569663  0.86684051  1
  Rb  Rb4  1  0.88229754  0.64194724  0.15829126  1
  Rb  Rb5  1  0.61770246  0.14194724  0.65829126  1
  Rb  Rb6  1  0.72444658  0.30569663  0.36684051  1
  Rb  Rb7  1  0.11770246  0.35805276  0.84170874  1
  Cr  Cr8  1  0.83462172  0.81763389  0.42066662  1
  Cr  Cr9  1  0.71605296  0.11919482  0.11217550  1
  Cr  Cr10  1  0.33462172  0.68236611  0.07933338  1
  Cr  Cr11  1  0.66537828  0.31763389  0.92066662  1
  Cr  Cr12  1  0.28394704  0.88080518  0.88782450  1
  Cr  Cr13  1  0.21605296  0.38080518  0.38782450  1
  Cr  Cr14  1  0.16537828  0.18236611  0.57933338  1
  Cr  Cr15  1  0.78394704  0.61919482  0.61217550  1
  O  O16  1  0.58669530  0.05714791  0.19440966  1
  O  O17  1  0.34845022  0.23849255  0.33961194  1
  O  O18  1  0.82411285  0.95832792  0.06388311  1
  O  O19  1  0.91026807  0.71350129  0.52304786  1
  O  O20  1  0.15154978  0.73849255  0.83961194  1
  O  O21  1  0.00279326  0.11446827  0.63815286  1
  O  O22  1  0.67588715  0.45832792  0.56388311  1
  O  O23  1  0.77510764  0.18119334  0.85156146  1
  O  O24  1  0.08973193  0.28649871  0.47695214  1
  O  O25  1  0.72489236  0.68119334  0.35156146  1
  O  O26  1  0.29169371  0.02375188  0.54533446  1
  O  O27  1  0.84845022  0.26150745  0.16038806  1
  O  O28  1  0.99720674  0.88553173  0.36184714  1
  O  O29  1  0.49720674  0.61446827  0.13815286  1
  O  O30  1  0.91330470  0.55714791  0.69440966  1
  O  O31  1  0.79169371  0.47624812  0.95466554  1
  O  O32  1  0.27510764  0.31880666  0.64843854  1
  O  O33  1  0.32411285  0.54167208  0.43611689  1
  O  O34  1  0.20830629  0.52375188  0.04533446  1
  O  O35  1  0.58973193  0.21350129  0.02304786  1
  O  O36  1  0.50279326  0.38553173  0.86184714  1
  O  O37  1  0.08669530  0.44285209  0.30559034  1
  O  O38  1  0.41330470  0.94285209  0.80559034  1
  O  O39  1  0.70830629  0.97624812  0.45466554  1
  O  O40  1  0.17588715  0.04167208  0.93611689  1
  O  O41  1  0.41026807  0.78649871  0.97695214  1
  O  O42  1  0.22489236  0.81880666  0.14843854  1
  O  O43  1  0.65154978  0.76150745  0.66038806  1
