# generated using pymatgen
data_TlIn(MoO4)2
_symmetry_space_group_name_H-M   'P 1'
_cell_length_a   6.00829414
_cell_length_b   9.00103085
_cell_length_c   15.19631441
_cell_angle_alpha   89.99966656
_cell_angle_beta   89.99669855
_cell_angle_gamma   90.00046139
_symmetry_Int_Tables_number   1
_chemical_formula_structural   TlIn(MoO4)2
_chemical_formula_sum   'Tl4 In4 Mo8 O32'
_cell_volume   821.82946078
_cell_formula_units_Z   4
loop_
 _symmetry_equiv_pos_site_id
 _symmetry_equiv_pos_as_xyz
  1  'x, y, z'
loop_
 _atom_site_type_symbol
 _atom_site_label
 _atom_site_symmetry_multiplicity
 _atom_site_fract_x
 _atom_site_fract_y
 _atom_site_fract_z
 _atom_site_occupancy
  Tl  Tl0  1  0.24999645  0.44642410  0.87308238  1
  Tl  Tl1  1  0.74999691  0.94642429  0.62691941  1
  Tl  Tl2  1  0.24999764  0.05357476  0.37308401  1
  Tl  Tl3  1  0.74999733  0.55357597  0.12691778  1
  In  In4  1  0.75000103  0.80300794  0.89232412  1
  In  In5  1  0.25000070  0.30300848  0.60765838  1
  In  In6  1  0.24999820  0.19699222  0.10767512  1
  In  In7  1  0.74999915  0.69699994  0.39232313  1
  Mo  Mo8  1  0.24999588  0.71105032  0.53824710  1
  Mo  Mo9  1  0.75000158  0.99883144  0.21754261  1
  Mo  Mo10  1  0.75000454  0.21106444  0.96173103  1
  Mo  Mo11  1  0.25000243  0.49881933  0.28247927  1
  Mo  Mo12  1  0.25000291  0.78893552  0.03825334  1
  Mo  Mo13  1  0.25000725  0.00117753  0.78245662  1
  Mo  Mo14  1  0.75000122  0.28886647  0.46175019  1
  Mo  Mo15  1  0.75000071  0.50114773  0.71754022  1
  O  O16  1  0.00142624  0.10600564  0.19749362  1
  O  O17  1  0.25001977  0.09068882  0.67445432  1
  O  O18  1  0.75000001  0.85425961  0.14128109  1
  O  O19  1  0.99857262  0.60601965  0.30250761  1
  O  O20  1  0.24999742  0.35428680  0.35870745  1
  O  O21  1  0.75001278  0.48783280  0.46259707  1
  O  O22  1  0.50575645  0.21590634  0.51912281  1
  O  O23  1  0.25000996  0.98778522  0.03739498  1
  O  O24  1  0.74998422  0.01221647  0.96261053  1
  O  O25  1  0.49426555  0.78409885  0.48087626  1
  O  O26  1  0.50142935  0.60601177  0.30250609  1
  O  O27  1  0.50573728  0.28409653  0.01912952  1
  O  O28  1  0.24999971  0.14572911  0.85871025  1
  O  O29  1  0.00141194  0.39399781  0.69749222  1
  O  O30  1  0.75000427  0.59069744  0.82556292  1
  O  O31  1  0.24999290  0.40929590  0.17444896  1
  O  O32  1  0.49426390  0.71590271  0.98087252  1
  O  O33  1  0.74999588  0.21990397  0.35396442  1
  O  O34  1  0.99426210  0.28409571  0.01913001  1
  O  O35  1  0.75000549  0.64573727  0.64129073  1
  O  O36  1  0.99855985  0.89399059  0.80250861  1
  O  O37  1  0.50143189  0.89398855  0.80250692  1
  O  O38  1  0.24999971  0.78011205  0.64604235  1
  O  O39  1  0.49858820  0.39399534  0.69749081  1
  O  O40  1  0.25000004  0.71989248  0.14603949  1
  O  O41  1  0.24997923  0.51222543  0.53739366  1
  O  O42  1  0.00573370  0.78409228  0.48087391  1
  O  O43  1  0.75000350  0.28010567  0.85397047  1
  O  O44  1  0.74999996  0.90930550  0.32554860  1
  O  O45  1  0.49857379  0.10600810  0.19749293  1
  O  O46  1  0.99424227  0.21590919  0.51911962  1
  O  O47  1  0.00573610  0.71590587  0.98087453  1
