# generated using pymatgen
data_Na10Co4O9
_symmetry_space_group_name_H-M   'P 1'
_cell_length_a   8.43117953
_cell_length_b   8.52508706
_cell_length_c   11.48275083
_cell_angle_alpha   86.37807186
_cell_angle_beta   69.80566533
_cell_angle_gamma   61.19593870
_symmetry_Int_Tables_number   1
_chemical_formula_structural   Na10Co4O9
_chemical_formula_sum   'Na20 Co8 O18'
_cell_volume   673.40412022
_cell_formula_units_Z   2
loop_
 _symmetry_equiv_pos_site_id
 _symmetry_equiv_pos_as_xyz
  1  'x, y, z'
loop_
 _atom_site_type_symbol
 _atom_site_label
 _atom_site_symmetry_multiplicity
 _atom_site_fract_x
 _atom_site_fract_y
 _atom_site_fract_z
 _atom_site_occupancy
  Na  Na0  1  0.86126298  0.32252612  0.88046615  1
  Na  Na1  1  0.62970001  0.16234085  0.63669315  1
  Na  Na2  1  0.47617986  0.42505068  0.87812435  1
  Na  Na3  1  0.37029999  0.83765915  0.36330685  1
  Na  Na4  1  0.65270388  0.41997087  0.37292312  1
  Na  Na5  1  0.17345521  0.34087239  0.62933111  1
  Na  Na6  1  0.09871994  0.22558634  0.38150745  1
  Na  Na7  1  0.34729612  0.58002913  0.62707688  1
  Na  Na8  1  0.00534692  0.63025730  0.85614497  1
  Na  Na9  1  0.73343092  0.02493746  0.88600892  1
  Na  Na10  1  0.84471110  0.11347693  0.11424575  1
  Na  Na11  1  0.52382014  0.57494932  0.12187565  1
  Na  Na12  1  0.13873702  0.67747388  0.11953385  1
  Na  Na13  1  0.82654479  0.65912761  0.37066889  1
  Na  Na14  1  0.50175035  0.11542723  0.39161672  1
  Na  Na15  1  0.49824965  0.88457277  0.60838328  1
  Na  Na16  1  0.15528890  0.88652307  0.88575425  1
  Na  Na17  1  0.26656908  0.97506254  0.11399108  1
  Na  Na18  1  0.99465308  0.36974270  0.14385503  1
  Na  Na19  1  0.90128006  0.77441366  0.61849255  1
  Co  Co20  1  0.57570927  0.75288319  0.84988714  1
  Co  Co21  1  0.42429073  0.24711681  0.15011286  1
  Co  Co22  1  0.93692461  0.96702204  0.35593512  1
  Co  Co23  1  0.29048325  0.18769303  0.85683824  1
  Co  Co24  1  0.70951675  0.81230697  0.14316176  1
  Co  Co25  1  0.06307539  0.03297796  0.64406488  1
  Co  Co26  1  0.24155083  0.53506080  0.34916020  1
  Co  Co27  1  0.75844917  0.46493920  0.65083980  1
  O  O28  1  0.55306888  0.96807901  0.78566116  1
  O  O29  1  0.84121941  0.56439228  0.75182165  1
  O  O30  1  0.35140322  0.42928042  0.46226762  1
  O  O31  1  0.25105752  0.06591284  0.52667278  1
  O  O32  1  0.09238742  0.16790022  0.97208139  1
  O  O33  1  0.64859678  0.57071958  0.53773238  1
  O  O34  1  0.20178015  0.75513524  0.28325407  1
  O  O35  1  0.94009340  0.15738602  0.27446736  1
  O  O36  1  0.15878059  0.43560772  0.24817835  1
  O  O37  1  0.44693112  0.03192099  0.21433884  1
  O  O38  1  0.30967090  0.37237597  0.77281044  1
  O  O39  1  0.05990660  0.84261398  0.72553264  1
  O  O40  1  0.39820803  0.70857861  0.96638300  1
  O  O41  1  0.69032910  0.62762403  0.22718956  1
  O  O42  1  0.74894248  0.93408716  0.47332722  1
  O  O43  1  0.79821985  0.24486476  0.71674593  1
  O  O44  1  0.90761258  0.83209978  0.02791861  1
  O  O45  1  0.60179197  0.29142139  0.03361700  1
