# generated using pymatgen
data_K3Nb2CuSe12
_symmetry_space_group_name_H-M   'P 1'
_cell_length_a   9.70771126
_cell_length_b   13.90756736
_cell_length_c   15.62247004
_cell_angle_alpha   90.00000000
_cell_angle_beta   94.79872622
_cell_angle_gamma   90.00000000
_symmetry_Int_Tables_number   1
_chemical_formula_structural   K3Nb2CuSe12
_chemical_formula_sum   'K12 Nb8 Cu4 Se48'
_cell_volume   2101.80647075
_cell_formula_units_Z   4
loop_
 _symmetry_equiv_pos_site_id
 _symmetry_equiv_pos_as_xyz
  1  'x, y, z'
loop_
 _atom_site_type_symbol
 _atom_site_label
 _atom_site_symmetry_multiplicity
 _atom_site_fract_x
 _atom_site_fract_y
 _atom_site_fract_z
 _atom_site_occupancy
  K  K0  1  0.08670275  0.40987862  0.72825113  1
  K  K1  1  0.41329725  0.90987862  0.77174887  1
  K  K2  1  0.91329725  0.59012138  0.27174887  1
  K  K3  1  0.58670275  0.09012138  0.22825113  1
  K  K4  1  0.00558258  0.10265700  0.84200228  1
  K  K5  1  0.49441742  0.60265700  0.65799772  1
  K  K6  1  0.99441742  0.89734300  0.15799772  1
  K  K7  1  0.50558258  0.39734300  0.34200228  1
  K  K8  1  0.75718468  0.91648364  0.49379036  1
  K  K9  1  0.24281532  0.08351636  0.50620964  1
  K  K10  1  0.74281532  0.41648364  0.00620964  1
  K  K11  1  0.25718468  0.58351636  0.99379036  1
  Cu  Cu12  1  0.81301371  0.19594517  0.42308533  1
  Cu  Cu13  1  0.68698629  0.69594517  0.07691467  1
  Cu  Cu14  1  0.18698629  0.80405483  0.57691467  1
  Cu  Cu15  1  0.31301371  0.30405483  0.92308533  1
  Se  Se16  1  0.76143215  0.81935414  0.75431548  1
  Se  Se17  1  0.66352456  0.41033142  0.56530335  1
  Se  Se18  1  0.83647544  0.91033142  0.93469665  1
  Se  Se19  1  0.33647544  0.58966858  0.43469665  1
  Se  Se20  1  0.16352456  0.08966858  0.06530335  1
  Se  Se21  1  0.93608460  0.23572586  0.56474632  1
  Se  Se22  1  0.56391540  0.73572586  0.93525368  1
  Se  Se23  1  0.06391540  0.76427414  0.43525368  1
  Se  Se24  1  0.76167412  0.29706150  0.19996937  1
  Se  Se25  1  0.73832588  0.79706150  0.30003063  1
  Se  Se26  1  0.23832588  0.70293850  0.80003063  1
  Se  Se27  1  0.26167412  0.20293850  0.69996937  1
  Se  Se28  1  0.91232904  0.07329570  0.33950959  1
  Se  Se29  1  0.58767096  0.57329570  0.16049041  1
  Se  Se30  1  0.08767096  0.92670430  0.66049041  1
  Se  Se31  1  0.41232904  0.42670430  0.83950959  1
  Se  Se32  1  0.20345921  0.27875348  0.37025169  1
  Se  Se33  1  0.29654079  0.77875348  0.12974831  1
  Se  Se34  1  0.79654079  0.72124652  0.62974831  1
  Se  Se35  1  0.70345921  0.22124652  0.87025169  1
  Se  Se36  1  0.00364545  0.38918114  0.50515145  1
  Se  Se37  1  0.49635455  0.88918114  0.99484855  1
  Se  Se38  1  0.99635455  0.61081886  0.49484855  1
  Se  Se39  1  0.50364545  0.11081886  0.00515145  1
  Se  Se40  1  0.07210522  0.33125107  0.93595419  1
  Se  Se41  1  0.42789478  0.83125107  0.56404581  1
  Se  Se42  1  0.92789478  0.66874893  0.06404581  1
  Se  Se43  1  0.57210522  0.16874893  0.43595419  1
  Se  Se44  1  0.77506936  0.07308553  0.65755562  1
  Se  Se45  1  0.46737735  0.89144610  0.32792600  1
  Se  Se46  1  0.96737735  0.60855390  0.82792600  1
  Se  Se47  1  0.53262265  0.10855390  0.67207400  1
  Se  Se48  1  0.95113058  0.16410546  0.10896218  1
  Se  Se49  1  0.54886942  0.66410546  0.39103782  1
  Se  Se50  1  0.04886942  0.83589454  0.89103782  1
  Se  Se51  1  0.45113058  0.33589454  0.60896218  1
  Se  Se52  1  0.23856785  0.18064586  0.24568452  1
  Se  Se53  1  0.26143215  0.68064586  0.25431548  1
  Se  Se54  1  0.43608460  0.26427414  0.06474632  1
  Se  Se55  1  0.73856785  0.31935414  0.74568452  1
  Se  Se56  1  0.86477163  0.36030088  0.36159752  1
  Se  Se57  1  0.63522837  0.86030088  0.13840248  1
  Se  Se58  1  0.13522837  0.63969912  0.63840248  1
  Se  Se59  1  0.36477163  0.13969912  0.86159752  1
  Se  Se60  1  0.27506936  0.42691447  0.15755562  1
  Se  Se61  1  0.22493064  0.92691447  0.34244438  1
  Se  Se62  1  0.72493064  0.57308553  0.84244438  1
  Se  Se63  1  0.03262265  0.39144610  0.17207400  1
  Nb  Nb64  1  0.16747090  0.27558418  0.07774961  1
  Nb  Nb65  1  0.48649133  0.27490264  0.77674319  1
  Nb  Nb66  1  0.01350867  0.77490264  0.72325681  1
  Nb  Nb67  1  0.51350867  0.72509736  0.22325681  1
  Nb  Nb68  1  0.98649133  0.22509736  0.27674319  1
  Nb  Nb69  1  0.66747090  0.22441582  0.57774961  1
  Nb  Nb70  1  0.83252910  0.72441582  0.92225039  1
  Nb  Nb71  1  0.33252910  0.77558418  0.42225039  1
