# generated using pymatgen
data_Gd(CoB)2
_symmetry_space_group_name_H-M   'P 1'
_cell_length_a   3.55627600
_cell_length_b   3.55627578
_cell_length_c   5.39741412
_cell_angle_alpha   109.23493316
_cell_angle_beta   109.23493186
_cell_angle_gamma   90.00000711
_symmetry_Int_Tables_number   1
_chemical_formula_structural   Gd(CoB)2
_chemical_formula_sum   'Gd1 Co2 B2'
_cell_volume   60.40037108
_cell_formula_units_Z   1
loop_
 _symmetry_equiv_pos_site_id
 _symmetry_equiv_pos_as_xyz
  1  'x, y, z'
loop_
 _atom_site_type_symbol
 _atom_site_label
 _atom_site_symmetry_multiplicity
 _atom_site_fract_x
 _atom_site_fract_y
 _atom_site_fract_z
 _atom_site_occupancy
  Gd  Gd0  1  0.00000000  0.00000000  -0.00000000  1
  Co  Co1  1  0.25000000  0.75000000  0.50000000  1
  Co  Co2  1  0.75000000  0.25000000  0.50000000  1
  B  B3  1  0.34475194  0.34475194  0.68950388  1
  B  B4  1  0.65524806  0.65524806  0.31049612  1
