# generated using pymatgen
data_KYb(PO3)4
_symmetry_space_group_name_H-M   'P 1'
_cell_length_a   7.90065659
_cell_length_b   9.11006770
_cell_length_c   15.29365696
_cell_angle_alpha   90.00000000
_cell_angle_beta   96.34460269
_cell_angle_gamma   90.00000000
_symmetry_Int_Tables_number   1
_chemical_formula_structural   KYb(PO3)4
_chemical_formula_sum   'K4 Yb4 P16 O48'
_cell_volume   1094.02690197
_cell_formula_units_Z   4
loop_
 _symmetry_equiv_pos_site_id
 _symmetry_equiv_pos_as_xyz
  1  'x, y, z'
loop_
 _atom_site_type_symbol
 _atom_site_label
 _atom_site_symmetry_multiplicity
 _atom_site_fract_x
 _atom_site_fract_y
 _atom_site_fract_z
 _atom_site_occupancy
  Yb  Yb0  1  0.45285366  0.15711612  0.14752212  1
  Yb  Yb1  1  0.54714634  0.84288388  0.85247788  1
  Yb  Yb2  1  0.95285366  0.34288388  0.64752212  1
  Yb  Yb3  1  0.04714634  0.65711612  0.35247788  1
  K  K4  1  0.91821910  0.35302995  0.11160034  1
  K  K5  1  0.58178090  0.85302995  0.38839966  1
  K  K6  1  0.08178090  0.64697005  0.88839966  1
  K  K7  1  0.41821910  0.14697005  0.61160034  1
  P  P8  1  0.18677349  0.22704033  0.94579287  1
  P  P9  1  0.63611384  0.45430120  0.28202919  1
  P  P10  1  0.44390289  0.77039753  0.07300672  1
  P  P11  1  0.19358786  0.03428683  0.31202270  1
  P  P12  1  0.94390289  0.72960247  0.57300672  1
  P  P13  1  0.81322651  0.77295967  0.05420713  1
  P  P14  1  0.31322651  0.72704033  0.55420713  1
  P  P15  1  0.86388616  0.95430120  0.21797081  1
  P  P16  1  0.69358786  0.46571317  0.81202270  1
  P  P17  1  0.80641214  0.96571317  0.68797730  1
  P  P18  1  0.55609711  0.22960247  0.92699328  1
  P  P19  1  0.05609711  0.27039753  0.42699328  1
  P  P20  1  0.13611384  0.04569880  0.78202919  1
  P  P21  1  0.30641214  0.53428683  0.18797730  1
  P  P22  1  0.36388616  0.54569880  0.71797081  1
  P  P23  1  0.68677349  0.27295967  0.44579287  1
  O  O24  1  0.36049724  0.65940371  0.78825769  1
  O  O25  1  0.40462926  0.89795050  0.12905245  1
  O  O26  1  0.97223964  0.93880621  0.76010717  1
  O  O27  1  0.90295575  0.71842767  0.47509237  1
  O  O28  1  0.91135014  0.88035724  0.12654601  1
  O  O29  1  0.73116427  0.35731282  0.52966974  1
  O  O30  1  0.85509374  0.87817219  0.60219341  1
  O  O31  1  0.76883573  0.85731282  0.97033026  1
  O  O32  1  0.35633205  0.27578701  0.90235972  1
  O  O33  1  0.34228601  0.10624889  0.27717828  1
  O  O34  1  0.71174710  0.62399413  0.83830596  1
  O  O35  1  0.47223964  0.56119379  0.26010717  1
  O  O36  1  0.21047523  0.45143308  0.69682189  1
  O  O37  1  0.28952477  0.95143308  0.80317811  1
  O  O38  1  0.35509374  0.62182781  0.10219341  1
  O  O39  1  0.78825290  0.12399413  0.66169404  1
  O  O40  1  0.14490626  0.12182781  0.39780659  1
  O  O41  1  0.64490626  0.37817219  0.89780659  1
  O  O42  1  0.40295575  0.78157233  0.97509237  1
  O  O43  1  0.14366795  0.77578701  0.59764028  1
  O  O44  1  0.92055719  0.63876405  0.04583643  1
  O  O45  1  0.78952477  0.54856692  0.30317811  1
  O  O46  1  0.02776036  0.06119379  0.23989283  1
  O  O47  1  0.63950276  0.34059629  0.21174231  1
  O  O48  1  0.85633205  0.22421299  0.40235972  1
  O  O49  1  0.13950276  0.15940371  0.71174231  1
  O  O50  1  0.84228601  0.39375111  0.77717828  1
  O  O51  1  0.15771399  0.60624889  0.22282172  1
  O  O52  1  0.42055719  0.86123595  0.54583643  1
  O  O53  1  0.09537074  0.39795050  0.37094755  1
  O  O54  1  0.52776036  0.43880621  0.73989283  1
  O  O55  1  0.86049724  0.84059629  0.28825769  1
  O  O56  1  0.71047523  0.04856692  0.19682189  1
  O  O57  1  0.26883573  0.64268718  0.47033026  1
  O  O58  1  0.09704425  0.28157233  0.52490763  1
  O  O59  1  0.58864986  0.38035724  0.37345399  1
  O  O60  1  0.57944281  0.13876405  0.45416357  1
  O  O61  1  0.65771399  0.89375111  0.72282172  1
  O  O62  1  0.28825290  0.37600587  0.16169404  1
  O  O63  1  0.90462926  0.60204950  0.62905245  1
  O  O64  1  0.41135014  0.61964276  0.62654601  1
  O  O65  1  0.08864986  0.11964276  0.87345399  1
  O  O66  1  0.59704425  0.21842767  0.02490763  1
  O  O67  1  0.21174710  0.87600587  0.33830596  1
  O  O68  1  0.64366795  0.72421299  0.09764028  1
  O  O69  1  0.07944281  0.36123595  0.95416357  1
  O  O70  1  0.23116427  0.14268718  0.02966974  1
  O  O71  1  0.59537074  0.10204950  0.87094755  1
