# generated using pymatgen
data_Ba2Ti(SiO4)2
_symmetry_space_group_name_H-M   'P 1'
_cell_length_a   5.32575717
_cell_length_b   8.62982612
_cell_length_c   8.62982612
_cell_angle_alpha   90.00000000
_cell_angle_beta   90.00000000
_cell_angle_gamma   90.00000000
_symmetry_Int_Tables_number   1
_chemical_formula_structural   Ba2Ti(SiO4)2
_chemical_formula_sum   'Ba4 Ti2 Si4 O16'
_cell_volume   396.62990084
_cell_formula_units_Z   2
loop_
 _symmetry_equiv_pos_site_id
 _symmetry_equiv_pos_as_xyz
  1  'x, y, z'
loop_
 _atom_site_type_symbol
 _atom_site_label
 _atom_site_symmetry_multiplicity
 _atom_site_fract_x
 _atom_site_fract_y
 _atom_site_fract_z
 _atom_site_occupancy
  O  O0  1  0.21452727  0.50000000  0.50000000  1
  O  O1  1  0.21452727  0.00000000  0.00000000  1
  O  O2  1  0.64165358  0.07721296  0.79263810  1
  O  O3  1  0.64165358  0.92278704  0.20736190  1
  O  O4  1  0.64165358  0.79263810  0.92278704  1
  O  O5  1  0.64165358  0.20736190  0.07721296  1
  O  O6  1  0.64165358  0.70736190  0.42278704  1
  O  O7  1  0.64165358  0.57721296  0.70736190  1
  O  O8  1  0.64165358  0.42278704  0.29263810  1
  O  O9  1  0.64165358  0.29263810  0.57721296  1
  O  O10  1  0.62446780  0.00000000  0.50000000  1
  O  O11  1  0.62446780  0.50000000  0.00000000  1
  O  O12  1  0.20760936  0.12727489  0.62727489  1
  O  O13  1  0.20760936  0.37272511  0.12727489  1
  O  O14  1  0.20760936  0.62727489  0.87272511  1
  O  O15  1  0.20760936  0.87272511  0.37272511  1
  Si  Si16  1  0.50957811  0.87158590  0.37158590  1
  Si  Si17  1  0.50957811  0.62841410  0.87158590  1
  Si  Si18  1  0.50957811  0.37158590  0.12841410  1
  Si  Si19  1  0.50957811  0.12841410  0.62841410  1
  Ti  Ti20  1  0.53440443  0.50000000  0.50000000  1
  Ti  Ti21  1  0.53440443  0.00000000  0.00000000  1
  Ba  Ba22  1  0.99080562  0.67288577  0.17288577  1
  Ba  Ba23  1  0.99080562  0.82711423  0.67288577  1
  Ba  Ba24  1  0.99080562  0.17288577  0.32711423  1
  Ba  Ba25  1  0.99080562  0.32711423  0.82711423  1
