# generated using pymatgen
data_Mg2PO4F
_symmetry_space_group_name_H-M   'P 1'
_cell_length_a   9.75317313
_cell_length_b   12.05428872
_cell_length_c   12.81013743
_cell_angle_alpha   90.00000000
_cell_angle_beta   90.00000000
_cell_angle_gamma   108.22944252
_symmetry_Int_Tables_number   1
_chemical_formula_structural   Mg2PO4F
_chemical_formula_sum   'Mg32 P16 O64 F16'
_cell_volume   1430.46982761
_cell_formula_units_Z   16
loop_
 _symmetry_equiv_pos_site_id
 _symmetry_equiv_pos_as_xyz
  1  'x, y, z'
loop_
 _atom_site_type_symbol
 _atom_site_label
 _atom_site_symmetry_multiplicity
 _atom_site_fract_x
 _atom_site_fract_y
 _atom_site_fract_z
 _atom_site_occupancy
  O  O0  1  0.52825341  0.94891945  0.91735765  1
  O  O1  1  0.73936563  0.54076987  0.20188201  1
  O  O2  1  0.73936563  0.04076987  0.29811799  1
  O  O3  1  0.26063437  0.45923013  0.79811799  1
  O  O4  1  0.73779364  0.54081906  0.70132932  1
  O  O5  1  0.26220636  0.95918094  0.20132932  1
  O  O6  1  0.26220636  0.45918094  0.29867068  1
  O  O7  1  0.73779364  0.04081906  0.79867068  1
  O  O8  1  0.23199234  0.54678964  0.55254451  1
  O  O9  1  0.76800766  0.95321036  0.05254451  1
  O  O10  1  0.76800766  0.45321036  0.44745549  1
  O  O11  1  0.23199234  0.04678964  0.94745549  1
  O  O12  1  0.75852998  0.96341592  0.54693255  1
  O  O13  1  0.24147002  0.53658408  0.04693255  1
  O  O14  1  0.24147002  0.03658408  0.45306745  1
  O  O15  1  0.75852998  0.46341592  0.95306745  1
  O  O16  1  0.01824225  0.43252087  0.66323051  1
  O  O17  1  0.98175775  0.06747913  0.16323051  1
  O  O18  1  0.98175775  0.56747913  0.33676949  1
  O  O19  1  0.01824225  0.93252087  0.83676949  1
  O  O20  1  0.97373454  0.04497440  0.66617732  1
  O  O21  1  0.02626546  0.45502560  0.16617732  1
  O  O22  1  0.02626546  0.95502560  0.33382268  1
  O  O23  1  0.97373454  0.54497440  0.83382268  1
  O  O24  1  0.47933809  0.05986653  0.58700537  1
  O  O25  1  0.52066191  0.44013347  0.08700537  1
  O  O26  1  0.52066191  0.94013347  0.41299463  1
  O  O27  1  0.47933809  0.55986653  0.91299463  1
  O  O28  1  0.52825341  0.44891945  0.58264235  1
  O  O29  1  0.47174659  0.05108055  0.08264235  1
  O  O30  1  0.47174659  0.55108055  0.41735765  1
  O  O31  1  0.26063437  0.95923013  0.70188201  1
  O  O32  1  0.48031794  0.61835515  0.72673169  1
  O  O33  1  0.51968206  0.88164485  0.22673169  1
  O  O34  1  0.51968206  0.38164485  0.27326831  1
  O  O35  1  0.48031794  0.11835515  0.77326831  1
  O  O36  1  0.51620126  0.88178518  0.73101821  1
  O  O37  1  0.48379874  0.61821482  0.23101821  1
  O  O38  1  0.48379874  0.11821482  0.26898179  1
  O  O39  1  0.51620126  0.38178518  0.76898179  1
  O  O40  1  0.97828035  0.61639052  0.52524253  1
  O  O41  1  0.02171965  0.88360948  0.02524253  1
  O  O42  1  0.02171965  0.38360948  0.47475747  1
  O  O43  1  0.97828035  0.11639052  0.97475747  1
  O  O44  1  0.01427903  0.87952623  0.51706628  1
  O  O45  1  0.98572097  0.62047377  0.01706628  1
  O  O46  1  0.98572097  0.12047377  0.48293372  1
  O  O47  1  0.01427903  0.37952623  0.98293372  1
  O  O48  1  0.82103812  0.67283206  0.88962435  1
  O  O49  1  0.17896188  0.82716794  0.38962435  1
  O  O50  1  0.17896188  0.32716794  0.11037565  1
  O  O51  1  0.82103812  0.17283206  0.61037565  1
  O  O52  1  0.20151696  0.83540692  0.90496221  1
  O  O53  1  0.79848304  0.66459308  0.40496221  1
  O  O54  1  0.79848304  0.16459308  0.09503779  1
  O  O55  1  0.20151696  0.33540692  0.59503779  1
  O  O56  1  0.68645998  0.82930108  0.85585859  1
  O  O57  1  0.31354002  0.67069892  0.35585859  1
  O  O58  1  0.30625598  0.16974310  0.65130935  1
  O  O59  1  0.68645998  0.32930108  0.64414141  1
  O  O60  1  0.30625598  0.66974310  0.84869065  1
  O  O61  1  0.69374402  0.83025690  0.34869065  1
  O  O62  1  0.69374402  0.33025690  0.15130935  1
  O  O63  1  0.31354002  0.17069892  0.14414141  1
  F  F64  1  0.58594440  0.24527001  0.95044318  1
  F  F65  1  0.41405560  0.25472999  0.45044318  1
  F  F66  1  0.41405560  0.75472999  0.04955682  1
  F  F67  1  0.58594440  0.74527001  0.54955682  1
  F  F68  1  0.33140879  0.28316894  0.91551278  1
  F  F69  1  0.66859121  0.21683106  0.41551278  1
  F  F70  1  0.66859121  0.71683106  0.08448722  1
  F  F71  1  0.33140879  0.78316894  0.58448722  1
  F  F72  1  0.83072712  0.27862949  0.83823994  1
  F  F73  1  0.16927288  0.22137051  0.33823994  1
  F  F74  1  0.16927288  0.72137051  0.16176006  1
  F  F75  1  0.83072712  0.77862949  0.66176006  1
  F  F76  1  0.08873833  0.24068590  0.79809492  1
  F  F77  1  0.91126167  0.25931410  0.29809492  1
  F  F78  1  0.91126167  0.75931410  0.20190508  1
  F  F79  1  0.08873833  0.74068590  0.70190508  1
  Mg  Mg80  1  0.29333154  0.30663437  0.74429653  1
  Mg  Mg81  1  0.70666846  0.19336563  0.24429653  1
  Mg  Mg82  1  0.70666846  0.69336563  0.25570347  1
  Mg  Mg83  1  0.29333154  0.80663437  0.75570347  1
  Mg  Mg84  1  0.69454799  0.18716350  0.73277620  1
  Mg  Mg85  1  0.30545201  0.31283650  0.23277620  1
  Mg  Mg86  1  0.30545201  0.81283650  0.26722380  1
  Mg  Mg87  1  0.69454799  0.68716350  0.76722380  1
  Mg  Mg88  1  0.20973666  0.19217328  0.50502583  1
  Mg  Mg89  1  0.79026334  0.30782672  0.00502583  1
  Mg  Mg90  1  0.79026334  0.80782672  0.49497417  1
  Mg  Mg91  1  0.20973666  0.69217328  0.99497417  1
  Mg  Mg92  1  0.80813920  0.30917137  0.51867450  1
  Mg  Mg93  1  0.19186080  0.19082863  0.01867450  1
  Mg  Mg94  1  0.19186080  0.69082863  0.48132550  1
  Mg  Mg95  1  0.80813920  0.80917137  0.98132550  1
  Mg  Mg96  1  0.03614515  0.89398269  0.67711787  1
  Mg  Mg97  1  0.96385485  0.60601731  0.17711787  1
  Mg  Mg98  1  0.96385485  0.10601731  0.32288213  1
  Mg  Mg99  1  0.03614515  0.39398269  0.82288213  1
  Mg  Mg100  1  0.95369905  0.58076565  0.68151054  1
  Mg  Mg101  1  0.04630095  0.91923435  0.18151054  1
  Mg  Mg102  1  0.04630095  0.41923435  0.31848946  1
  Mg  Mg103  1  0.95369905  0.08076565  0.81848946  1
  Mg  Mg104  1  0.44939656  0.08719440  0.92887586  1
  Mg  Mg105  1  0.46492662  0.59938940  0.06997871  1
  Mg  Mg106  1  0.46492662  0.09938940  0.43002129  1
  Mg  Mg107  1  0.53507338  0.40061060  0.93002129  1
  Mg  Mg108  1  0.44939656  0.58719440  0.57112414  1
  Mg  Mg109  1  0.55060344  0.91280560  0.07112414  1
  Mg  Mg110  1  0.55060344  0.41280560  0.42887586  1
  Mg  Mg111  1  0.53507338  0.90061060  0.56997871  1
  P  P112  1  0.37899147  0.07581640  0.67690475  1
  P  P113  1  0.62100853  0.42418360  0.17690475  1
  P  P114  1  0.62100853  0.92418360  0.32309525  1
  P  P115  1  0.37899147  0.57581640  0.82309525  1
  P  P116  1  0.61773923  0.42487372  0.67475248  1
  P  P117  1  0.38226077  0.07512628  0.17475248  1
  P  P118  1  0.38226077  0.57512628  0.32524752  1
  P  P119  1  0.61773923  0.92487372  0.82524752  1
  P  P120  1  0.12054187  0.42405390  0.57207103  1
  P  P121  1  0.87945813  0.07594610  0.07207103  1
  P  P122  1  0.87945813  0.57594610  0.42792897  1
  P  P123  1  0.12054187  0.92405390  0.92792897  1
  P  P124  1  0.88344242  0.07403198  0.57664061  1
  P  P125  1  0.11655758  0.42596802  0.07664061  1
  P  P126  1  0.11655758  0.92596802  0.42335939  1
  P  P127  1  0.88344242  0.57403198  0.92335939  1
