# generated using pymatgen
data_K3Np(MoO5)2
_symmetry_space_group_name_H-M   'P 1'
_cell_length_a   7.49409739
_cell_length_b   8.07523209
_cell_length_c   10.45884586
_cell_angle_alpha   91.97630800
_cell_angle_beta   94.26544337
_cell_angle_gamma   109.08517774
_symmetry_Int_Tables_number   1
_chemical_formula_structural   K3Np(MoO5)2
_chemical_formula_sum   'K6 Np2 Mo4 O20'
_cell_volume   595.32428657
_cell_formula_units_Z   2
loop_
 _symmetry_equiv_pos_site_id
 _symmetry_equiv_pos_as_xyz
  1  'x, y, z'
loop_
 _atom_site_type_symbol
 _atom_site_label
 _atom_site_symmetry_multiplicity
 _atom_site_fract_x
 _atom_site_fract_y
 _atom_site_fract_z
 _atom_site_occupancy
  K  K0  1  0.73352308  0.88198302  0.40698910  1
  K  K1  1  0.78776836  0.16283736  0.76589653  1
  K  K2  1  0.26647692  0.11801698  0.59301090  1
  K  K3  1  0.28078107  0.61425194  0.92805854  1
  K  K4  1  0.71921893  0.38574806  0.07194146  1
  K  K5  1  0.21223164  0.83716264  0.23410347  1
  Np  Np6  1  0.85545952  0.70360157  0.73956094  1
  Np  Np7  1  0.14454048  0.29639843  0.26043906  1
  Mo  Mo8  1  0.30292847  0.62905542  0.57485574  1
  Mo  Mo9  1  0.75039087  0.89109422  0.06416289  1
  Mo  Mo10  1  0.69707153  0.37094458  0.42514426  1
  Mo  Mo11  1  0.24960913  0.10890578  0.93583711  1
  O  O12  1  0.10080372  0.08897161  0.34540931  1
  O  O13  1  0.31572130  0.19258066  0.10258137  1
  O  O14  1  0.51473068  0.60950794  0.65668082  1
  O  O15  1  0.46188569  0.11326664  0.86930982  1
  O  O16  1  0.48526932  0.39049206  0.34331918  1
  O  O17  1  0.16334285  0.68581386  0.69315289  1
  O  O18  1  0.89919628  0.91102839  0.65459069  1
  O  O19  1  0.63287339  0.19849427  0.53173532  1
  O  O20  1  0.83665715  0.31418614  0.30684711  1
  O  O21  1  0.83684291  0.74604574  0.15558015  1
  O  O22  1  0.17627704  0.49792489  0.17095034  1
  O  O23  1  0.68427870  0.80741934  0.89741863  1
  O  O24  1  0.82372296  0.50207511  0.82904966  1
  O  O25  1  0.17535590  0.42485483  0.48453500  1
  O  O26  1  0.53811431  0.88673336  0.13069018  1
  O  O27  1  0.91323522  0.11788144  0.08138990  1
  O  O28  1  0.16315709  0.25395426  0.84441985  1
  O  O29  1  0.82464410  0.57514517  0.51546500  1
  O  O30  1  0.36712661  0.80150573  0.46826468  1
  O  O31  1  0.08676478  0.88211856  0.91861010  1
