# generated using pymatgen
data_Nd(HO)3
_symmetry_space_group_name_H-M   'P 1'
_cell_length_a   6.50537846
_cell_length_b   6.50554837
_cell_length_c   3.75042826
_cell_angle_alpha   90.00000000
_cell_angle_beta   90.00000000
_cell_angle_gamma   120.00111249
_symmetry_Int_Tables_number   1
_chemical_formula_structural   Nd(HO)3
_chemical_formula_sum   'Nd2 H6 O6'
_cell_volume   137.45581065
_cell_formula_units_Z   2
loop_
 _symmetry_equiv_pos_site_id
 _symmetry_equiv_pos_as_xyz
  1  'x, y, z'
loop_
 _atom_site_type_symbol
 _atom_site_label
 _atom_site_symmetry_multiplicity
 _atom_site_fract_x
 _atom_site_fract_y
 _atom_site_fract_z
 _atom_site_occupancy
  Nd  Nd0  1  0.33355683  0.66693957  0.25000000  1
  Nd  Nd1  1  0.66644317  0.33306043  0.75000000  1
  H  H2  1  0.87130051  0.72642921  0.25000000  1
  H  H3  1  0.85527031  0.12923347  0.25000000  1
  H  H4  1  0.27381113  0.14481567  0.25000000  1
  H  H5  1  0.12869949  0.27357079  0.75000000  1
  H  H6  1  0.14472969  0.87076653  0.75000000  1
  H  H7  1  0.72618887  0.85518433  0.75000000  1
  O  O8  1  0.91912288  0.60647867  0.25000000  1
  O  O9  1  0.68759430  0.08111913  0.25000000  1
  O  O10  1  0.39373644  0.31258337  0.25000000  1
  O  O11  1  0.08087712  0.39352133  0.75000000  1
  O  O12  1  0.31240570  0.91888087  0.75000000  1
  O  O13  1  0.60626356  0.68741663  0.75000000  1
