# generated using pymatgen
data_Cs2Ni(NO3)4
_symmetry_space_group_name_H-M   'P 1'
_cell_length_a   6.51037946
_cell_length_b   7.89192639
_cell_length_c   13.51616293
_cell_angle_alpha   87.66306166
_cell_angle_beta   77.71293585
_cell_angle_gamma   71.95529569
_symmetry_Int_Tables_number   1
_chemical_formula_structural   Cs2Ni(NO3)4
_chemical_formula_sum   'Cs4 Ni2 N8 O24'
_cell_volume   644.93493184
_cell_formula_units_Z   2
loop_
 _symmetry_equiv_pos_site_id
 _symmetry_equiv_pos_as_xyz
  1  'x, y, z'
loop_
 _atom_site_type_symbol
 _atom_site_label
 _atom_site_symmetry_multiplicity
 _atom_site_fract_x
 _atom_site_fract_y
 _atom_site_fract_z
 _atom_site_occupancy
  Cs  Cs0  1  0.35252516  0.77498766  0.40438435  1
  Cs  Cs1  1  0.64747484  0.22501234  0.59561565  1
  Cs  Cs2  1  0.84732997  0.29563003  0.92049642  1
  Cs  Cs3  1  0.15267003  0.70436997  0.07950358  1
  Ni  Ni4  1  0.06009879  0.23283906  0.26333221  1
  Ni  Ni5  1  0.93990121  0.76716094  0.73666779  1
  N  N6  1  0.74648604  0.46026252  0.20330676  1
  N  N7  1  0.81793969  0.95975737  0.31095926  1
  N  N8  1  0.18206031  0.04024263  0.68904074  1
  N  N9  1  0.51050464  0.87544223  0.87842882  1
  N  N10  1  0.25351396  0.53973748  0.79669324  1
  N  N11  1  0.48949536  0.12455777  0.12157118  1
  N  N12  1  0.19050191  0.34362579  0.40356981  1
  N  N13  1  0.80949809  0.65637421  0.59643019  1
  O  O14  1  0.01827651  0.99610951  0.74666933  1
  O  O15  1  0.88193686  0.79333550  0.58849530  1
  O  O16  1  0.63563563  0.93154828  0.80451800  1
  O  O17  1  0.98172349  0.00389049  0.25333067  1
  O  O18  1  0.57431738  0.71690938  0.90541983  1
  O  O19  1  0.19299431  0.19213027  0.70456686  1
  O  O20  1  0.32940886  0.98328146  0.92010131  1
  O  O21  1  0.59983213  0.57617148  0.17256796  1
  O  O22  1  0.73438069  0.42065518  0.29688755  1
  O  O23  1  0.80700569  0.80786973  0.29543314  1
  O  O24  1  0.31614168  0.93393530  0.62199943  1
  O  O25  1  0.26561931  0.57934482  0.70311245  1
  O  O26  1  0.68385832  0.06606470  0.37800057  1
  O  O27  1  0.67059114  0.01671854  0.07989869  1
  O  O28  1  0.42568262  0.28309062  0.09458017  1
  O  O29  1  0.19080135  0.42152853  0.31854497  1
  O  O30  1  0.36436437  0.06845172  0.19548200  1
  O  O31  1  0.92798205  0.37051664  0.14238617  1
  O  O32  1  0.40016787  0.42382852  0.82743204  1
  O  O33  1  0.74744101  0.60505667  0.52634095  1
  O  O34  1  0.07201795  0.62948336  0.85761383  1
  O  O35  1  0.25255899  0.39494333  0.47365905  1
  O  O36  1  0.80919865  0.57847147  0.68145503  1
  O  O37  1  0.11806314  0.20666450  0.41150470  1
