# generated using pymatgen
data_Pr(HO)3
_symmetry_space_group_name_H-M   'P 1'
_cell_length_a   3.77901177
_cell_length_b   6.61317976
_cell_length_c   6.61289150
_cell_angle_alpha   120.00438190
_cell_angle_beta   90.00000000
_cell_angle_gamma   90.00000000
_symmetry_Int_Tables_number   1
_chemical_formula_structural   Pr(HO)3
_chemical_formula_sum   'Pr2 H6 O6'
_cell_volume   143.11706567
_cell_formula_units_Z   2
loop_
 _symmetry_equiv_pos_site_id
 _symmetry_equiv_pos_as_xyz
  1  'x, y, z'
loop_
 _atom_site_type_symbol
 _atom_site_label
 _atom_site_symmetry_multiplicity
 _atom_site_fract_x
 _atom_site_fract_y
 _atom_site_fract_z
 _atom_site_occupancy
  Pr  Pr0  1  0.25000000  0.66665767  0.33333161  1
  Pr  Pr1  1  0.75000000  0.33334233  0.66666839  1
  H  H2  1  0.75000000  0.86918595  0.71922252  1
  H  H3  1  0.75000000  0.28085136  0.15008069  1
  H  H4  1  0.75000000  0.85001442  0.13081469  1
  H  H5  1  0.25000000  0.13081405  0.28077748  1
  H  H6  1  0.25000000  0.71914864  0.84991931  1
  H  H7  1  0.25000000  0.14998558  0.86918531  1
  O  O8  1  0.75000000  0.92025066  0.60466721  1
  O  O9  1  0.75000000  0.39524289  0.31545218  1
  O  O10  1  0.75000000  0.68443900  0.07976591  1
  O  O11  1  0.25000000  0.07974934  0.39533279  1
  O  O12  1  0.25000000  0.60475711  0.68454782  1
  O  O13  1  0.25000000  0.31556100  0.92023409  1
