# generated using pymatgen
data_Si4Mo2P4O23
_symmetry_space_group_name_H-M   'P 1'
_cell_length_a   5.29991725
_cell_length_b   8.56829091
_cell_length_c   11.37500608
_cell_angle_alpha   77.80017686
_cell_angle_beta   77.71445819
_cell_angle_gamma   73.02855767
_symmetry_Int_Tables_number   1
_chemical_formula_structural   Si4Mo2P4O23
_chemical_formula_sum   'Si4 Mo2 P4 O23'
_cell_volume   476.55037162
_cell_formula_units_Z   1
loop_
 _symmetry_equiv_pos_site_id
 _symmetry_equiv_pos_as_xyz
  1  'x, y, z'
loop_
 _atom_site_type_symbol
 _atom_site_label
 _atom_site_symmetry_multiplicity
 _atom_site_fract_x
 _atom_site_fract_y
 _atom_site_fract_z
 _atom_site_occupancy
  Si  Si0  1  0.05845251  0.18667818  0.71221795  1
  Si  Si1  1  0.44153894  0.68703074  0.42855735  1
  Si  Si2  1  0.55846106  0.31296926  0.57144265  1
  Si  Si3  1  0.94154749  0.81332182  0.28778205  1
  Mo  Mo4  1  0.29086752  0.25530335  0.14733933  1
  Mo  Mo5  1  0.70913248  0.74469665  0.85266067  1
  P  P6  1  0.15831990  0.68535715  0.05375782  1
  P  P7  1  0.24898568  0.81178347  0.66864527  1
  P  P8  1  0.75101432  0.18821653  0.33135473  1
  P  P9  1  0.84168010  0.31464285  0.94624218  1
  O  O10  1  0.41201412  0.04505543  0.16951678  1
  O  O11  1  0.97244477  0.17764452  0.85943021  1
  O  O12  1  0.85490000  0.48143448  0.86940573  1
  O  O13  1  0.14510000  0.51856552  0.13059427  1
  O  O14  1  0.35991755  0.81655370  0.52820274  1
  O  O15  1  0.46833818  0.71231872  0.74118907  1
  O  O16  1  0.55217764  0.30322478  0.99219525  1
  O  O17  1  0.70697570  0.71926134  0.33844037  1
  O  O18  1  0.99721155  0.73592743  0.94914840  1
  O  O19  1  0.64008245  0.18344630  0.47179726  1
  O  O20  1  0.58798588  0.95494457  0.83048322  1
  O  O21  1  0.00240774  0.74516999  0.69611044  1
  O  O22  1  0.17094007  0.99769437  0.68257124  1
  O  O23  1  0.80398290  0.27906515  0.64405559  1
  O  O24  1  0.99759226  0.25483001  0.30388956  1
  O  O25  1  0.50000000  0.50000000  0.50000000  1
  O  O26  1  0.00278845  0.26407257  0.05085160  1
  O  O27  1  0.44782236  0.69677522  0.00780475  1
  O  O28  1  0.19601710  0.72093485  0.35594441  1
  O  O29  1  0.29302430  0.28073866  0.66155963  1
  O  O30  1  0.53166182  0.28768128  0.25881093  1
  O  O31  1  0.02755523  0.82235548  0.14056979  1
  O  O32  1  0.82905993  0.00230563  0.31742876  1
