# generated using pymatgen
data_La(HO)3
_symmetry_space_group_name_H-M   'P 1'
_cell_length_a   3.83479180
_cell_length_b   6.69050146
_cell_length_c   6.68962764
_cell_angle_alpha   119.99978853
_cell_angle_beta   90.00000000
_cell_angle_gamma   90.00000000
_symmetry_Int_Tables_number   1
_chemical_formula_structural   La(HO)3
_chemical_formula_sum   'La2 H6 O6'
_cell_volume   148.63940628
_cell_formula_units_Z   2
loop_
 _symmetry_equiv_pos_site_id
 _symmetry_equiv_pos_as_xyz
  1  'x, y, z'
loop_
 _atom_site_type_symbol
 _atom_site_label
 _atom_site_symmetry_multiplicity
 _atom_site_fract_x
 _atom_site_fract_y
 _atom_site_fract_z
 _atom_site_occupancy
  La  La0  1  0.25000000  0.66665199  0.33332372  1
  La  La1  1  0.75000000  0.33334801  0.66667628  1
  H  H2  1  0.75000000  0.86930966  0.71795565  1
  H  H3  1  0.75000000  0.28210277  0.15141867  1
  H  H4  1  0.75000000  0.84877305  0.13073268  1
  H  H5  1  0.25000000  0.13069034  0.28204435  1
  H  H6  1  0.25000000  0.71789723  0.84858133  1
  H  H7  1  0.25000000  0.15122695  0.86926732  1
  O  O8  1  0.75000000  0.91961245  0.60419414  1
  O  O9  1  0.75000000  0.39576782  0.31535575  1
  O  O10  1  0.75000000  0.68448380  0.08037536  1
  O  O11  1  0.25000000  0.08038755  0.39580586  1
  O  O12  1  0.25000000  0.60423218  0.68464425  1
  O  O13  1  0.25000000  0.31551620  0.91962464  1
