# generated using pymatgen
data_Pb13(Br3O5)2
_symmetry_space_group_name_H-M   'P 1'
_cell_length_a   7.37254868
_cell_length_b   9.17021437
_cell_length_c   24.50915050
_cell_angle_alpha   97.99151819
_cell_angle_beta   90.00778295
_cell_angle_gamma   113.68590947
_symmetry_Int_Tables_number   1
_chemical_formula_structural   Pb13(Br3O5)2
_chemical_formula_sum   'Pb26 Br12 O20'
_cell_volume   1499.82419646
_cell_formula_units_Z   2
loop_
 _symmetry_equiv_pos_site_id
 _symmetry_equiv_pos_as_xyz
  1  'x, y, z'
loop_
 _atom_site_type_symbol
 _atom_site_label
 _atom_site_symmetry_multiplicity
 _atom_site_fract_x
 _atom_site_fract_y
 _atom_site_fract_z
 _atom_site_occupancy
  Pb  Pb0  1  0.83794782  0.46743112  0.43871302  1
  Pb  Pb1  1  0.15511330  0.16626916  0.63210031  1
  Pb  Pb2  1  0.60973890  0.35271349  0.15021519  1
  Pb  Pb3  1  0.77707300  0.00240236  0.74968469  1
  Pb  Pb4  1  0.01118231  0.16375762  0.13226263  1
  Pb  Pb5  1  0.68063604  0.79071783  0.20726362  1
  Pb  Pb6  1  0.81081038  0.09670788  0.51138273  1
  Pb  Pb7  1  0.84534809  0.83486251  0.36790824  1
  Pb  Pb8  1  0.78918481  0.73242542  0.58225150  1
  Pb  Pb9  1  0.32207516  0.20886001  0.79281447  1
  Pb  Pb10  1  0.38878675  0.64636090  0.85031317  1
  Pb  Pb11  1  0.74272301  0.35403735  0.64965827  1
  Pb  Pb12  1  0.63130129  0.46993781  0.93825281  1
  Pb  Pb13  1  0.88797441  0.20638616  0.29280662  1
  Pb  Pb14  1  0.10959207  0.79236060  0.70714011  1
  Pb  Pb15  1  0.19021700  0.90366670  0.48865104  1
  Pb  Pb16  1  0.21122386  0.27007116  0.41803991  1
  Pb  Pb17  1  0.22429520  0.99954878  0.24948061  1
  Pb  Pb18  1  0.16069686  0.53313889  0.56207953  1
  Pb  Pb19  1  0.98827882  0.83756817  0.86793284  1
  Pb  Pb20  1  0.28765674  0.09736448  0.01146476  1
  Pb  Pb21  1  0.71414332  0.90431177  0.98941775  1
  Pb  Pb22  1  0.06008300  0.27071309  0.91758300  1
  Pb  Pb23  1  0.25415179  0.64540937  0.35022674  1
  Pb  Pb24  1  0.94271037  0.73056872  0.08300396  1
  Pb  Pb25  1  0.37165574  0.53178391  0.06177060  1
  Br  Br26  1  0.44426290  0.93785540  0.63215626  1
  Br  Br27  1  0.00392354  0.37341089  0.75261142  1
  Br  Br28  1  0.50464895  0.06072900  0.86700921  1
  Br  Br29  1  0.36406507  0.37122882  0.25259515  1
  Br  Br30  1  0.49347084  0.93791659  0.13239428  1
  Br  Br31  1  0.49767947  0.67765386  0.45980368  1
  Br  Br32  1  0.17810945  0.68035509  0.95986574  1
  Br  Br33  1  0.82382152  0.32156943  0.04094512  1
  Br  Br34  1  0.50034749  0.32304800  0.53959707  1
  Br  Br35  1  0.55327409  0.06112644  0.36686447  1
  Br  Br36  1  0.63441465  0.63145476  0.74702953  1
  Br  Br37  1  0.99276641  0.63018952  0.24772062  1
  O  O38  1  0.67385961  0.65685381  0.01892363  1
  O  O39  1  0.32909734  0.34471240  0.98129471  1
  O  O40  1  0.65738207  0.60801607  0.13546986  1
  O  O41  1  0.01879918  0.04775182  0.81642816  1
  O  O42  1  0.34480047  0.39137660  0.86460781  1
  O  O43  1  0.02657731  0.04287635  0.31600438  1
  O  O44  1  0.98321967  0.98009165  0.05839841  1
  O  O45  1  0.98217171  0.95148030  0.18239133  1
  O  O46  1  0.32884160  0.28261519  0.09862059  1
  O  O47  1  0.95024615  0.61008214  0.63511444  1
  O  O48  1  0.04730086  0.38932953  0.36473213  1
  O  O49  1  0.04385004  0.71626057  0.40171532  1
  O  O50  1  0.98375521  0.65712773  0.51863222  1
  O  O51  1  0.97216955  0.95604254  0.68281417  1
  O  O52  1  0.01649694  0.34369464  0.48181966  1
  O  O53  1  0.67066565  0.71847263  0.90174996  1
  O  O54  1  0.00058551  0.98192172  0.55820975  1
  O  O55  1  0.95451486  0.28350832  0.59881070  1
  O  O56  1  0.00105280  0.01969984  0.44159039  1
  O  O57  1  0.01817204  0.02144011  0.94188370  1
