# generated using pymatgen
data_La5C2Cl9
_symmetry_space_group_name_H-M   'P 1'
_cell_length_a   8.70404166
_cell_length_b   8.75529575
_cell_length_c   12.02764203
_cell_angle_alpha   84.99139577
_cell_angle_beta   85.67443699
_cell_angle_gamma   61.35250536
_symmetry_Int_Tables_number   1
_chemical_formula_structural   La5C2Cl9
_chemical_formula_sum   'La10 C4 Cl18'
_cell_volume   800.71881595
_cell_formula_units_Z   2
loop_
 _symmetry_equiv_pos_site_id
 _symmetry_equiv_pos_as_xyz
  1  'x, y, z'
loop_
 _atom_site_type_symbol
 _atom_site_label
 _atom_site_symmetry_multiplicity
 _atom_site_fract_x
 _atom_site_fract_y
 _atom_site_fract_z
 _atom_site_occupancy
  La  La0  1  0.87355467  0.73189816  0.72956618  1
  La  La1  1  0.12644533  0.26810184  0.27043382  1
  La  La2  1  0.20620057  0.68061575  0.49267667  1
  La  La3  1  0.38876044  0.40186936  0.78189666  1
  La  La4  1  0.79379943  0.31938425  0.50732333  1
  La  La5  1  0.89585587  0.29731930  0.99316986  1
  La  La6  1  0.61123956  0.59813064  0.21810334  1
  La  La7  1  0.76742482  0.08136759  0.25665717  1
  La  La8  1  0.23257518  0.91863241  0.74334283  1
  La  La9  1  0.10414413  0.70268070  0.00683014  1
  C  C10  1  0.85611554  0.30509242  0.18804933  1
  C  C11  1  0.82644240  0.31473726  0.31088246  1
  C  C12  1  0.17355760  0.68526274  0.68911754  1
  C  C13  1  0.14388446  0.69490758  0.81195067  1
  Cl  Cl14  1  0.48790088  0.98661664  0.23044104  1
  Cl  Cl15  1  0.51209912  0.01338336  0.76955896  1
  Cl  Cl16  1  0.77950097  0.04029489  0.02085098  1
  Cl  Cl17  1  0.54111679  0.67683963  0.44962972  1
  Cl  Cl18  1  0.45888321  0.32316037  0.55037028  1
  Cl  Cl19  1  0.22049903  0.95970511  0.97914902  1
  Cl  Cl20  1  0.39137563  0.41709139  0.27476554  1
  Cl  Cl21  1  0.08057425  0.33745361  0.76868920  1
  Cl  Cl22  1  0.17329765  0.05303687  0.50603890  1
  Cl  Cl23  1  0.50000000  0.50000000  0.00000000  1
  Cl  Cl24  1  0.84063326  0.12800666  0.74352418  1
  Cl  Cl25  1  0.15936674  0.87199334  0.25647582  1
  Cl  Cl26  1  0.82670235  0.94696313  0.49396110  1
  Cl  Cl27  1  0.60862437  0.58290861  0.72523446  1
  Cl  Cl28  1  0.78414797  0.66912906  0.96907127  1
  Cl  Cl29  1  0.00000000  0.50000000  0.50000000  1
  Cl  Cl30  1  0.91942575  0.66254639  0.23131080  1
  Cl  Cl31  1  0.21585203  0.33087094  0.03092873  1
