# generated using pymatgen
data_KCuP2Se5
_symmetry_space_group_name_H-M   'P 1'
_cell_length_a   7.85722232
_cell_length_b   10.76485031
_cell_length_c   12.08625823
_cell_angle_alpha   109.02659716
_cell_angle_beta   90.00000000
_cell_angle_gamma   90.00000000
_symmetry_Int_Tables_number   1
_chemical_formula_structural   KCuP2Se5
_chemical_formula_sum   'K4 Cu4 P8 Se20'
_cell_volume   966.42799361
_cell_formula_units_Z   4
loop_
 _symmetry_equiv_pos_site_id
 _symmetry_equiv_pos_as_xyz
  1  'x, y, z'
loop_
 _atom_site_type_symbol
 _atom_site_label
 _atom_site_symmetry_multiplicity
 _atom_site_fract_x
 _atom_site_fract_y
 _atom_site_fract_z
 _atom_site_occupancy
  K  K0  1  0.37358604  0.60103344  0.22142008  1
  K  K1  1  0.62641396  0.39896656  0.77857992  1
  K  K2  1  0.12641396  0.10103344  0.72142008  1
  K  K3  1  0.87358604  0.89896656  0.27857992  1
  Cu  Cu4  1  0.66333428  0.81689092  0.66948843  1
  Cu  Cu5  1  0.16333428  0.68310908  0.83051157  1
  Cu  Cu6  1  0.83666572  0.31689092  0.16948843  1
  Cu  Cu7  1  0.33666572  0.18310908  0.33051157  1
  P  P8  1  0.34803457  0.88338564  0.07846018  1
  P  P9  1  0.06551552  0.71427426  0.54284539  1
  P  P10  1  0.93448448  0.28572574  0.45715461  1
  P  P11  1  0.15196543  0.38338564  0.57846018  1
  P  P12  1  0.65196543  0.11661436  0.92153982  1
  P  P13  1  0.84803457  0.61661436  0.42153982  1
  P  P14  1  0.43448448  0.21427426  0.04284539  1
  P  P15  1  0.56551552  0.78572574  0.95715461  1
  Se  Se16  1  0.30996738  0.34571412  0.96518011  1
  Se  Se17  1  0.43588607  0.95445467  0.25970363  1
  Se  Se18  1  0.86765043  0.25372666  0.96102546  1
  Se  Se19  1  0.53209514  0.29564555  0.22472021  1
  Se  Se20  1  0.80996738  0.15428588  0.53481989  1
  Se  Se21  1  0.63234957  0.75372666  0.46102546  1
  Se  Se22  1  0.69003262  0.65428588  0.03481989  1
  Se  Se23  1  0.03209514  0.20435445  0.27527979  1
  Se  Se24  1  0.24298824  0.04372424  0.00818734  1
  Se  Se25  1  0.74298824  0.45627576  0.49181266  1
  Se  Se26  1  0.13234957  0.74627334  0.03897454  1
  Se  Se27  1  0.25701176  0.54372424  0.50818734  1
  Se  Se28  1  0.93588607  0.54554533  0.24029637  1
  Se  Se29  1  0.96790486  0.79564555  0.72472021  1
  Se  Se30  1  0.36765043  0.24627334  0.53897454  1
  Se  Se31  1  0.56411393  0.04554533  0.74029637  1
  Se  Se32  1  0.06411393  0.45445467  0.75970363  1
  Se  Se33  1  0.46790486  0.70435445  0.77527979  1
  Se  Se34  1  0.75701176  0.95627576  0.99181266  1
  Se  Se35  1  0.19003262  0.84571412  0.46518011  1
