# generated using pymatgen
data_Cs3Mo6(P5O19)2
_symmetry_space_group_name_H-M   'P 1'
_cell_length_a   6.56179958
_cell_length_b   9.69398275
_cell_length_c   14.55011888
_cell_angle_alpha   89.86628123
_cell_angle_beta   91.17809543
_cell_angle_gamma   105.99436340
_symmetry_Int_Tables_number   1
_chemical_formula_structural   Cs3Mo6(P5O19)2
_chemical_formula_sum   'Cs3 Mo6 P10 O38'
_cell_volume   889.51076837
_cell_formula_units_Z   1
loop_
 _symmetry_equiv_pos_site_id
 _symmetry_equiv_pos_as_xyz
  1  'x, y, z'
loop_
 _atom_site_type_symbol
 _atom_site_label
 _atom_site_symmetry_multiplicity
 _atom_site_fract_x
 _atom_site_fract_y
 _atom_site_fract_z
 _atom_site_occupancy
  Cs  Cs0  1  0.00000000  0.00000000  0.00000000  1
  Cs  Cs1  1  0.04162527  0.37344765  0.28348960  1
  Cs  Cs2  1  0.95837473  0.62655235  0.71651040  1
  Mo  Mo3  1  0.73443487  0.66593922  0.38845767  1
  Mo  Mo4  1  0.71608535  0.63190911  0.13507168  1
  Mo  Mo5  1  0.61974978  0.96005886  0.75004026  1
  Mo  Mo6  1  0.38025022  0.03994114  0.24995974  1
  Mo  Mo7  1  0.26556513  0.33406078  0.61154233  1
  Mo  Mo8  1  0.28391465  0.36809089  0.86492832  1
  P  P9  1  0.71450393  0.23656222  0.58889914  1
  P  P10  1  0.49176975  0.70450050  0.57559277  1
  P  P11  1  0.28549607  0.76343778  0.41110086  1
  P  P12  1  0.84346078  0.95339318  0.25176305  1
  P  P13  1  0.51092509  0.28110987  0.06057973  1
  P  P14  1  0.15653922  0.04660682  0.74823695  1
  P  P15  1  0.50823025  0.29549950  0.42440723  1
  P  P16  1  0.26051046  0.71815968  0.11280367  1
  P  P17  1  0.73948954  0.28184032  0.88719633  1
  P  P18  1  0.48907491  0.71889013  0.93942027  1
  O  O19  1  0.65278652  0.41047590  0.11066731  1
  O  O20  1  0.33772464  0.77425624  0.01041921  1
  O  O21  1  0.63718863  0.20154906  0.48125950  1
  O  O22  1  0.25862933  0.39580429  0.73643587  1
  O  O23  1  0.58471524  0.33298338  0.62752383  1
  O  O24  1  0.97521767  0.36418539  0.89701117  1
  O  O25  1  0.07037024  0.05467752  0.24249441  1
  O  O26  1  0.38836273  0.61424805  0.14388604  1
  O  O27  1  0.30013116  0.94431851  0.74976991  1
  O  O28  1  0.17468733  0.12718635  0.65525269  1
  O  O29  1  0.05488057  0.67430773  0.41242989  1
  O  O30  1  0.66829513  0.68646338  0.99790120  1
  O  O31  1  0.57829540  0.84577134  0.87738253  1
  O  O32  1  0.41528476  0.66701662  0.37247617  1
  O  O33  1  0.02478233  0.63581461  0.10298883  1
  O  O34  1  0.66227536  0.22574376  0.98958079  1
  O  O35  1  0.65513074  0.44874733  0.42475165  1
  O  O36  1  0.32477990  0.91115501  0.36825169  1
  O  O37  1  0.42170460  0.15422866  0.12261747  1
  O  O38  1  0.29374515  0.85122361  0.17049800  1
  O  O39  1  0.74137067  0.60419571  0.26356413  1
  O  O40  1  0.34486926  0.55125267  0.57524835  1
  O  O41  1  0.67522010  0.08884499  0.63174831  1
  O  O42  1  0.53532130  0.76530941  0.67220703  1
  O  O43  1  0.70177921  0.71602039  0.52540271  1
  O  O44  1  0.21117277  0.14812684  0.83241060  1
  O  O45  1  0.34721348  0.58952410  0.88933269  1
  O  O46  1  0.29822079  0.28397961  0.47459729  1
  O  O47  1  0.46467870  0.23469059  0.32779297  1
  O  O48  1  0.82531267  0.87281365  0.34474731  1
  O  O49  1  0.69986884  0.05568149  0.25023009  1
  O  O50  1  0.78882723  0.85187316  0.16758940  1
  O  O51  1  0.70625485  0.14877639  0.82950200  1
  O  O52  1  0.92962976  0.94532248  0.75750559  1
  O  O53  1  0.33170487  0.31353662  0.00209880  1
  O  O54  1  0.94511943  0.32569227  0.58757011  1
  O  O55  1  0.61163727  0.38575195  0.85611396  1
  O  O56  1  0.36281137  0.79845094  0.51874050  1
