# generated using pymatgen
data_Li7Mn2(CoO4)3
_symmetry_space_group_name_H-M   'P 1'
_cell_length_a   2.91632403
_cell_length_b   12.79323481
_cell_length_c   5.90332853
_cell_angle_alpha   102.97333550
_cell_angle_beta   90.00000000
_cell_angle_gamma   90.00000000
_symmetry_Int_Tables_number   1
_chemical_formula_structural   Li7Mn2(CoO4)3
_chemical_formula_sum   'Li7 Mn2 Co3 O12'
_cell_volume   214.62664930
_cell_formula_units_Z   1
loop_
 _symmetry_equiv_pos_site_id
 _symmetry_equiv_pos_as_xyz
  1  'x, y, z'
loop_
 _atom_site_type_symbol
 _atom_site_label
 _atom_site_symmetry_multiplicity
 _atom_site_fract_x
 _atom_site_fract_y
 _atom_site_fract_z
 _atom_site_occupancy
  Li  Li0  1  -0.00000000  0.31873377  0.15349906  1
  Li  Li1  1  0.50000000  0.50082678  0.00019663  1
  Li  Li2  1  0.00000000  0.66666700  0.83333300  1
  Li  Li3  1  0.50000000  0.83250622  0.66647037  1
  Li  Li4  1  -0.00000000  0.01459923  0.51316794  1
  Li  Li5  1  0.50000000  0.16666700  0.33333300  1
  Li  Li6  1  0.50000000  0.16666700  0.83333300  1
  Mn  Mn7  1  0.00000000  0.00750401  0.99879003  1
  Mn  Mn8  1  0.00000000  0.32582899  0.66787697  1
  Co  Co9  1  0.50000000  0.50114780  0.50240086  1
  Co  Co10  1  0.00000000  0.66666700  0.33333300  1
  Co  Co11  1  0.50000000  0.83218520  0.16426614  1
  O  O12  1  -0.00000000  0.49188233  0.72724032  1
  O  O13  1  0.50000000  0.66413042  0.57186647  1
  O  O14  1  -0.00000000  0.82872287  0.39685693  1
  O  O15  1  0.50000000  0.99718748  0.22267024  1
  O  O16  1  -0.00000000  0.15291207  0.07694387  1
  O  O17  1  0.50000000  0.33490491  0.88943461  1
  O  O18  1  0.00000000  0.18042093  0.58972313  1
  O  O19  1  0.50000000  0.33614652  0.44399576  1
  O  O20  1  0.00000000  0.50461013  0.26981007  1
  O  O21  1  0.50000000  0.66920258  0.09480053  1
  O  O22  1  0.00000000  0.84145167  0.93942568  1
  O  O23  1  0.50000000  0.99842809  0.77723239  1
