# generated using pymatgen
data_Ca3Sc2(SiO4)3
_symmetry_space_group_name_H-M   'P 1'
_cell_length_a   10.71042203
_cell_length_b   10.71042203
_cell_length_c   10.71042203
_cell_angle_alpha   109.47122065
_cell_angle_beta   109.47122065
_cell_angle_gamma   109.47122059
_symmetry_Int_Tables_number   1
_chemical_formula_structural   Ca3Sc2(SiO4)3
_chemical_formula_sum   'Ca12 Sc8 Si12 O48'
_cell_volume   945.79684575
_cell_formula_units_Z   4
loop_
 _symmetry_equiv_pos_site_id
 _symmetry_equiv_pos_as_xyz
  1  'x, y, z'
loop_
 _atom_site_type_symbol
 _atom_site_label
 _atom_site_symmetry_multiplicity
 _atom_site_fract_x
 _atom_site_fract_y
 _atom_site_fract_z
 _atom_site_occupancy
  O  O0  1  0.29167220  0.49010707  0.38147477  1
  O  O1  1  0.00989293  0.30156513  0.89136770  1
  O  O2  1  0.11852523  0.60863230  0.91019743  1
  O  O3  1  0.20832780  0.58980257  0.19843487  1
  O  O4  1  0.20832780  0.11852523  0.00989293  1
  O  O5  1  0.58980257  0.19843487  0.20832780  1
  O  O6  1  0.60863230  0.19843487  0.49010707  1
  O  O7  1  0.19843487  0.20832780  0.58980257  1
  O  O8  1  0.89136770  0.38147477  0.58980257  1
  O  O9  1  0.30156513  0.91019743  0.29167220  1
  O  O10  1  0.91019743  0.29167220  0.30156513  1
  O  O11  1  0.00989293  0.20832780  0.11852523  1
  O  O12  1  0.19843487  0.49010707  0.60863230  1
  O  O13  1  0.58980257  0.89136770  0.38147477  1
  O  O14  1  0.11852523  0.00989293  0.20832780  1
  O  O15  1  0.49010707  0.60863230  0.19843487  1
  O  O16  1  0.38147477  0.58980257  0.89136770  1
  O  O17  1  0.89136770  0.00989293  0.30156513  1
  O  O18  1  0.60863230  0.91019743  0.11852523  1
  O  O19  1  0.10863230  0.61852523  0.41019743  1
  O  O20  1  0.91019743  0.11852523  0.60863230  1
  O  O21  1  0.38147477  0.29167220  0.49010707  1
  O  O22  1  0.30156513  0.89136770  0.00989293  1
  O  O23  1  0.29167220  0.30156513  0.91019743  1
  O  O24  1  0.70832780  0.50989293  0.61852523  1
  O  O25  1  0.99010707  0.69843487  0.10863230  1
  O  O26  1  0.88147477  0.39136770  0.08980257  1
  O  O27  1  0.79167220  0.41019743  0.80156513  1
  O  O28  1  0.79167220  0.88147477  0.99010707  1
  O  O29  1  0.41019743  0.80156513  0.79167220  1
  O  O30  1  0.39136770  0.80156513  0.50989293  1
  O  O31  1  0.80156513  0.79167220  0.41019743  1
  O  O32  1  0.70832780  0.69843487  0.08980257  1
  O  O33  1  0.69843487  0.10863230  0.99010707  1
  O  O34  1  0.61852523  0.70832780  0.50989293  1
  O  O35  1  0.50989293  0.61852523  0.70832780  1
  O  O36  1  0.08980257  0.88147477  0.39136770  1
  O  O37  1  0.39136770  0.08980257  0.88147477  1
  O  O38  1  0.10863230  0.99010707  0.69843487  1
  O  O39  1  0.61852523  0.41019743  0.10863230  1
  O  O40  1  0.50989293  0.39136770  0.80156513  1
  O  O41  1  0.88147477  0.99010707  0.79167220  1
  O  O42  1  0.41019743  0.10863230  0.61852523  1
  O  O43  1  0.80156513  0.50989293  0.39136770  1
  O  O44  1  0.99010707  0.79167220  0.88147477  1
  O  O45  1  0.08980257  0.70832780  0.69843487  1
  O  O46  1  0.69843487  0.08980257  0.70832780  1
  O  O47  1  0.49010707  0.38147477  0.29167220  1
  Si  Si48  1  0.25000000  0.12500000  0.87500000  1
  Si  Si49  1  0.75000000  0.87500000  0.12500000  1
  Si  Si50  1  0.37500000  0.25000000  0.62500000  1
  Si  Si51  1  0.62500000  0.37500000  0.25000000  1
  Si  Si52  1  0.12500000  0.75000000  0.87500000  1
  Si  Si53  1  0.87500000  0.12500000  0.75000000  1
  Si  Si54  1  0.75000000  0.37500000  0.62500000  1
  Si  Si55  1  0.37500000  0.62500000  0.75000000  1
  Si  Si56  1  0.12500000  0.87500000  0.25000000  1
  Si  Si57  1  0.87500000  0.25000000  0.12500000  1
  Si  Si58  1  0.62500000  0.75000000  0.37500000  1
  Si  Si59  1  0.25000000  0.62500000  0.37500000  1
  Ca  Ca60  1  0.37500000  0.75000000  0.12500000  1
  Ca  Ca61  1  0.12500000  0.25000000  0.37500000  1
  Ca  Ca62  1  0.37500000  0.12500000  0.25000000  1
  Ca  Ca63  1  0.12500000  0.37500000  0.75000000  1
  Ca  Ca64  1  0.87500000  0.75000000  0.62500000  1
  Ca  Ca65  1  0.75000000  0.12500000  0.37500000  1
  Ca  Ca66  1  0.75000000  0.62500000  0.87500000  1
  Ca  Ca67  1  0.62500000  0.25000000  0.87500000  1
  Ca  Ca68  1  0.25000000  0.87500000  0.62500000  1
  Ca  Ca69  1  0.87500000  0.62500000  0.25000000  1
  Ca  Ca70  1  0.62500000  0.87500000  0.75000000  1
  Ca  Ca71  1  0.25000000  0.37500000  0.12500000  1
  Sc  Sc72  1  0.00000000  0.00000000  0.00000000  1
  Sc  Sc73  1  0.00000000  0.50000000  0.00000000  1
  Sc  Sc74  1  0.00000000  0.00000000  0.50000000  1
  Sc  Sc75  1  0.00000000  0.50000000  0.50000000  1
  Sc  Sc76  1  0.50000000  0.00000000  0.50000000  1
  Sc  Sc77  1  0.50000000  0.50000000  0.00000000  1
  Sc  Sc78  1  0.50000000  0.50000000  0.50000000  1
  Sc  Sc79  1  0.50000000  0.00000000  0.00000000  1
