# generated using pymatgen
data_K2MnSnSe4
_symmetry_space_group_name_H-M   'P 1'
_cell_length_a   8.42011486
_cell_length_b   10.74336414
_cell_length_c   10.74336414
_cell_angle_alpha   90.00000000
_cell_angle_beta   90.00000000
_cell_angle_gamma   90.00000000
_symmetry_Int_Tables_number   1
_chemical_formula_structural   K2MnSnSe4
_chemical_formula_sum   'K8 Mn4 Sn4 Se16'
_cell_volume   971.84858816
_cell_formula_units_Z   4
loop_
 _symmetry_equiv_pos_site_id
 _symmetry_equiv_pos_as_xyz
  1  'x, y, z'
loop_
 _atom_site_type_symbol
 _atom_site_label
 _atom_site_symmetry_multiplicity
 _atom_site_fract_x
 _atom_site_fract_y
 _atom_site_fract_z
 _atom_site_occupancy
  K  K0  1  0.75000000  0.25282225  0.24717775  1
  K  K1  1  0.50000000  0.50000000  0.50000000  1
  K  K2  1  0.00000000  0.00000000  0.00000000  1
  K  K3  1  0.75000000  0.74717775  0.75282225  1
  K  K4  1  0.25000000  0.00000000  0.50000000  1
  K  K5  1  0.75000000  0.50000000  0.00000000  1
  K  K6  1  0.25000000  0.24717775  0.74717775  1
  K  K7  1  0.25000000  0.75282225  0.25282225  1
  Mn  Mn8  1  0.00000000  0.50000000  0.50000000  1
  Mn  Mn9  1  0.50000000  0.00000000  0.00000000  1
  Mn  Mn10  1  0.75000000  0.00000000  0.50000000  1
  Mn  Mn11  1  0.25000000  0.50000000  0.00000000  1
  Sn  Sn12  1  0.25000000  0.27843544  0.22156456  1
  Sn  Sn13  1  0.25000000  0.72156456  0.77843544  1
  Sn  Sn14  1  0.75000000  0.22156456  0.72156456  1
  Sn  Sn15  1  0.75000000  0.77843544  0.27843544  1
  Se  Se16  1  0.10688186  0.28820496  0.43457770  1
  Se  Se17  1  0.92925360  0.97139326  0.30476836  1
  Se  Se18  1  0.42925360  0.47139326  0.19523164  1
  Se  Se19  1  0.10688186  0.71179504  0.56542230  1
  Se  Se20  1  0.92925360  0.02860674  0.69523164  1
  Se  Se21  1  0.07074640  0.69523164  0.97139326  1
  Se  Se22  1  0.42925360  0.52860674  0.80476836  1
  Se  Se23  1  0.57074640  0.80476836  0.47139326  1
  Se  Se24  1  0.60688186  0.21179504  0.93457770  1
  Se  Se25  1  0.60688186  0.78820496  0.06542230  1
  Se  Se26  1  0.57074640  0.19523164  0.52860674  1
  Se  Se27  1  0.89311814  0.56542230  0.28820496  1
  Se  Se28  1  0.89311814  0.43457770  0.71179504  1
  Se  Se29  1  0.39311814  0.93457770  0.78820496  1
  Se  Se30  1  0.07074640  0.30476836  0.02860674  1
  Se  Se31  1  0.39311814  0.06542230  0.21179504  1
