# generated using pymatgen
data_Li7Mn2(CoO4)3
_symmetry_space_group_name_H-M   'P 1'
_cell_length_a   2.91936495
_cell_length_b   7.73374519
_cell_length_c   10.21286522
_cell_angle_alpha   71.90932325
_cell_angle_beta   90.00000000
_cell_angle_gamma   100.87937270
_symmetry_Int_Tables_number   1
_chemical_formula_structural   Li7Mn2(CoO4)3
_chemical_formula_sum   'Li7 Mn2 Co3 O12'
_cell_volume   214.81959120
_cell_formula_units_Z   1
loop_
 _symmetry_equiv_pos_site_id
 _symmetry_equiv_pos_as_xyz
  1  'x, y, z'
loop_
 _atom_site_type_symbol
 _atom_site_label
 _atom_site_symmetry_multiplicity
 _atom_site_fract_x
 _atom_site_fract_y
 _atom_site_fract_z
 _atom_site_occupancy
  Li  Li0  1  0.83508300  0.67016700  0.74753649  1
  Li  Li1  1  0.16663274  0.33326448  0.25506621  1
  Li  Li2  1  0.49704216  0.99408431  0.73945160  1
  Li  Li3  1  0.82922295  0.65844689  0.25306946  1
  Li  Li4  1  0.16875092  0.33750085  0.74568371  1
  Li  Li5  1  0.50340206  0.00680412  0.25711770  1
  Li  Li6  1  -0.00079655  -0.00159311  0.50439304  1
  Mn  Mn7  1  0.00054710  0.00109421  0.00149143  1
  Mn  Mn8  1  0.33652533  0.67305167  0.50066374  1
  Co  Co9  1  0.67340213  0.34680326  0.00265773  1
  Co  Co10  1  0.33093275  0.66186650  0.99606194  1
  Co  Co11  1  0.65931910  0.31863719  0.49527308  1
  O  O12  1  0.74869413  0.49738725  0.12016497  1
  O  O13  1  0.09302027  0.18604054  0.61702170  1
  O  O14  1  0.42773934  0.85547969  0.11178719  1
  O  O15  1  0.75562330  0.51124560  0.60501515  1
  O  O16  1  0.08311070  0.16622139  0.11195548  1
  O  O17  1  0.40805606  0.81611312  0.61758314  1
  O  O18  1  0.90592328  0.81184656  0.38863491  1
  O  O19  1  0.24234908  0.48469916  0.87762012  1
  O  O20  1  0.59162236  0.18324371  0.38174370  1
  O  O21  1  0.91946137  0.83892274  0.88779893  1
  O  O22  1  0.24993031  0.49986161  0.38927614  1
  O  O23  1  0.57440613  0.14881126  0.89293243  1
