# generated using pymatgen
data_K3NaSn3Se8
_symmetry_space_group_name_H-M   'P 1'
_cell_length_a   8.32824531
_cell_length_b   8.32824531
_cell_length_c   13.93410977
_cell_angle_alpha   90.00000000
_cell_angle_beta   90.00000000
_cell_angle_gamma   90.00000000
_symmetry_Int_Tables_number   1
_chemical_formula_structural   K3NaSn3Se8
_chemical_formula_sum   'K6 Na2 Sn6 Se16'
_cell_volume   966.46525460
_cell_formula_units_Z   2
loop_
 _symmetry_equiv_pos_site_id
 _symmetry_equiv_pos_as_xyz
  1  'x, y, z'
loop_
 _atom_site_type_symbol
 _atom_site_label
 _atom_site_symmetry_multiplicity
 _atom_site_fract_x
 _atom_site_fract_y
 _atom_site_fract_z
 _atom_site_occupancy
  K  K0  1  0.25000000  0.25000000  0.72285277  1
  K  K1  1  0.75000000  0.75000000  0.72285277  1
  K  K2  1  0.75000000  0.75000000  0.27714723  1
  K  K3  1  0.25000000  0.25000000  0.27714723  1
  K  K4  1  0.75000000  0.75000000  0.00000000  1
  K  K5  1  0.25000000  0.25000000  0.00000000  1
  Na  Na6  1  0.25000000  0.75000000  0.00000000  1
  Na  Na7  1  0.75000000  0.25000000  0.00000000  1
  Sn  Sn8  1  0.75000000  0.25000000  0.75414529  1
  Sn  Sn9  1  0.75000000  0.25000000  0.24585471  1
  Sn  Sn10  1  0.25000000  0.75000000  0.75414529  1
  Sn  Sn11  1  0.25000000  0.75000000  0.24585471  1
  Sn  Sn12  1  0.75000000  0.25000000  0.50000000  1
  Sn  Sn13  1  0.25000000  0.75000000  0.50000000  1
  Se  Se14  1  0.58569949  0.08569949  0.62320448  1
  Se  Se15  1  0.43088131  0.93088131  0.85271341  1
  Se  Se16  1  0.08569949  0.58569949  0.37679552  1
  Se  Se17  1  0.58569949  0.41430051  0.37679552  1
  Se  Se18  1  0.93088131  0.06911869  0.85271341  1
  Se  Se19  1  0.93088131  0.43088131  0.14728659  1
  Se  Se20  1  0.06911869  0.93088131  0.14728659  1
  Se  Se21  1  0.56911869  0.06911869  0.14728659  1
  Se  Se22  1  0.08569949  0.91430051  0.62320448  1
  Se  Se23  1  0.06911869  0.56911869  0.85271341  1
  Se  Se24  1  0.91430051  0.08569949  0.37679552  1
  Se  Se25  1  0.91430051  0.41430051  0.62320448  1
  Se  Se26  1  0.41430051  0.91430051  0.37679552  1
  Se  Se27  1  0.43088131  0.56911869  0.14728659  1
  Se  Se28  1  0.41430051  0.58569949  0.62320448  1
  Se  Se29  1  0.56911869  0.43088131  0.85271341  1
