# generated using pymatgen
data_CeGePt
_symmetry_space_group_name_H-M   'P 1'
_cell_length_a   4.50163727
_cell_length_b   7.72528413
_cell_length_c   14.63115722
_cell_angle_alpha   90.00161347
_cell_angle_beta   89.99972605
_cell_angle_gamma   89.99886897
_symmetry_Int_Tables_number   1
_chemical_formula_structural   CeGePt
_chemical_formula_sum   'Ce8 Ge8 Pt8'
_cell_volume   508.81937026
_cell_formula_units_Z   8
loop_
 _symmetry_equiv_pos_site_id
 _symmetry_equiv_pos_as_xyz
  1  'x, y, z'
loop_
 _atom_site_type_symbol
 _atom_site_label
 _atom_site_symmetry_multiplicity
 _atom_site_fract_x
 _atom_site_fract_y
 _atom_site_fract_z
 _atom_site_occupancy
  Ce  Ce0  1  0.74999894  0.21099601  0.50316465  1
  Ce  Ce1  1  0.25000139  0.70734021  0.74996866  1
  Ce  Ce2  1  0.75000293  0.29693630  0.75003845  1
  Ce  Ce3  1  0.24999624  0.70374305  0.25003500  1
  Ce  Ce4  1  0.25000299  0.78869154  0.49703660  1
  Ce  Ce5  1  0.25000138  0.78876027  0.00296449  1
  Ce  Ce6  1  0.74999812  0.29307685  0.24996636  1
  Ce  Ce7  1  0.74999865  0.21105313  0.99683643  1
  Ge  Ge8  1  0.25000204  0.08818784  0.65480248  1
  Ge  Ge9  1  0.24999990  0.41091441  0.39930965  1
  Ge  Ge10  1  0.74999956  0.58949473  0.89910612  1
  Ge  Ge11  1  0.24999794  0.41081092  0.10065914  1
  Ge  Ge12  1  0.75000117  0.58959682  0.60087080  1
  Ge  Ge13  1  0.24999755  0.08823725  0.84521624  1
  Ge  Ge14  1  0.74999987  0.91120459  0.15477213  1
  Ge  Ge15  1  0.75000196  0.91115200  0.34523768  1
  Pt  Pt16  1  0.25000078  0.07906709  0.14053648  1
  Pt  Pt17  1  0.25000440  0.07900544  0.35945293  1
  Pt  Pt18  1  0.74999838  0.58420143  0.39879982  1
  Pt  Pt19  1  0.24999864  0.41612270  0.89873185  1
  Pt  Pt20  1  0.75000104  0.58412672  0.10120783  1
  Pt  Pt21  1  0.74999965  0.92057180  0.85933373  1
  Pt  Pt22  1  0.74999719  0.92050700  0.64067131  1
  Pt  Pt23  1  0.24999930  0.41620188  0.60128117  1
