# generated using pymatgen
data_YbNi2B2C
_symmetry_space_group_name_H-M   'P 1'
_cell_length_a   3.58538732
_cell_length_b   3.58538732
_cell_length_c   5.61425005
_cell_angle_alpha   108.62128234
_cell_angle_beta   108.62128232
_cell_angle_gamma   89.99999998
_symmetry_Int_Tables_number   1
_chemical_formula_structural   YbNi2B2C
_chemical_formula_sum   'Yb1 Ni2 B2 C1'
_cell_volume   64.39355681
_cell_formula_units_Z   1
loop_
 _symmetry_equiv_pos_site_id
 _symmetry_equiv_pos_as_xyz
  1  'x, y, z'
loop_
 _atom_site_type_symbol
 _atom_site_label
 _atom_site_symmetry_multiplicity
 _atom_site_fract_x
 _atom_site_fract_y
 _atom_site_fract_z
 _atom_site_occupancy
  B  B0  1  0.35397829  0.35397829  0.70795659  1
  B  B1  1  0.64602171  0.64602171  0.29204341  1
  C  C2  1  0.50000000  0.50000000  0.00000000  1
  Ni  Ni3  1  0.25000000  0.75000000  0.50000000  1
  Ni  Ni4  1  0.75000000  0.25000000  0.50000000  1
  Yb  Yb5  1  0.00000000  0.00000000  0.00000000  1
