# generated using pymatgen
data_Li2TiSiO5
_symmetry_space_group_name_H-M   'P 1'
_cell_length_a   4.49777511
_cell_length_b   6.48221197
_cell_length_c   6.48221197
_cell_angle_alpha   90.00000000
_cell_angle_beta   90.00000000
_cell_angle_gamma   90.00000000
_symmetry_Int_Tables_number   1
_chemical_formula_structural   Li2TiSiO5
_chemical_formula_sum   'Li4 Ti2 Si2 O10'
_cell_volume   188.99233629
_cell_formula_units_Z   2
loop_
 _symmetry_equiv_pos_site_id
 _symmetry_equiv_pos_as_xyz
  1  'x, y, z'
loop_
 _atom_site_type_symbol
 _atom_site_label
 _atom_site_symmetry_multiplicity
 _atom_site_fract_x
 _atom_site_fract_y
 _atom_site_fract_z
 _atom_site_occupancy
  Li  Li0  1  0.50000000  0.00000000  0.00000000  1
  Li  Li1  1  0.50000000  0.50000000  0.50000000  1
  Li  Li2  1  0.50000000  0.00000000  0.50000000  1
  Li  Li3  1  0.50000000  0.50000000  0.00000000  1
  O  O4  1  0.28950731  0.75000000  0.75000000  1
  O  O5  1  0.71049269  0.25000000  0.25000000  1
  O  O6  1  0.78460185  0.04475898  0.75000000  1
  O  O7  1  0.78460185  0.45524102  0.75000000  1
  O  O8  1  0.21539815  0.25000000  0.95524102  1
  O  O9  1  0.21539815  0.54475898  0.25000000  1
  O  O10  1  0.21539815  0.95524102  0.25000000  1
  O  O11  1  0.21539815  0.25000000  0.54475898  1
  O  O12  1  0.78460185  0.75000000  0.04475898  1
  O  O13  1  0.78460185  0.75000000  0.45524102  1
  Si  Si14  1  0.00000000  0.25000000  0.75000000  1
  Si  Si15  1  0.00000000  0.75000000  0.25000000  1
  Ti  Ti16  1  0.90708152  0.75000000  0.75000000  1
  Ti  Ti17  1  0.09291848  0.25000000  0.25000000  1
