# generated using pymatgen
data_NaIn(SiO3)2
_symmetry_space_group_name_H-M   'P 1'
_cell_length_a   5.44675344
_cell_length_b   6.84615551
_cell_length_c   6.84615552
_cell_angle_alpha   85.24893952
_cell_angle_beta   77.17608557
_cell_angle_gamma   77.17608552
_symmetry_Int_Tables_number   1
_chemical_formula_structural   NaIn(SiO3)2
_chemical_formula_sum   'Na2 In2 Si4 O12'
_cell_volume   242.56061727
_cell_formula_units_Z   2
loop_
 _symmetry_equiv_pos_site_id
 _symmetry_equiv_pos_as_xyz
  1  'x, y, z'
loop_
 _atom_site_type_symbol
 _atom_site_label
 _atom_site_symmetry_multiplicity
 _atom_site_fract_x
 _atom_site_fract_y
 _atom_site_fract_z
 _atom_site_occupancy
  O  O0  1  0.31980088  0.39858830  0.88570688  1
  O  O1  1  0.97991267  0.35816372  0.33707778  1
  O  O2  1  0.47991267  0.33707778  0.35816372  1
  O  O3  1  0.02008733  0.64183628  0.66292222  1
  O  O4  1  0.84700575  0.19962067  0.03942808  1
  O  O5  1  0.65299425  0.96057192  0.80037933  1
  O  O6  1  0.18019912  0.11429312  0.60141170  1
  O  O7  1  0.34700575  0.03942808  0.19962067  1
  O  O8  1  0.68019912  0.60141170  0.11429312  1
  O  O9  1  0.81980088  0.88570688  0.39858830  1
  O  O10  1  0.15299425  0.80037933  0.96057192  1
  O  O11  1  0.52008733  0.66292222  0.64183628  1
  Na  Na12  1  0.75000000  0.30216880  0.69783120  1
  Na  Na13  1  0.25000000  0.69783120  0.30216880  1
  Si  Si14  1  0.25163278  0.20543625  0.37725387  1
  Si  Si15  1  0.24836722  0.62274613  0.79456375  1
  Si  Si16  1  0.75163278  0.37725387  0.20543625  1
  Si  Si17  1  0.74836722  0.79456375  0.62274613  1
  In  In18  1  0.75000000  0.89355829  0.10644171  1
  In  In19  1  0.25000000  0.10644171  0.89355829  1
