# generated using pymatgen
data_AsS7IF6
_symmetry_space_group_name_H-M   'P 1'
_cell_length_a   11.93009933
_cell_length_b   12.24767375
_cell_length_c   15.93007774
_cell_angle_alpha   74.67968564
_cell_angle_beta   75.01496680
_cell_angle_gamma   72.67391613
_symmetry_Int_Tables_number   1
_chemical_formula_structural   AsS7IF6
_chemical_formula_sum   'As6 S42 I6 F36'
_cell_volume   2101.76132460
_cell_formula_units_Z   6
loop_
 _symmetry_equiv_pos_site_id
 _symmetry_equiv_pos_as_xyz
  1  'x, y, z'
loop_
 _atom_site_type_symbol
 _atom_site_label
 _atom_site_symmetry_multiplicity
 _atom_site_fract_x
 _atom_site_fract_y
 _atom_site_fract_z
 _atom_site_occupancy
  As  As0  1  0.26060525  0.77348443  0.00765315  1
  As  As1  1  0.58033653  0.12472671  0.63548519  1
  As  As2  1  0.41966347  0.87527329  0.36451481  1
  As  As3  1  0.06092054  0.65357158  0.67066851  1
  As  As4  1  0.73939475  0.22651557  0.99234685  1
  As  As5  1  0.93907946  0.34642842  0.32933149  1
  S  S6  1  0.73588625  0.58865042  0.53180535  1
  S  S7  1  0.38797730  0.19023996  0.04193917  1
  S  S8  1  0.23519949  0.43510805  0.90455473  1
  S  S9  1  0.02354085  0.70436370  0.28366015  1
  S  S10  1  0.48294439  0.44606607  0.18510842  1
  S  S11  1  0.12634100  0.13047074  0.05806416  1
  S  S12  1  0.46994568  0.25759181  0.22850318  1
  S  S13  1  0.63790322  0.46680631  0.61078169  1
  S  S14  1  0.06049368  0.38461742  0.92564463  1
  S  S15  1  0.66443957  0.46376069  0.76044546  1
  S  S16  1  0.02949398  0.88188577  0.40830714  1
  S  S17  1  0.53005432  0.74240819  0.77149682  1
  S  S18  1  0.87365900  0.86952926  0.94193584  1
  S  S19  1  0.97794436  0.30243714  0.59166212  1
  S  S20  1  0.93950632  0.61538258  0.07435537  1
  S  S21  1  0.25707318  0.10597123  0.12367845  1
  S  S22  1  0.14451515  0.95145961  0.75365274  1
  S  S23  1  0.03136152  0.31291358  0.05209561  1
  S  S24  1  0.33556043  0.53623931  0.23955454  1
  S  S25  1  0.27586525  0.39864168  0.01828972  1
  S  S26  1  0.94493700  0.04327305  0.71317835  1
  S  S27  1  0.85548485  0.04854039  0.24634726  1
  S  S28  1  0.72413475  0.60135832  0.98171028  1
  S  S29  1  0.02205564  0.69756286  0.40833788  1
  S  S30  1  0.16279384  0.22556141  0.72661914  1
  S  S31  1  0.61202270  0.80976004  0.95806083  1
  S  S32  1  0.97645915  0.29563630  0.71633985  1
  S  S33  1  0.83279857  0.92492078  0.18561960  1
  S  S34  1  0.65438726  0.74558049  0.56164616  1
  S  S35  1  0.51705561  0.55393393  0.81489158  1
  S  S36  1  0.83720616  0.77443859  0.27338086  1
  S  S37  1  0.05506300  0.95672695  0.28682165  1
  S  S38  1  0.16720143  0.07507922  0.81438040  1
  S  S39  1  0.34561274  0.25441951  0.43835384  1
  S  S40  1  0.31318380  0.26547048  0.30879082  1
  S  S41  1  0.76480051  0.56489195  0.09544527  1
  S  S42  1  0.68681620  0.73452952  0.69120918  1
  S  S43  1  0.26411375  0.41134958  0.46819465  1
  S  S44  1  0.36209678  0.53319369  0.38921831  1
  S  S45  1  0.97050602  0.11811423  0.59169286  1
  S  S46  1  0.74292682  0.89402877  0.87632155  1
  S  S47  1  0.96863848  0.68708642  0.94790439  1
  I  I48  1  0.43041109  0.55302895  0.62417061  1
  I  I49  1  0.57336312  0.84121710  0.10391820  1
  I  I50  1  0.56958891  0.44697105  0.37582939  1
  I  I51  1  0.42663688  0.15878290  0.89608180  1
  I  I52  1  0.26465412  0.96268576  0.61052104  1
  I  I53  1  0.73534588  0.03731424  0.38947896  1
  F  F54  1  0.73080841  0.27044874  0.09246722  1
  F  F55  1  0.44991722  0.95458735  0.43243757  1
  F  F56  1  0.93707218  0.65007752  0.75977855  1
  F  F57  1  0.67425880  0.10955513  0.05540220  1
  F  F58  1  0.74690197  0.18228228  0.89316824  1
  F  F59  1  0.49727151  0.95436580  0.26684391  1
  F  F60  1  0.25309803  0.81771772  0.10683176  1
  F  F61  1  0.44414016  0.23109998  0.62398474  1
  F  F62  1  0.00881375  0.20413450  0.37992206  1
  F  F63  1  0.65693212  0.20323772  0.53900521  1
  F  F64  1  0.99750065  0.59336688  0.60975923  1
  F  F65  1  0.50272849  0.04563420  0.73315609  1
  F  F66  1  0.81068131  0.34477375  0.41774091  1
  F  F67  1  0.86449544  0.49077533  0.28035946  1
  F  F68  1  0.12850633  0.71161362  0.73080516  1
  F  F69  1  0.80360248  0.34435013  0.92914325  1
  F  F70  1  0.55585984  0.76890002  0.37601526  1
  F  F71  1  0.55008278  0.04541265  0.56756243  1
  F  F72  1  0.00249935  0.40663312  0.39024077  1
  F  F73  1  0.61167430  0.20358194  0.70225587  1
  F  F74  1  0.13550456  0.50922467  0.71964054  1
  F  F75  1  0.18931869  0.65522625  0.58225909  1
  F  F76  1  0.71464201  0.01569241  0.64850802  1
  F  F77  1  0.26919159  0.72955126  0.90753278  1
  F  F78  1  0.28535799  0.98430759  0.35149198  1
  F  F79  1  0.88462497  0.13494864  0.00127030  1
  F  F80  1  0.40627802  0.68119316  0.01490423  1
  F  F81  1  0.32574120  0.89044487  0.94459780  1
  F  F82  1  0.59372198  0.31880684  0.98509577  1
  F  F83  1  0.19639752  0.65564987  0.07085675  1
  F  F84  1  0.11537503  0.86505136  0.99872970  1
  F  F85  1  0.87149367  0.28838638  0.26919484  1
  F  F86  1  0.34306788  0.79676228  0.46099479  1
  F  F87  1  0.38832570  0.79641806  0.29774413  1
  F  F88  1  0.06292782  0.34992248  0.24022145  1
  F  F89  1  0.99118625  0.79586550  0.62007794  1
