# generated using pymatgen
data_Li7Mn2(CoO4)3
_symmetry_space_group_name_H-M   'P 1'
_cell_length_a   2.90400757
_cell_length_b   7.75667988
_cell_length_c   9.84841939
_cell_angle_alpha   80.21358802
_cell_angle_beta   90.00000000
_cell_angle_gamma   79.21092675
_symmetry_Int_Tables_number   1
_chemical_formula_structural   Li7Mn2(CoO4)3
_chemical_formula_sum   'Li7 Mn2 Co3 O12'
_cell_volume   214.63153499
_cell_formula_units_Z   1
loop_
 _symmetry_equiv_pos_site_id
 _symmetry_equiv_pos_as_xyz
  1  'x, y, z'
loop_
 _atom_site_type_symbol
 _atom_site_label
 _atom_site_symmetry_multiplicity
 _atom_site_fract_x
 _atom_site_fract_y
 _atom_site_fract_z
 _atom_site_occupancy
  Li  Li0  1  0.58192296  0.83615308  0.24567174  1
  Li  Li1  1  0.75563508  0.48872984  0.76114519  1
  Li  Li2  1  0.90915873  0.18168354  0.24099790  1
  Li  Li3  1  0.25294794  0.49410411  0.24319963  1
  Li  Li4  1  0.41552981  0.16894138  0.75783386  1
  Li  Li5  1  0.08247277  0.83505346  0.75602450  1
  Li  Li6  1  0.33376256  0.33247387  0.99834996  1
  Mn  Mn7  1  0.99527235  0.00945529  0.99573127  1
  Mn  Mn8  1  0.16755903  0.66488293  0.50251521  1
  Co  Co9  1  0.49629973  0.00740055  0.49580899  1
  Co  Co10  1  0.67771541  0.64457018  0.00654059  1
  Co  Co11  1  0.84143169  0.31713561  0.50192265  1
  O  O12  1  0.46477399  0.07045102  0.11119269  1
  O  O13  1  0.63081157  0.73837687  0.61301161  1
  O  O14  1  0.78255391  0.43489318  0.12108602  1
  O  O15  1  0.12093489  0.75813022  0.10568063  1
  O  O16  1  0.28647989  0.42704121  0.61082913  1
  O  O17  1  0.95506970  0.08985960  0.61748494  1
  O  O18  1  0.70533294  0.58933312  0.39272746  1
  O  O19  1  0.88442581  0.23114839  0.88415138  1
  O  O20  1  0.04992785  0.90014530  0.38865642  1
  O  O21  1  0.36998821  0.26002358  0.37579503  1
  O  O22  1  0.53857372  0.92285356  0.88916020  1
  O  O23  1  0.20141944  0.59716012  0.88448301  1
