# generated using pymatgen
data_Na2ZnGeO4
_symmetry_space_group_name_H-M   'P 1'
_cell_length_a   5.42778373
_cell_length_b   5.68000271
_cell_length_c   7.20113147
_cell_angle_alpha   90.00000000
_cell_angle_beta   89.87568570
_cell_angle_gamma   90.00000000
_symmetry_Int_Tables_number   1
_chemical_formula_structural   Na2ZnGeO4
_chemical_formula_sum   'Na4 Zn2 Ge2 O8'
_cell_volume   222.00910991
_cell_formula_units_Z   2
loop_
 _symmetry_equiv_pos_site_id
 _symmetry_equiv_pos_as_xyz
  1  'x, y, z'
loop_
 _atom_site_type_symbol
 _atom_site_label
 _atom_site_symmetry_multiplicity
 _atom_site_fract_x
 _atom_site_fract_y
 _atom_site_fract_z
 _atom_site_occupancy
  O  O0  1  0.16862919  0.70569483  0.22526750  1
  O  O1  1  0.66862919  0.29430517  0.72526750  1
  O  O2  1  0.13535420  0.20453771  0.54455202  1
  O  O3  1  0.63535420  0.79546229  0.04455202  1
  O  O4  1  0.08086143  0.15286977  0.95371738  1
  O  O5  1  0.57942223  0.38299281  0.27629811  1
  O  O6  1  0.07942223  0.61700719  0.77629811  1
  O  O7  1  0.58086143  0.84713023  0.45371738  1
  Na  Na8  1  0.50696235  0.17804604  0.00342513  1
  Na  Na9  1  0.50940175  0.67591390  0.74816216  1
  Na  Na10  1  0.00696235  0.82195396  0.50342513  1
  Na  Na11  1  0.00940175  0.32408610  0.24816216  1
  Zn  Zn12  1  0.99848744  0.81292810  0.99795895  1
  Zn  Zn13  1  0.49848744  0.18707190  0.49795895  1
  Ge  Ge14  1  0.99488142  0.31432925  0.75061875  1
  Ge  Ge15  1  0.49488142  0.68567075  0.25061875  1
