# generated using pymatgen
data_Rb3Ti3(PO4)5
_symmetry_space_group_name_H-M   'P 1'
_cell_length_a   6.37670058
_cell_length_b   15.03829461
_cell_length_c   18.62352140
_cell_angle_alpha   90.00000000
_cell_angle_beta   90.00000000
_cell_angle_gamma   90.00000000
_symmetry_Int_Tables_number   1
_chemical_formula_structural   Rb3Ti3(PO4)5
_chemical_formula_sum   'Rb12 Ti12 P20 O80'
_cell_volume   1785.89703413
_cell_formula_units_Z   4
loop_
 _symmetry_equiv_pos_site_id
 _symmetry_equiv_pos_as_xyz
  1  'x, y, z'
loop_
 _atom_site_type_symbol
 _atom_site_label
 _atom_site_symmetry_multiplicity
 _atom_site_fract_x
 _atom_site_fract_y
 _atom_site_fract_z
 _atom_site_occupancy
  O  O0  1  0.74007894  0.85915960  0.06832863  1
  O  O1  1  0.25992106  0.35915960  0.93167137  1
  O  O2  1  0.25992106  0.85915960  0.56832863  1
  O  O3  1  0.74007894  0.35915960  0.43167137  1
  O  O4  1  0.44269495  0.32615272  0.04960745  1
  O  O5  1  0.55730505  0.82615272  0.95039255  1
  O  O6  1  0.55730505  0.32615272  0.54960745  1
  O  O7  1  0.44269495  0.82615272  0.45039255  1
  O  O8  1  0.94197501  0.07653427  0.96358914  1
  O  O9  1  0.05802499  0.57653427  0.03641086  1
  O  O10  1  0.05802499  0.07653427  0.46358914  1
  O  O11  1  0.94197501  0.57653427  0.53641086  1
  O  O12  1  0.74153839  0.19853126  0.02832101  1
  O  O13  1  0.25846161  0.69853126  0.97167899  1
  O  O14  1  0.25846161  0.19853126  0.52832101  1
  O  O15  1  0.74153839  0.69853126  0.47167899  1
  O  O16  1  0.74174727  0.83969556  0.21350643  1
  O  O17  1  0.25825273  0.33969556  0.78649357  1
  O  O18  1  0.25825273  0.83969556  0.71350643  1
  O  O19  1  0.74174727  0.33969556  0.28649357  1
  O  O20  1  0.74498046  0.02315506  0.23283300  1
  O  O21  1  0.25501954  0.52315506  0.76716700  1
  O  O22  1  0.25501954  0.02315506  0.73283300  1
  O  O23  1  0.74498046  0.52315506  0.26716700  1
  O  O24  1  0.77173353  0.18578522  0.23697227  1
  O  O25  1  0.22826647  0.68578522  0.76302773  1
  O  O26  1  0.22826647  0.18578522  0.73697227  1
  O  O27  1  0.77173353  0.68578522  0.26302773  1
  O  O28  1  0.75150036  0.45235115  0.06947184  1
  O  O29  1  0.24849964  0.95235115  0.93052816  1
  O  O30  1  0.25846793  0.20292337  0.98162704  1
  O  O31  1  0.24849964  0.45235115  0.56947184  1
  O  O32  1  0.24867432  0.10295954  0.85156517  1
  O  O33  1  0.75132568  0.60295954  0.14843483  1
  O  O34  1  0.75132568  0.10295954  0.35156517  1
  O  O35  1  0.24867432  0.60295954  0.64843483  1
  O  O36  1  0.74667500  0.30973718  0.15468389  1
  O  O37  1  0.25332500  0.80973718  0.84531611  1
  O  O38  1  0.25332500  0.30973718  0.65468389  1
  O  O39  1  0.74667500  0.80973718  0.34531611  1
  O  O40  1  0.09253657  0.09359610  0.27757609  1
  O  O41  1  0.90746343  0.59359610  0.72242391  1
  O  O42  1  0.90746343  0.09359610  0.77757609  1
  O  O43  1  0.09253657  0.59359610  0.22242391  1
  O  O44  1  0.09063827  0.79207644  0.27292984  1
  O  O45  1  0.90936173  0.29207644  0.72707016  1
  O  O46  1  0.90936173  0.79207644  0.77292984  1
  O  O47  1  0.09063827  0.29207644  0.22707016  1
  O  O48  1  0.55766417  0.57532419  0.54032614  1
  O  O49  1  0.44233583  0.07532419  0.45967386  1
  O  O50  1  0.44233583  0.57532419  0.04032614  1
  O  O51  1  0.55766417  0.07532419  0.95967386  1
  O  O52  1  0.73877722  0.54391695  0.42031078  1
  O  O53  1  0.26122278  0.04391695  0.57968922  1
  O  O54  1  0.26122278  0.54391695  0.92031078  1
  O  O55  1  0.73877722  0.04391695  0.07968922  1
  O  O56  1  0.04805399  0.44446596  0.35100012  1
  O  O57  1  0.95194601  0.94446596  0.64899988  1
  O  O58  1  0.95194601  0.44446596  0.85100012  1
  O  O59  1  0.04805399  0.94446596  0.14899988  1
  O  O60  1  0.43568856  0.44382919  0.34647863  1
  O  O61  1  0.56431144  0.94382919  0.65352137  1
  O  O62  1  0.56431144  0.44382919  0.84647863  1
  O  O63  1  0.43568856  0.94382919  0.15352137  1
  O  O64  1  0.75019841  0.86202421  0.55366912  1
  O  O65  1  0.24980159  0.36202421  0.44633088  1
  O  O66  1  0.24980159  0.86202421  0.05366912  1
  O  O67  1  0.75019841  0.36202421  0.94633088  1
  O  O68  1  0.25062569  0.53339529  0.44194421  1
  O  O69  1  0.74937431  0.03339529  0.55805579  1
  O  O70  1  0.74937431  0.53339529  0.94194421  1
  O  O71  1  0.25062569  0.03339529  0.05805579  1
  O  O72  1  0.05806326  0.82481318  0.45366633  1
  O  O73  1  0.94193674  0.32481318  0.54633367  1
  O  O74  1  0.94193674  0.82481318  0.95366633  1
  O  O75  1  0.05806326  0.32481318  0.04633367  1
  O  O76  1  0.25846793  0.70292337  0.51837296  1
  O  O77  1  0.74153207  0.20292337  0.48162704  1
  O  O78  1  0.74153207  0.70292337  0.01837296  1
  O  O79  1  0.75150036  0.95235115  0.43052816  1
  P  P80  1  0.85746323  0.09623671  0.27688346  1
  P  P81  1  0.14253677  0.59623671  0.72311654  1
  P  P82  1  0.14253677  0.09623671  0.77688346  1
  P  P83  1  0.85746323  0.59623671  0.22311654  1
  P  P84  1  0.25391498  0.30177044  0.00074986  1
  P  P85  1  0.74608502  0.80177044  0.99925014  1
  P  P86  1  0.74608502  0.30177044  0.50074986  1
  P  P87  1  0.25391498  0.80177044  0.49925014  1
  P  P88  1  0.24677309  0.94608382  0.10124744  1
  P  P89  1  0.75322691  0.44608382  0.89875256  1
  P  P90  1  0.75322691  0.94608382  0.60124744  1
  P  P91  1  0.24677309  0.44608382  0.39875256  1
  P  P92  1  0.74590036  0.09940397  0.00918397  1
  P  P93  1  0.25409964  0.59940397  0.99081603  1
  P  P94  1  0.25409964  0.09940397  0.50918397  1
  P  P95  1  0.74590036  0.59940397  0.49081603  1
  P  P96  1  0.85585299  0.28762525  0.22651839  1
  P  P97  1  0.14414701  0.78762525  0.77348161  1
  P  P98  1  0.14414701  0.28762525  0.72651839  1
  P  P99  1  0.85585299  0.78762525  0.27348161  1
  Ti  Ti100  1  0.75510180  0.33262089  0.05080311  1
  Ti  Ti101  1  0.24489820  0.83262089  0.94919689  1
  Ti  Ti102  1  0.24489820  0.33262089  0.55080311  1
  Ti  Ti103  1  0.75510180  0.83262089  0.44919689  1
  Ti  Ti104  1  0.74839757  0.94323994  0.14675795  1
  Ti  Ti105  1  0.25160243  0.44323994  0.85324205  1
  Ti  Ti106  1  0.25160243  0.94323994  0.64675795  1
  Ti  Ti107  1  0.74839757  0.44323994  0.35324205  1
  Ti  Ti108  1  0.24489895  0.06961661  0.95479156  1
  Ti  Ti109  1  0.75510105  0.56961661  0.04520844  1
  Ti  Ti110  1  0.75510105  0.06961661  0.45479156  1
  Ti  Ti111  1  0.24489895  0.56961661  0.54520844  1
  Rb  Rb112  1  0.36577458  0.22392404  0.35092902  1
  Rb  Rb113  1  0.63422542  0.72392404  0.64907098  1
  Rb  Rb114  1  0.63422542  0.22392404  0.85092902  1
  Rb  Rb115  1  0.36577458  0.72392404  0.14907098  1
  Rb  Rb116  1  0.34288456  0.44527462  0.17563864  1
  Rb  Rb117  1  0.65711544  0.94527462  0.82436136  1
  Rb  Rb118  1  0.65711544  0.44527462  0.67563864  1
  Rb  Rb119  1  0.34288456  0.94527462  0.32436136  1
  Rb  Rb120  1  0.36705542  0.16909726  0.15259015  1
  Rb  Rb121  1  0.63294458  0.66909726  0.84740985  1
  Rb  Rb122  1  0.63294458  0.16909726  0.65259015  1
  Rb  Rb123  1  0.36705542  0.66909726  0.34740985  1
