# generated using pymatgen
data_SrHIO
_symmetry_space_group_name_H-M   'P 1'
_cell_length_a   7.80026059
_cell_length_b   4.29308373
_cell_length_c   10.89046389
_cell_angle_alpha   90.00000000
_cell_angle_beta   90.00000000
_cell_angle_gamma   90.00000000
_symmetry_Int_Tables_number   1
_chemical_formula_structural   SrHIO
_chemical_formula_sum   'Sr4 H4 I4 O4'
_cell_volume   364.69083558
_cell_formula_units_Z   4
loop_
 _symmetry_equiv_pos_site_id
 _symmetry_equiv_pos_as_xyz
  1  'x, y, z'
loop_
 _atom_site_type_symbol
 _atom_site_label
 _atom_site_symmetry_multiplicity
 _atom_site_fract_x
 _atom_site_fract_y
 _atom_site_fract_z
 _atom_site_occupancy
  Sr  Sr0  1  0.67847581  0.25000000  0.42199377  1
  Sr  Sr1  1  0.17847581  0.25000000  0.07800623  1
  Sr  Sr2  1  0.32152419  0.75000000  0.57800623  1
  Sr  Sr3  1  0.82152419  0.75000000  0.92199377  1
  H  H4  1  0.78210906  0.25000000  0.09749975  1
  H  H5  1  0.28210906  0.25000000  0.40250025  1
  H  H6  1  0.21789094  0.75000000  0.90250025  1
  H  H7  1  0.71789094  0.75000000  0.59749975  1
  I  I8  1  0.52280397  0.75000000  0.18025558  1
  I  I9  1  0.02280397  0.75000000  0.31974442  1
  I  I10  1  0.47719603  0.25000000  0.81974442  1
  I  I11  1  0.97719603  0.25000000  0.68025558  1
  O  O12  1  0.86695332  0.25000000  0.03186146  1
  O  O13  1  0.36695332  0.25000000  0.46813854  1
  O  O14  1  0.13304668  0.75000000  0.96813854  1
  O  O15  1  0.63304668  0.75000000  0.53186146  1
