# generated using pymatgen
data_K2ZnGeO4
_symmetry_space_group_name_H-M   'P 1'
_cell_length_a   5.62939707
_cell_length_b   11.29272426
_cell_length_c   16.05042591
_cell_angle_alpha   90.00000000
_cell_angle_beta   90.00000000
_cell_angle_gamma   90.00000000
_symmetry_Int_Tables_number   1
_chemical_formula_structural   K2ZnGeO4
_chemical_formula_sum   'K16 Zn8 Ge8 O32'
_cell_volume   1020.34529885
_cell_formula_units_Z   8
loop_
 _symmetry_equiv_pos_site_id
 _symmetry_equiv_pos_as_xyz
  1  'x, y, z'
loop_
 _atom_site_type_symbol
 _atom_site_label
 _atom_site_symmetry_multiplicity
 _atom_site_fract_x
 _atom_site_fract_y
 _atom_site_fract_z
 _atom_site_occupancy
  O  O0  1  0.70781971  0.51314474  0.89557562  1
  O  O1  1  0.29218029  0.48685526  0.39557562  1
  O  O2  1  0.29218029  0.01314474  0.89557562  1
  O  O3  1  0.70781971  0.98685526  0.39557562  1
  O  O4  1  0.17721464  0.52525085  0.96941574  1
  O  O5  1  0.82278536  0.47474915  0.46941574  1
  O  O6  1  0.82278536  0.02525085  0.96941574  1
  O  O7  1  0.17721464  0.97474915  0.46941574  1
  O  O8  1  0.61100317  0.60100245  0.08870309  1
  O  O9  1  0.38899683  0.39899755  0.58870309  1
  O  O10  1  0.38899683  0.10100245  0.08870309  1
  O  O11  1  0.61100317  0.89899755  0.58870309  1
  O  O12  1  0.10268427  0.58442187  0.79224732  1
  O  O13  1  0.89731573  0.41557813  0.29224732  1
  O  O14  1  0.89731573  0.08442187  0.79224732  1
  O  O15  1  0.91032657  0.84029037  0.85036981  1
  O  O16  1  0.20315649  0.69360147  0.17255430  1
  O  O17  1  0.79684351  0.30639853  0.67255430  1
  O  O18  1  0.79684351  0.19360147  0.17255430  1
  O  O19  1  0.20315649  0.80639853  0.67255430  1
  O  O20  1  0.67208931  0.69246708  0.69222874  1
  O  O21  1  0.32791069  0.30753292  0.19222874  1
  O  O22  1  0.32791069  0.19246708  0.69222874  1
  O  O23  1  0.67208931  0.80753292  0.19222874  1
  O  O24  1  0.40981375  0.67489327  0.53360129  1
  O  O25  1  0.59018625  0.32510673  0.03360129  1
  O  O26  1  0.59018625  0.17489327  0.53360129  1
  O  O27  1  0.40981375  0.82510673  0.03360129  1
  O  O28  1  0.91032657  0.65970963  0.35036981  1
  O  O29  1  0.08967343  0.34029037  0.85036981  1
  O  O30  1  0.08967343  0.15970963  0.35036981  1
  O  O31  1  0.10268427  0.91557813  0.29224732  1
  K  K32  1  0.95525329  0.73477349  0.00498465  1
  K  K33  1  0.04474671  0.26522651  0.50498465  1
  K  K34  1  0.04474671  0.23477349  0.00498465  1
  K  K35  1  0.95525329  0.76522651  0.50498465  1
  K  K36  1  0.45370951  0.73208263  0.87232817  1
  K  K37  1  0.54629049  0.26791737  0.37232817  1
  K  K38  1  0.54629049  0.23208263  0.87232817  1
  K  K39  1  0.45370951  0.76791737  0.37232817  1
  K  K40  1  0.99400214  0.51506724  0.62643675  1
  K  K41  1  0.00599786  0.48493276  0.12643675  1
  K  K42  1  0.00599786  0.01506724  0.62643675  1
  K  K43  1  0.49154905  0.98644802  0.74710498  1
  K  K44  1  0.49154905  0.51355198  0.24710498  1
  K  K45  1  0.50845095  0.48644802  0.74710498  1
  K  K46  1  0.50845095  0.01355198  0.24710498  1
  K  K47  1  0.99400214  0.98493276  0.12643675  1
  Zn  Zn48  1  0.48630496  0.51012545  0.49832643  1
  Zn  Zn49  1  0.03017013  0.23910167  0.75199185  1
  Zn  Zn50  1  0.03017013  0.26089833  0.25199185  1
  Zn  Zn51  1  0.96982987  0.73910167  0.75199185  1
  Zn  Zn52  1  0.48630496  0.98987455  0.99832643  1
  Zn  Zn53  1  0.51369504  0.01012545  0.49832643  1
  Zn  Zn54  1  0.51369504  0.48987455  0.99832643  1
  Zn  Zn55  1  0.96982987  0.76089833  0.25199185  1
  Ge  Ge56  1  0.98345287  0.99018018  0.87644930  1
  Ge  Ge57  1  0.01654713  0.00981982  0.37644930  1
  Ge  Ge58  1  0.01654713  0.49018018  0.87644930  1
  Ge  Ge59  1  0.98345287  0.50981982  0.37644930  1
  Ge  Ge60  1  0.47305551  0.76450698  0.62218196  1
  Ge  Ge61  1  0.52694449  0.23549302  0.12218196  1
  Ge  Ge62  1  0.52694449  0.26450698  0.62218196  1
  Ge  Ge63  1  0.47305551  0.73549302  0.12218196  1
