# generated using pymatgen
data_Cs4Sb14S23
_symmetry_space_group_name_H-M   'P 1'
_cell_length_a   12.24768176
_cell_length_b   14.39536801
_cell_length_c   15.08294576
_cell_angle_alpha   93.56289930
_cell_angle_beta   94.56028437
_cell_angle_gamma   110.06878904
_symmetry_Int_Tables_number   1
_chemical_formula_structural   Cs4Sb14S23
_chemical_formula_sum   'Cs8 Sb28 S46'
_cell_volume   2478.51468390
_cell_formula_units_Z   2
loop_
 _symmetry_equiv_pos_site_id
 _symmetry_equiv_pos_as_xyz
  1  'x, y, z'
loop_
 _atom_site_type_symbol
 _atom_site_label
 _atom_site_symmetry_multiplicity
 _atom_site_fract_x
 _atom_site_fract_y
 _atom_site_fract_z
 _atom_site_occupancy
  Cs  Cs0  1  0.35637698  0.26686272  0.02116261  1
  Cs  Cs1  1  0.84050781  0.24023151  0.00751407  1
  Cs  Cs2  1  0.64362273  0.73313671  0.97883786  1
  Cs  Cs3  1  0.24561034  0.97248369  0.71843800  1
  Cs  Cs4  1  0.26160615  0.00490579  0.43131874  1
  Cs  Cs5  1  0.73839325  0.99509407  0.56867460  1
  Cs  Cs6  1  0.75438766  0.02751747  0.28155521  1
  Cs  Cs7  1  0.15949209  0.75976832  0.99248692  1
  Sb  Sb8  1  0.60596923  0.61388722  0.28952665  1
  Sb  Sb9  1  0.41530694  0.70613536  0.71458764  1
  Sb  Sb10  1  0.58586184  0.23475413  0.78066634  1
  Sb  Sb11  1  0.91022617  0.77393042  0.22640403  1
  Sb  Sb12  1  0.39454785  0.02789920  0.19313194  1
  Sb  Sb13  1  0.08977499  0.22607288  0.77359874  1
  Sb  Sb14  1  0.08892138  0.30457460  0.27932562  1
  Sb  Sb15  1  0.41413794  0.76524895  0.21933463  1
  Sb  Sb16  1  0.89028284  0.37235920  0.70681235  1
  Sb  Sb17  1  0.88452401  0.38904064  0.40844122  1
  Sb  Sb18  1  0.76467237  0.47374183  0.11907795  1
  Sb  Sb19  1  0.10971814  0.62764034  0.29318824  1
  Sb  Sb20  1  0.11054396  0.04400265  0.19493652  1
  Sb  Sb21  1  0.61973578  0.62121199  0.58782831  1
  Sb  Sb22  1  0.40479592  0.71699273  0.45956988  1
  Sb  Sb23  1  0.58469333  0.29386338  0.28541357  1
  Sb  Sb24  1  0.90381565  0.71724657  0.46705815  1
  Sb  Sb25  1  0.11548085  0.61096284  0.59155791  1
  Sb  Sb26  1  0.23532784  0.52625834  0.88092237  1
  Sb  Sb27  1  0.88945489  0.95599662  0.80506322  1
  Sb  Sb28  1  0.74509254  0.52275215  0.88440316  1
  Sb  Sb29  1  0.39402918  0.38611225  0.71047323  1
  Sb  Sb30  1  0.60545196  0.97210138  0.80686750  1
  Sb  Sb31  1  0.38026231  0.37878539  0.41217304  1
  Sb  Sb32  1  0.59520196  0.28300459  0.54043039  1
  Sb  Sb33  1  0.09618628  0.28275605  0.53294208  1
  Sb  Sb34  1  0.91107831  0.69542515  0.72067446  1
  Sb  Sb35  1  0.25490945  0.47724827  0.11559915  1
  S  S36  1  0.38401816  0.25729614  0.52779690  1
  S  S37  1  0.40813771  0.54824075  0.57509284  1
  S  S38  1  0.62769780  0.74441053  0.72282068  1
  S  S39  1  0.88537358  0.25618543  0.51645602  1
  S  S40  1  0.55743475  0.16624259  0.15101741  1
  S  S41  1  0.90347184  0.53737129  0.57585515  1
  S  S42  1  0.42114332  0.50346188  0.84995088  1
  S  S43  1  0.91986551  0.82383503  0.61444263  1
  S  S44  1  0.61597790  0.74269714  0.47220289  1
  S  S45  1  0.76636775  0.97897053  0.92406374  1
  S  S46  1  0.44256561  0.83375705  0.84898231  1
  S  S47  1  0.57885585  0.49653660  0.15004823  1
  S  S48  1  0.11955722  0.71622368  0.73721153  1
  S  S49  1  0.93455151  0.86697362  0.37841089  1
  S  S50  1  0.89785369  0.57513157  0.29879634  1
  S  S51  1  0.45280649  0.86775355  0.36839100  1
  S  S52  1  0.85637799  0.61891206  0.03875700  1
  S  S53  1  0.46547198  0.90679161  0.11835029  1
  S  S54  1  0.61418754  0.76765179  0.20890895  1
  S  S55  1  0.41195201  0.82645958  0.60231325  1
  S  S56  1  0.35001019  0.62159581  0.03472029  1
  S  S57  1  0.14362093  0.38108773  0.96124273  1
  S  S58  1  0.06545502  0.13303157  0.62159055  1
  S  S59  1  0.58804631  0.17353767  0.39768690  1
  S  S60  1  0.06130683  0.18220642  0.13780485  1
  S  S61  1  0.88244071  0.20799351  0.77560753  1
  S  S62  1  0.92152883  0.91908712  0.13646805  1
  S  S63  1  0.09652970  0.46263141  0.42414443  1
  S  S64  1  0.10214640  0.42486837  0.70120416  1
  S  S65  1  0.93869229  0.81779327  0.86219493  1
  S  S66  1  0.07847022  0.08091279  0.86353125  1
  S  S67  1  0.38581169  0.23234895  0.79109337  1
  S  S68  1  0.23363191  0.02102919  0.07593613  1
  S  S69  1  0.60579497  0.43284347  0.70535981  1
  S  S70  1  0.54719397  0.13224603  0.63161128  1
  S  S71  1  0.59185963  0.45175648  0.42490820  1
  S  S72  1  0.53452918  0.09320934  0.88164931  1
  S  S73  1  0.11463057  0.74381656  0.48354387  1
  S  S74  1  0.08013345  0.17616473  0.38555774  1
  S  S75  1  0.07894216  0.51314758  0.14971082  1
  S  S76  1  0.11756034  0.79200698  0.22439244  1
  S  S77  1  0.39420336  0.56715528  0.29463864  1
  S  S78  1  0.64998943  0.37840374  0.96528032  1
  S  S79  1  0.92105812  0.48685310  0.85029030  1
  S  S80  1  0.37230112  0.25558854  0.27717805  1
  S  S81  1  0.88044356  0.28377651  0.26278874  1
