# generated using pymatgen
data_NaBePO4
_symmetry_space_group_name_H-M   'P 1'
_cell_length_a   7.89767263
_cell_length_b   8.23002800
_cell_length_c   14.35522578
_cell_angle_alpha   90.08635836
_cell_angle_beta   90.00000000
_cell_angle_gamma   90.00000000
_symmetry_Int_Tables_number   1
_chemical_formula_structural   NaBePO4
_chemical_formula_sum   'Na12 Be12 P12 O48'
_cell_volume   933.06086552
_cell_formula_units_Z   12
loop_
 _symmetry_equiv_pos_site_id
 _symmetry_equiv_pos_as_xyz
  1  'x, y, z'
loop_
 _atom_site_type_symbol
 _atom_site_label
 _atom_site_symmetry_multiplicity
 _atom_site_fract_x
 _atom_site_fract_y
 _atom_site_fract_z
 _atom_site_occupancy
  Be  Be0  1  0.66849538  0.06835656  0.40939891  1
  Be  Be1  1  0.16849538  0.43164344  0.09060109  1
  Be  Be2  1  0.33150462  0.93164344  0.59060109  1
  Be  Be3  1  0.83150462  0.56835656  0.90939891  1
  Be  Be4  1  0.16862373  0.40198953  0.41905342  1
  Be  Be5  1  0.66862373  0.09801047  0.08094658  1
  Be  Be6  1  0.83137627  0.59801047  0.58094658  1
  Be  Be7  1  0.33137627  0.90198953  0.91905342  1
  Be  Be8  1  0.66851761  0.57952766  0.25912281  1
  Be  Be9  1  0.16851761  0.92047234  0.24087719  1
  Be  Be10  1  0.33148239  0.42047234  0.74087719  1
  Be  Be11  1  0.83148239  0.07952766  0.75912281  1
  O  O12  1  0.47250060  0.00923713  0.39080817  1
  O  O13  1  0.97250060  0.49076287  0.10919183  1
  O  O14  1  0.52749940  0.99076287  0.60919183  1
  O  O15  1  0.02749940  0.50923713  0.89080817  1
  O  O16  1  0.97451009  0.33646951  0.43549562  1
  O  O17  1  0.47451009  0.16353049  0.06450438  1
  O  O18  1  0.02548991  0.66353049  0.56450438  1
  O  O19  1  0.52548991  0.83646951  0.93549562  1
  O  O20  1  0.47161595  0.57655757  0.29792925  1
  O  O21  1  0.97161595  0.92344243  0.20207075  1
  O  O22  1  0.52838405  0.42344243  0.70207075  1
  O  O23  1  0.02838405  0.07655757  0.79792925  1
  O  O24  1  0.16674342  0.95938869  0.35240989  1
  O  O25  1  0.66674342  0.54061131  0.14759011  1
  O  O26  1  0.83325658  0.04061131  0.64759011  1
  O  O27  1  0.33325658  0.45938869  0.85240989  1
  O  O28  1  0.66883948  0.25564336  0.44769273  1
  O  O29  1  0.16883948  0.24435664  0.05230727  1
  O  O30  1  0.33116052  0.74435664  0.55230727  1
  O  O31  1  0.83116052  0.75564336  0.94769273  1
  O  O32  1  0.16688944  0.55473066  0.34642896  1
  O  O33  1  0.66688944  0.94526934  0.15357104  1
  O  O34  1  0.83311056  0.44526934  0.65357104  1
  O  O35  1  0.33311056  0.05473066  0.84642896  1
  O  O36  1  0.75334530  0.94199545  0.48553072  1
  O  O37  1  0.25334530  0.55800455  0.01446928  1
  O  O38  1  0.24665470  0.05800455  0.51446928  1
  O  O39  1  0.74665470  0.44199545  0.98553072  1
  O  O40  1  0.75164980  0.54790273  0.47857059  1
  O  O41  1  0.25164980  0.95209727  0.02142941  1
  O  O42  1  0.24835020  0.45209727  0.52142941  1
  O  O43  1  0.74835020  0.04790273  0.97857059  1
  O  O44  1  0.74877389  0.75593167  0.28671275  1
  O  O45  1  0.24877389  0.74406833  0.21328725  1
  O  O46  1  0.25122611  0.24406833  0.71328725  1
  O  O47  1  0.75122611  0.25593167  0.78671275  1
  O  O48  1  0.27475601  0.24806496  0.37693415  1
  O  O49  1  0.77475601  0.25193504  0.12306585  1
  O  O50  1  0.72524399  0.75193504  0.62306585  1
  O  O51  1  0.22524399  0.74806496  0.87693415  1
  O  O52  1  0.76772367  0.43461317  0.31435474  1
  O  O53  1  0.26772367  0.06538683  0.18564526  1
  O  O54  1  0.23227633  0.56538683  0.68564526  1
  O  O55  1  0.73227633  0.93461317  0.81435474  1
  O  O56  1  0.76668653  0.05898072  0.31001234  1
  O  O57  1  0.26668653  0.44101928  0.18998766  1
  O  O58  1  0.23331347  0.94101928  0.68998766  1
  O  O59  1  0.73331347  0.55898072  0.81001234  1
  Na  Na60  1  0.53209011  0.72834695  0.43123188  1
  Na  Na61  1  0.03209011  0.77165305  0.06876812  1
  Na  Na62  1  0.46790989  0.27165305  0.56876812  1
  Na  Na63  1  0.96790989  0.22834695  0.93123188  1
  Na  Na64  1  0.97187263  0.76961636  0.41232330  1
  Na  Na65  1  0.47187263  0.73038364  0.08767670  1
  Na  Na66  1  0.02812737  0.23038364  0.58767670  1
  Na  Na67  1  0.52812737  0.26961636  0.91232330  1
  Na  Na68  1  0.49957147  0.25251459  0.25059772  1
  Na  Na69  1  0.99957147  0.24748541  0.24940228  1
  Na  Na70  1  0.50042853  0.74748541  0.74940228  1
  Na  Na71  1  0.00042853  0.75251459  0.75059772  1
  P  P72  1  0.28955617  0.06847179  0.40882692  1
  P  P73  1  0.78955617  0.43152821  0.09117308  1
  P  P74  1  0.71044383  0.93152821  0.59117308  1
  P  P75  1  0.21044383  0.56847179  0.90882692  1
  P  P76  1  0.79065622  0.39451932  0.41892938  1
  P  P77  1  0.29065622  0.10548068  0.08107062  1
  P  P78  1  0.20934378  0.60548068  0.58107062  1
  P  P79  1  0.70934378  0.89451932  0.91892938  1
  P  P80  1  0.28651116  0.58046231  0.26211566  1
  P  P81  1  0.78651116  0.91953769  0.23788434  1
  P  P82  1  0.71348884  0.41953769  0.73788434  1
  P  P83  1  0.21348884  0.08046231  0.76211566  1
