# generated using pymatgen
data_Gd3InN
_symmetry_space_group_name_H-M   'P 1'
_cell_length_a   4.89880599
_cell_length_b   4.89703745
_cell_length_c   4.90080234
_cell_angle_alpha   90.06484433
_cell_angle_beta   90.01728319
_cell_angle_gamma   90.00132005
_symmetry_Int_Tables_number   1
_chemical_formula_structural   Gd3InN
_chemical_formula_sum   'Gd3 In1 N1'
_cell_volume   117.56838552
_cell_formula_units_Z   1
loop_
 _symmetry_equiv_pos_site_id
 _symmetry_equiv_pos_as_xyz
  1  'x, y, z'
loop_
 _atom_site_type_symbol
 _atom_site_label
 _atom_site_symmetry_multiplicity
 _atom_site_fract_x
 _atom_site_fract_y
 _atom_site_fract_z
 _atom_site_occupancy
  Gd  Gd0  1  0.50001098  -0.00000062  0.50006135  1
  Gd  Gd1  1  0.00002062  0.49997660  0.49991358  1
  Gd  Gd2  1  0.50000005  0.49999883  0.00003221  1
  In  In3  1  0.00001063  0.00000251  0.00001693  1
  N  N4  1  0.49995773  0.50002269  0.49997593  1
