# generated using pymatgen
data_Nb2Tl4Se11
_symmetry_space_group_name_H-M   'P 1'
_cell_length_a   8.18334928
_cell_length_b   9.35549231
_cell_length_c   14.06412496
_cell_angle_alpha   72.93091630
_cell_angle_beta   89.24175223
_cell_angle_gamma   85.67188270
_symmetry_Int_Tables_number   1
_chemical_formula_structural   Nb2Tl4Se11
_chemical_formula_sum   'Nb4 Tl8 Se22'
_cell_volume   1026.33002903
_cell_formula_units_Z   2
loop_
 _symmetry_equiv_pos_site_id
 _symmetry_equiv_pos_as_xyz
  1  'x, y, z'
loop_
 _atom_site_type_symbol
 _atom_site_label
 _atom_site_symmetry_multiplicity
 _atom_site_fract_x
 _atom_site_fract_y
 _atom_site_fract_z
 _atom_site_occupancy
  Nb  Nb0  1  0.87827125  0.63309859  0.69606297  1
  Nb  Nb1  1  0.12172875  0.36690141  0.30393703  1
  Nb  Nb2  1  0.66238750  0.89254134  0.81156082  1
  Nb  Nb3  1  0.33761250  0.10745866  0.18843918  1
  Tl  Tl4  1  0.49061062  0.71981006  0.11502699  1
  Tl  Tl5  1  0.24167775  0.41692514  0.58179696  1
  Tl  Tl6  1  0.21221280  0.97543360  0.57143163  1
  Tl  Tl7  1  0.78778720  0.02456640  0.42856837  1
  Tl  Tl8  1  0.50938938  0.28018994  0.88497301  1
  Tl  Tl9  1  0.75832225  0.58307486  0.41820304  1
  Tl  Tl10  1  0.94762919  0.23909521  0.01796518  1
  Tl  Tl11  1  0.05237081  0.76090479  0.98203482  1
  Se  Se12  1  0.94783737  0.34312509  0.75209840  1
  Se  Se13  1  0.39842232  0.07786335  0.75104234  1
  Se  Se14  1  0.60891150  0.81764758  0.62807205  1
  Se  Se15  1  0.45405997  0.69219248  0.88042890  1
  Se  Se16  1  0.65028018  0.14297292  0.66653639  1
  Se  Se17  1  0.54594003  0.30780752  0.11957110  1
  Se  Se18  1  0.73615550  0.60022326  0.88876549  1
  Se  Se19  1  0.39758875  0.44627285  0.35163196  1
  Se  Se20  1  0.72684195  0.96370628  0.96014285  1
  Se  Se21  1  0.88001795  0.50693325  0.18525859  1
  Se  Se22  1  0.96976180  0.86828227  0.75051848  1
  Se  Se23  1  0.03023820  0.13171773  0.24948152  1
  Se  Se24  1  0.26384450  0.39977674  0.11123451  1
  Se  Se25  1  0.27315805  0.03629372  0.03985715  1
  Se  Se26  1  0.05216263  0.65687491  0.24790160  1
  Se  Se27  1  0.60157768  0.92213665  0.24895766  1
  Se  Se28  1  0.39108850  0.18235242  0.37192795  1
  Se  Se29  1  0.34971982  0.85702708  0.33346361  1
  Se  Se30  1  0.60241125  0.55372715  0.64836804  1
  Se  Se31  1  0.11998205  0.49306675  0.81474141  1
  Se  Se32  1  0.01691625  0.70975684  0.53338988  1
  Se  Se33  1  0.98308375  0.29024316  0.46661012  1
