# generated using pymatgen
data_Na2ZnSiO4
_symmetry_space_group_name_H-M   'P 1'
_cell_length_a   5.33837530
_cell_length_b   5.54705897
_cell_length_c   7.04412045
_cell_angle_alpha   90.00000000
_cell_angle_beta   90.26068213
_cell_angle_gamma   90.00000000
_symmetry_Int_Tables_number   1
_chemical_formula_structural   Na2ZnSiO4
_chemical_formula_sum   'Na4 Zn2 Si2 O8'
_cell_volume   208.59032615
_cell_formula_units_Z   2
loop_
 _symmetry_equiv_pos_site_id
 _symmetry_equiv_pos_as_xyz
  1  'x, y, z'
loop_
 _atom_site_type_symbol
 _atom_site_label
 _atom_site_symmetry_multiplicity
 _atom_site_fract_x
 _atom_site_fract_y
 _atom_site_fract_z
 _atom_site_occupancy
  O  O0  1  0.63395386  0.20835298  0.93938840  1
  O  O1  1  0.13395386  0.79164702  0.43938840  1
  O  O2  1  0.57697566  0.15747170  0.55293711  1
  O  O3  1  0.07697566  0.84252830  0.05293711  1
  O  O4  1  0.18909900  0.28983094  0.77208511  1
  O  O5  1  0.07511359  0.40110551  0.21782346  1
  O  O6  1  0.57511359  0.59889449  0.71782346  1
  O  O7  1  0.68909900  0.71016906  0.27208511  1
  Na  Na8  1  0.01121122  0.67251826  0.74719811  1
  Na  Na9  1  0.50720046  0.81795097  0.99197936  1
  Na  Na10  1  0.51121122  0.32748174  0.24719811  1
  Na  Na11  1  0.00720046  0.18204903  0.49197936  1
  Si  Si12  1  0.99592547  0.68832514  0.24522782  1
  Si  Si13  1  0.49592547  0.31167486  0.74522782  1
  Zn  Zn14  1  0.49912073  0.81168722  0.49786064  1
  Zn  Zn15  1  0.99912073  0.18831278  0.99786064  1
