# generated using pymatgen
data_BaHIO
_symmetry_space_group_name_H-M   'P 1'
_cell_length_a   8.13528708
_cell_length_b   4.55922079
_cell_length_c   11.22344531
_cell_angle_alpha   90.00000000
_cell_angle_beta   90.00000000
_cell_angle_gamma   90.00000000
_symmetry_Int_Tables_number   1
_chemical_formula_structural   BaHIO
_chemical_formula_sum   'Ba4 H4 I4 O4'
_cell_volume   416.28398377
_cell_formula_units_Z   4
loop_
 _symmetry_equiv_pos_site_id
 _symmetry_equiv_pos_as_xyz
  1  'x, y, z'
loop_
 _atom_site_type_symbol
 _atom_site_label
 _atom_site_symmetry_multiplicity
 _atom_site_fract_x
 _atom_site_fract_y
 _atom_site_fract_z
 _atom_site_occupancy
  Ba  Ba0  1  0.68928000  0.25000000  0.41895806  1
  Ba  Ba1  1  0.18928000  0.25000000  0.08104194  1
  Ba  Ba2  1  0.31072000  0.75000000  0.58104194  1
  Ba  Ba3  1  0.81072000  0.75000000  0.91895806  1
  H  H4  1  0.78974520  0.25000000  0.09983555  1
  H  H5  1  0.28974520  0.25000000  0.40016445  1
  H  H6  1  0.21025480  0.75000000  0.90016445  1
  H  H7  1  0.71025480  0.75000000  0.59983555  1
  I  I8  1  0.52885463  0.75000000  0.18122665  1
  I  I9  1  0.02885463  0.75000000  0.31877335  1
  I  I10  1  0.47114537  0.25000000  0.81877335  1
  I  I11  1  0.97114537  0.25000000  0.68122665  1
  O  O12  1  0.86906598  0.25000000  0.03429994  1
  O  O13  1  0.36906598  0.25000000  0.46570006  1
  O  O14  1  0.13093402  0.75000000  0.96570006  1
  O  O15  1  0.63093402  0.75000000  0.53429994  1
