# generated using pymatgen
data_Na3MgP2HO8
_symmetry_space_group_name_H-M   'P 1'
_cell_length_a   5.28490664
_cell_length_b   6.89524463
_cell_length_c   5.22444522
_cell_angle_alpha   91.74182236
_cell_angle_beta   117.60404263
_cell_angle_gamma   90.42747924
_symmetry_Int_Tables_number   1
_chemical_formula_structural   Na3MgP2HO8
_chemical_formula_sum   'Na3 Mg1 P2 H1 O8'
_cell_volume   168.58364061
_cell_formula_units_Z   1
loop_
 _symmetry_equiv_pos_site_id
 _symmetry_equiv_pos_as_xyz
  1  'x, y, z'
loop_
 _atom_site_type_symbol
 _atom_site_label
 _atom_site_symmetry_multiplicity
 _atom_site_fract_x
 _atom_site_fract_y
 _atom_site_fract_z
 _atom_site_occupancy
  Na  Na0  1  0.30002982  0.79134931  0.66380330  1
  Na  Na1  1  0.69997018  0.20865069  0.33619670  1
  Na  Na2  1  0.00000000  0.50000000  0.00000000  1
  Mg  Mg3  1  0.00000000  0.00000000  0.00000000  1
  P  P4  1  0.35334993  0.24413785  0.66113821  1
  P  P5  1  0.64665007  0.75586215  0.33886179  1
  H  H6  1  0.50000000  0.50000000  0.00000000  1
  O  O7  1  0.21497420  0.10493382  0.78719842  1
  O  O8  1  0.78502580  0.89506618  0.21280158  1
  O  O9  1  0.67824609  0.20856876  0.78735547  1
  O  O10  1  0.32175391  0.79143124  0.21264453  1
  O  O11  1  0.31890367  0.45932069  0.75515217  1
  O  O12  1  0.68109633  0.54067931  0.24484783  1
  O  O13  1  0.79612006  0.77408941  0.67264805  1
  O  O14  1  0.20387994  0.22591059  0.32735195  1
