# generated using pymatgen
data_MnH2SO5
_symmetry_space_group_name_H-M   'P 1'
_cell_length_a   5.28039482
_cell_length_b   5.28039482
_cell_length_c   8.06314019
_cell_angle_alpha   71.67042404
_cell_angle_beta   108.32957596
_cell_angle_gamma   85.23622248
_symmetry_Int_Tables_number   1
_chemical_formula_structural   MnH2SO5
_chemical_formula_sum   'Mn2 H4 S2 O10'
_cell_volume   198.41370768
_cell_formula_units_Z   2
loop_
 _symmetry_equiv_pos_site_id
 _symmetry_equiv_pos_as_xyz
  1  'x, y, z'
loop_
 _atom_site_type_symbol
 _atom_site_label
 _atom_site_symmetry_multiplicity
 _atom_site_fract_x
 _atom_site_fract_y
 _atom_site_fract_z
 _atom_site_occupancy
  Mn  Mn0  1  0.50000000  0.50000000  0.50000000  1
  Mn  Mn1  1  0.50000000  0.50000000  0.00000000  1
  H  H2  1  0.39838585  0.14530831  0.79064938  1
  H  H3  1  0.14530831  0.39838585  0.70935062  1
  H  H4  1  0.60161415  0.85469169  0.20935062  1
  H  H5  1  0.85469169  0.60161415  0.29064938  1
  S  S6  1  0.84888322  0.84888322  0.75000000  1
  S  S7  1  0.15111678  0.15111678  0.25000000  1
  O  O8  1  0.12653293  0.79162874  0.89164330  1
  O  O9  1  0.79162874  0.12653293  0.60835670  1
  O  O10  1  0.87346707  0.20837126  0.10835670  1
  O  O11  1  0.20837126  0.87346707  0.39164330  1
  O  O12  1  0.83278415  0.64099284  0.65840673  1
  O  O13  1  0.64099284  0.83278415  0.84159327  1
  O  O14  1  0.16721585  0.35900716  0.34159327  1
  O  O15  1  0.35900716  0.16721585  0.15840673  1
  O  O16  1  0.34674467  0.34674467  0.75000000  1
  O  O17  1  0.65325533  0.65325533  0.25000000  1
