# generated using pymatgen
data_SnHg2(SBr)2
_symmetry_space_group_name_H-M   'P 1'
_cell_length_a   9.60794712
_cell_length_b   8.24090402
_cell_length_c   11.03038859
_cell_angle_alpha   90.00000000
_cell_angle_beta   102.94582037
_cell_angle_gamma   90.00000000
_symmetry_Int_Tables_number   1
_chemical_formula_structural   SnHg2(SBr)2
_chemical_formula_sum   'Sn4 Hg8 S8 Br8'
_cell_volume   851.16706901
_cell_formula_units_Z   4
loop_
 _symmetry_equiv_pos_site_id
 _symmetry_equiv_pos_as_xyz
  1  'x, y, z'
loop_
 _atom_site_type_symbol
 _atom_site_label
 _atom_site_symmetry_multiplicity
 _atom_site_fract_x
 _atom_site_fract_y
 _atom_site_fract_z
 _atom_site_occupancy
  Sn  Sn0  1  0.71763818  0.41520733  0.57482927  1
  Sn  Sn1  1  0.21763818  0.08479267  0.07482927  1
  Sn  Sn2  1  0.28236182  0.58479267  0.42517073  1
  Sn  Sn3  1  0.78236182  0.91520733  0.92517073  1
  Hg  Hg4  1  0.12908808  0.55275061  0.88378382  1
  Hg  Hg5  1  0.62908808  0.94724939  0.38378382  1
  Hg  Hg6  1  0.87091192  0.44724939  0.11621618  1
  Hg  Hg7  1  0.37091192  0.05275061  0.61621618  1
  Hg  Hg8  1  0.03722213  0.81662818  0.62390573  1
  Hg  Hg9  1  0.53722213  0.68337182  0.12390573  1
  Hg  Hg10  1  0.96277787  0.18337182  0.37609427  1
  Hg  Hg11  1  0.46277787  0.31662818  0.87609427  1
  S  S12  1  0.91834638  0.68271985  0.76560669  1
  S  S13  1  0.41834638  0.81728015  0.26560669  1
  S  S14  1  0.08165362  0.31728015  0.23439331  1
  S  S15  1  0.58165362  0.18271985  0.73439331  1
  S  S16  1  0.32306215  0.41343494  0.01825915  1
  S  S17  1  0.82306215  0.08656506  0.51825915  1
  S  S18  1  0.67693785  0.58656506  0.98174085  1
  S  S19  1  0.17693785  0.91343494  0.48174085  1
  Br  Br20  1  0.81897485  0.60113629  0.38666318  1
  Br  Br21  1  0.31897485  0.89886371  0.88666318  1
  Br  Br22  1  0.18102515  0.39886371  0.61333682  1
  Br  Br23  1  0.68102515  0.10113629  0.11333682  1
  Br  Br24  1  0.48017496  0.32599196  0.38273637  1
  Br  Br25  1  0.98017496  0.17400804  0.88273637  1
  Br  Br26  1  0.51982504  0.67400804  0.61726363  1
  Br  Br27  1  0.01982504  0.82599196  0.11726363  1
