# generated using pymatgen
data_CaP2H2O7
_symmetry_space_group_name_H-M   'P 1'
_cell_length_a   5.53090777
_cell_length_b   5.53090777
_cell_length_c   9.90187716
_cell_angle_alpha   82.75935909
_cell_angle_beta   97.24064091
_cell_angle_gamma   85.30200472
_symmetry_Int_Tables_number   1
_chemical_formula_structural   CaP2H2O7
_chemical_formula_sum   'Ca2 P4 H4 O14'
_cell_volume   296.62062121
_cell_formula_units_Z   2
loop_
 _symmetry_equiv_pos_site_id
 _symmetry_equiv_pos_as_xyz
  1  'x, y, z'
loop_
 _atom_site_type_symbol
 _atom_site_label
 _atom_site_symmetry_multiplicity
 _atom_site_fract_x
 _atom_site_fract_y
 _atom_site_fract_z
 _atom_site_occupancy
  Ca  Ca0  1  0.00000000  0.00000000  0.50000000  1
  Ca  Ca1  1  0.00000000  0.00000000  0.00000000  1
  P  P2  1  0.77674624  0.45117173  0.69039117  1
  P  P3  1  0.45117173  0.77674624  0.80960883  1
  P  P4  1  0.22325376  0.54882827  0.30960883  1
  P  P5  1  0.54882827  0.22325376  0.19039117  1
  H  H6  1  0.07916124  0.50623416  0.84814790  1
  H  H7  1  0.50623416  0.07916124  0.65185210  1
  H  H8  1  0.92083876  0.49376584  0.15185210  1
  H  H9  1  0.49376584  0.92083876  0.34814790  1
  O  O10  1  0.72993348  0.22472806  0.62321268  1
  O  O11  1  0.22472806  0.72993348  0.87678732  1
  O  O12  1  0.27006652  0.77527194  0.37678732  1
  O  O13  1  0.77527194  0.27006652  0.12321268  1
  O  O14  1  0.97386638  0.36759691  0.82510074  1
  O  O15  1  0.36759691  0.97386638  0.67489926  1
  O  O16  1  0.02613362  0.63240309  0.17489926  1
  O  O17  1  0.63240309  0.02613362  0.32510074  1
  O  O18  1  0.85103796  0.66811206  0.60489401  1
  O  O19  1  0.66811206  0.85103796  0.89510599  1
  O  O20  1  0.14896204  0.33188794  0.39510599  1
  O  O21  1  0.33188794  0.14896204  0.10489401  1
  O  O22  1  0.52382945  0.52382945  0.75000000  1
  O  O23  1  0.47617055  0.47617055  0.25000000  1
