# generated using pymatgen
data_KVHSe2O7
_symmetry_space_group_name_H-M   'P 1'
_cell_length_a   7.95907169
_cell_length_b   10.62278519
_cell_length_c   4.15925114
_cell_angle_alpha   90.00000000
_cell_angle_beta   96.83749622
_cell_angle_gamma   90.00000000
_symmetry_Int_Tables_number   1
_chemical_formula_structural   KVHSe2O7
_chemical_formula_sum   'K2 V2 H2 Se4 O14'
_cell_volume   349.15328982
_cell_formula_units_Z   2
loop_
 _symmetry_equiv_pos_site_id
 _symmetry_equiv_pos_as_xyz
  1  'x, y, z'
loop_
 _atom_site_type_symbol
 _atom_site_label
 _atom_site_symmetry_multiplicity
 _atom_site_fract_x
 _atom_site_fract_y
 _atom_site_fract_z
 _atom_site_occupancy
  K  K0  1  0.55287719  0.25000000  0.10012300  1
  K  K1  1  0.44712281  0.75000000  0.89987700  1
  V  V2  1  0.94257069  0.75000000  0.05045605  1
  V  V3  1  0.05742931  0.25000000  0.94954395  1
  H  H4  1  0.50000000  0.00000000  0.50000000  1
  H  H5  1  0.50000000  0.50000000  0.50000000  1
  Se  Se6  1  0.18952300  0.98873536  0.29049459  1
  Se  Se7  1  0.81047700  0.48873536  0.70950541  1
  Se  Se8  1  0.81047700  0.01126464  0.70950541  1
  Se  Se9  1  0.18952300  0.51126464  0.29049459  1
  O  O10  1  0.95209400  0.75000000  0.45255273  1
  O  O11  1  0.04790600  0.25000000  0.54744727  1
  O  O12  1  0.11949792  0.88292279  0.98410808  1
  O  O13  1  0.88050208  0.38292279  0.01589192  1
  O  O14  1  0.88050208  0.11707721  0.01589192  1
  O  O15  1  0.11949792  0.61707721  0.98410808  1
  O  O16  1  0.23946392  0.12078921  0.07286900  1
  O  O17  1  0.76053608  0.62078921  0.92713100  1
  O  O18  1  0.76053608  0.87921079  0.92713100  1
  O  O19  1  0.23946392  0.37921079  0.07286900  1
  O  O20  1  0.39211292  0.92647590  0.38474779  1
  O  O21  1  0.60788708  0.42647590  0.61525221  1
  O  O22  1  0.60788708  0.07352410  0.61525221  1
  O  O23  1  0.39211292  0.57352410  0.38474779  1
