# generated using pymatgen
data_Li7Mn2(CoO4)3
_symmetry_space_group_name_H-M   'P 1'
_cell_length_a   2.89329641
_cell_length_b   7.78645979
_cell_length_c   10.27358735
_cell_angle_alpha   71.06544209
_cell_angle_beta   90.00000000
_cell_angle_gamma   100.70720369
_symmetry_Int_Tables_number   1
_chemical_formula_structural   Li7Mn2(CoO4)3
_chemical_formula_sum   'Li7 Mn2 Co3 O12'
_cell_volume   214.66051934
_cell_formula_units_Z   1
loop_
 _symmetry_equiv_pos_site_id
 _symmetry_equiv_pos_as_xyz
  1  'x, y, z'
loop_
 _atom_site_type_symbol
 _atom_site_label
 _atom_site_symmetry_multiplicity
 _atom_site_fract_x
 _atom_site_fract_y
 _atom_site_fract_z
 _atom_site_occupancy
  Li  Li0  1  0.83241145  0.66482389  0.75747305  1
  Li  Li1  1  0.16393461  0.32786821  0.23656040  1
  Li  Li2  1  0.49996994  -0.00006013  0.75356628  1
  Li  Li3  1  0.83182189  0.66364477  0.24633846  1
  Li  Li4  1  0.16566296  0.33132493  0.76408181  1
  Li  Li5  1  0.50727974  0.01455948  0.23881479  1
  Li  Li6  1  0.66569772  0.33139443  0.00297369  1
  Mn  Mn7  1  0.00289511  0.00579023  0.00304332  1
  Mn  Mn8  1  0.33302002  0.66604104  0.50229377  1
  Co  Co9  1  0.00536712  0.01073423  0.49643379  1
  Co  Co10  1  0.32401742  0.64803585  0.99333844  1
  Co  Co11  1  0.66401695  0.32803290  0.50158994  1
  O  O12  1  0.75895001  0.51789903  0.11673141  1
  O  O13  1  0.08417694  0.16835388  0.61799881  1
  O  O14  1  0.42444926  0.84889952  0.10928941  1
  O  O15  1  0.76129500  0.52258899  0.61396523  1
  O  O16  1  0.07533617  0.15067233  0.11592451  1
  O  O17  1  0.41841081  0.83682262  0.60781370  1
  O  O18  1  0.90573766  0.81147531  0.39135906  1
  O  O19  1  0.25733819  0.51467739  0.87862975  1
  O  O20  1  0.57896292  0.15792484  0.37750391  1
  O  O21  1  0.91478027  0.82956054  0.89239712  1
  O  O22  1  0.25119532  0.50239163  0.39365407  1
  O  O23  1  0.57327254  0.14654407  0.88822529  1
