# generated using pymatgen
data_LiHSO4
_symmetry_space_group_name_H-M   'P 1'
_cell_length_a   5.34147822
_cell_length_b   7.37367729
_cell_length_c   8.55968620
_cell_angle_alpha   90.00000000
_cell_angle_beta   89.84818394
_cell_angle_gamma   90.00000000
_symmetry_Int_Tables_number   1
_chemical_formula_structural   LiHSO4
_chemical_formula_sum   'Li4 H4 S4 O16'
_cell_volume   337.13349890
_cell_formula_units_Z   4
loop_
 _symmetry_equiv_pos_site_id
 _symmetry_equiv_pos_as_xyz
  1  'x, y, z'
loop_
 _atom_site_type_symbol
 _atom_site_label
 _atom_site_symmetry_multiplicity
 _atom_site_fract_x
 _atom_site_fract_y
 _atom_site_fract_z
 _atom_site_occupancy
  Li  Li0  1  0.48785834  0.30365140  0.00260787  1
  Li  Li1  1  0.51214166  0.80365140  0.49739213  1
  Li  Li2  1  0.51214166  0.69634860  0.99739213  1
  Li  Li3  1  0.48785834  0.19634860  0.50260787  1
  H  H4  1  0.12904377  0.61249750  0.77551817  1
  H  H5  1  0.87095623  0.11249750  0.72448183  1
  H  H6  1  0.87095623  0.38750250  0.22448183  1
  H  H7  1  0.12904377  0.88750250  0.27551817  1
  S  S8  1  0.77844350  0.48110432  0.71539009  1
  S  S9  1  0.22155650  0.98110432  0.78460991  1
  S  S10  1  0.22155650  0.51889568  0.28460991  1
  S  S11  1  0.77844350  0.01889568  0.21539009  1
  O  O12  1  0.66946684  0.49227244  0.87398390  1
  O  O13  1  0.33053316  0.99227244  0.62601610  1
  O  O14  1  0.33053316  0.50772756  0.12601610  1
  O  O15  1  0.66946684  0.00772756  0.37398390  1
  O  O16  1  0.74110962  0.29853303  0.64831011  1
  O  O17  1  0.25889038  0.79853303  0.85168989  1
  O  O18  1  0.25889038  0.70146697  0.35168989  1
  O  O19  1  0.74110962  0.20146697  0.14831011  1
  O  O20  1  0.69748889  0.62600795  0.61343247  1
  O  O21  1  0.30251111  0.12600795  0.88656753  1
  O  O22  1  0.30251111  0.37399205  0.38656753  1
  O  O23  1  0.69748889  0.87399205  0.11343247  1
  O  O24  1  0.07109088  0.49166411  0.73234921  1
  O  O25  1  0.92890912  0.99166411  0.76765079  1
  O  O26  1  0.92890912  0.50833589  0.26765079  1
  O  O27  1  0.07109088  0.00833589  0.23234921  1
