# generated using pymatgen
data_Na2ZnH4(SeO5)2
_symmetry_space_group_name_H-M   'P 1'
_cell_length_a   5.99225804
_cell_length_b   7.34929986
_cell_length_c   5.69296064
_cell_angle_alpha   99.08061058
_cell_angle_beta   107.61369279
_cell_angle_gamma   108.46125301
_symmetry_Int_Tables_number   1
_chemical_formula_structural   Na2ZnH4(SeO5)2
_chemical_formula_sum   'Na2 Zn1 H4 Se2 O10'
_cell_volume   217.55722835
_cell_formula_units_Z   1
loop_
 _symmetry_equiv_pos_site_id
 _symmetry_equiv_pos_as_xyz
  1  'x, y, z'
loop_
 _atom_site_type_symbol
 _atom_site_label
 _atom_site_symmetry_multiplicity
 _atom_site_fract_x
 _atom_site_fract_y
 _atom_site_fract_z
 _atom_site_occupancy
  Na  Na0  1  0.71106332  0.25087399  0.33882864  1
  Na  Na1  1  0.28893668  0.74912601  0.66117136  1
  Zn  Zn2  1  0.00000000  0.00000000  0.00000000  1
  H  H3  1  0.87325855  0.61352586  0.85718868  1
  H  H4  1  0.12674145  0.38647414  0.14281132  1
  H  H5  1  0.15024697  0.70256806  0.07836981  1
  H  H6  1  0.84975303  0.29743194  0.92163019  1
  Se  Se7  1  0.66225785  0.75959655  0.33264935  1
  Se  Se8  1  0.33774215  0.24040345  0.66735065  1
  O  O9  1  0.66374841  0.87204552  0.09530349  1
  O  O10  1  0.33625159  0.12795448  0.90469651  1
  O  O11  1  0.75655777  0.93979107  0.60752012  1
  O  O12  1  0.24344223  0.06020893  0.39247988  1
  O  O13  1  0.83285067  0.62071567  0.35159376  1
  O  O14  1  0.16714933  0.37928433  0.64840624  1
  O  O15  1  0.35665658  0.62351559  0.27646833  1
  O  O16  1  0.64334342  0.37648441  0.72353167  1
  O  O17  1  0.03869123  0.73016950  0.92932432  1
  O  O18  1  0.96130877  0.26983050  0.07067568  1
