# generated using pymatgen
data_Sr(H2N)2
_symmetry_space_group_name_H-M   'P 1'
_cell_length_a   7.76665338
_cell_length_b   7.77998039
_cell_length_c   6.69307242
_cell_angle_alpha   90.00000000
_cell_angle_beta   124.89866072
_cell_angle_gamma   90.00000000
_symmetry_Int_Tables_number   1
_chemical_formula_structural   Sr(H2N)2
_chemical_formula_sum   'Sr4 H16 N8'
_cell_volume   331.69529712
_cell_formula_units_Z   4
loop_
 _symmetry_equiv_pos_site_id
 _symmetry_equiv_pos_as_xyz
  1  'x, y, z'
loop_
 _atom_site_type_symbol
 _atom_site_label
 _atom_site_symmetry_multiplicity
 _atom_site_fract_x
 _atom_site_fract_y
 _atom_site_fract_z
 _atom_site_occupancy
  Sr  Sr0  1  0.24939723  0.37758801  0.25104159  1
  Sr  Sr1  1  0.75060277  0.87758801  0.24895841  1
  Sr  Sr2  1  0.75060277  0.62241199  0.74895841  1
  Sr  Sr3  1  0.24939723  0.12241199  0.75104159  1
  H  H4  1  0.06569697  0.03433099  0.18646546  1
  H  H5  1  0.93430303  0.53433099  0.31353454  1
  H  H6  1  0.93430303  0.96566901  0.81353454  1
  H  H7  1  0.06569697  0.46566901  0.68646546  1
  H  H8  1  0.89216643  0.17765094  0.13427542  1
  H  H9  1  0.10783357  0.67765094  0.36572458  1
  H  H10  1  0.10783357  0.82234906  0.86572458  1
  H  H11  1  0.89216643  0.32234906  0.63427542  1
  H  H12  1  0.62618674  0.22569077  0.29831524  1
  H  H13  1  0.37381326  0.72569077  0.20168476  1
  H  H14  1  0.37381326  0.77430923  0.70168476  1
  H  H15  1  0.62618674  0.27430923  0.79831524  1
  H  H16  1  0.52389733  0.08840387  0.38372318  1
  H  H17  1  0.47610267  0.58840387  0.11627682  1
  H  H18  1  0.47610267  0.91159613  0.61627682  1
  H  H19  1  0.52389733  0.41159613  0.88372318  1
  N  N20  1  0.02393300  0.11519586  0.27422557  1
  N  N21  1  0.97606700  0.61519586  0.22577443  1
  N  N22  1  0.97606700  0.88480414  0.72577443  1
  N  N23  1  0.02393300  0.38480414  0.77422557  1
  N  N24  1  0.50324682  0.14002184  0.22944057  1
  N  N25  1  0.49675318  0.64002184  0.27055943  1
  N  N26  1  0.49675318  0.85997816  0.77055943  1
  N  N27  1  0.50324682  0.35997816  0.72944057  1
