# generated using pymatgen
data_Sr(PN2)2
_symmetry_space_group_name_H-M   'P 1'
_cell_length_a   17.25291749
_cell_length_b   17.25291760
_cell_length_c   8.18977983
_cell_angle_alpha   90.00000000
_cell_angle_beta   90.00000000
_cell_angle_gamma   119.99999981
_symmetry_Int_Tables_number   1
_chemical_formula_structural   Sr(PN2)2
_chemical_formula_sum   'Sr24 P48 N96'
_cell_volume   2111.19307461
_cell_formula_units_Z   24
loop_
 _symmetry_equiv_pos_site_id
 _symmetry_equiv_pos_as_xyz
  1  'x, y, z'
loop_
 _atom_site_type_symbol
 _atom_site_label
 _atom_site_symmetry_multiplicity
 _atom_site_fract_x
 _atom_site_fract_y
 _atom_site_fract_z
 _atom_site_occupancy
  Sr  Sr0  1  0.33318049  0.15139587  0.31834286  1
  Sr  Sr1  1  0.66666700  0.33333300  0.29962864  1
  Sr  Sr2  1  0.81821537  0.66681951  0.31834286  1
  Sr  Sr3  1  0.48094381  0.47671259  0.82605637  1
  Sr  Sr4  1  0.51905619  0.52328741  0.32605637  1
  Sr  Sr5  1  0.00000000  0.00000000  0.34580346  1
  Sr  Sr6  1  0.33333300  0.66666700  0.29865875  1
  Sr  Sr7  1  0.33333300  0.66666700  0.79962864  1
  Sr  Sr8  1  0.15139587  0.81821537  0.81834286  1
  Sr  Sr9  1  0.99576878  0.51905619  0.82605637  1
  Sr  Sr10  1  0.18178463  0.33318049  0.81834286  1
  Sr  Sr11  1  0.52328741  0.00423122  0.82605637  1
  Sr  Sr12  1  0.00000000  0.00000000  0.84580346  1
  Sr  Sr13  1  0.00423122  0.48094381  0.32605637  1
  Sr  Sr14  1  0.84860413  0.18178463  0.31834286  1
  Sr  Sr15  1  0.33135923  0.19162229  0.81750669  1
  Sr  Sr16  1  0.66864077  0.80837771  0.31750669  1
  Sr  Sr17  1  0.19162229  0.86026306  0.31750669  1
  Sr  Sr18  1  0.80837771  0.13973694  0.81750669  1
  Sr  Sr19  1  0.86026306  0.66864077  0.81750669  1
  Sr  Sr20  1  0.13973694  0.33135923  0.31750669  1
  Sr  Sr21  1  0.66681951  0.84860413  0.81834286  1
  Sr  Sr22  1  0.66666700  0.33333300  0.79865875  1
  Sr  Sr23  1  0.47671259  0.99576878  0.32605637  1
  P  P24  1  0.32977191  0.32948884  0.12955812  1
  P  P25  1  0.00659778  0.84135701  0.13159292  1
  P  P26  1  0.83472224  0.49475750  0.13204451  1
  P  P27  1  0.67051116  0.00028307  0.12955812  1
  P  P28  1  0.66526513  0.66421861  0.01424770  1
  P  P29  1  0.34403132  0.83594612  0.01270013  1
  P  P30  1  0.99895349  0.33473487  0.01424770  1
  P  P31  1  0.50000710  0.82618525  0.51214732  1
  P  P32  1  0.33996473  0.83472224  0.63204451  1
  P  P33  1  0.66421861  0.99895349  0.51424770  1
  P  P34  1  0.32254909  0.49518766  0.13123384  1
  P  P35  1  0.67382186  0.50000710  0.01214732  1
  P  P36  1  0.65596868  0.16405388  0.51270013  1
  P  P37  1  0.67745091  0.50481234  0.63123384  1
  P  P38  1  0.33578139  0.00104651  0.01424770  1
  P  P39  1  0.50481234  0.82736142  0.13123384  1
  P  P40  1  0.32617814  0.49999290  0.51214732  1
  P  P41  1  0.33473487  0.33578139  0.51424770  1
  P  P42  1  0.83188634  0.99347063  0.51199881  1
  P  P43  1  0.17263858  0.67745091  0.13123384  1
  P  P44  1  0.99340222  0.15864299  0.63159292  1
  P  P45  1  0.16158429  0.16811366  0.51199881  1
  P  P46  1  0.49999290  0.17381475  0.01214732  1
  P  P47  1  0.50524250  0.33996473  0.13204451  1
  P  P48  1  0.16811366  0.00652937  0.01199881  1
  P  P49  1  0.00652937  0.83841571  0.51199881  1
  P  P50  1  0.49191480  0.65596868  0.01270013  1
  P  P51  1  0.16527776  0.50524250  0.63204451  1
  P  P52  1  0.99347063  0.16158429  0.01199881  1
  P  P53  1  0.84135701  0.83475923  0.63159292  1
  P  P54  1  0.15864299  0.16524077  0.13159292  1
  P  P55  1  0.83841571  0.83188634  0.01199881  1
  P  P56  1  0.00028307  0.32977191  0.62955812  1
  P  P57  1  0.66003527  0.16527776  0.13204451  1
  P  P58  1  0.00104651  0.66526513  0.51424770  1
  P  P59  1  0.50808520  0.34403132  0.51270013  1
  P  P60  1  0.82736142  0.32254909  0.63123384  1
  P  P61  1  0.17381475  0.67382186  0.51214732  1
  P  P62  1  0.82618525  0.32617814  0.01214732  1
  P  P63  1  0.83594612  0.49191480  0.51270013  1
  P  P64  1  0.49475750  0.66003527  0.63204451  1
  P  P65  1  0.16405388  0.50808520  0.01270013  1
  P  P66  1  0.67022809  0.67051116  0.62955812  1
  P  P67  1  0.83475923  0.99340222  0.13159292  1
  P  P68  1  0.49518766  0.17263858  0.63123384  1
  P  P69  1  0.32948884  0.99971693  0.62955812  1
  P  P70  1  0.99971693  0.67022809  0.12955812  1
  P  P71  1  0.16524077  0.00659778  0.63159292  1
  N  N72  1  0.33187872  0.33229011  0.32133163  1
  N  N73  1  0.99958860  0.33187872  0.82133163  1
  N  N74  1  0.80736473  0.29046423  0.82318796  1
  N  N75  1  0.56117722  0.93079023  0.57685207  1
  N  N76  1  0.35960363  0.93067022  0.55082533  1
  N  N77  1  0.10023799  0.40499101  0.08235234  1
  N  N78  1  0.93067022  0.57106659  0.05082533  1
  N  N79  1  0.80263827  0.90362170  0.01919839  1
  N  N80  1  0.43882278  0.06920977  0.07685207  1
  N  N81  1  0.29046423  0.48309949  0.32318796  1
  N  N82  1  0.85940149  0.81839659  0.82182351  1
  N  N83  1  0.10053975  0.70449410  0.05338668  1
  N  N84  1  0.76071994  0.52756098  0.12934251  1
  N  N85  1  0.43033588  0.56460700  0.11892377  1
  N  N86  1  0.56460700  0.13427112  0.61892377  1
  N  N87  1  0.63038700  0.56117722  0.07685207  1
  N  N88  1  0.26977841  0.53755171  0.03364060  1
  N  N89  1  0.51690051  0.80736473  0.32318796  1
  N  N90  1  0.26777330  0.73022159  0.03364060  1
  N  N91  1  0.73665418  0.77459974  0.56949785  1
  N  N92  1  0.56966412  0.43539300  0.61892377  1
  N  N93  1  0.13427112  0.56966412  0.11892377  1
  N  N94  1  0.52503870  0.37584005  0.32135706  1
  N  N95  1  0.06932978  0.42893341  0.55082533  1
  N  N96  1  0.06920977  0.63038700  0.57685207  1
  N  N97  1  0.10098343  0.19736173  0.01919839  1
  N  N98  1  0.26547441  0.02969278  0.09463842  1
  N  N99  1  0.48309949  0.19263527  0.82318796  1
  N  N100  1  0.14919865  0.52503870  0.82135706  1
  N  N101  1  0.09637830  0.89901657  0.01919839  1
  N  N102  1  0.70449410  0.60395435  0.55338668  1
  N  N103  1  0.19736173  0.09637830  0.51919839  1
  N  N104  1  0.33229011  0.00041140  0.82133163  1
  N  N105  1  0.62415995  0.14919865  0.32135706  1
  N  N106  1  0.60636391  0.20458848  0.02790976  1
  N  N107  1  0.04100490  0.85940149  0.32182351  1
  N  N108  1  0.57106659  0.64039637  0.55082533  1
  N  N109  1  0.89901657  0.80263827  0.51919839  1
  N  N110  1  0.59500899  0.69524698  0.08235234  1
  N  N111  1  0.89946025  0.29550590  0.55338668  1
  N  N112  1  0.59822457  0.39363609  0.02790976  1
  N  N113  1  0.20458848  0.59822457  0.52790976  1
  N  N114  1  0.18160341  0.04100490  0.82182351  1
  N  N115  1  0.87351341  0.94123964  0.61377257  1
  N  N116  1  0.76684104  0.23928006  0.12934251  1
  N  N117  1  0.81839659  0.95899510  0.32182351  1
  N  N118  1  0.89976201  0.59500899  0.58235234  1
  N  N119  1  0.66770989  0.99958860  0.32133163  1
  N  N120  1  0.76421838  0.73452559  0.09463842  1
  N  N121  1  0.93079023  0.36961300  0.07685207  1
  N  N122  1  0.00041140  0.66812128  0.32133163  1
  N  N123  1  0.69524698  0.10023799  0.58235234  1
  N  N124  1  0.73222670  0.26977841  0.53364060  1
  N  N125  1  0.73452559  0.97030722  0.59463842  1
  N  N126  1  0.39604565  0.10053975  0.55338668  1
  N  N127  1  0.22540026  0.96205444  0.56949785  1
  N  N128  1  0.77459974  0.03794556  0.06949785  1
  N  N129  1  0.03794556  0.26334582  0.56949785  1
  N  N130  1  0.02969278  0.76421838  0.59463842  1
  N  N131  1  0.47243902  0.23315896  0.12934251  1
  N  N132  1  0.85080135  0.47496130  0.32135706  1
  N  N133  1  0.30475302  0.89976201  0.08235234  1
  N  N134  1  0.93227377  0.87351341  0.11377257  1
  N  N135  1  0.70953577  0.51690051  0.82318796  1
  N  N136  1  0.94123964  0.06772623  0.11377257  1
  N  N137  1  0.37584005  0.85080135  0.82135706  1
  N  N138  1  0.23928006  0.47243902  0.62934251  1
  N  N139  1  0.23578162  0.26547441  0.59463842  1
  N  N140  1  0.42893341  0.35960363  0.05082533  1
  N  N141  1  0.95899510  0.14059851  0.82182351  1
  N  N142  1  0.66812128  0.66770989  0.82133163  1
  N  N143  1  0.19263527  0.70953577  0.32318796  1
  N  N144  1  0.96205444  0.73665418  0.06949785  1
  N  N145  1  0.12648659  0.05876036  0.11377257  1
  N  N146  1  0.90362170  0.10098343  0.51919839  1
  N  N147  1  0.26334582  0.22540026  0.06949785  1
  N  N148  1  0.40177543  0.60636391  0.52790976  1
  N  N149  1  0.23315896  0.76071994  0.62934251  1
  N  N150  1  0.53755171  0.26777330  0.53364060  1
  N  N151  1  0.79541152  0.40177543  0.02790976  1
  N  N152  1  0.52756098  0.76684104  0.62934251  1
  N  N153  1  0.47496130  0.62415995  0.82135706  1
  N  N154  1  0.05876036  0.93227377  0.61377257  1
  N  N155  1  0.97030722  0.23578162  0.09463842  1
  N  N156  1  0.64039637  0.06932978  0.05082533  1
  N  N157  1  0.60395435  0.89946025  0.05338668  1
  N  N158  1  0.86572888  0.43033588  0.61892377  1
  N  N159  1  0.43539300  0.86572888  0.11892377  1
  N  N160  1  0.29550590  0.39604565  0.05338668  1
  N  N161  1  0.46244829  0.73222670  0.03364060  1
  N  N162  1  0.06772623  0.12648659  0.61377257  1
  N  N163  1  0.40499101  0.30475302  0.58235234  1
  N  N164  1  0.73022159  0.46244829  0.53364060  1
  N  N165  1  0.39363609  0.79541152  0.52790976  1
  N  N166  1  0.36961300  0.43882278  0.57685207  1
  N  N167  1  0.14059851  0.18160341  0.32182351  1
