# generated using pymatgen
data_CoAg(NO3)3
_symmetry_space_group_name_H-M   'P 1'
_cell_length_a   7.42284409
_cell_length_b   7.80139693
_cell_length_c   13.10661241
_cell_angle_alpha   92.98841177
_cell_angle_beta   90.00000000
_cell_angle_gamma   90.00000000
_symmetry_Int_Tables_number   1
_chemical_formula_structural   CoAg(NO3)3
_chemical_formula_sum   'Co4 Ag4 N12 O36'
_cell_volume   757.95281665
_cell_formula_units_Z   4
loop_
 _symmetry_equiv_pos_site_id
 _symmetry_equiv_pos_as_xyz
  1  'x, y, z'
loop_
 _atom_site_type_symbol
 _atom_site_label
 _atom_site_symmetry_multiplicity
 _atom_site_fract_x
 _atom_site_fract_y
 _atom_site_fract_z
 _atom_site_occupancy
  Co  Co0  1  0.11170683  0.68073853  0.17909695  1
  Co  Co1  1  0.61170683  0.81926147  0.32090305  1
  Co  Co2  1  0.88829317  0.31926147  0.82090305  1
  Co  Co3  1  0.38829317  0.18073853  0.67909695  1
  Ag  Ag4  1  0.50285847  0.27272325  0.07408656  1
  Ag  Ag5  1  0.00285847  0.22727675  0.42591344  1
  Ag  Ag6  1  0.99714153  0.77272325  0.57408656  1
  Ag  Ag7  1  0.49714153  0.72727675  0.92591344  1
  N  N8  1  0.69996356  0.11683822  0.25369115  1
  N  N9  1  0.72725936  0.13498719  0.63370479  1
  N  N10  1  0.70352297  0.56688910  0.43054146  1
  N  N11  1  0.27274064  0.86501281  0.36629521  1
  N  N12  1  0.30003644  0.88316178  0.74630885  1
  N  N13  1  0.29647703  0.43311090  0.56945854  1
  N  N14  1  0.80003644  0.61683822  0.75369115  1
  N  N15  1  0.20352297  0.93311090  0.06945854  1
  N  N16  1  0.77274064  0.63498719  0.13370479  1
  N  N17  1  0.19996356  0.38316178  0.24630885  1
  N  N18  1  0.79647703  0.06688910  0.93054146  1
  N  N19  1  0.22725936  0.36501281  0.86629521  1
  O  O20  1  0.81734728  0.72059315  0.21834558  1
  O  O21  1  0.41763888  0.98166999  0.79035947  1
  O  O22  1  0.26423492  0.77711365  0.05272517  1
  O  O23  1  0.74477395  0.25544635  0.21993589  1
  O  O24  1  0.38705324  0.38813004  0.89053873  1
  O  O25  1  0.73576508  0.22288635  0.94727483  1
  O  O26  1  0.08236112  0.48166999  0.29035947  1
  O  O27  1  0.08661279  0.94935998  0.14038473  1
  O  O28  1  0.26798067  0.43957444  0.16351522  1
  O  O29  1  0.59541757  0.07953011  0.58026070  1
  O  O30  1  0.73201933  0.56042556  0.83648478  1
  O  O31  1  0.40458243  0.92046989  0.41973930  1
  O  O32  1  0.91763888  0.51833001  0.70964053  1
  O  O33  1  0.74264259  0.94698422  0.98047445  1
  O  O34  1  0.75522605  0.75544635  0.71993589  1
  O  O35  1  0.76798067  0.06042556  0.33648478  1
  O  O36  1  0.58661279  0.55064002  0.35961527  1
  O  O37  1  0.68265272  0.22059315  0.71834558  1
  O  O38  1  0.24264259  0.55301578  0.51952555  1
  O  O39  1  0.23576508  0.27711365  0.55272517  1
  O  O40  1  0.88705324  0.11186996  0.60946127  1
  O  O41  1  0.31734728  0.77940685  0.28165442  1
  O  O42  1  0.25522605  0.74455365  0.78006411  1
  O  O43  1  0.91338721  0.05064002  0.85961527  1
  O  O44  1  0.41338721  0.44935998  0.64038473  1
  O  O45  1  0.24477395  0.24455365  0.28006411  1
  O  O46  1  0.11294676  0.88813004  0.39053873  1
  O  O47  1  0.18265272  0.27940685  0.78165442  1
  O  O48  1  0.76423492  0.72288635  0.44727483  1
  O  O49  1  0.61294676  0.61186996  0.10946127  1
  O  O50  1  0.58236112  0.01833001  0.20964053  1
  O  O51  1  0.09541757  0.42046989  0.91973930  1
  O  O52  1  0.90458243  0.57953011  0.08026070  1
  O  O53  1  0.25735741  0.05301578  0.01952555  1
  O  O54  1  0.23201933  0.93957444  0.66351522  1
  O  O55  1  0.75735741  0.44698422  0.48047445  1
