# generated using pymatgen
data_K3Nd(Si2O5)3
_symmetry_space_group_name_H-M   'P 1'
_cell_length_a   7.38990243
_cell_length_b   14.81145252
_cell_length_c   16.03808190
_cell_angle_alpha   90.00000000
_cell_angle_beta   90.00000000
_cell_angle_gamma   90.00000000
_symmetry_Int_Tables_number   1
_chemical_formula_structural   K3Nd(Si2O5)3
_chemical_formula_sum   'K12 Nd4 Si24 O60'
_cell_volume   1755.45128507
_cell_formula_units_Z   4
loop_
 _symmetry_equiv_pos_site_id
 _symmetry_equiv_pos_as_xyz
  1  'x, y, z'
loop_
 _atom_site_type_symbol
 _atom_site_label
 _atom_site_symmetry_multiplicity
 _atom_site_fract_x
 _atom_site_fract_y
 _atom_site_fract_z
 _atom_site_occupancy
  O  O0  1  0.75980541  0.25779492  0.87561885  1
  O  O1  1  0.50000000  0.78326577  0.01353991  1
  O  O2  1  0.50000000  0.21673423  0.98646009  1
  O  O3  1  0.50000000  0.28326577  0.48646009  1
  O  O4  1  0.50000000  0.71673423  0.51353991  1
  O  O5  1  0.76037469  0.09449245  0.94730665  1
  O  O6  1  0.76037469  0.90550755  0.05269335  1
  O  O7  1  0.23962531  0.59449245  0.55269335  1
  O  O8  1  0.23962531  0.40550755  0.44730665  1
  O  O9  1  0.23962531  0.90550755  0.05269335  1
  O  O10  1  0.23962531  0.09449245  0.94730665  1
  O  O11  1  0.76037469  0.40550755  0.44730665  1
  O  O12  1  0.76037469  0.59449245  0.55269335  1
  O  O13  1  0.75980541  0.74220508  0.12438115  1
  O  O14  1  0.24019459  0.75779492  0.62438115  1
  O  O15  1  0.24019459  0.24220508  0.37561885  1
  O  O16  1  0.24019459  0.74220508  0.12438115  1
  O  O17  1  0.50000000  0.63017255  0.17860166  1
  O  O18  1  0.75980541  0.24220508  0.37561885  1
  O  O19  1  0.75980541  0.75779492  0.62438115  1
  O  O20  1  0.74834380  0.43071289  0.93120857  1
  O  O21  1  0.74834380  0.56928711  0.06879143  1
  O  O22  1  0.25165620  0.93071289  0.56879143  1
  O  O23  1  0.25165620  0.06928711  0.43120857  1
  O  O24  1  0.25165620  0.56928711  0.06879143  1
  O  O25  1  0.24019459  0.25779492  0.87561885  1
  O  O26  1  0.74834380  0.06928711  0.43120857  1
  O  O27  1  0.74834380  0.93071289  0.56879143  1
  O  O28  1  0.81864141  0.75636015  0.95846089  1
  O  O29  1  0.81864141  0.24363985  0.04153911  1
  O  O30  1  0.18135859  0.25636015  0.54153911  1
  O  O31  1  0.18135859  0.74363985  0.45846089  1
  O  O32  1  0.18135859  0.24363985  0.04153911  1
  O  O33  1  0.18135859  0.75636015  0.95846089  1
  O  O34  1  0.81864141  0.74363985  0.45846089  1
  O  O35  1  0.81864141  0.25636015  0.54153911  1
  O  O36  1  0.00000000  0.61360998  0.89538235  1
  O  O37  1  0.00000000  0.38639002  0.10461765  1
  O  O38  1  0.00000000  0.11360998  0.60461765  1
  O  O39  1  0.00000000  0.88639002  0.39538235  1
  O  O40  1  0.00000000  0.76918671  0.81625397  1
  O  O41  1  0.00000000  0.23081329  0.18374603  1
  O  O42  1  0.00000000  0.26918671  0.68374603  1
  O  O43  1  0.00000000  0.73081329  0.31625397  1
  O  O44  1  0.00000000  0.94527068  0.86529684  1
  O  O45  1  0.00000000  0.05472932  0.13470316  1
  O  O46  1  0.00000000  0.44527068  0.63470316  1
  O  O47  1  0.00000000  0.55472932  0.36529684  1
  O  O48  1  0.81982526  0.89383159  0.73130963  1
  O  O49  1  0.81982526  0.10616841  0.26869037  1
  O  O50  1  0.18017474  0.39383159  0.76869037  1
  O  O51  1  0.18017474  0.60616841  0.23130963  1
  O  O52  1  0.18017474  0.10616841  0.26869037  1
  O  O53  1  0.18017474  0.89383159  0.73130963  1
  O  O54  1  0.81982526  0.60616841  0.23130963  1
  O  O55  1  0.81982526  0.39383159  0.76869037  1
  O  O56  1  0.50000000  0.86982745  0.67860166  1
  O  O57  1  0.50000000  0.13017255  0.32139834  1
  O  O58  1  0.50000000  0.36982745  0.82139834  1
  O  O59  1  0.25165620  0.43071289  0.93120857  1
  Si  Si60  1  0.71402412  0.19919774  0.96122450  1
  Si  Si61  1  0.71402412  0.80080226  0.03877550  1
  Si  Si62  1  0.28597588  0.69919774  0.53877550  1
  Si  Si63  1  0.28597588  0.30080226  0.46122450  1
  Si  Si64  1  0.28597588  0.80080226  0.03877550  1
  Si  Si65  1  0.28597588  0.19919774  0.96122450  1
  Si  Si66  1  0.71402412  0.30080226  0.46122450  1
  Si  Si67  1  0.71402412  0.69919774  0.53877550  1
  Si  Si68  1  0.00000000  0.77975461  0.40916792  1
  Si  Si69  1  0.00000000  0.22024539  0.59083208  1
  Si  Si70  1  0.00000000  0.27975461  0.09083208  1
  Si  Si71  1  0.00000000  0.72024539  0.90916792  1
  Si  Si72  1  0.71070252  0.36533267  0.85370688  1
  Si  Si73  1  0.71070252  0.63466733  0.14629312  1
  Si  Si74  1  0.28929748  0.86533267  0.64629312  1
  Si  Si75  1  0.00000000  0.87672821  0.78877581  1
  Si  Si76  1  0.28929748  0.13466733  0.35370688  1
  Si  Si77  1  0.00000000  0.12327179  0.21122419  1
  Si  Si78  1  0.28929748  0.36533267  0.85370688  1
  Si  Si79  1  0.71070252  0.13466733  0.35370688  1
  Si  Si80  1  0.28929748  0.63466733  0.14629312  1
  Si  Si81  1  0.00000000  0.62327179  0.28877581  1
  Si  Si82  1  0.00000000  0.37672821  0.71122419  1
  Si  Si83  1  0.71070252  0.86533267  0.64629312  1
  K  K84  1  0.50000000  0.53596101  0.38285219  1
  K  K85  1  0.50000000  0.59375302  0.93807306  1
  K  K86  1  0.50000000  0.40624698  0.06192694  1
  K  K87  1  0.50000000  0.09375302  0.56192694  1
  K  K88  1  0.00000000  0.62184164  0.71052380  1
  K  K89  1  0.00000000  0.37815836  0.28947620  1
  K  K90  1  0.00000000  0.12184164  0.78947620  1
  K  K91  1  0.00000000  0.87815836  0.21052380  1
  K  K92  1  0.50000000  0.90624698  0.43807306  1
  K  K93  1  0.50000000  0.03596101  0.11714781  1
  K  K94  1  0.50000000  0.46403899  0.61714781  1
  K  K95  1  0.50000000  0.96403899  0.88285219  1
  Nd  Nd96  1  0.00000000  0.50000000  0.00000000  1
  Nd  Nd97  1  0.00000000  0.00000000  0.50000000  1
  Nd  Nd98  1  0.00000000  0.50000000  0.50000000  1
  Nd  Nd99  1  0.00000000  0.00000000  0.00000000  1
