# generated using pymatgen
data_BaAlH5
_symmetry_space_group_name_H-M   'P 1'
_cell_length_a   9.17280601
_cell_length_b   7.05653446
_cell_length_c   5.12237635
_cell_angle_alpha   90.00000000
_cell_angle_beta   90.00000000
_cell_angle_gamma   90.00000000
_symmetry_Int_Tables_number   1
_chemical_formula_structural   BaAlH5
_chemical_formula_sum   'Ba4 Al4 H20'
_cell_volume   331.56231204
_cell_formula_units_Z   4
loop_
 _symmetry_equiv_pos_site_id
 _symmetry_equiv_pos_as_xyz
  1  'x, y, z'
loop_
 _atom_site_type_symbol
 _atom_site_label
 _atom_site_symmetry_multiplicity
 _atom_site_fract_x
 _atom_site_fract_y
 _atom_site_fract_z
 _atom_site_occupancy
  Ba  Ba0  1  0.18668501  0.34282391  0.25593113  1
  Ba  Ba1  1  0.81331499  0.65717609  0.75593113  1
  Ba  Ba2  1  0.31331499  0.84282391  0.75593113  1
  Ba  Ba3  1  0.68668501  0.15717609  0.25593113  1
  Al  Al4  1  0.54045699  0.65453831  0.22939421  1
  Al  Al5  1  0.45954301  0.34546169  0.72939421  1
  Al  Al6  1  0.95954301  0.15453831  0.72939421  1
  Al  Al7  1  0.04045699  0.84546169  0.22939421  1
  H  H8  1  0.50513689  0.55086292  0.91083370  1
  H  H9  1  0.49486311  0.44913708  0.41083370  1
  H  H10  1  0.99486311  0.05086292  0.41083370  1
  H  H11  1  0.00513689  0.94913708  0.91083370  1
  H  H12  1  0.08129132  0.65553619  0.02273267  1
  H  H13  1  0.91870868  0.34446381  0.52273267  1
  H  H14  1  0.41870868  0.15553619  0.52273267  1
  H  H15  1  0.58129132  0.84446381  0.02273267  1
  H  H16  1  0.07771821  0.70837287  0.49912475  1
  H  H17  1  0.92228179  0.29162713  0.99912475  1
  H  H18  1  0.42228179  0.20837287  0.99912475  1
  H  H19  1  0.57771821  0.79162713  0.49912475  1
  H  H20  1  0.85765172  0.80569459  0.23625919  1
  H  H21  1  0.14234828  0.19430541  0.73625919  1
  H  H22  1  0.64234828  0.30569459  0.73625919  1
  H  H23  1  0.35765172  0.69430541  0.23625919  1
  H  H24  1  0.20583515  0.95258012  0.21272436  1
  H  H25  1  0.79416485  0.04741988  0.71272436  1
  H  H26  1  0.29416485  0.45258012  0.71272436  1
  H  H27  1  0.70583515  0.54741988  0.21272436  1
