# generated using pymatgen
data_Li7Mn2(CoO4)3
_symmetry_space_group_name_H-M   'P 1'
_cell_length_a   2.91675432
_cell_length_b   7.73230544
_cell_length_c   10.25906413
_cell_angle_alpha   71.79751758
_cell_angle_beta   90.00000000
_cell_angle_gamma   100.87157389
_symmetry_Int_Tables_number   1
_chemical_formula_structural   Li7Mn2(CoO4)3
_chemical_formula_sum   'Li7 Mn2 Co3 O12'
_cell_volume   215.42103154
_cell_formula_units_Z   1
loop_
 _symmetry_equiv_pos_site_id
 _symmetry_equiv_pos_as_xyz
  1  'x, y, z'
loop_
 _atom_site_type_symbol
 _atom_site_label
 _atom_site_symmetry_multiplicity
 _atom_site_fract_x
 _atom_site_fract_y
 _atom_site_fract_z
 _atom_site_occupancy
  Li  Li0  1  0.83199030  0.66398159  0.73967130  1
  Li  Li1  1  0.16962344  0.33924588  0.25047142  1
  Li  Li2  1  0.49937792  0.99875584  0.74736057  1
  Li  Li3  1  0.83067715  0.66135530  0.26546937  1
  Li  Li4  1  0.17046355  0.34092611  0.74296966  1
  Li  Li5  1  0.49708360  0.99416721  0.25653415  1
  Li  Li6  1  0.33463662  0.66927424  0.49655859  1
  Mn  Mn7  1  0.99961066  0.99922131  0.99922284  1
  Mn  Mn8  1  0.99698013  0.99396025  0.49714450  1
  Co  Co9  1  0.67054351  0.34108602  0.00107804  1
  Co  Co10  1  0.32586015  0.65172129  0.99856153  1
  Co  Co11  1  0.67474453  0.34948806  0.50605243  1
  O  O12  1  0.75531331  0.51062563  0.12374084  1
  O  O13  1  0.08437124  0.16874248  0.60817047  1
  O  O14  1  0.42522730  0.85045560  0.10758041  1
  O  O15  1  0.74103612  0.48207124  0.62180399  1
  O  O16  1  0.08294689  0.16589378  0.10811326  1
  O  O17  1  0.42703352  0.85406804  0.61076695  1
  O  O18  1  0.92391628  0.84783256  0.38296263  1
  O  O19  1  0.25298085  0.50596270  0.87810765  1
  O  O20  1  0.57605912  0.15211724  0.39262639  1
  O  O21  1  0.91640913  0.83281826  0.89011061  1
  O  O22  1  0.24083867  0.48167833  0.38597685  1
  O  O23  1  0.57227602  0.14455104  0.88894557  1
