# generated using pymatgen
data_Bi12Rh3Br2
_symmetry_space_group_name_H-M   'P 1'
_cell_length_a   7.34538631
_cell_length_b   9.28253205
_cell_length_c   16.61956600
_cell_angle_alpha   84.98396614
_cell_angle_beta   77.23304050
_cell_angle_gamma   66.69308281
_symmetry_Int_Tables_number   1
_chemical_formula_structural   Bi12Rh3Br2
_chemical_formula_sum   'Bi24 Rh6 Br4'
_cell_volume   1014.98578850
_cell_formula_units_Z   2
loop_
 _symmetry_equiv_pos_site_id
 _symmetry_equiv_pos_as_xyz
  1  'x, y, z'
loop_
 _atom_site_type_symbol
 _atom_site_label
 _atom_site_symmetry_multiplicity
 _atom_site_fract_x
 _atom_site_fract_y
 _atom_site_fract_z
 _atom_site_occupancy
  Bi  Bi0  1  0.18254438  0.50004148  0.64365398  1
  Bi  Bi1  1  0.25736923  0.17505765  0.97354710  1
  Bi  Bi2  1  0.31741414  0.50004148  0.85634602  1
  Bi  Bi3  1  0.68258586  0.49995852  0.14365398  1
  Bi  Bi4  1  0.90597398  0.32494235  0.52645290  1
  Bi  Bi5  1  0.82619836  0.00004148  0.35634602  1
  Bi  Bi6  1  0.51768876  0.64458346  0.64322856  1
  Bi  Bi7  1  0.48231124  0.35541654  0.35677144  1
  Bi  Bi8  1  0.83908268  0.85541654  0.64322856  1
  Bi  Bi9  1  0.43242688  0.82494235  0.47354710  1
  Bi  Bi10  1  0.69449922  0.14458346  0.14322856  1
  Bi  Bi11  1  0.09402602  0.67505765  0.47354710  1
  Bi  Bi12  1  0.82623984  0.99995852  0.85634602  1
  Bi  Bi13  1  0.23091633  0.67505765  0.02645290  1
  Bi  Bi14  1  0.83772778  0.64458346  0.85677144  1
  Bi  Bi15  1  0.17376016  0.00004148  0.14365398  1
  Bi  Bi16  1  0.17380164  0.99995852  0.64365398  1
  Bi  Bi17  1  0.56757312  0.17505765  0.52645290  1
  Bi  Bi18  1  0.76908367  0.32494235  0.97354710  1
  Bi  Bi19  1  0.81745562  0.49995852  0.35634602  1
  Bi  Bi20  1  0.16091732  0.14458346  0.35677144  1
  Bi  Bi21  1  0.74263077  0.82494235  0.02645290  1
  Bi  Bi22  1  0.30550078  0.85541654  0.85677144  1
  Bi  Bi23  1  0.16227222  0.35541654  0.14322856  1
  Rh  Rh24  1  0.00000000  0.50000000  0.00000000  1
  Rh  Rh25  1  0.87500000  0.25000000  0.25000000  1
  Rh  Rh26  1  0.00000000  0.00000000  0.50000000  1
  Rh  Rh27  1  0.00000000  0.00000000  0.00000000  1
  Rh  Rh28  1  0.50000000  0.50000000  0.50000000  1
  Rh  Rh29  1  0.12500000  0.75000000  0.75000000  1
  Br  Br30  1  0.83345118  0.33309764  0.75000000  1
  Br  Br31  1  0.41654882  0.16690236  0.75000000  1
  Br  Br32  1  0.58345118  0.83309764  0.25000000  1
  Br  Br33  1  0.16654882  0.66690236  0.25000000  1
