# generated using pymatgen
data_HfTl8(MoO4)6
_symmetry_space_group_name_H-M   'P 1'
_cell_length_a   8.00524454
_cell_length_b   10.18601830
_cell_length_c   10.88446036
_cell_angle_alpha   62.10091800
_cell_angle_beta   81.40874996
_cell_angle_gamma   71.38212590
_symmetry_Int_Tables_number   1
_chemical_formula_structural   HfTl8(MoO4)6
_chemical_formula_sum   'Hf1 Tl8 Mo6 O24'
_cell_volume   743.33290742
_cell_formula_units_Z   1
loop_
 _symmetry_equiv_pos_site_id
 _symmetry_equiv_pos_as_xyz
  1  'x, y, z'
loop_
 _atom_site_type_symbol
 _atom_site_label
 _atom_site_symmetry_multiplicity
 _atom_site_fract_x
 _atom_site_fract_y
 _atom_site_fract_z
 _atom_site_occupancy
  Hf  Hf0  1  0.00000000  0.00000000  0.00000000  1
  Tl  Tl1  1  0.35885915  0.21487307  0.00000000  1
  Tl  Tl2  1  0.89688106  0.86362887  0.65230908  1
  Tl  Tl3  1  0.50000000  0.33360489  0.33279021  1
  Tl  Tl4  1  0.64114085  0.78512693  1.00000000  1
  Tl  Tl5  1  0.10311894  0.13637113  0.34769092  1
  Tl  Tl6  1  0.50000000  0.66639511  0.66720979  1
  Tl  Tl7  1  0.89688106  0.51593795  0.34769092  1
  Tl  Tl8  1  0.10311894  0.48406205  0.65230908  1
  Mo  Mo9  1  0.70833092  0.25977684  0.68450364  1
  Mo  Mo10  1  0.29166908  0.74022316  0.31549636  1
  Mo  Mo11  1  0.21325194  0.61253674  0.00000000  1
  Mo  Mo12  1  0.29166908  0.05571952  0.68450364  1
  Mo  Mo13  1  0.70833092  0.94428048  0.31549636  1
  Mo  Mo14  1  0.78674806  0.38746326  1.00000000  1
  O  O15  1  0.19228554  0.90889546  0.15054311  1
  O  O16  1  0.20741772  0.58459713  0.35059223  1
  O  O17  1  0.19228554  0.05943857  0.84945689  1
  O  O18  1  0.77084322  0.21693566  0.54011646  1
  O  O19  1  0.80771446  0.09110454  0.84945689  1
  O  O20  1  0.22915678  0.78306434  0.45988354  1
  O  O21  1  0.52557409  0.97729828  0.69968965  1
  O  O22  1  0.79955946  0.41321010  0.14928507  1
  O  O23  1  0.47442591  0.32301207  0.69968965  1
  O  O24  1  0.77084322  0.75705212  0.45988354  1
  O  O25  1  0.79258228  0.06481064  0.35059223  1
  O  O26  1  0.20044054  0.58678990  0.85071493  1
  O  O27  1  0.03591711  0.78507888  0.00000000  1
  O  O28  1  0.22915678  0.24294788  0.54011646  1
  O  O29  1  0.47442591  0.02270172  0.30031035  1
  O  O30  1  0.79955946  0.56249516  0.85071493  1
  O  O31  1  0.52557409  0.67698793  0.30031035  1
  O  O32  1  0.20741772  0.93518936  0.64940777  1
  O  O33  1  0.79258228  0.41540287  0.64940777  1
  O  O34  1  0.58511167  0.34953339  0.00000000  1
  O  O35  1  0.96408289  0.21492112  1.00000000  1
  O  O36  1  0.80771446  0.94056143  0.15054311  1
  O  O37  1  0.41488833  0.65046661  1.00000000  1
  O  O38  1  0.20044054  0.43750484  0.14928507  1
