# generated using pymatgen
data_TePCl9
_symmetry_space_group_name_H-M   'P 1'
_cell_length_a   12.47769040
_cell_length_b   12.47769011
_cell_length_c   12.47768963
_cell_angle_alpha   90.41774323
_cell_angle_beta   119.94512923
_cell_angle_gamma   119.57343522
_symmetry_Int_Tables_number   1
_chemical_formula_structural   TePCl9
_chemical_formula_sum   'Te4 P4 Cl36'
_cell_volume   1378.62677491
_cell_formula_units_Z   4
loop_
 _symmetry_equiv_pos_site_id
 _symmetry_equiv_pos_as_xyz
  1  'x, y, z'
loop_
 _atom_site_type_symbol
 _atom_site_label
 _atom_site_symmetry_multiplicity
 _atom_site_fract_x
 _atom_site_fract_y
 _atom_site_fract_z
 _atom_site_occupancy
  Te  Te0  1  0.09480482  0.24894035  0.34586447  1
  Te  Te1  1  0.54481998  0.82447873  0.22034125  1
  Te  Te2  1  0.90307587  0.74894035  0.65413553  1
  Te  Te3  1  0.60413748  0.32447873  0.77965875  1
  P  P4  1  0.52696635  0.79539580  0.75150067  1
  P  P5  1  0.04389514  0.29539580  0.76842945  1
  P  P6  1  0.04389514  0.77546569  0.24849933  1
  P  P7  1  0.52696635  0.27546569  0.23157055  1
  Cl  Cl8  1  0.60508881  0.17162514  0.64264678  1
  Cl  Cl9  1  0.48092890  0.92582313  0.05510577  1
  Cl  Cl10  1  0.10956835  0.76255693  0.84701142  1
  Cl  Cl11  1  0.34641465  0.12017106  0.07579654  1
  Cl  Cl12  1  0.60508881  0.46244203  0.93346367  1
  Cl  Cl13  1  0.53824680  0.84723711  0.60696416  1
  Cl  Cl14  1  0.88147660  0.76406964  0.24750188  1
  Cl  Cl15  1  0.52099625  0.15178640  0.86920985  1
  Cl  Cl16  1  0.69503429  0.51907030  0.67596399  1
  Cl  Cl17  1  0.51656776  0.63397472  0.75249812  1
  Cl  Cl18  1  0.34641465  0.77061812  0.72624359  1
  Cl  Cl19  1  0.24027294  0.34723711  0.80899030  1
  Cl  Cl20  1  0.65121109  0.72638178  0.42482931  1
  Cl  Cl21  1  0.52897836  0.67162514  0.06653633  1
  Cl  Cl22  1  0.08955404  0.10872283  0.19111862  1
  Cl  Cl23  1  0.84310631  0.01907030  0.32403601  1
  Cl  Cl24  1  0.04437452  0.27061812  0.92420346  1
  Cl  Cl25  1  0.30589313  0.43853166  0.36736146  1
  Cl  Cl26  1  0.04437452  0.62017106  0.27375641  1
  Cl  Cl27  1  0.07117020  0.93853166  0.63263854  1
  Cl  Cl28  1  0.51656776  0.26406964  0.38259304  1
  Cl  Cl29  1  0.70644759  0.93365583  0.92050289  1
  Cl  Cl30  1  0.28257655  0.65178640  0.13079015  1
  Cl  Cl31  1  0.91760421  0.89843541  0.80888138  1
  Cl  Cl32  1  0.01315294  0.43365583  0.72720823  1
  Cl  Cl33  1  0.91760421  0.60872283  0.51916879  1
  Cl  Cl34  1  0.08955404  0.39843541  0.48083121  1
  Cl  Cl35  1  0.30155247  0.22638178  0.57517069  1
  Cl  Cl36  1  0.53824680  0.43128264  0.19100970  1
  Cl  Cl37  1  0.70644759  0.28594471  0.27279177  1
  Cl  Cl38  1  0.88147660  0.13397472  0.61740696  1
  Cl  Cl39  1  0.24027294  0.93128264  0.39303584  1
  Cl  Cl40  1  0.52897836  0.96244203  0.35735322  1
  Cl  Cl41  1  0.91554550  0.26255693  0.15298858  1
  Cl  Cl42  1  0.87071736  0.42582313  0.94489423  1
  Cl  Cl43  1  0.01315294  0.78594471  0.07949711  1
