# generated using pymatgen
data_K2CoH4(SeO5)2
_symmetry_space_group_name_H-M   'P 1'
_cell_length_a   6.67313561
_cell_length_b   7.67493355
_cell_length_c   5.59943060
_cell_angle_alpha   96.26478744
_cell_angle_beta   105.29306532
_cell_angle_gamma   111.85790205
_symmetry_Int_Tables_number   1
_chemical_formula_structural   K2CoH4(SeO5)2
_chemical_formula_sum   'K2 Co1 H4 Se2 O10'
_cell_volume   249.75888756
_cell_formula_units_Z   1
loop_
 _symmetry_equiv_pos_site_id
 _symmetry_equiv_pos_as_xyz
  1  'x, y, z'
loop_
 _atom_site_type_symbol
 _atom_site_label
 _atom_site_symmetry_multiplicity
 _atom_site_fract_x
 _atom_site_fract_y
 _atom_site_fract_z
 _atom_site_occupancy
  K  K0  1  0.67897037  0.25745220  0.28279968  1
  K  K1  1  0.32102963  0.74254780  0.71720032  1
  Co  Co2  1  0.00000000  0.00000000  0.00000000  1
  H  H3  1  0.86818542  0.62527400  0.83923018  1
  H  H4  1  0.13181458  0.37472600  0.16076982  1
  H  H5  1  0.98254277  0.68977788  0.13495422  1
  H  H6  1  0.01745723  0.31022212  0.86504578  1
  Se  Se7  1  0.69314486  0.77207841  0.36062797  1
  Se  Se8  1  0.30685514  0.22792159  0.63937203  1
  O  O9  1  0.72892743  0.90946688  0.14359235  1
  O  O10  1  0.27107257  0.09053312  0.85640765  1
  O  O11  1  0.74725659  0.92159188  0.63755818  1
  O  O12  1  0.25274341  0.07840812  0.36244182  1
  O  O13  1  0.87083124  0.66196918  0.39348951  1
  O  O14  1  0.12916876  0.33803082  0.60651049  1
  O  O15  1  0.42064086  0.61644842  0.26239109  1
  O  O16  1  0.57935914  0.38355158  0.73760891  1
  O  O17  1  0.00672278  0.72200767  0.97438567  1
  O  O18  1  0.99327722  0.27799233  0.02561433  1
