# generated using pymatgen
data_Ba2(InAs)5
_symmetry_space_group_name_H-M   'P 1'
_cell_length_a   4.37884132
_cell_length_b   17.75060606
_cell_length_c   18.26917895
_cell_angle_alpha   90.00000000
_cell_angle_beta   90.00000000
_cell_angle_gamma   90.00000000
_symmetry_Int_Tables_number   1
_chemical_formula_structural   Ba2(InAs)5
_chemical_formula_sum   'Ba8 In20 As20'
_cell_volume   1420.01006661
_cell_formula_units_Z   4
loop_
 _symmetry_equiv_pos_site_id
 _symmetry_equiv_pos_as_xyz
  1  'x, y, z'
loop_
 _atom_site_type_symbol
 _atom_site_label
 _atom_site_symmetry_multiplicity
 _atom_site_fract_x
 _atom_site_fract_y
 _atom_site_fract_z
 _atom_site_occupancy
  Ba  Ba0  1  0.75000000  0.97897849  0.37950309  1
  Ba  Ba1  1  0.25000000  0.02102151  0.62049691  1
  Ba  Ba2  1  0.75000000  0.47897849  0.12049691  1
  Ba  Ba3  1  0.25000000  0.04298201  0.13033733  1
  Ba  Ba4  1  0.75000000  0.95701799  0.86966267  1
  Ba  Ba5  1  0.25000000  0.52102151  0.87950309  1
  Ba  Ba6  1  0.75000000  0.45701799  0.63033733  1
  Ba  Ba7  1  0.25000000  0.54298201  0.36966267  1
  In  In8  1  0.75000000  0.21128579  0.62695649  1
  In  In9  1  0.25000000  0.67240704  0.05858733  1
  In  In10  1  0.75000000  0.32759296  0.94141267  1
  In  In11  1  0.75000000  0.82759296  0.55858733  1
  In  In12  1  0.75000000  0.34315895  0.31199642  1
  In  In13  1  0.25000000  0.32981278  0.47237541  1
  In  In14  1  0.75000000  0.84315895  0.18800358  1
  In  In15  1  0.25000000  0.82981278  0.02762459  1
  In  In16  1  0.25000000  0.65684105  0.68800358  1
  In  In17  1  0.75000000  0.71128579  0.87304351  1
  In  In18  1  0.25000000  0.17240704  0.44141267  1
  In  In19  1  0.25000000  0.28871421  0.12695649  1
  In  In20  1  0.25000000  0.15684105  0.81199642  1
  In  In21  1  0.75000000  0.67018722  0.52762459  1
  In  In22  1  0.75000000  0.18772177  0.27834234  1
  In  In23  1  0.75000000  0.68772177  0.22165766  1
  In  In24  1  0.25000000  0.78871421  0.37304351  1
  In  In25  1  0.25000000  0.81227823  0.72165766  1
  In  In26  1  0.75000000  0.17018722  0.97237541  1
  In  In27  1  0.25000000  0.31227823  0.77834234  1
  As  As28  1  0.25000000  0.58114247  0.55697520  1
  As  As29  1  0.25000000  0.10248669  0.30929985  1
  As  As30  1  0.75000000  0.69544228  0.37433054  1
  As  As31  1  0.75000000  0.89751331  0.69070015  1
  As  As32  1  0.75000000  0.91885753  0.05697520  1
  As  As33  1  0.75000000  0.10588680  0.73655112  1
  As  As34  1  0.25000000  0.88650747  0.48811979  1
  As  As35  1  0.25000000  0.39411320  0.23655112  1
  As  As36  1  0.75000000  0.61349253  0.98811979  1
  As  As37  1  0.75000000  0.41885753  0.44302480  1
  As  As38  1  0.25000000  0.80455772  0.87433054  1
  As  As39  1  0.25000000  0.60248669  0.19070015  1
  As  As40  1  0.25000000  0.30455772  0.62566946  1
  As  As41  1  0.75000000  0.11349253  0.51188021  1
  As  As42  1  0.25000000  0.38650747  0.01188021  1
  As  As43  1  0.25000000  0.08114247  0.94302480  1
  As  As44  1  0.25000000  0.89411320  0.26344888  1
  As  As45  1  0.75000000  0.60588680  0.76344888  1
  As  As46  1  0.75000000  0.39751331  0.80929985  1
  As  As47  1  0.75000000  0.19544228  0.12566946  1
