# generated using pymatgen
data_TlCr(MoO4)2
_symmetry_space_group_name_H-M   'P 1'
_cell_length_a   5.73648592
_cell_length_b   9.04914749
_cell_length_c   15.09713994
_cell_angle_alpha   89.98847419
_cell_angle_beta   90.00009259
_cell_angle_gamma   89.99985114
_symmetry_Int_Tables_number   1
_chemical_formula_structural   TlCr(MoO4)2
_chemical_formula_sum   'Tl4 Cr4 Mo8 O32'
_cell_volume   783.69715571
_cell_formula_units_Z   4
loop_
 _symmetry_equiv_pos_site_id
 _symmetry_equiv_pos_as_xyz
  1  'x, y, z'
loop_
 _atom_site_type_symbol
 _atom_site_label
 _atom_site_symmetry_multiplicity
 _atom_site_fract_x
 _atom_site_fract_y
 _atom_site_fract_z
 _atom_site_occupancy
  Tl  Tl0  1  0.24999982  0.05935311  0.38289771  1
  Tl  Tl1  1  0.25000151  0.44060522  0.88275388  1
  Tl  Tl2  1  0.75000514  0.94067009  0.61722552  1
  Tl  Tl3  1  0.74999687  0.55945087  0.11709082  1
  Cr  Cr4  1  0.25000419  0.32171134  0.62108795  1
  Cr  Cr5  1  0.74999301  0.82176583  0.87894643  1
  Cr  Cr6  1  0.74997686  0.67830342  0.37888883  1
  Cr  Cr7  1  0.25000849  0.17827335  0.12118943  1
  Mo  Mo8  1  0.74999879  0.20475239  0.97070546  1
  Mo  Mo9  1  0.24999867  0.48741954  0.27968387  1
  Mo  Mo10  1  0.24999690  0.70468332  0.52933363  1
  Mo  Mo11  1  0.75000322  0.51260966  0.72033766  1
  Mo  Mo12  1  0.75000658  0.29522660  0.47057235  1
  Mo  Mo13  1  0.24999693  0.79536234  0.02932238  1
  Mo  Mo14  1  0.24999770  0.01263338  0.77972285  1
  Mo  Mo15  1  0.74999966  0.98735286  0.22027503  1
  O  O16  1  0.48809068  0.40123223  0.70721263  1
  O  O17  1  0.48815762  0.09878657  0.20722465  1
  O  O18  1  0.50412595  0.74755090  0.96354312  1
  O  O19  1  0.75000438  0.62069761  0.82173683  1
  O  O20  1  0.99587739  0.74755344  0.96354093  1
  O  O21  1  0.24999888  0.14097879  0.86580594  1
  O  O22  1  0.01191832  0.40123217  0.70721173  1
  O  O23  1  0.24999654  0.98655396  0.05871408  1
  O  O24  1  0.98828069  0.90110429  0.79290072  1
  O  O25  1  0.25000513  0.12064327  0.67827818  1
  O  O26  1  0.00412576  0.24746638  0.53639198  1
  O  O27  1  0.99593985  0.75260338  0.46353184  1
  O  O28  1  0.75000306  0.48648689  0.44127038  1
  O  O29  1  0.24999933  0.81897253  0.62398888  1
  O  O30  1  0.74999713  0.85898650  0.13418009  1
  O  O31  1  0.75000453  0.64094088  0.63421309  1
  O  O32  1  0.74999383  0.87931829  0.32169851  1
  O  O33  1  0.75000320  0.18096655  0.37590203  1
  O  O34  1  0.25000091  0.68079645  0.12388344  1
  O  O35  1  0.25000417  0.51340099  0.55861570  1
  O  O36  1  0.51172056  0.90110262  0.79290022  1
  O  O37  1  0.24999896  0.35904609  0.36579812  1
  O  O38  1  0.74999543  0.31916319  0.87605932  1
  O  O39  1  0.49586270  0.25237032  0.03650530  1
  O  O40  1  0.75000004  0.01352229  0.94137099  1
  O  O41  1  0.98819307  0.59888380  0.29277678  1
  O  O42  1  0.24999969  0.37935715  0.17827485  1
  O  O43  1  0.00412523  0.25237213  0.03650718  1
  O  O44  1  0.01183632  0.09878862  0.20722566  1
  O  O45  1  0.51180771  0.59888161  0.29277726  1
  O  O46  1  0.50405759  0.75260330  0.46353158  1
  O  O47  1  0.49589101  0.24746350  0.53639417  1
