# generated using pymatgen
data_CaAl2(SiO4)2
_symmetry_space_group_name_H-M   'P 1'
_cell_length_a   8.26623707
_cell_length_b   13.03462897
_cell_length_c   13.06026450
_cell_angle_alpha   85.58390350
_cell_angle_beta   81.28143004
_cell_angle_gamma   89.14906592
_symmetry_Int_Tables_number   1
_chemical_formula_structural   CaAl2(SiO4)2
_chemical_formula_sum   'Ca8 Al16 Si16 O64'
_cell_volume   1386.81138761
_cell_formula_units_Z   8
loop_
 _symmetry_equiv_pos_site_id
 _symmetry_equiv_pos_as_xyz
  1  'x, y, z'
loop_
 _atom_site_type_symbol
 _atom_site_label
 _atom_site_symmetry_multiplicity
 _atom_site_fract_x
 _atom_site_fract_y
 _atom_site_fract_z
 _atom_site_occupancy
  O  O0  1  0.50754411  0.62593720  0.19577864  1
  O  O1  1  0.49245589  0.37406280  0.80422136  1
  O  O2  1  0.45346906  0.14347595  0.71962234  1
  O  O3  1  0.54653094  0.85652405  0.28037766  1
  O  O4  1  0.95499609  0.63684774  0.73298102  1
  O  O5  1  0.04500391  0.36315226  0.26701898  1
  O  O6  1  0.99273560  0.12505242  0.21004727  1
  O  O7  1  0.00726440  0.87494758  0.78995273  1
  O  O8  1  0.48886022  0.39461205  0.20178313  1
  O  O9  1  0.51113978  0.60538795  0.79821687  1
  O  O10  1  0.53555360  0.89762235  0.68289538  1
  O  O11  1  0.46444640  0.10237765  0.31710462  1
  O  O12  1  0.02362721  0.39357748  0.67798986  1
  O  O13  1  0.97637279  0.60642252  0.32201014  1
  O  O14  1  0.99558733  0.89557134  0.19123402  1
  O  O15  1  0.00441267  0.10442866  0.80876598  1
  O  O16  1  0.41609601  0.80217471  0.09680119  1
  O  O17  1  0.58390399  0.19782529  0.90319881  1
  O  O18  1  0.40684100  0.31229788  0.60260190  1
  O  O19  1  0.59315900  0.68770212  0.39739810  1
  O  O20  1  0.90960512  0.82086975  0.60922448  1
  O  O21  1  0.09039488  0.17913025  0.39077552  1
  O  O22  1  0.89740317  0.31843433  0.10420948  1
  O  O23  1  0.10259683  0.68156567  0.89579052  1
  O  O24  1  0.35883817  0.20266387  0.14800794  1
  O  O25  1  0.20781044  0.39692109  0.07820974  1
  O  O26  1  0.64116183  0.79733613  0.85199206  1
  O  O27  1  0.62600300  0.29008517  0.35380590  1
  O  O28  1  0.87327156  0.22342570  0.63613234  1
  O  O29  1  0.12672844  0.77657430  0.36386766  1
  O  O30  1  0.88208705  0.72010017  0.13615239  1
  O  O31  1  0.11791295  0.27989983  0.86384761  1
  O  O32  1  0.20938329  0.64140001  0.13695207  1
  O  O33  1  0.79061671  0.35859999  0.86304793  1
  O  O34  1  0.20530947  0.14933578  0.60458044  1
  O  O35  1  0.79469053  0.85066422  0.39541956  1
  O  O36  1  0.68901519  0.64465482  0.60926316  1
  O  O37  1  0.31098481  0.35534518  0.39073684  1
  O  O38  1  0.67352047  0.14515532  0.14662540  1
  O  O39  1  0.32647953  0.85484468  0.85337460  1
  O  O40  1  0.96864455  0.12383882  0.00547469  1
  O  O41  1  0.03135545  0.87616118  0.99452531  1
  O  O42  1  0.99829226  0.62470009  0.51364323  1
  O  O43  1  0.00170774  0.37529991  0.48635677  1
  O  O44  1  0.49825752  0.12722954  0.51643069  1
  O  O45  1  0.50174248  0.87277046  0.48356931  1
  O  O46  1  0.47703724  0.62273387  0.00245886  1
  O  O47  1  0.52296276  0.37726613  0.99754114  1
  O  O48  1  0.56926233  0.99172290  0.85632949  1
  O  O49  1  0.43073767  0.00827710  0.14367051  1
  O  O50  1  0.56145638  0.48668273  0.36574484  1
  O  O51  1  0.43854362  0.51331727  0.63425516  1
  O  O52  1  0.06338478  0.98958000  0.36421395  1
  O  O53  1  0.93661522  0.01042000  0.63578605  1
  O  O54  1  0.06589759  0.49220302  0.86170686  1
  O  O55  1  0.93410241  0.50779698  0.13829314  1
  O  O56  1  0.26328448  0.10134836  0.91937873  1
  O  O57  1  0.73671552  0.89865164  0.08062127  1
  O  O58  1  0.27236351  0.59492233  0.39499256  1
  O  O59  1  0.72763649  0.40507767  0.60500744  1
  O  O60  1  0.78944835  0.09549084  0.39419020  1
  O  O61  1  0.21055165  0.90450916  0.60580980  1
  O  O62  1  0.79218956  0.60307891  0.92179026  1
  O  O63  1  0.37399700  0.70991483  0.64619410  1
  Al  Al64  1  0.00455325  0.62181923  0.18291476  1
  Al  Al65  1  0.99544675  0.37818077  0.81708524  1
  Al  Al66  1  0.00674729  0.12842752  0.67321883  1
  Al  Al67  1  0.99325271  0.87157248  0.32678117  1
  Al  Al68  1  0.60194758  0.16048636  0.38901633  1
  Al  Al69  1  0.39805242  0.83951364  0.61098367  1
  Al  Al70  1  0.61341905  0.66629687  0.88757897  1
  Al  Al71  1  0.38658095  0.33370313  0.11242103  1
  Al  Al72  1  0.12652617  0.81535473  0.88200929  1
  Al  Al73  1  0.87347383  0.18464527  0.11799071  1
  Al  Al74  1  0.11139460  0.31449872  0.37895905  1
  Al  Al75  1  0.46546606  0.11296771  0.84889348  1
  Al  Al76  1  0.52396910  0.39061661  0.66846340  1
  Al  Al77  1  0.47603090  0.60938339  0.33153660  1
  Al  Al78  1  0.53453394  0.88703229  0.15110652  1
  Al  Al79  1  0.88860540  0.68550128  0.62104095  1
  Si  Si80  1  0.39639133  0.67803562  0.11013518  1
  Si  Si81  1  0.60360867  0.32196438  0.88986482  1
  Si  Si82  1  0.39189831  0.18571870  0.61412750  1
  Si  Si83  1  0.60810169  0.81428130  0.38587250  1
  Si  Si84  1  0.97972826  0.10283329  0.33569246  1
  Si  Si85  1  0.02027174  0.89716671  0.66430754  1
  Si  Si86  1  0.97712683  0.60661537  0.85165388  1
  Si  Si87  1  0.02287317  0.39338463  0.14834612  1
  Si  Si88  1  0.51448004  0.88362703  0.81185426  1
  Si  Si89  1  0.48551996  0.11637297  0.18814574  1
  Si  Si90  1  0.49616817  0.37820708  0.32730101  1
  Si  Si91  1  0.50383183  0.62179292  0.67269899  1
  Si  Si92  1  0.09216561  0.15908699  0.89592928  1
  Si  Si93  1  0.09724784  0.65560346  0.39559861  1
  Si  Si94  1  0.90783439  0.84091301  0.10407072  1
  Si  Si95  1  0.90275216  0.34439654  0.60440139  1
  Ca  Ca96  1  0.68355882  0.50012308  0.07909931  1
  Ca  Ca97  1  0.31644118  0.49987692  0.92090069  1
  Ca  Ca98  1  0.23541565  0.46047094  0.53954897  1
  Ca  Ca99  1  0.76458435  0.53952906  0.46045103  1
  Ca  Ca100  1  0.73157257  0.96238494  0.54072734  1
  Ca  Ca101  1  0.26842743  0.03761506  0.45927266  1
  Ca  Ca102  1  0.17573626  0.01991195  0.08864264  1
  Ca  Ca103  1  0.82426374  0.98008805  0.91135736  1
