# generated using pymatgen
data_Sm2(MoO4)3
_symmetry_space_group_name_H-M   'P 1'
_cell_length_a   7.02303731
_cell_length_b   7.02303780
_cell_length_c   11.62593568
_cell_angle_alpha   100.61579454
_cell_angle_beta   100.61579510
_cell_angle_gamma   112.74177863
_symmetry_Int_Tables_number   1
_chemical_formula_structural   Sm2(MoO4)3
_chemical_formula_sum   'Sm4 Mo6 O24'
_cell_volume   498.73023450
_cell_formula_units_Z   2
loop_
 _symmetry_equiv_pos_site_id
 _symmetry_equiv_pos_as_xyz
  1  'x, y, z'
loop_
 _atom_site_type_symbol
 _atom_site_label
 _atom_site_symmetry_multiplicity
 _atom_site_fract_x
 _atom_site_fract_y
 _atom_site_fract_z
 _atom_site_occupancy
  Sm  Sm0  1  0.95232838  0.19663695  0.90847201  1
  Sm  Sm1  1  0.30336305  0.54767162  0.59152799  1
  Sm  Sm2  1  0.69663695  0.45232838  0.40847201  1
  Sm  Sm3  1  0.04767162  0.80336305  0.09152799  1
  Mo  Mo4  1  0.51393342  0.30038008  0.05267426  1
  Mo  Mo5  1  0.19961992  0.98606658  0.44732574  1
  Mo  Mo6  1  0.48606658  0.69961992  0.94732574  1
  Mo  Mo7  1  0.80038008  0.01393342  0.55267426  1
  Mo  Mo8  1  0.11931184  0.38068816  0.25000000  1
  Mo  Mo9  1  0.88068816  0.61931184  0.75000000  1
  O  O10  1  0.37151650  0.27440609  0.46037367  1
  O  O11  1  0.01077945  0.09670378  0.21780237  1
  O  O12  1  0.89983565  0.82564695  0.42121455  1
  O  O13  1  0.60974037  0.17753450  0.94566809  1
  O  O14  1  0.77440609  0.87151650  0.96037367  1
  O  O15  1  0.64505484  0.29262546  0.19906271  1
  O  O16  1  0.96881788  0.55137539  0.88905376  1
  O  O17  1  0.22559391  0.12848350  0.03962633  1
  O  O18  1  0.79262546  0.14505484  0.69906271  1
  O  O19  1  0.32246550  0.89025963  0.55433191  1
  O  O20  1  0.40329622  0.48922055  0.28219763  1
  O  O21  1  0.35494516  0.70737454  0.80093729  1
  O  O22  1  0.98922055  0.90329622  0.78219763  1
  O  O23  1  0.67753450  0.10974037  0.44566809  1
  O  O24  1  0.20737454  0.85494516  0.30093729  1
  O  O25  1  0.05137539  0.46881788  0.38905376  1
  O  O26  1  0.67435305  0.60016435  0.07878545  1
  O  O27  1  0.62848350  0.72559391  0.53962633  1
  O  O28  1  0.39025963  0.82246550  0.05433191  1
  O  O29  1  0.03118212  0.44862461  0.11094624  1
  O  O30  1  0.94862461  0.53118212  0.61094624  1
  O  O31  1  0.59670378  0.51077945  0.71780237  1
  O  O32  1  0.32564695  0.39983565  0.92121455  1
  O  O33  1  0.10016435  0.17435305  0.57878545  1
