# generated using pymatgen
data_Ni3TeMo2O11
_symmetry_space_group_name_H-M   'P 1'
_cell_length_a   6.56195862
_cell_length_b   6.56195903
_cell_length_c   10.29998158
_cell_angle_alpha   80.21775554
_cell_angle_beta   80.21775490
_cell_angle_gamma   84.97075891
_symmetry_Int_Tables_number   1
_chemical_formula_structural   Ni3TeMo2O11
_chemical_formula_sum   'Ni6 Te2 Mo4 O22'
_cell_volume   429.91691449
_cell_formula_units_Z   2
loop_
 _symmetry_equiv_pos_site_id
 _symmetry_equiv_pos_as_xyz
  1  'x, y, z'
loop_
 _atom_site_type_symbol
 _atom_site_label
 _atom_site_symmetry_multiplicity
 _atom_site_fract_x
 _atom_site_fract_y
 _atom_site_fract_z
 _atom_site_occupancy
  Ni  Ni0  1  0.08827936  0.43979748  0.13142820  1
  Ni  Ni1  1  0.91172064  0.56020252  0.86857180  1
  Ni  Ni2  1  0.56020252  0.91172064  0.86857180  1
  Ni  Ni3  1  0.26185094  0.26185094  0.38914138  1
  Ni  Ni4  1  0.43979748  0.08827936  0.13142820  1
  Ni  Ni5  1  0.73814906  0.73814906  0.61085862  1
  Te  Te6  1  0.58572258  0.58572258  0.18377884  1
  Te  Te7  1  0.41427742  0.41427742  0.81622116  1
  Mo  Mo8  1  0.78763535  0.21236465  0.50000000  1
  Mo  Mo9  1  0.03095512  0.03095512  0.76081557  1
  Mo  Mo10  1  0.21236465  0.78763535  0.50000000  1
  Mo  Mo11  1  0.96904488  0.96904488  0.23918443  1
  O  O12  1  0.28257686  0.96967600  0.80211481  1
  O  O13  1  0.19772128  0.52903321  0.93238647  1
  O  O14  1  0.77875509  0.45230869  0.55725265  1
  O  O15  1  0.47096679  0.80227872  0.06761353  1
  O  O16  1  0.27381892  0.96655439  0.32956489  1
  O  O17  1  0.54769131  0.22124491  0.44274735  1
  O  O18  1  0.61859368  0.61859368  0.80778825  1
  O  O19  1  0.80227872  0.47096679  0.06761353  1
  O  O20  1  0.22124491  0.54769131  0.44274735  1
  O  O21  1  0.96967600  0.28257686  0.80211481  1
  O  O22  1  0.03032400  0.71742314  0.19788519  1
  O  O23  1  0.96655439  0.27381892  0.32956489  1
  O  O24  1  0.52903321  0.19772128  0.93238647  1
  O  O25  1  0.38140632  0.38140632  0.19221175  1
  O  O26  1  0.89357082  0.89357082  0.43796010  1
  O  O27  1  0.10642918  0.10642918  0.56203990  1
  O  O28  1  0.72618108  0.03344561  0.67043511  1
  O  O29  1  0.71742314  0.03032400  0.19788519  1
  O  O30  1  0.13352569  0.13352569  0.10613582  1
  O  O31  1  0.03344561  0.72618108  0.67043511  1
  O  O32  1  0.86647431  0.86647431  0.89386418  1
  O  O33  1  0.45230869  0.77875509  0.55725265  1
