# generated using pymatgen
data_Co5Se4(BrO6)2
_symmetry_space_group_name_H-M   'P 1'
_cell_length_a   6.57805434
_cell_length_b   7.94047139
_cell_length_c   7.86500182
_cell_angle_alpha   66.25272668
_cell_angle_beta   81.33696114
_cell_angle_gamma   73.69092775
_symmetry_Int_Tables_number   1
_chemical_formula_structural   Co5Se4(BrO6)2
_chemical_formula_sum   'Co5 Se4 Br2 O12'
_cell_volume   360.56767695
_cell_formula_units_Z   1
loop_
 _symmetry_equiv_pos_site_id
 _symmetry_equiv_pos_as_xyz
  1  'x, y, z'
loop_
 _atom_site_type_symbol
 _atom_site_label
 _atom_site_symmetry_multiplicity
 _atom_site_fract_x
 _atom_site_fract_y
 _atom_site_fract_z
 _atom_site_occupancy
  Co  Co0  1  0.88144151  0.57120515  0.30401762  1
  Co  Co1  1  0.67468575  0.34828227  0.12425357  1
  Co  Co2  1  0.32531425  0.65171773  0.87574643  1
  Co  Co3  1  0.00000000  0.00000000  0.00000000  1
  Co  Co4  1  0.11855849  0.42879485  0.69598238  1
  Se  Se5  1  0.20368961  0.22354661  0.16625859  1
  Se  Se6  1  0.34682139  0.68079575  0.30600746  1
  Se  Se7  1  0.65317861  0.31920425  0.69399254  1
  Se  Se8  1  0.79631039  0.77645339  0.83374141  1
  Br  Br9  1  0.19834140  0.02213089  0.66612487  1
  Br  Br10  1  0.80165860  0.97786911  0.33387513  1
  O  O11  1  0.26351561  0.77982313  0.07875880  1
  O  O12  1  0.35608370  0.38680671  0.10148846  1
  O  O13  1  0.16706059  0.53906482  0.41175162  1
  O  O14  1  0.95737651  0.36541388  0.19719364  1
  O  O15  1  0.83293941  0.46093518  0.58824838  1
  O  O16  1  0.57998014  0.51355983  0.29881747  1
  O  O17  1  0.04262349  0.63458612  0.80280636  1
  O  O18  1  0.64391630  0.61319329  0.89851154  1
  O  O19  1  0.42001986  0.48644017  0.70118253  1
  O  O20  1  0.83840412  0.79070404  0.04207569  1
  O  O21  1  0.73648439  0.22017687  0.92124120  1
  O  O22  1  0.16159588  0.20929596  0.95792431  1
