# generated using pymatgen
data_Li7Mn2(CoO4)3
_symmetry_space_group_name_H-M   'P 1'
_cell_length_a   2.90526332
_cell_length_b   9.83146625
_cell_length_c   7.81118056
_cell_angle_alpha   82.72592535
_cell_angle_beta   79.28240451
_cell_angle_gamma   81.50325246
_symmetry_Int_Tables_number   1
_chemical_formula_structural   Li7Mn2(CoO4)3
_chemical_formula_sum   'Li7 Mn2 Co3 O12'
_cell_volume   215.68143126
_cell_formula_units_Z   1
loop_
 _symmetry_equiv_pos_site_id
 _symmetry_equiv_pos_as_xyz
  1  'x, y, z'
loop_
 _atom_site_type_symbol
 _atom_site_label
 _atom_site_symmetry_multiplicity
 _atom_site_fract_x
 _atom_site_fract_y
 _atom_site_fract_z
 _atom_site_occupancy
  Li  Li0  1  0.32847900  0.26211539  0.08092561  1
  Li  Li1  1  0.00336565  0.73495891  0.25830979  1
  Li  Li2  1  0.64734397  0.26877522  0.43653784  1
  Li  Li3  1  0.35159401  0.72773622  0.56907476  1
  Li  Li4  1  0.99668825  0.25978007  0.74684342  1
  Li  Li5  1  0.67285149  0.74181952  0.91247851  1
  Li  Li6  1  0.99936182  0.50356182  0.49771454  1
  Mn  Mn7  1  0.99994827  -0.00062528  0.00072874  1
  Mn  Mn8  1  0.66154714  0.50324696  0.17365976  1
  Co  Co9  1  0.33404646  0.99666525  0.33524084  1
  Co  Co10  1  0.66924809  0.00227670  0.65922813  1
  Co  Co11  1  0.34695693  0.49426933  0.81181582  1
  O  O12  1  0.49732399  0.11208353  0.89326749  1
  O  O13  1  0.16879726  0.60961311  0.05279237  1
  O  O14  1  0.84776878  0.10213603  0.20232742  1
  O  O15  1  0.51448851  0.61537083  0.35565115  1
  O  O16  1  0.16475416  0.11927842  0.55121326  1
  O  O17  1  0.83074075  0.61788879  0.72063071  1
  O  O18  1  0.16800489  0.38750343  0.27648578  1
  O  O19  1  0.82785176  0.88579150  0.45850499  1
  O  O20  1  0.48893472  0.37869842  0.64343314  1
  O  O21  1  0.15356291  0.89621382  0.79665936  1
  O  O22  1  0.82083537  0.39438113  0.96394812  1
  O  O23  1  0.50550582  0.88646089  0.10252847  1
