# generated using pymatgen
data_Co3TeO6
_symmetry_space_group_name_H-M   'P 1'
_cell_length_a   8.72535918
_cell_length_b   8.72535918
_cell_length_c   10.47635686
_cell_angle_alpha   85.81116664
_cell_angle_beta   85.81116664
_cell_angle_gamma   61.69520414
_symmetry_Int_Tables_number   1
_chemical_formula_structural   Co3TeO6
_chemical_formula_sum   'Co18 Te6 O36'
_cell_volume   699.67761117
_cell_formula_units_Z   6
loop_
 _symmetry_equiv_pos_site_id
 _symmetry_equiv_pos_as_xyz
  1  'x, y, z'
loop_
 _atom_site_type_symbol
 _atom_site_label
 _atom_site_symmetry_multiplicity
 _atom_site_fract_x
 _atom_site_fract_y
 _atom_site_fract_z
 _atom_site_occupancy
  Co  Co0  1  0.68694904  0.31305096  0.25000000  1
  Co  Co1  1  0.31305096  0.68694904  0.75000000  1
  Co  Co2  1  0.21199029  0.50611108  0.26807299  1
  Co  Co3  1  0.49388892  0.78800971  0.23192701  1
  Co  Co4  1  0.78800971  0.49388892  0.73192701  1
  Co  Co5  1  0.50611108  0.21199029  0.76807299  1
  Co  Co6  1  0.17740409  0.86616559  0.45982931  1
  Co  Co7  1  0.13383441  0.82259591  0.04017069  1
  Co  Co8  1  0.82259591  0.13383441  0.54017069  1
  Co  Co9  1  0.86616559  0.17740409  0.95982931  1
  Co  Co10  1  0.95893535  0.37027727  0.44573005  1
  Co  Co11  1  0.62972273  0.04106465  0.05426995  1
  Co  Co12  1  0.04106465  0.62972273  0.55426995  1
  Co  Co13  1  0.37027727  0.95893535  0.94573005  1
  Co  Co14  1  0.15846208  0.43664503  0.92682310  1
  Co  Co15  1  0.56335497  0.84153792  0.57317690  1
  Co  Co16  1  0.84153792  0.56335497  0.07317690  1
  Co  Co17  1  0.43664503  0.15846208  0.42682310  1
  Te  Te18  1  0.50000000  0.50000000  0.00000000  1
  Te  Te19  1  0.50000000  0.50000000  0.50000000  1
  Te  Te20  1  0.16029174  0.16285374  0.19951886  1
  Te  Te21  1  0.83714626  0.83970826  0.30048114  1
  Te  Te22  1  0.83970826  0.83714626  0.80048114  1
  Te  Te23  1  0.16285374  0.16029174  0.69951886  1
  O  O24  1  0.26162099  0.59435442  0.93802504  1
  O  O25  1  0.40564558  0.73837901  0.56197496  1
  O  O26  1  0.73837901  0.40564558  0.06197496  1
  O  O27  1  0.59435442  0.26162099  0.43802504  1
  O  O28  1  0.93741985  0.25206715  0.29716023  1
  O  O29  1  0.74793285  0.06258015  0.20283977  1
  O  O30  1  0.06258015  0.74793285  0.70283977  1
  O  O31  1  0.25206715  0.93741985  0.79716023  1
  O  O32  1  0.25945286  0.94563571  0.30409437  1
  O  O33  1  0.05436429  0.74054714  0.19590563  1
  O  O34  1  0.74054714  0.05436429  0.69590563  1
  O  O35  1  0.94563571  0.25945286  0.80409437  1
  O  O36  1  0.27551417  0.22418087  0.83116350  1
  O  O37  1  0.77581913  0.72448583  0.66883650  1
  O  O38  1  0.72448583  0.77581913  0.16883650  1
  O  O39  1  0.22418087  0.27551417  0.33116350  1
  O  O40  1  0.44224930  0.41729647  0.16392446  1
  O  O41  1  0.58270353  0.55775070  0.33607554  1
  O  O42  1  0.55775070  0.58270353  0.83607554  1
  O  O43  1  0.41729647  0.44224930  0.66392446  1
  O  O44  1  0.09276501  0.06965539  0.05990492  1
  O  O45  1  0.93034461  0.90723499  0.44009508  1
  O  O46  1  0.90723499  0.93034461  0.94009508  1
  O  O47  1  0.06965539  0.09276501  0.55990492  1
  O  O48  1  0.58684266  0.26484757  0.93437716  1
  O  O49  1  0.73515243  0.41315734  0.56562284  1
  O  O50  1  0.41315734  0.73515243  0.06562284  1
  O  O51  1  0.26484757  0.58684266  0.43437716  1
  O  O52  1  0.08870566  0.38841118  0.10410123  1
  O  O53  1  0.61158882  0.91129434  0.39589877  1
  O  O54  1  0.91129434  0.61158882  0.89589877  1
  O  O55  1  0.38841118  0.08870566  0.60410123  1
  O  O56  1  0.39109110  0.06042554  0.11104742  1
  O  O57  1  0.93957446  0.60890890  0.38895258  1
  O  O58  1  0.60890890  0.93957446  0.88895258  1
  O  O59  1  0.06042554  0.39109110  0.61104742  1
