# generated using pymatgen
data_ZnCoTeBr2O3
_symmetry_space_group_name_H-M   'P 1'
_cell_length_a   7.80623880
_cell_length_b   10.79540268
_cell_length_c   16.43975316
_cell_angle_alpha   89.99997748
_cell_angle_beta   90.00030396
_cell_angle_gamma   89.99995662
_symmetry_Int_Tables_number   1
_chemical_formula_structural   ZnCoTeBr2O3
_chemical_formula_sum   'Zn8 Co8 Te8 Br16 O24'
_cell_volume   1385.40251477
_cell_formula_units_Z   8
loop_
 _symmetry_equiv_pos_site_id
 _symmetry_equiv_pos_as_xyz
  1  'x, y, z'
loop_
 _atom_site_type_symbol
 _atom_site_label
 _atom_site_symmetry_multiplicity
 _atom_site_fract_x
 _atom_site_fract_y
 _atom_site_fract_z
 _atom_site_occupancy
  Zn  Zn0  1  0.34356604  0.49699106  0.60226899  1
  Zn  Zn1  1  0.65643271  0.99699127  0.10226773  1
  Zn  Zn2  1  0.15643367  0.50300856  0.10226771  1
  Zn  Zn3  1  0.84356590  0.00300879  0.60226897  1
  Zn  Zn4  1  0.84356588  0.49699164  0.89773190  1
  Zn  Zn5  1  0.34356708  0.00300820  0.89773202  1
  Zn  Zn6  1  0.15643396  0.99699102  0.39773101  1
  Zn  Zn7  1  0.65643388  0.50300905  0.39773103  1
  Co  Co8  1  0.60752283  0.27116189  0.96502442  1
  Co  Co9  1  0.39247865  0.77116169  0.46502501  1
  Co  Co10  1  0.89247712  0.77116185  0.03497569  1
  Co  Co11  1  0.60752174  0.22883846  0.53497495  1
  Co  Co12  1  0.10752265  0.22883884  0.96502455  1
  Co  Co13  1  0.89247850  0.72883808  0.46502474  1
  Co  Co14  1  0.10752195  0.27116154  0.53497535  1
  Co  Co15  1  0.39247696  0.72883833  0.03497610  1
  Te  Te16  1  0.78689789  0.47100594  0.59595345  1
  Te  Te17  1  0.28689831  0.02899393  0.59595365  1
  Te  Te18  1  0.28689616  0.47100536  0.90404692  1
  Te  Te19  1  0.21310208  0.52899391  0.40404656  1
  Te  Te20  1  0.78689658  0.02899495  0.90404693  1
  Te  Te21  1  0.71310174  0.97100601  0.40404627  1
  Te  Te22  1  0.21310288  0.97100579  0.09595297  1
  Te  Te23  1  0.71310412  0.52899507  0.09595314  1
  Br  Br24  1  0.65709422  0.40825400  0.79815038  1
  Br  Br25  1  0.15709409  0.40825389  0.70184986  1
  Br  Br26  1  0.43936852  0.79187999  0.88247097  1
  Br  Br27  1  0.43936842  0.70811963  0.61752928  1
  Br  Br28  1  0.15709443  0.09174561  0.79815041  1
  Br  Br29  1  0.34290610  0.90825396  0.29815017  1
  Br  Br30  1  0.06063161  0.29188054  0.11752926  1
  Br  Br31  1  0.56063163  0.20811953  0.11752918  1
  Br  Br32  1  0.84290602  0.59174599  0.29815016  1
  Br  Br33  1  0.56063166  0.29188050  0.38247062  1
  Br  Br34  1  0.93936863  0.70811953  0.88247092  1
  Br  Br35  1  0.34290574  0.59174589  0.20184961  1
  Br  Br36  1  0.06063152  0.20811940  0.38247071  1
  Br  Br37  1  0.65709398  0.09174598  0.70184982  1
  Br  Br38  1  0.84290550  0.90825427  0.20184952  1
  Br  Br39  1  0.93936860  0.79188045  0.61752924  1
  O  O40  1  0.19677045  0.44403451  0.50712890  1
  O  O41  1  0.56101660  0.09194741  0.91910642  1
  O  O42  1  0.85742268  0.18742893  0.94305987  1
  O  O43  1  0.30322961  0.94403432  0.49287073  1
  O  O44  1  0.14257784  0.68742900  0.44305971  1
  O  O45  1  0.06101607  0.09194692  0.58089377  1
  O  O46  1  0.43898372  0.59194704  0.41910610  1
  O  O47  1  0.64257786  0.81257088  0.44305983  1
  O  O48  1  0.69677031  0.05596557  0.50712929  1
  O  O49  1  0.19677024  0.05596564  0.99287065  1
  O  O50  1  0.06101687  0.40805312  0.91910636  1
  O  O51  1  0.93898414  0.90805281  0.41910621  1
  O  O52  1  0.30323004  0.55596575  0.00712931  1
  O  O53  1  0.93898293  0.59194718  0.08089368  1
  O  O54  1  0.56101632  0.40805304  0.58089372  1
  O  O55  1  0.64257720  0.68742909  0.05694015  1
  O  O56  1  0.69677006  0.44403450  0.99287055  1
  O  O57  1  0.80322965  0.94403441  0.00712940  1
  O  O58  1  0.35742250  0.31257081  0.94305994  1
  O  O59  1  0.85742239  0.31257121  0.55694024  1
  O  O60  1  0.35742230  0.18742886  0.55694014  1
  O  O61  1  0.80322962  0.55596544  0.49287108  1
  O  O62  1  0.14257709  0.81257081  0.05694012  1
  O  O63  1  0.43898357  0.90805235  0.08089363  1
