# generated using pymatgen
data_TlFe(MoO4)2
_symmetry_space_group_name_H-M   'P 1'
_cell_length_a   5.78875427
_cell_length_b   8.95242321
_cell_length_c   15.12194830
_cell_angle_alpha   89.95138619
_cell_angle_beta   90.00020017
_cell_angle_gamma   90.00017221
_symmetry_Int_Tables_number   1
_chemical_formula_structural   TlFe(MoO4)2
_chemical_formula_sum   'Tl4 Fe4 Mo8 O32'
_cell_volume   783.67016240
_cell_formula_units_Z   4
loop_
 _symmetry_equiv_pos_site_id
 _symmetry_equiv_pos_as_xyz
  1  'x, y, z'
loop_
 _atom_site_type_symbol
 _atom_site_label
 _atom_site_symmetry_multiplicity
 _atom_site_fract_x
 _atom_site_fract_y
 _atom_site_fract_z
 _atom_site_occupancy
  Tl  Tl0  1  0.74999974  0.93705209  0.62089502  1
  Tl  Tl1  1  0.24999959  0.06239946  0.37862859  1
  Tl  Tl2  1  0.74999858  0.56134881  0.12036310  1
  Tl  Tl3  1  0.25000116  0.43855480  0.87932270  1
  Fe  Fe4  1  0.24999921  0.18909399  0.11851025  1
  Fe  Fe5  1  0.24999613  0.31163084  0.61745569  1
  Fe  Fe6  1  0.74999868  0.81170222  0.88308645  1
  Fe  Fe7  1  0.75000768  0.68776576  0.38269258  1
  Mo  Mo8  1  0.25000151  0.49677534  0.28253415  1
  Mo  Mo9  1  0.24999833  0.79529280  0.03183681  1
  Mo  Mo10  1  0.24999957  0.00482005  0.78159371  1
  Mo  Mo11  1  0.74999917  0.29597448  0.46847473  1
  Mo  Mo12  1  0.25000130  0.70341280  0.52880274  1
  Mo  Mo13  1  0.74999842  0.20483965  0.96880513  1
  Mo  Mo14  1  0.74999874  0.50524515  0.71844606  1
  Mo  Mo15  1  0.75000110  0.99373511  0.21921933  1
  O  O16  1  0.74999994  0.00728300  0.94738967  1
  O  O17  1  0.99898200  0.76234478  0.46552813  1
  O  O18  1  0.49837955  0.23858093  0.53238749  1
  O  O19  1  0.75000037  0.88592513  0.32088573  1
  O  O20  1  0.51001585  0.89336278  0.79648179  1
  O  O21  1  0.25000009  0.50658239  0.55163147  1
  O  O22  1  0.50905101  0.60792751  0.29722709  1
  O  O23  1  0.74999885  0.61426109  0.82060990  1
  O  O24  1  0.98998316  0.89336262  0.79648177  1
  O  O25  1  0.00994860  0.39399932  0.70382921  1
  O  O26  1  0.24999904  0.38783457  0.18036492  1
  O  O27  1  0.75000033  0.63520808  0.63271075  1
  O  O28  1  0.50157006  0.73604721  0.96780776  1
  O  O29  1  0.74999959  0.86261155  0.13360716  1
  O  O30  1  0.24999894  0.11183101  0.67917766  1
  O  O31  1  0.99094819  0.60792713  0.29722695  1
  O  O32  1  0.75000006  0.49220638  0.44709757  1
  O  O33  1  0.00125970  0.26360196  0.03264209  1
  O  O34  1  0.49873968  0.26360089  0.03264260  1
  O  O35  1  0.25000088  0.99227731  0.05261709  1
  O  O36  1  0.00162110  0.23858096  0.53238737  1
  O  O37  1  0.25000000  0.36629079  0.36838737  1
  O  O38  1  0.01108926  0.10445401  0.20463114  1
  O  O39  1  0.25000085  0.69611533  0.13183824  1
  O  O40  1  0.99843078  0.73604669  0.96780784  1
  O  O41  1  0.50101934  0.76234423  0.46552806  1
  O  O42  1  0.74999919  0.30398466  0.86869133  1
  O  O43  1  0.25000188  0.80593800  0.62777912  1
  O  O44  1  0.48890984  0.10445408  0.20463100  1
  O  O45  1  0.75000000  0.19522808  0.36848205  1
  O  O46  1  0.25000116  0.13614485  0.86699330  1
  O  O47  1  0.49005180  0.39399937  0.70382932  1
