# generated using pymatgen
data_AgIrF7
_symmetry_space_group_name_H-M   'P 1'
_cell_length_a   7.26461718
_cell_length_b   7.88550329
_cell_length_c   10.54797026
_cell_angle_alpha   90.00746235
_cell_angle_beta   90.00003561
_cell_angle_gamma   90.00003102
_symmetry_Int_Tables_number   1
_chemical_formula_structural   AgIrF7
_chemical_formula_sum   'Ag4 Ir4 F28'
_cell_volume   604.24218698
_cell_formula_units_Z   4
loop_
 _symmetry_equiv_pos_site_id
 _symmetry_equiv_pos_as_xyz
  1  'x, y, z'
loop_
 _atom_site_type_symbol
 _atom_site_label
 _atom_site_symmetry_multiplicity
 _atom_site_fract_x
 _atom_site_fract_y
 _atom_site_fract_z
 _atom_site_occupancy
  Ag  Ag0  1  0.25000010  0.63631906  0.25639694  1
  Ag  Ag1  1  0.75000010  0.36366331  0.74362501  1
  Ag  Ag2  1  0.74999998  0.86362778  0.75637390  1
  Ag  Ag3  1  0.25000008  0.13636987  0.24365951  1
  Ir  Ir4  1  0.24999983  0.79868956  0.94154499  1
  Ir  Ir5  1  0.74999937  0.20166205  0.05854709  1
  Ir  Ir6  1  0.24999941  0.29896171  0.55839661  1
  Ir  Ir7  1  0.75000011  0.70125249  0.44148127  1
  F  F8  1  0.75000026  0.91735073  0.36791386  1
  F  F9  1  0.56831460  0.77303281  0.56246748  1
  F  F10  1  0.93112522  0.62276766  0.32274571  1
  F  F11  1  0.74999978  0.48032164  0.51600640  1
  F  F12  1  0.06820798  0.22689278  0.43744391  1
  F  F13  1  0.06871115  0.37728702  0.67735443  1
  F  F14  1  0.43128870  0.37728719  0.67735482  1
  F  F15  1  0.24999961  0.01980514  0.01605546  1
  F  F16  1  0.93167120  0.27296946  0.93760455  1
  F  F17  1  0.43174562  0.72698239  0.06245043  1
  F  F18  1  0.24999980  0.38892795  0.19033610  1
  F  F19  1  0.75000010  0.41706614  0.13201459  1
  F  F20  1  0.75000040  0.98008385  0.98390065  1
  F  F21  1  0.56832854  0.27296914  0.93760410  1
  F  F22  1  0.25000008  0.08247610  0.63214789  1
  F  F23  1  0.56881453  0.12272037  0.17727087  1
  F  F24  1  0.75000002  0.11066780  0.69037866  1
  F  F25  1  0.25000014  0.51978969  0.48397051  1
  F  F26  1  0.06875914  0.87728642  0.82266560  1
  F  F27  1  0.25000002  0.88928649  0.30966047  1
  F  F28  1  0.93118545  0.12272068  0.17727082  1
  F  F29  1  0.43124117  0.87728652  0.82266585  1
  F  F30  1  0.93168600  0.77303288  0.56246750  1
  F  F31  1  0.06825461  0.72698179  0.06245063  1
  F  F32  1  0.56887472  0.62276736  0.32274539  1
  F  F33  1  0.43179197  0.22689255  0.43744371  1
  F  F34  1  0.75000024  0.61111011  0.80967850  1
  F  F35  1  0.24999996  0.58269151  0.86790579  1
