# generated using pymatgen
data_Re(TeBr2)2
_symmetry_space_group_name_H-M   'P 1'
_cell_length_a   11.05892056
_cell_length_b   11.05739977
_cell_length_c   11.05564367
_cell_angle_alpha   96.85207922
_cell_angle_beta   116.12903694
_cell_angle_gamma   116.13757283
_symmetry_Int_Tables_number   1
_chemical_formula_structural   Re(TeBr2)2
_chemical_formula_sum   'Re4 Te8 Br16'
_cell_volume   1003.93926941
_cell_formula_units_Z   4
loop_
 _symmetry_equiv_pos_site_id
 _symmetry_equiv_pos_as_xyz
  1  'x, y, z'
loop_
 _atom_site_type_symbol
 _atom_site_label
 _atom_site_symmetry_multiplicity
 _atom_site_fract_x
 _atom_site_fract_y
 _atom_site_fract_z
 _atom_site_occupancy
  Re  Re0  1  0.15050096  0.60472668  0.68811625  1
  Re  Re1  1  0.91665974  0.31158287  0.46236576  1
  Re  Re2  1  0.84938046  0.53785072  0.45424306  1
  Re  Re3  1  0.08347924  0.54578350  0.39508540  1
  Te  Te4  1  0.52777960  0.42977894  0.34956029  1
  Te  Te5  1  0.12795123  0.78105480  0.54908062  1
  Te  Te6  1  0.08034212  0.65056963  0.17828636  1
  Te  Te7  1  0.87210902  0.42111442  0.65319121  1
  Te  Te8  1  0.47238835  0.82186692  0.90211336  1
  Te  Te9  1  0.23202013  0.45098113  0.57891687  1
  Te  Te10  1  0.91967543  0.09794342  0.57020516  1
  Te  Te11  1  0.76786031  0.34674874  0.21875168  1
  Br  Br12  1  0.21355235  0.15801020  0.71209984  1
  Br  Br13  1  0.37415014  0.74237852  0.45413744  1
  Br  Br14  1  0.91030924  0.10425363  0.30300010  1
  Br  Br15  1  0.44591309  0.28789745  0.50160887  1
  Br  Br16  1  0.09534913  0.89244540  0.23474303  1
  Br  Br17  1  0.34224200  0.20284332  0.10752831  1
  Br  Br18  1  0.28818386  0.54585786  0.92001984  1
  Br  Br19  1  0.08958591  0.39266587  0.19387210  1
  Br  Br20  1  0.78636365  0.49848848  0.94436872  1
  Br  Br21  1  0.80137714  0.69697921  0.60738079  1
  Br  Br22  1  0.62586095  0.07995501  0.36818306  1
  Br  Br23  1  0.19875496  0.80611216  0.89574319  1
  Br  Br24  1  0.71184438  0.63173538  0.25769421  1
  Br  Br25  1  0.55407223  0.05565660  0.84200261  1
  Br  Br26  1  0.65763305  0.76531694  0.86058976  1
  Br  Br27  1  0.90466135  0.13940220  0.79711212  1
