# generated using pymatgen
data_Li3Sc2(PO4)3
_symmetry_space_group_name_H-M   'P 1'
_cell_length_a   8.91245368
_cell_length_b   8.95835552
_cell_length_c   12.41786979
_cell_angle_alpha   89.97637864
_cell_angle_beta   90.00000000
_cell_angle_gamma   90.00000000
_symmetry_Int_Tables_number   1
_chemical_formula_structural   Li3Sc2(PO4)3
_chemical_formula_sum   'Li12 Sc8 P12 O48'
_cell_volume   991.45417177
_cell_formula_units_Z   4
loop_
 _symmetry_equiv_pos_site_id
 _symmetry_equiv_pos_as_xyz
  1  'x, y, z'
loop_
 _atom_site_type_symbol
 _atom_site_label
 _atom_site_symmetry_multiplicity
 _atom_site_fract_x
 _atom_site_fract_y
 _atom_site_fract_z
 _atom_site_occupancy
  Li  Li0  1  0.20629029  0.42541994  0.74445543  1
  Li  Li1  1  0.70629029  0.07458006  0.75554457  1
  Li  Li2  1  0.79370971  0.57458006  0.25554457  1
  Li  Li3  1  0.29370971  0.92541994  0.24445543  1
  Li  Li4  1  0.08482111  0.07869390  0.70001304  1
  Li  Li5  1  0.58482111  0.42130610  0.79998696  1
  Li  Li6  1  0.91517889  0.92130610  0.29998696  1
  Li  Li7  1  0.41517889  0.57869390  0.20001304  1
  Li  Li8  1  0.23235142  0.78921269  0.82039233  1
  Li  Li9  1  0.73235142  0.71078731  0.67960767  1
  Li  Li10  1  0.76764858  0.21078731  0.17960767  1
  Li  Li11  1  0.26764858  0.28921269  0.32039233  1
  O  O12  1  0.22628751  0.14486237  0.80997963  1
  O  O13  1  0.72628751  0.35513763  0.69002037  1
  O  O14  1  0.77371249  0.85513763  0.19002037  1
  O  O15  1  0.27371249  0.64486237  0.30997963  1
  O  O16  1  0.24552421  0.65463719  0.68872821  1
  O  O17  1  0.74552421  0.84536281  0.81127179  1
  O  O18  1  0.75447579  0.34536281  0.31127179  1
  O  O19  1  0.25447579  0.15463719  0.18872821  1
  O  O20  1  0.37092333  0.11052056  0.55692343  1
  O  O21  1  0.87092333  0.38947944  0.94307657  1
  O  O22  1  0.62907667  0.88947944  0.44307657  1
  O  O23  1  0.12907667  0.61052056  0.05692343  1
  O  O24  1  0.33857828  0.66243728  0.92803472  1
  O  O25  1  0.83857828  0.83756272  0.57196528  1
  O  O26  1  0.66142172  0.33756272  0.07196528  1
  O  O27  1  0.16142172  0.16243728  0.42803472  1
  O  O28  1  0.19245953  0.42716871  0.90552064  1
  O  O29  1  0.69245953  0.07283129  0.59447936  1
  O  O30  1  0.80754047  0.57283129  0.09447936  1
  O  O31  1  0.30754047  0.92716871  0.40552064  1
  O  O32  1  0.13923717  0.95761608  0.57097494  1
  O  O33  1  0.63923717  0.54238392  0.92902506  1
  O  O34  1  0.86076283  0.04238392  0.42902506  1
  O  O35  1  0.36076283  0.45761608  0.07097494  1
  O  O36  1  0.40972788  0.15215405  0.96464315  1
  O  O37  1  0.90972788  0.34784595  0.53535685  1
  O  O38  1  0.59027212  0.84784595  0.03535685  1
  O  O39  1  0.09027212  0.65215405  0.46464315  1
  O  O40  1  0.43846689  0.65295628  0.53790279  1
  O  O41  1  0.93846689  0.84704372  0.96209721  1
  O  O42  1  0.56153311  0.34704372  0.46209721  1
  O  O43  1  0.06153311  0.15295628  0.03790279  1
  O  O44  1  0.00979313  0.32021330  0.72333650  1
  O  O45  1  0.50979313  0.17978670  0.77666350  1
  O  O46  1  0.99020687  0.67978670  0.27666350  1
  O  O47  1  0.49020687  0.82021330  0.22333650  1
  O  O48  1  0.02847568  0.84074322  0.76923962  1
  O  O49  1  0.52847568  0.65925678  0.73076038  1
  O  O50  1  0.97152432  0.15925678  0.23076038  1
  O  O51  1  0.47152432  0.34074322  0.26923962  1
  O  O52  1  0.40257162  0.42876845  0.66536922  1
  O  O53  1  0.90257162  0.07123155  0.83463078  1
  O  O54  1  0.59742838  0.57123155  0.33463078  1
  O  O55  1  0.09742838  0.92876845  0.16536922  1
  O  O56  1  0.40609540  0.93021259  0.83684964  1
  O  O57  1  0.90609540  0.56978741  0.66315036  1
  O  O58  1  0.59390460  0.06978741  0.16315036  1
  O  O59  1  0.09390460  0.43021259  0.33684964  1
  P  P60  1  0.25445337  0.53791937  0.99038856  1
  P  P61  1  0.75445337  0.96208063  0.50961144  1
  P  P62  1  0.74554663  0.46208063  0.00961144  1
  P  P63  1  0.24554663  0.03791937  0.49038856  1
  P  P64  1  0.38683999  0.10182336  0.84712930  1
  P  P65  1  0.88683999  0.39817664  0.65287070  1
  P  P66  1  0.61316001  0.89817664  0.15287070  1
  P  P67  1  0.11316001  0.60182336  0.34712930  1
  P  P68  1  0.40500467  0.60233855  0.65246641  1
  P  P69  1  0.90500467  0.89766145  0.84753359  1
  P  P70  1  0.59499533  0.39766145  0.34753359  1
  P  P71  1  0.09499533  0.10233855  0.15246641  1
  Sc  Sc72  1  0.03409238  0.25388146  0.89432412  1
  Sc  Sc73  1  0.53409238  0.24611854  0.60567588  1
  Sc  Sc74  1  0.96590762  0.74611854  0.10567588  1
  Sc  Sc75  1  0.46590762  0.75388146  0.39432412  1
  Sc  Sc76  1  0.04761369  0.74456041  0.60658462  1
  Sc  Sc77  1  0.54761369  0.75543959  0.89341538  1
  Sc  Sc78  1  0.95238631  0.25543959  0.39341538  1
  Sc  Sc79  1  0.45238631  0.24456041  0.10658462  1
