# generated using pymatgen
data_Ba4Na(BO3)3
_symmetry_space_group_name_H-M   'P 1'
_cell_length_a   13.88969696
_cell_length_b   13.88969696
_cell_length_c   13.88969696
_cell_angle_alpha   109.47122064
_cell_angle_beta   109.47122065
_cell_angle_gamma   109.47122062
_symmetry_Int_Tables_number   1
_chemical_formula_structural   Ba4Na(BO3)3
_chemical_formula_sum   'Ba32 Na8 B24 O72'
_cell_volume   2062.79666734
_cell_formula_units_Z   8
loop_
 _symmetry_equiv_pos_site_id
 _symmetry_equiv_pos_as_xyz
  1  'x, y, z'
loop_
 _atom_site_type_symbol
 _atom_site_label
 _atom_site_symmetry_multiplicity
 _atom_site_fract_x
 _atom_site_fract_y
 _atom_site_fract_z
 _atom_site_occupancy
  B  B0  1  0.73359211  0.98359211  0.96718422  1
  B  B1  1  0.48359211  0.23359211  0.46718422  1
  B  B2  1  0.23359211  0.26640789  0.75000000  1
  B  B3  1  0.01640789  0.48359211  0.75000000  1
  B  B4  1  0.75000000  0.01640789  0.48359211  1
  B  B5  1  0.46718422  0.48359211  0.23359211  1
  B  B6  1  0.23359211  0.46718422  0.48359211  1
  B  B7  1  0.26640789  0.75000000  0.23359211  1
  B  B8  1  0.01640789  0.03281578  0.26640789  1
  B  B9  1  0.96718422  0.73359211  0.98359211  1
  B  B10  1  0.51640789  0.25000000  0.98359211  1
  B  B11  1  0.25000000  0.76640789  0.73359211  1
  B  B12  1  0.98359211  0.96718422  0.73359211  1
  B  B13  1  0.73359211  0.25000000  0.76640789  1
  B  B14  1  0.76640789  0.53281578  0.51640789  1
  B  B15  1  0.53281578  0.51640789  0.76640789  1
  B  B16  1  0.25000000  0.98359211  0.51640789  1
  B  B17  1  0.98359211  0.51640789  0.25000000  1
  B  B18  1  0.76640789  0.73359211  0.25000000  1
  B  B19  1  0.51640789  0.76640789  0.53281578  1
  B  B20  1  0.26640789  0.01640789  0.03281578  1
  B  B21  1  0.03281578  0.26640789  0.01640789  1
  B  B22  1  0.48359211  0.75000000  0.01640789  1
  B  B23  1  0.75000000  0.23359211  0.26640789  1
  O  O24  1  0.74301254  0.59761725  0.59861138  1
  O  O25  1  0.41112887  0.45556443  0.70556443  1
  O  O26  1  0.70556443  0.41112887  0.45556443  1
  O  O27  1  0.79443557  0.25000000  0.70556443  1
  O  O28  1  0.04443557  0.08887113  0.79443557  1
  O  O29  1  0.25000000  0.70556443  0.79443557  1
  O  O30  1  0.45556443  0.25000000  0.04443557  1
  O  O31  1  0.79443557  0.04443557  0.08887113  1
  O  O32  1  0.40138862  0.25698746  0.40238275  1
  O  O33  1  0.25698746  0.35460470  0.85559884  1
  O  O34  1  0.99900587  0.40138862  0.64440116  1
  O  O35  1  0.64440116  0.99900587  0.40138862  1
  O  O36  1  0.40238275  0.50099413  0.14539530  1
  O  O37  1  0.14539530  0.40238275  0.50099413  1
  O  O38  1  0.35460470  0.85559884  0.25698746  1
  O  O39  1  0.99900587  0.09761725  0.35460470  1
  O  O40  1  0.64440116  0.14539530  0.24301254  1
  O  O41  1  0.50099413  0.85559884  0.09861138  1
  O  O42  1  0.09761725  0.35460470  0.99900587  1
  O  O43  1  0.24301254  0.64440116  0.14539530  1
  O  O44  1  0.85559884  0.09861138  0.50099413  1
  O  O45  1  0.40238275  0.40138862  0.25698746  1
  O  O46  1  0.25698746  0.40238275  0.40138862  1
  O  O47  1  0.35460470  0.99900587  0.09761725  1
  O  O48  1  0.24301254  0.09861138  0.09761725  1
  O  O49  1  0.14539530  0.24301254  0.64440116  1
  O  O50  1  0.09761725  0.24301254  0.09861138  1
  O  O51  1  0.09861138  0.50099413  0.85559884  1
  O  O52  1  0.09861138  0.09761725  0.24301254  1
  O  O53  1  0.50099413  0.14539530  0.40238275  1
  O  O54  1  0.85559884  0.25698746  0.35460470  1
  O  O55  1  0.40138862  0.64440116  0.99900587  1
  O  O56  1  0.59861138  0.74301254  0.59761725  1
  O  O57  1  0.74301254  0.64539530  0.14440116  1
  O  O58  1  0.00099413  0.59861138  0.35559884  1
  O  O59  1  0.35559884  0.00099413  0.59861138  1
  O  O60  1  0.59761725  0.49900587  0.85460470  1
  O  O61  1  0.85460470  0.59761725  0.49900587  1
  O  O62  1  0.64539530  0.14440116  0.74301254  1
  O  O63  1  0.00099413  0.90238275  0.64539530  1
  O  O64  1  0.35559884  0.85460470  0.75698746  1
  O  O65  1  0.49900587  0.14440116  0.90138862  1
  O  O66  1  0.90238275  0.64539530  0.00099413  1
  O  O67  1  0.75698746  0.35559884  0.85460470  1
  O  O68  1  0.14440116  0.90138862  0.49900587  1
  O  O69  1  0.59761725  0.59861138  0.74301254  1
  O  O70  1  0.08887113  0.79443557  0.04443557  1
  O  O71  1  0.64539530  0.00099413  0.90238275  1
  O  O72  1  0.75698746  0.90138862  0.90238275  1
  O  O73  1  0.85460470  0.75698746  0.35559884  1
  O  O74  1  0.90238275  0.75698746  0.90138862  1
  O  O75  1  0.90138862  0.49900587  0.14440116  1
  O  O76  1  0.25000000  0.04443557  0.45556443  1
  O  O77  1  0.49900587  0.85460470  0.59761725  1
  O  O78  1  0.14440116  0.74301254  0.64539530  1
  O  O79  1  0.59861138  0.35559884  0.00099413  1
  O  O80  1  0.54443557  0.29443557  0.58887113  1
  O  O81  1  0.29443557  0.20556443  0.75000000  1
  O  O82  1  0.95556443  0.54443557  0.75000000  1
  O  O83  1  0.75000000  0.95556443  0.54443557  1
  O  O84  1  0.58887113  0.54443557  0.29443557  1
  O  O85  1  0.29443557  0.58887113  0.54443557  1
  O  O86  1  0.20556443  0.75000000  0.29443557  1
  O  O87  1  0.95556443  0.91112887  0.20556443  1
  O  O88  1  0.75000000  0.29443557  0.20556443  1
  O  O89  1  0.54443557  0.75000000  0.95556443  1
  O  O90  1  0.91112887  0.20556443  0.95556443  1
  O  O91  1  0.20556443  0.95556443  0.91112887  1
  O  O92  1  0.45556443  0.70556443  0.41112887  1
  O  O93  1  0.70556443  0.79443557  0.25000000  1
  O  O94  1  0.04443557  0.45556443  0.25000000  1
  O  O95  1  0.90138862  0.90238275  0.75698746  1
  Na  Na96  1  0.25000000  0.25000000  0.25000000  1
  Na  Na97  1  0.25000000  0.50000000  0.00000000  1
  Na  Na98  1  0.00000000  0.25000000  0.50000000  1
  Na  Na99  1  0.50000000  0.00000000  0.25000000  1
  Na  Na100  1  0.75000000  0.75000000  0.75000000  1
  Na  Na101  1  0.75000000  0.50000000  0.00000000  1
  Na  Na102  1  0.00000000  0.75000000  0.50000000  1
  Na  Na103  1  0.50000000  0.00000000  0.75000000  1
  Ba  Ba104  1  0.74863886  0.49863886  0.25000000  1
  Ba  Ba105  1  0.49863886  0.74863886  0.75000000  1
  Ba  Ba106  1  0.75000000  0.75136114  0.00136114  1
  Ba  Ba107  1  0.49863886  0.25000000  0.74863886  1
  Ba  Ba108  1  0.25000000  0.74863886  0.49863886  1
  Ba  Ba109  1  0.00136114  0.75000000  0.75136114  1
  Ba  Ba110  1  0.75136114  0.25000000  0.00136114  1
  Ba  Ba111  1  0.74863886  0.75000000  0.49863886  1
  Ba  Ba112  1  0.75000000  0.49863886  0.74863886  1
  Ba  Ba113  1  0.25000000  0.00136114  0.75136114  1
  Ba  Ba114  1  0.00136114  0.75136114  0.25000000  1
  Ba  Ba115  1  0.75136114  0.00136114  0.75000000  1
  Ba  Ba116  1  0.25136114  0.50136114  0.75000000  1
  Ba  Ba117  1  0.50136114  0.25136114  0.25000000  1
  Ba  Ba118  1  0.25000000  0.24863886  0.99863886  1
  Ba  Ba119  1  0.50136114  0.75000000  0.25136114  1
  Ba  Ba120  1  0.75000000  0.25136114  0.50136114  1
  Ba  Ba121  1  0.99863886  0.25000000  0.24863886  1
  Ba  Ba122  1  0.24863886  0.75000000  0.99863886  1
  Ba  Ba123  1  0.25136114  0.25000000  0.50136114  1
  Ba  Ba124  1  0.25000000  0.50136114  0.25136114  1
  Ba  Ba125  1  0.75000000  0.99863886  0.24863886  1
  Ba  Ba126  1  0.99863886  0.24863886  0.75000000  1
  Ba  Ba127  1  0.24863886  0.99863886  0.25000000  1
  Ba  Ba128  1  0.50000000  0.50000000  0.50000000  1
  Ba  Ba129  1  0.50000000  0.50000000  0.00000000  1
  Ba  Ba130  1  0.50000000  0.00000000  0.50000000  1
  Ba  Ba131  1  0.00000000  0.50000000  0.50000000  1
  Ba  Ba132  1  0.50000000  0.00000000  0.00000000  1
  Ba  Ba133  1  0.00000000  0.00000000  0.50000000  1
  Ba  Ba134  1  0.00000000  0.50000000  0.00000000  1
  Ba  Ba135  1  0.00000000  0.00000000  0.00000000  1
