# generated using pymatgen
data_Ce3Sb5Pd6
_symmetry_space_group_name_H-M   'P 1'
_cell_length_a   4.45660249
_cell_length_b   10.15824234
_cell_length_c   13.42464096
_cell_angle_alpha   89.98292172
_cell_angle_beta   90.00339429
_cell_angle_gamma   89.99978345
_symmetry_Int_Tables_number   1
_chemical_formula_structural   Ce3Sb5Pd6
_chemical_formula_sum   'Ce6 Sb10 Pd12'
_cell_volume   607.75022317
_cell_formula_units_Z   2
loop_
 _symmetry_equiv_pos_site_id
 _symmetry_equiv_pos_as_xyz
  1  'x, y, z'
loop_
 _atom_site_type_symbol
 _atom_site_label
 _atom_site_symmetry_multiplicity
 _atom_site_fract_x
 _atom_site_fract_y
 _atom_site_fract_z
 _atom_site_occupancy
  Ce  Ce0  1  0.24999411  0.75217250  0.57606502  1
  Ce  Ce1  1  0.74997552  0.24844050  0.07584294  1
  Ce  Ce2  1  0.75000763  0.24848062  0.42403808  1
  Ce  Ce3  1  0.24996663  0.75185973  0.24987450  1
  Ce  Ce4  1  0.75003935  0.24847099  0.74997217  1
  Ce  Ce5  1  0.24998172  0.75149850  0.92408315  1
  Sb  Sb6  1  0.25000977  0.47724139  0.37853903  1
  Sb  Sb7  1  0.25012350  0.13610224  0.58611008  1
  Sb  Sb8  1  0.24997967  0.18404119  0.24977641  1
  Sb  Sb9  1  0.74997053  0.52213248  0.62161975  1
  Sb  Sb10  1  0.74999630  0.81556548  0.75011667  1
  Sb  Sb11  1  0.25000751  0.47702470  0.12161786  1
  Sb  Sb12  1  0.74994768  0.52220754  0.87852065  1
  Sb  Sb13  1  0.24998462  0.13594113  0.91395075  1
  Sb  Sb14  1  0.74999694  0.86447540  0.41355969  1
  Sb  Sb15  1  0.74998732  0.86405758  0.08615838  1
  Pd  Pd16  1  0.24994936  0.01242576  0.40563262  1
  Pd  Pd17  1  0.75010866  0.98776034  0.59498303  1
  Pd  Pd18  1  0.75007650  0.60887334  0.42876889  1
  Pd  Pd19  1  0.75004313  0.46887018  0.25008905  1
  Pd  Pd20  1  0.24998739  0.53218552  0.75007952  1
  Pd  Pd21  1  0.24992449  0.39133468  0.57157623  1
  Pd  Pd22  1  0.24996723  0.39120483  0.92850273  1
  Pd  Pd23  1  0.74993862  0.01657698  0.24976447  1
  Pd  Pd24  1  0.24996520  0.01201635  0.09413090  1
  Pd  Pd25  1  0.75005555  0.60843774  0.07134713  1
  Pd  Pd26  1  0.25002208  0.98277449  0.75012778  1
  Pd  Pd27  1  0.74999299  0.98782779  0.90515253  1
