# generated using pymatgen
data_K2Zr(SiO3)3
_symmetry_space_group_name_H-M   'P 1'
_cell_length_a   7.03006513
_cell_length_b   7.03006513
_cell_length_c   10.36447923
_cell_angle_alpha   90.00000000
_cell_angle_beta   90.00000000
_cell_angle_gamma   120.00000001
_symmetry_Int_Tables_number   1
_chemical_formula_structural   K2Zr(SiO3)3
_chemical_formula_sum   'K4 Zr2 Si6 O18'
_cell_volume   443.60539016
_cell_formula_units_Z   2
loop_
 _symmetry_equiv_pos_site_id
 _symmetry_equiv_pos_as_xyz
  1  'x, y, z'
loop_
 _atom_site_type_symbol
 _atom_site_label
 _atom_site_symmetry_multiplicity
 _atom_site_fract_x
 _atom_site_fract_y
 _atom_site_fract_z
 _atom_site_occupancy
  O  O0  1  0.25632442  0.23562147  0.38311983  1
  O  O1  1  0.02070295  0.25632442  0.88311983  1
  O  O2  1  0.23562147  0.97929705  0.88311983  1
  O  O3  1  0.76437853  0.02070295  0.38311983  1
  O  O4  1  0.97929705  0.74367558  0.38311983  1
  O  O5  1  0.74367558  0.76437853  0.88311983  1
  O  O6  1  0.74367558  0.76437853  0.61688017  1
  O  O7  1  0.97929705  0.74367558  0.11688017  1
  O  O8  1  0.76437853  0.02070295  0.11688017  1
  O  O9  1  0.23562147  0.97929705  0.61688017  1
  O  O10  1  0.02070295  0.25632442  0.61688017  1
  O  O11  1  0.25632442  0.23562147  0.11688017  1
  O  O12  1  0.48638341  0.08926541  0.25000000  1
  O  O13  1  0.39711800  0.48638341  0.75000000  1
  O  O14  1  0.08926541  0.60288200  0.75000000  1
  O  O15  1  0.91073459  0.39711800  0.25000000  1
  O  O16  1  0.60288200  0.51361659  0.25000000  1
  O  O17  1  0.51361659  0.91073459  0.75000000  1
  Si  Si18  1  0.61326499  0.74057223  0.75000000  1
  Si  Si19  1  0.87269276  0.61326499  0.25000000  1
  Si  Si20  1  0.74057223  0.12730724  0.25000000  1
  Si  Si21  1  0.25942777  0.87269276  0.75000000  1
  Si  Si22  1  0.12730724  0.38673501  0.75000000  1
  Si  Si23  1  0.38673501  0.25942777  0.25000000  1
  K  K24  1  0.33333333  0.66666667  0.05707468  1
  K  K25  1  0.66666667  0.33333333  0.55707468  1
  K  K26  1  0.33333333  0.66666667  0.44292532  1
  K  K27  1  0.66666667  0.33333333  0.94292532  1
  Zr  Zr28  1  0.00000000  0.00000000  0.00000000  1
  Zr  Zr29  1  0.00000000  0.00000000  0.50000000  1
