# generated using pymatgen
data_Zr6NiCl15
_symmetry_space_group_name_H-M   'P 1'
_cell_length_a   8.95535521
_cell_length_b   8.95535477
_cell_length_c   8.95536228
_cell_angle_alpha   109.47118143
_cell_angle_beta   109.47156690
_cell_angle_gamma   109.47091066
_symmetry_Int_Tables_number   1
_chemical_formula_structural   Zr6NiCl15
_chemical_formula_sum   'Zr6 Ni1 Cl15'
_cell_volume   552.87492822
_cell_formula_units_Z   1
loop_
 _symmetry_equiv_pos_site_id
 _symmetry_equiv_pos_as_xyz
  1  'x, y, z'
loop_
 _atom_site_type_symbol
 _atom_site_label
 _atom_site_symmetry_multiplicity
 _atom_site_fract_x
 _atom_site_fract_y
 _atom_site_fract_z
 _atom_site_occupancy
  Zr  Zr0  1  -0.00000046  0.75747990  0.75748008  1
  Zr  Zr1  1  0.75748152  0.00000157  0.75748159  1
  Zr  Zr2  1  -0.00000033  0.24252007  0.24251981  1
  Zr  Zr3  1  0.24251883  0.00000011  0.24251817  1
  Zr  Zr4  1  0.75748109  0.75748120  0.00000074  1
  Zr  Zr5  1  0.24251994  0.24251956  -0.00000002  1
  Ni  Ni6  1  0.99999846  0.99999901  0.00000092  1
  Cl  Cl7  1  0.24802418  -0.00000084  0.75197559  1
  Cl  Cl8  1  0.99999977  0.75197593  0.24802346  1
  Cl  Cl9  1  0.24802326  0.49604726  0.24802388  1
  Cl  Cl10  1  0.50395184  0.75197583  0.75197601  1
  Cl  Cl11  1  0.49604763  0.24802341  0.24802457  1
  Cl  Cl12  1  0.00000104  0.24802483  0.75197666  1
  Cl  Cl13  1  0.75197580  0.24802519  0.00000002  1
  Cl  Cl14  1  0.24802536  0.75197465  0.00000042  1
  Cl  Cl15  1  0.75197523  0.50395029  0.75197580  1
  Cl  Cl16  1  0.49999991  0.49999976  0.99999968  1
  Cl  Cl17  1  0.75197487  0.75197510  0.50394926  1
  Cl  Cl18  1  0.00000030  0.49999979  0.49999914  1
  Cl  Cl19  1  0.24802488  0.24802522  0.49604951  1
  Cl  Cl20  1  0.75197688  0.00000165  0.24802481  1
  Cl  Cl21  1  0.50000003  0.00000051  0.49999990  1
