# generated using pymatgen
data_Li7Mn2(CoO4)3
_symmetry_space_group_name_H-M   'P 1'
_cell_length_a   2.90119320
_cell_length_b   9.90811928
_cell_length_c   7.76888488
_cell_angle_alpha   80.07106874
_cell_angle_beta   100.76136780
_cell_angle_gamma   90.00000440
_symmetry_Int_Tables_number   1
_chemical_formula_structural   Li7Mn2(CoO4)3
_chemical_formula_sum   'Li7 Mn2 Co3 O12'
_cell_volume   215.98641655
_cell_formula_units_Z   1
loop_
 _symmetry_equiv_pos_site_id
 _symmetry_equiv_pos_as_xyz
  1  'x, y, z'
loop_
 _atom_site_type_symbol
 _atom_site_label
 _atom_site_symmetry_multiplicity
 _atom_site_fract_x
 _atom_site_fract_y
 _atom_site_fract_z
 _atom_site_occupancy
  Li  Li0  1  0.07761058  0.26973094  0.15522217  1
  Li  Li1  1  0.25314523  0.74390893  0.50629046  1
  Li  Li2  1  0.41471036  0.25823223  0.82941972  1
  Li  Li3  1  0.58377253  0.74061796  0.16754607  1
  Li  Li4  1  0.74744544  0.25684092  0.49489088  1
  Li  Li5  1  0.92133225  0.72865769  0.84266350  1
  Li  Li6  1  0.50011504  0.50242599  0.00023007  1
  Mn  Mn7  1  0.00016317  -0.00189685  0.00032633  1
  Mn  Mn8  1  0.16303173  0.50411095  0.32606246  1
  Co  Co9  1  0.33093524  -0.00327230  0.66187148  1
  Co  Co10  1  0.67005755  0.00602521  0.34011409  1
  Co  Co11  1  0.84592622  0.49194856  0.69185344  1
  O  O12  1  0.12095087  0.89412512  0.24190074  1
  O  O13  1  0.28693201  0.39113182  0.57386501  1
  O  O14  1  0.46690750  0.88541357  0.93381500  1
  O  O15  1  0.63014769  0.39052971  0.26029438  1
  O  O16  1  0.78916076  0.88471321  0.57832252  1
  O  O17  1  0.95099922  0.37540638  0.90199845  1
  O  O18  1  0.05161636  0.61658542  0.10323271  1
  O  O19  1  0.20359633  0.12474316  0.40719166  1
  O  O20  1  0.36999659  0.61650218  0.73999418  1
  O  O21  1  0.53564167  0.10971960  0.07128334  1
  O  O22  1  0.70564428  0.61079985  0.41128757  1
  O  O23  1  0.88016138  0.10299974  0.76032376  1
