# generated using pymatgen
data_Cs2Ti(Si2O5)3
_symmetry_space_group_name_H-M   'P 1'
_cell_length_a   7.62074843
_cell_length_b   7.62074843
_cell_length_c   15.45940246
_cell_angle_alpha   76.39560846
_cell_angle_beta   76.39560846
_cell_angle_gamma   60.14956346
_symmetry_Int_Tables_number   1
_chemical_formula_structural   Cs2Ti(Si2O5)3
_chemical_formula_sum   'Cs4 Ti2 Si12 O30'
_cell_volume   749.38438356
_cell_formula_units_Z   2
loop_
 _symmetry_equiv_pos_site_id
 _symmetry_equiv_pos_as_xyz
  1  'x, y, z'
loop_
 _atom_site_type_symbol
 _atom_site_label
 _atom_site_symmetry_multiplicity
 _atom_site_fract_x
 _atom_site_fract_y
 _atom_site_fract_z
 _atom_site_occupancy
  O  O0  1  0.43260199  0.94515181  0.02672014  1
  O  O1  1  0.94515181  0.43260199  0.52672014  1
  O  O2  1  0.48314839  0.68755220  0.18728215  1
  O  O3  1  0.68755220  0.48314839  0.68728215  1
  O  O4  1  0.09729366  0.02432765  0.16062159  1
  O  O5  1  0.02432765  0.09729366  0.66062159  1
  O  O6  1  0.48995825  0.54299241  0.03921482  1
  O  O7  1  0.54299241  0.48995825  0.53921482  1
  O  O8  1  0.21193059  0.77407530  0.46946091  1
  O  O9  1  0.77407530  0.21193059  0.96946091  1
  O  O10  1  0.15675921  0.62719606  0.17412933  1
  O  O11  1  0.62719606  0.15675921  0.67412933  1
  O  O12  1  0.84522178  0.89704505  0.27706917  1
  O  O13  1  0.89704505  0.84522178  0.77706917  1
  O  O14  1  0.32642417  0.38074084  0.47212529  1
  O  O15  1  0.38074084  0.32642417  0.97212529  1
  O  O16  1  0.07601289  0.51922982  0.35131451  1
  O  O17  1  0.51922982  0.07601289  0.85131451  1
  O  O18  1  0.11772102  0.87501072  0.00596296  1
  O  O19  1  0.87501072  0.11772102  0.50596296  1
  O  O20  1  0.29090350  0.72913390  0.74107952  1
  O  O21  1  0.72913390  0.29090350  0.24107952  1
  O  O22  1  0.55623552  0.53999900  0.86078280  1
  O  O23  1  0.53999900  0.55623552  0.36078280  1
  O  O24  1  0.05217757  0.03980788  0.83423090  1
  O  O25  1  0.03980788  0.05217757  0.33423090  1
  O  O26  1  0.22568348  0.13128585  0.42995145  1
  O  O27  1  0.13128585  0.22568348  0.92995145  1
  O  O28  1  0.57933353  0.83256787  0.73720582  1
  O  O29  1  0.83256787  0.57933353  0.23720582  1
  Si  Si30  1  0.41114893  0.54816632  0.46040284  1
  Si  Si31  1  0.54816632  0.41114893  0.96040284  1
  Si  Si32  1  0.98144979  0.65493246  0.25934110  1
  Si  Si33  1  0.65493246  0.98144979  0.75934110  1
  Si  Si34  1  0.13358429  0.37101473  0.44667192  1
  Si  Si35  1  0.37101473  0.13358429  0.94667192  1
  Si  Si36  1  0.63884905  0.52978873  0.25633264  1
  Si  Si37  1  0.52978873  0.63884905  0.75633264  1
  Si  Si38  1  0.01930749  0.08154992  0.93740262  1
  Si  Si39  1  0.08154992  0.01930749  0.43740262  1
  Si  Si40  1  0.93418648  0.06643936  0.25044600  1
  Si  Si41  1  0.06643936  0.93418648  0.75044600  1
  Ti  Ti42  1  0.29709769  0.77872678  0.09944342  1
  Ti  Ti43  1  0.77872678  0.29709769  0.59944342  1
  Cs  Cs44  1  0.14489914  0.41925562  0.69344203  1
  Cs  Cs45  1  0.41925562  0.14489914  0.19344203  1
  Cs  Cs46  1  0.88729030  0.62875101  0.01880606  1
  Cs  Cs47  1  0.62875101  0.88729030  0.51880606  1
