# generated using pymatgen
data_Na3Li3Al2F12
_symmetry_space_group_name_H-M   'P 1'
_cell_length_a   10.66838721
_cell_length_b   10.66838721
_cell_length_c   10.66838721
_cell_angle_alpha   109.47122064
_cell_angle_beta   109.47122064
_cell_angle_gamma   109.47122063
_symmetry_Int_Tables_number   1
_chemical_formula_structural   Na3Li3Al2F12
_chemical_formula_sum   'Na12 Li12 Al8 F48'
_cell_volume   934.70468467
_cell_formula_units_Z   4
loop_
 _symmetry_equiv_pos_site_id
 _symmetry_equiv_pos_as_xyz
  1  'x, y, z'
loop_
 _atom_site_type_symbol
 _atom_site_label
 _atom_site_symmetry_multiplicity
 _atom_site_fract_x
 _atom_site_fract_y
 _atom_site_fract_z
 _atom_site_occupancy
  Li  Li0  1  0.25000000  0.62500000  0.37500000  1
  Li  Li1  1  0.87500000  0.25000000  0.12500000  1
  Li  Li2  1  0.12500000  0.75000000  0.87500000  1
  Li  Li3  1  0.87500000  0.12500000  0.75000000  1
  Li  Li4  1  0.62500000  0.37500000  0.25000000  1
  Li  Li5  1  0.75000000  0.87500000  0.12500000  1
  Li  Li6  1  0.12500000  0.87500000  0.25000000  1
  Li  Li7  1  0.37500000  0.62500000  0.75000000  1
  Li  Li8  1  0.62500000  0.75000000  0.37500000  1
  Li  Li9  1  0.75000000  0.37500000  0.62500000  1
  Li  Li10  1  0.25000000  0.12500000  0.87500000  1
  Li  Li11  1  0.37500000  0.25000000  0.62500000  1
  F  F12  1  0.31745435  0.48595035  0.38870927  1
  F  F13  1  0.57125492  0.90275892  0.38870927  1
  F  F14  1  0.11129073  0.01404965  0.18254565  1
  F  F15  1  0.48595035  0.59724108  0.16849600  1
  F  F16  1  0.38870927  0.57125492  0.90275892  1
  F  F17  1  0.90275892  0.01404965  0.33150400  1
  F  F18  1  0.59724108  0.92874508  0.11129073  1
  F  F19  1  0.48595035  0.38870927  0.31745435  1
  F  F20  1  0.01404965  0.18254565  0.11129073  1
  F  F21  1  0.92874508  0.31745435  0.33150400  1
  F  F22  1  0.33150400  0.92874508  0.31745435  1
  F  F23  1  0.90275892  0.38870927  0.57125492  1
  F  F24  1  0.16849600  0.18254565  0.57125492  1
  F  F25  1  0.59724108  0.16849600  0.48595035  1
  F  F26  1  0.57125492  0.16849600  0.18254565  1
  F  F27  1  0.18254565  0.11129073  0.01404965  1
  F  F28  1  0.18254565  0.57125492  0.16849600  1
  F  F29  1  0.16849600  0.48595035  0.59724108  1
  F  F30  1  0.11129073  0.59724108  0.92874508  1
  F  F31  1  0.01404965  0.33150400  0.90275892  1
  F  F32  1  0.68254565  0.66849600  0.07125492  1
  F  F33  1  0.66849600  0.09724108  0.98595035  1
  F  F34  1  0.61129073  0.68254565  0.51404965  1
  F  F35  1  0.51404965  0.61129073  0.68254565  1
  F  F36  1  0.07125492  0.88870927  0.40275892  1
  F  F37  1  0.40275892  0.07125492  0.88870927  1
  F  F38  1  0.09724108  0.98595035  0.66849600  1
  F  F39  1  0.61129073  0.42874508  0.09724108  1
  F  F40  1  0.51404965  0.40275892  0.83150400  1
  F  F41  1  0.88870927  0.98595035  0.81745435  1
  F  F42  1  0.42874508  0.09724108  0.61129073  1
  F  F43  1  0.83150400  0.51404965  0.40275892  1
  F  F44  1  0.98595035  0.81745435  0.88870927  1
  F  F45  1  0.07125492  0.68254565  0.66849600  1
  F  F46  1  0.66849600  0.07125492  0.68254565  1
  F  F47  1  0.09724108  0.61129073  0.42874508  1
  F  F48  1  0.83150400  0.81745435  0.42874508  1
  F  F49  1  0.40275892  0.83150400  0.51404965  1
  F  F50  1  0.42874508  0.83150400  0.81745435  1
  F  F51  1  0.81745435  0.88870927  0.98595035  1
  F  F52  1  0.81745435  0.42874508  0.83150400  1
  F  F53  1  0.88870927  0.40275892  0.07125492  1
  F  F54  1  0.98595035  0.66849600  0.09724108  1
  F  F55  1  0.68254565  0.51404965  0.61129073  1
  F  F56  1  0.31745435  0.33150400  0.92874508  1
  F  F57  1  0.33150400  0.90275892  0.01404965  1
  F  F58  1  0.38870927  0.31745435  0.48595035  1
  F  F59  1  0.92874508  0.11129073  0.59724108  1
  Na  Na60  1  0.62500000  0.87500000  0.75000000  1
  Na  Na61  1  0.87500000  0.62500000  0.25000000  1
  Na  Na62  1  0.62500000  0.25000000  0.87500000  1
  Na  Na63  1  0.25000000  0.87500000  0.62500000  1
  Na  Na64  1  0.75000000  0.62500000  0.87500000  1
  Na  Na65  1  0.87500000  0.75000000  0.62500000  1
  Na  Na66  1  0.37500000  0.12500000  0.25000000  1
  Na  Na67  1  0.12500000  0.37500000  0.75000000  1
  Na  Na68  1  0.37500000  0.75000000  0.12500000  1
  Na  Na69  1  0.75000000  0.12500000  0.37500000  1
  Na  Na70  1  0.12500000  0.25000000  0.37500000  1
  Na  Na71  1  0.25000000  0.37500000  0.12500000  1
  Al  Al72  1  0.50000000  0.50000000  0.50000000  1
  Al  Al73  1  0.50000000  0.50000000  0.00000000  1
  Al  Al74  1  0.50000000  0.00000000  0.50000000  1
  Al  Al75  1  0.00000000  0.50000000  0.50000000  1
  Al  Al76  1  0.50000000  0.00000000  0.00000000  1
  Al  Al77  1  0.00000000  0.00000000  0.50000000  1
  Al  Al78  1  0.00000000  0.50000000  0.00000000  1
  Al  Al79  1  0.00000000  0.00000000  0.00000000  1
