# generated using pymatgen
data_AlBiCl6
_symmetry_space_group_name_H-M   'P 1'
_cell_length_a   7.88511212
_cell_length_b   10.65923249
_cell_length_c   12.13546743
_cell_angle_alpha   90.00000000
_cell_angle_beta   90.00000000
_cell_angle_gamma   95.87627302
_symmetry_Int_Tables_number   1
_chemical_formula_structural   AlBiCl6
_chemical_formula_sum   'Al4 Bi4 Cl24'
_cell_volume   1014.61718167
_cell_formula_units_Z   4
loop_
 _symmetry_equiv_pos_site_id
 _symmetry_equiv_pos_as_xyz
  1  'x, y, z'
loop_
 _atom_site_type_symbol
 _atom_site_label
 _atom_site_symmetry_multiplicity
 _atom_site_fract_x
 _atom_site_fract_y
 _atom_site_fract_z
 _atom_site_occupancy
  Al  Al0  1  0.50332591  0.72058575  0.77335131  1
  Al  Al1  1  0.50332591  0.22058575  0.72664869  1
  Al  Al2  1  0.49667409  0.77941425  0.27335131  1
  Al  Al3  1  0.49667409  0.27941425  0.22664869  1
  Bi  Bi4  1  0.80961569  0.35006761  0.96252414  1
  Bi  Bi5  1  0.80961569  0.85006761  0.53747586  1
  Bi  Bi6  1  0.19038431  0.64993239  0.03747586  1
  Bi  Bi7  1  0.19038431  0.14993239  0.46252414  1
  Cl  Cl8  1  0.99185987  0.30847728  0.43281972  1
  Cl  Cl9  1  0.47859458  0.17883310  0.90003954  1
  Cl  Cl10  1  0.29544057  0.31585132  0.65955501  1
  Cl  Cl11  1  0.49954628  0.44803575  0.12954032  1
  Cl  Cl12  1  0.50045372  0.55196425  0.87045968  1
  Cl  Cl13  1  0.99185987  0.80847728  0.06718028  1
  Cl  Cl14  1  0.49954628  0.94803575  0.37045968  1
  Cl  Cl15  1  0.52140542  0.82116690  0.09996046  1
  Cl  Cl16  1  0.70455943  0.18414868  0.15955501  1
  Cl  Cl17  1  0.52140542  0.32116690  0.40003954  1
  Cl  Cl18  1  0.47859458  0.67883310  0.59996046  1
  Cl  Cl19  1  0.50045372  0.05196425  0.62954032  1
  Cl  Cl20  1  0.01237794  0.04029765  0.63435164  1
  Cl  Cl21  1  0.74608321  0.33496537  0.71543498  1
  Cl  Cl22  1  0.25391679  0.16503463  0.21543498  1
  Cl  Cl23  1  0.98762206  0.95970235  0.36564836  1
  Cl  Cl24  1  0.25391679  0.66503463  0.28456502  1
  Cl  Cl25  1  0.00814013  0.19152272  0.93281972  1
  Cl  Cl26  1  0.70455943  0.68414868  0.34044499  1
  Cl  Cl27  1  0.74608321  0.83496537  0.78456502  1
  Cl  Cl28  1  0.98762206  0.45970235  0.13435164  1
  Cl  Cl29  1  0.29544057  0.81585132  0.84044499  1
  Cl  Cl30  1  0.00814013  0.69152272  0.56718028  1
  Cl  Cl31  1  0.01237794  0.54029765  0.86564836  1
