# generated using pymatgen
data_NaLiGe4O9
_symmetry_space_group_name_H-M   'P 1'
_cell_length_a   4.74219203
_cell_length_b   9.47570591
_cell_length_c   16.18773578
_cell_angle_alpha   90.00000000
_cell_angle_beta   90.00000000
_cell_angle_gamma   90.00000000
_symmetry_Int_Tables_number   1
_chemical_formula_structural   NaLiGe4O9
_chemical_formula_sum   'Na4 Li4 Ge16 O36'
_cell_volume   727.40589584
_cell_formula_units_Z   4
loop_
 _symmetry_equiv_pos_site_id
 _symmetry_equiv_pos_as_xyz
  1  'x, y, z'
loop_
 _atom_site_type_symbol
 _atom_site_label
 _atom_site_symmetry_multiplicity
 _atom_site_fract_x
 _atom_site_fract_y
 _atom_site_fract_z
 _atom_site_occupancy
  Li  Li0  1  0.45706724  0.26703064  0.26510009  1
  Li  Li1  1  0.54293276  0.76703064  0.73489991  1
  Li  Li2  1  0.54293276  0.26703064  0.76510009  1
  Li  Li3  1  0.45706724  0.76703064  0.23489991  1
  O  O4  1  0.73514316  0.33701739  0.66361490  1
  O  O5  1  0.26485684  0.83701739  0.33638510  1
  O  O6  1  0.26485684  0.33701739  0.16361490  1
  O  O7  1  0.73514316  0.83701739  0.83638510  1
  O  O8  1  0.73532726  0.58758454  0.73787879  1
  O  O9  1  0.26467274  0.08758454  0.26212121  1
  O  O10  1  0.85544898  0.62184080  0.36935011  1
  O  O11  1  0.73532726  0.08758454  0.76212121  1
  O  O12  1  0.72854035  0.58506637  0.57120589  1
  O  O13  1  0.27145965  0.08506637  0.42879411  1
  O  O14  1  0.27145965  0.58506637  0.07120589  1
  O  O15  1  0.26467274  0.58758454  0.23787879  1
  O  O16  1  0.15719053  0.26193900  0.99668517  1
  O  O17  1  0.84280947  0.76193900  0.00331483  1
  O  O18  1  0.84280947  0.26193900  0.49668517  1
  O  O19  1  0.15719053  0.76193900  0.50331483  1
  O  O20  1  0.17130333  0.86534901  0.14320688  1
  O  O21  1  0.82869667  0.36534901  0.85679312  1
  O  O22  1  0.82869667  0.86534901  0.64320688  1
  O  O23  1  0.17130333  0.36534901  0.35679312  1
  O  O24  1  0.27725714  0.91256111  0.92715062  1
  O  O25  1  0.72274286  0.41256111  0.07284938  1
  O  O26  1  0.72274286  0.91256111  0.42715062  1
  O  O27  1  0.27725714  0.41256111  0.57284938  1
  O  O28  1  0.27865807  0.91662061  0.75812298  1
  O  O29  1  0.72134193  0.41662061  0.24187702  1
  O  O30  1  0.72134193  0.91662061  0.25812298  1
  O  O31  1  0.27865807  0.41662061  0.74187702  1
  O  O32  1  0.27546485  0.16400317  0.83746251  1
  O  O33  1  0.72453515  0.66400317  0.16253749  1
  O  O34  1  0.72453515  0.16400317  0.33746251  1
  O  O35  1  0.27546485  0.66400317  0.66253749  1
  O  O36  1  0.85544898  0.12184080  0.13064989  1
  O  O37  1  0.14455102  0.62184080  0.86935011  1
  O  O38  1  0.14455102  0.12184080  0.63064989  1
  O  O39  1  0.72854035  0.08506637  0.92879411  1
  Na  Na40  1  0.52384042  0.98149638  0.04548246  1
  Na  Na41  1  0.52384042  0.48149638  0.45451754  1
  Na  Na42  1  0.47615958  0.98149638  0.54548246  1
  Na  Na43  1  0.47615958  0.48149638  0.95451754  1
  Ge  Ge44  1  0.00764307  0.29029644  0.59544303  1
  Ge  Ge45  1  0.99235693  0.79029644  0.40455697  1
  Ge  Ge46  1  0.99235693  0.29029644  0.09544303  1
  Ge  Ge47  1  0.00764307  0.79029644  0.90455697  1
  Ge  Ge48  1  0.50181810  0.49926285  0.65490546  1
  Ge  Ge49  1  0.49818190  0.99926285  0.34509454  1
  Ge  Ge50  1  0.49818190  0.49926285  0.15490546  1
  Ge  Ge51  1  0.50181810  0.99926285  0.84509454  1
  Ge  Ge52  1  0.99141555  0.70780829  0.59788933  1
  Ge  Ge53  1  0.99141555  0.20780829  0.90211067  1
  Ge  Ge54  1  0.00858445  0.70780829  0.09788933  1
  Ge  Ge55  1  0.00858445  0.20780829  0.40211067  1
  Ge  Ge56  1  0.99942042  0.50112340  0.29346998  1
  Ge  Ge57  1  0.00057958  0.00112340  0.70653002  1
  Ge  Ge58  1  0.00057958  0.50112340  0.79346998  1
  Ge  Ge59  1  0.99942042  0.00112340  0.20653002  1
