# generated using pymatgen
data_K2Cd2(SO4)3
_symmetry_space_group_name_H-M   'P 1'
_cell_length_a   10.41768281
_cell_length_b   10.37864885
_cell_length_c   10.48335250
_cell_angle_alpha   90.00000000
_cell_angle_beta   90.00000000
_cell_angle_gamma   90.00000000
_symmetry_Int_Tables_number   1
_chemical_formula_structural   K2Cd2(SO4)3
_chemical_formula_sum   'K8 Cd8 S12 O48'
_cell_volume   1133.47550081
_cell_formula_units_Z   4
loop_
 _symmetry_equiv_pos_site_id
 _symmetry_equiv_pos_as_xyz
  1  'x, y, z'
loop_
 _atom_site_type_symbol
 _atom_site_label
 _atom_site_symmetry_multiplicity
 _atom_site_fract_x
 _atom_site_fract_y
 _atom_site_fract_z
 _atom_site_occupancy
  O  O0  1  0.07569848  0.89810837  0.79986853  1
  O  O1  1  0.57569848  0.60189163  0.20013147  1
  O  O2  1  0.92430152  0.39810837  0.70013147  1
  O  O3  1  0.42430152  0.10189163  0.29986853  1
  O  O4  1  0.24063928  0.06649996  0.78249648  1
  O  O5  1  0.74063928  0.43350004  0.21750352  1
  O  O6  1  0.75936072  0.56649996  0.71750352  1
  O  O7  1  0.25936072  0.93350004  0.28249648  1
  O  O8  1  0.03167269  0.09991340  0.69013034  1
  O  O9  1  0.53167269  0.40008660  0.30986966  1
  O  O10  1  0.96832731  0.59991340  0.80986966  1
  O  O11  1  0.46832731  0.90008660  0.19013034  1
  O  O12  1  0.18032878  0.94347092  0.59594028  1
  O  O13  1  0.68032878  0.55652908  0.40405972  1
  O  O14  1  0.81967122  0.44347092  0.90405972  1
  O  O15  1  0.31967122  0.05652908  0.09594028  1
  O  O16  1  0.38200118  0.67377687  0.49283993  1
  O  O17  1  0.88200118  0.82622313  0.50716007  1
  O  O18  1  0.15753562  0.69077102  0.43433561  1
  O  O19  1  0.61799882  0.17377687  0.00716007  1
  O  O20  1  0.24983927  0.48029700  0.45997379  1
  O  O21  1  0.74983927  0.01970300  0.54002621  1
  O  O22  1  0.75016073  0.98029700  0.04002621  1
  O  O23  1  0.25016073  0.51970300  0.95997379  1
  O  O24  1  0.21331917  0.60832350  0.64677098  1
  O  O25  1  0.71331917  0.89167650  0.35322902  1
  O  O26  1  0.78668083  0.10832350  0.85322902  1
  O  O27  1  0.28668083  0.39167650  0.14677098  1
  O  O28  1  0.02969418  0.30453338  0.26081848  1
  O  O29  1  0.52969418  0.19546662  0.73918152  1
  O  O30  1  0.97030582  0.80453338  0.23918152  1
  O  O31  1  0.47030582  0.69546662  0.76081848  1
  O  O32  1  0.99452062  0.08172838  0.32600790  1
  O  O33  1  0.49452062  0.41827162  0.67399210  1
  O  O34  1  0.00547938  0.58172838  0.17399210  1
  O  O35  1  0.50547938  0.91827162  0.82600790  1
  O  O36  1  0.92503436  0.26035246  0.46122061  1
  O  O37  1  0.42503436  0.23964754  0.53877939  1
  O  O38  1  0.07496564  0.76035246  0.03877939  1
  O  O39  1  0.57496564  0.73964754  0.96122061  1
  O  O40  1  0.15466388  0.21500987  0.43437966  1
  O  O41  1  0.65466388  0.28499013  0.56562034  1
  O  O42  1  0.84533612  0.71500987  0.06562034  1
  O  O43  1  0.34533612  0.78499013  0.93437966  1
  O  O44  1  0.34246438  0.30922898  0.93433561  1
  O  O45  1  0.84246438  0.19077102  0.06566439  1
  O  O46  1  0.65753562  0.80922898  0.56566439  1
  O  O47  1  0.11799882  0.32622313  0.99283993  1
  S  S48  1  0.13148044  0.00206146  0.71738065  1
  S  S49  1  0.63148044  0.49793854  0.28261935  1
  S  S50  1  0.86851956  0.50206146  0.78261935  1
  S  S51  1  0.36851956  0.99793854  0.21738065  1
  S  S52  1  0.25253395  0.61462684  0.51034705  1
  S  S53  1  0.75253395  0.88537316  0.48965295  1
  S  S54  1  0.74746605  0.11462684  0.98965295  1
  S  S55  1  0.24746605  0.38537316  0.01034705  1
  S  S56  1  0.47383890  0.78469682  0.87090167  1
  S  S57  1  0.02616110  0.21530318  0.37090167  1
  S  S58  1  0.52616110  0.28469682  0.62909833  1
  S  S59  1  0.97383890  0.71530318  0.12909833  1
  K  K60  1  0.19387903  0.32989385  0.68742628  1
  K  K61  1  0.30612097  0.67010615  0.18742628  1
  K  K62  1  0.43748948  0.96370323  0.56147126  1
  K  K63  1  0.80612097  0.82989385  0.81257372  1
  K  K64  1  0.06251052  0.03629677  0.06147126  1
  K  K65  1  0.56251052  0.46370323  0.93852874  1
  K  K66  1  0.93748948  0.53629677  0.43852874  1
  K  K67  1  0.69387903  0.17010615  0.31257372  1
  Cd  Cd68  1  0.33406332  0.30537419  0.34343801  1
  Cd  Cd69  1  0.83406332  0.19462581  0.65656199  1
  Cd  Cd70  1  0.66593668  0.80537419  0.15656199  1
  Cd  Cd71  1  0.16593668  0.69462581  0.84343801  1
  Cd  Cd72  1  0.92647555  0.39617119  0.08684811  1
  Cd  Cd73  1  0.07352445  0.89617119  0.41315189  1
  Cd  Cd74  1  0.57352445  0.60382881  0.58684811  1
  Cd  Cd75  1  0.42647555  0.10382881  0.91315189  1
