# generated using pymatgen
data_Na7In4P9O32
_symmetry_space_group_name_H-M   'P 1'
_cell_length_a   6.70941288
_cell_length_b   14.49174767
_cell_length_c   14.49174767
_cell_angle_alpha   90.00000000
_cell_angle_beta   90.00000000
_cell_angle_gamma   90.00000000
_symmetry_Int_Tables_number   1
_chemical_formula_structural   Na7In4P9O32
_chemical_formula_sum   'Na14 In8 P18 O64'
_cell_volume   1409.04883455
_cell_formula_units_Z   2
loop_
 _symmetry_equiv_pos_site_id
 _symmetry_equiv_pos_as_xyz
  1  'x, y, z'
loop_
 _atom_site_type_symbol
 _atom_site_label
 _atom_site_symmetry_multiplicity
 _atom_site_fract_x
 _atom_site_fract_y
 _atom_site_fract_z
 _atom_site_occupancy
  O  O0  1  0.60957445  0.83846851  0.65827318  1
  O  O1  1  0.60957445  0.16153149  0.34172682  1
  O  O2  1  0.39042555  0.34172682  0.83846851  1
  O  O3  1  0.39042555  0.65827318  0.16153149  1
  O  O4  1  0.10957445  0.84172682  0.66153149  1
  O  O5  1  0.89042555  0.66153149  0.15827318  1
  O  O6  1  0.89042555  0.33846851  0.84172682  1
  O  O7  1  0.10957445  0.15827318  0.33846851  1
  O  O8  1  0.43174361  0.69463567  0.59219877  1
  O  O9  1  0.43174361  0.30536433  0.40780123  1
  O  O10  1  0.56825639  0.40780123  0.69463567  1
  O  O11  1  0.56825639  0.59219877  0.30536433  1
  O  O12  1  0.93174361  0.90780123  0.80536433  1
  O  O13  1  0.06825639  0.80536433  0.09219877  1
  O  O14  1  0.06825639  0.19463567  0.90780123  1
  O  O15  1  0.93174361  0.09219877  0.19463567  1
  O  O16  1  0.78982928  0.68283761  0.63940018  1
  O  O17  1  0.78982928  0.31716239  0.36059982  1
  O  O18  1  0.21017072  0.36059982  0.68283761  1
  O  O19  1  0.21017072  0.63940018  0.31716239  1
  O  O20  1  0.28982928  0.86059982  0.81716239  1
  O  O21  1  0.71017072  0.81716239  0.13940018  1
  O  O22  1  0.71017072  0.18283761  0.86059982  1
  O  O23  1  0.28982928  0.13940018  0.18283761  1
  O  O24  1  0.67774216  0.77659529  0.49821919  1
  O  O25  1  0.83874551  0.76251141  0.34406480  1
  O  O26  1  0.67774216  0.22340471  0.50178081  1
  O  O27  1  0.32225784  0.49821919  0.22340471  1
  O  O28  1  0.17774216  0.00178081  0.72340471  1
  O  O29  1  0.82225784  0.72340471  0.99821919  1
  O  O30  1  0.82225784  0.27659529  0.00178081  1
  O  O31  1  0.17774216  0.99821919  0.27659529  1
  O  O32  1  0.05969718  0.75979633  0.48666007  1
  O  O33  1  0.05969718  0.24020367  0.51333993  1
  O  O34  1  0.94030282  0.51333993  0.75979633  1
  O  O35  1  0.94030282  0.48666007  0.24020367  1
  O  O36  1  0.55969718  0.01333993  0.74020367  1
  O  O37  1  0.44030282  0.74020367  0.98666007  1
  O  O38  1  0.44030282  0.25979633  0.01333993  1
  O  O39  1  0.55969718  0.98666007  0.25979633  1
  O  O40  1  0.14296942  0.43786675  0.44232263  1
  O  O41  1  0.85703058  0.44232263  0.56213325  1
  O  O42  1  0.85703058  0.55767737  0.43786675  1
  O  O43  1  0.14296942  0.56213325  0.55767737  1
  O  O44  1  0.35703058  0.93786675  0.05767737  1
  O  O45  1  0.35703058  0.06213325  0.94232263  1
  O  O46  1  0.64296942  0.05767737  0.06213325  1
  O  O47  1  0.64296942  0.94232263  0.93786675  1
  O  O48  1  0.38501358  0.93397581  0.40870200  1
  O  O49  1  0.61498642  0.40870200  0.06602419  1
  O  O50  1  0.61498642  0.59129800  0.93397581  1
  O  O51  1  0.38501358  0.06602419  0.59129800  1
  O  O52  1  0.11498642  0.43397581  0.09129800  1
  O  O53  1  0.11498642  0.56602419  0.90870200  1
  O  O54  1  0.88501358  0.09129800  0.56602419  1
  O  O55  1  0.88501358  0.90870200  0.43397581  1
  O  O56  1  0.33874551  0.84406480  0.26251141  1
  O  O57  1  0.66125449  0.26251141  0.15593520  1
  O  O58  1  0.66125449  0.73748859  0.84406480  1
  O  O59  1  0.33874551  0.15593520  0.73748859  1
  O  O60  1  0.16125449  0.34406480  0.23748859  1
  O  O61  1  0.16125449  0.65593520  0.76251141  1
  O  O62  1  0.83874551  0.23748859  0.65593520  1
  O  O63  1  0.32225784  0.50178081  0.77659529  1
  Na  Na64  1  0.63584586  0.59084355  0.75900665  1
  Na  Na65  1  0.63584586  0.40915645  0.24099335  1
  Na  Na66  1  0.36415414  0.24099335  0.59084355  1
  Na  Na67  1  0.36415414  0.75900665  0.40915645  1
  Na  Na68  1  0.13584586  0.74099335  0.90915645  1
  Na  Na69  1  0.86415414  0.90915645  0.25900665  1
  Na  Na70  1  0.86415414  0.09084355  0.74099335  1
  Na  Na71  1  0.13584586  0.25900665  0.09084355  1
  Na  Na72  1  0.13356445  0.00000000  0.50000000  1
  Na  Na73  1  0.86643555  0.50000000  0.00000000  1
  Na  Na74  1  0.36643555  0.50000000  0.00000000  1
  Na  Na75  1  0.63356445  0.00000000  0.50000000  1
  Na  Na76  1  0.00000000  0.00000000  0.00000000  1
  Na  Na77  1  0.50000000  0.50000000  0.50000000  1
  P  P78  1  0.62646081  0.74843487  0.60479401  1
  P  P79  1  0.62646081  0.25156513  0.39520599  1
  P  P80  1  0.37353919  0.39520599  0.74843487  1
  P  P81  1  0.37353919  0.60479401  0.25156513  1
  P  P82  1  0.12646081  0.89520599  0.75156513  1
  P  P83  1  0.87353919  0.75156513  0.10479401  1
  P  P84  1  0.87353919  0.24843487  0.89520599  1
  P  P85  1  0.12646081  0.10479401  0.24843487  1
  P  P86  1  0.87870066  0.80451763  0.44038189  1
  P  P87  1  0.87870066  0.19548237  0.55961811  1
  P  P88  1  0.12129934  0.55961811  0.80451763  1
  P  P89  1  0.12129934  0.44038189  0.19548237  1
  P  P90  1  0.37870066  0.05961811  0.69548237  1
  P  P91  1  0.62129934  0.69548237  0.94038189  1
  P  P92  1  0.62129934  0.30451763  0.05961811  1
  P  P93  1  0.37870066  0.94038189  0.30451763  1
  P  P94  1  0.50000000  0.00000000  0.00000000  1
  P  P95  1  0.00000000  0.50000000  0.50000000  1
  In  In96  1  0.61176729  0.87949753  0.80413474  1
  In  In97  1  0.61176729  0.12050247  0.19586526  1
  In  In98  1  0.38823271  0.19586526  0.87949753  1
  In  In99  1  0.38823271  0.80413474  0.12050247  1
  In  In100  1  0.11176729  0.69586526  0.62050247  1
  In  In101  1  0.88823271  0.62050247  0.30413474  1
  In  In102  1  0.88823271  0.37949753  0.69586526  1
  In  In103  1  0.11176729  0.30413474  0.37949753  1
