# generated using pymatgen
data_Li7Mn2(CoO4)3
_symmetry_space_group_name_H-M   'P 1'
_cell_length_a   2.91272149
_cell_length_b   7.74216810
_cell_length_c   9.88036054
_cell_angle_alpha   87.39144219
_cell_angle_beta   81.52374243
_cell_angle_gamma   100.84237016
_symmetry_Int_Tables_number   1
_chemical_formula_structural   Li7Mn2(CoO4)3
_chemical_formula_sum   'Li7 Mn2 Co3 O12'
_cell_volume   215.82599191
_cell_formula_units_Z   1
loop_
 _symmetry_equiv_pos_site_id
 _symmetry_equiv_pos_as_xyz
  1  'x, y, z'
loop_
 _atom_site_type_symbol
 _atom_site_label
 _atom_site_symmetry_multiplicity
 _atom_site_fract_x
 _atom_site_fract_y
 _atom_site_fract_z
 _atom_site_occupancy
  Li  Li0  1  0.58530119  0.91651856  0.74591518  1
  Li  Li1  1  0.41583642  0.09375473  0.26208290  1
  Li  Li2  1  0.25685973  0.24812628  0.73440681  1
  Li  Li3  1  0.07540701  0.40898628  0.25817126  1
  Li  Li4  1  0.74436781  0.74467806  0.25594244  1
  Li  Li5  1  0.91513761  0.57747208  0.74719786  1
  Li  Li6  1  0.83581717  0.16845756  0.49682221  1
  Mn  Mn7  1  0.99890201  0.00107930  0.00327527  1
  Mn  Mn8  1  0.49895242  0.49227250  0.49436766  1
  Co  Co9  1  0.67467695  0.34932149  -0.00003141  1
  Co  Co10  1  0.33089412  0.65939737  0.99760813  1
  Co  Co11  1  0.17339055  0.85502400  0.50824391  1
  O  O12  1  0.38994379  0.89318954  0.11330296  1
  O  O13  1  0.20240099  0.02833669  0.62353471  1
  O  O14  1  0.04732751  0.20533320  0.11067719  1
  O  O15  1  0.89192509  0.39194951  0.60810034  1
  O  O16  1  0.55217314  0.70892911  0.60458184  1
  O  O17  1  0.71094455  0.53903246  0.11714335  1
  O  O18  1  0.77717943  0.94096098  0.38660212  1
  O  O19  1  0.60934493  0.11279310  0.89410223  1
  O  O20  1  0.46162821  0.30621592  0.38296049  1
  O  O21  1  0.28612954  0.44610881  0.87384973  1
  O  O22  1  0.95385193  0.79949995  0.89179709  1
  O  O23  1  0.11160789  0.61256251  0.38934572  1
