# generated using pymatgen
data_Sr5P3O12F
_symmetry_space_group_name_H-M   'P 1'
_cell_length_a   9.84985756
_cell_length_b   9.84985756
_cell_length_c   7.35915227
_cell_angle_alpha   90.00000000
_cell_angle_beta   90.00000000
_cell_angle_gamma   120.00000000
_symmetry_Int_Tables_number   1
_chemical_formula_structural   Sr5P3O12F
_chemical_formula_sum   'Sr10 P6 O24 F2'
_cell_volume   618.32715687
_cell_formula_units_Z   2
loop_
 _symmetry_equiv_pos_site_id
 _symmetry_equiv_pos_as_xyz
  1  'x, y, z'
loop_
 _atom_site_type_symbol
 _atom_site_label
 _atom_site_symmetry_multiplicity
 _atom_site_fract_x
 _atom_site_fract_y
 _atom_site_fract_z
 _atom_site_occupancy
  O  O0  1  0.11872945  0.58201419  0.75000000  1
  O  O1  1  0.53671526  0.11872945  0.25000000  1
  O  O2  1  0.58201419  0.46328474  0.25000000  1
  O  O3  1  0.41798581  0.53671526  0.75000000  1
  O  O4  1  0.46328474  0.88127055  0.75000000  1
  O  O5  1  0.88127055  0.41798581  0.25000000  1
  O  O6  1  0.34422576  0.26066196  0.42113634  1
  O  O7  1  0.08356380  0.34422576  0.92113634  1
  O  O8  1  0.26066196  0.91643620  0.92113634  1
  O  O9  1  0.73933804  0.08356380  0.42113634  1
  O  O10  1  0.91643620  0.65577424  0.42113634  1
  O  O11  1  0.65577424  0.73933804  0.92113634  1
  O  O12  1  0.65577424  0.73933804  0.57886366  1
  O  O13  1  0.91643620  0.65577424  0.07886366  1
  O  O14  1  0.73933804  0.08356380  0.07886366  1
  O  O15  1  0.26066196  0.91643620  0.57886366  1
  O  O16  1  0.08356380  0.34422576  0.57886366  1
  O  O17  1  0.34422576  0.26066196  0.07886366  1
  O  O18  1  0.14975323  0.66975192  0.25000000  1
  O  O19  1  0.48000131  0.14975323  0.75000000  1
  O  O20  1  0.66975192  0.51999869  0.75000000  1
  O  O21  1  0.33024808  0.48000131  0.25000000  1
  O  O22  1  0.51999869  0.85024677  0.25000000  1
  O  O23  1  0.85024677  0.33024808  0.75000000  1
  F  F24  1  0.00000000  0.00000000  0.75000000  1
  F  F25  1  0.00000000  0.00000000  0.25000000  1
  P  P26  1  0.03117043  0.39910216  0.75000000  1
  P  P27  1  0.63206826  0.03117043  0.25000000  1
  P  P28  1  0.39910216  0.36793174  0.25000000  1
  P  P29  1  0.60089784  0.63206826  0.75000000  1
  P  P30  1  0.36793174  0.96882957  0.75000000  1
  P  P31  1  0.96882957  0.60089784  0.25000000  1
  Sr  Sr32  1  0.66666667  0.33333333  0.49956108  1
  Sr  Sr33  1  0.33333333  0.66666667  0.99956108  1
  Sr  Sr34  1  0.33333333  0.66666667  0.50043892  1
  Sr  Sr35  1  0.66666667  0.33333333  0.00043892  1
  Sr  Sr36  1  0.75807967  0.01136019  0.75000000  1
  Sr  Sr37  1  0.74671949  0.75807967  0.25000000  1
  Sr  Sr38  1  0.01136019  0.25328051  0.25000000  1
  Sr  Sr39  1  0.98863981  0.74671949  0.75000000  1
  Sr  Sr40  1  0.25328051  0.24192033  0.75000000  1
  Sr  Sr41  1  0.24192033  0.98863981  0.25000000  1
