# generated using pymatgen
data_NaMgPO4
_symmetry_space_group_name_H-M   'P 1'
_cell_length_a   6.93217338
_cell_length_b   8.89949678
_cell_length_c   15.50652850
_cell_angle_alpha   90.00000000
_cell_angle_beta   90.00000000
_cell_angle_gamma   90.00000000
_symmetry_Int_Tables_number   1
_chemical_formula_structural   NaMgPO4
_chemical_formula_sum   'Na12 Mg12 P12 O48'
_cell_volume   956.64200924
_cell_formula_units_Z   12
loop_
 _symmetry_equiv_pos_site_id
 _symmetry_equiv_pos_as_xyz
  1  'x, y, z'
loop_
 _atom_site_type_symbol
 _atom_site_label
 _atom_site_symmetry_multiplicity
 _atom_site_fract_x
 _atom_site_fract_y
 _atom_site_fract_z
 _atom_site_occupancy
  O  O0  1  0.26764652  0.88078406  0.82867823  1
  O  O1  1  0.76764652  0.11921594  0.67132177  1
  O  O2  1  0.23235348  0.38078406  0.17132177  1
  O  O3  1  0.73235348  0.61921594  0.32867823  1
  O  O4  1  0.08317514  0.88539692  0.01721381  1
  O  O5  1  0.58317514  0.11460308  0.48278619  1
  O  O6  1  0.41682486  0.38539692  0.98278619  1
  O  O7  1  0.91682486  0.61460308  0.51721381  1
  O  O8  1  0.02779729  0.86317121  0.34831131  1
  O  O9  1  0.52779729  0.13682879  0.15168869  1
  O  O10  1  0.47220271  0.36317121  0.65168869  1
  O  O11  1  0.97220271  0.63682879  0.84831131  1
  O  O12  1  0.09909922  0.86452222  0.68137188  1
  O  O13  1  0.59909922  0.13547778  0.81862812  1
  O  O14  1  0.40090078  0.36452222  0.31862812  1
  O  O15  1  0.90090078  0.63547778  0.18137188  1
  O  O16  1  0.23195890  0.63877916  0.06573401  1
  O  O17  1  0.73195890  0.36122084  0.43426599  1
  O  O18  1  0.26804110  0.13877916  0.93426599  1
  O  O19  1  0.76804110  0.86122084  0.56573401  1
  O  O20  1  0.46137622  0.88532910  0.69140706  1
  O  O21  1  0.26043495  0.87686296  0.15795005  1
  O  O22  1  0.23956505  0.37686296  0.84204995  1
  O  O23  1  0.73956505  0.62313704  0.65795005  1
  O  O24  1  0.29367216  0.64289870  0.73347415  1
  O  O25  1  0.79367216  0.35710130  0.76652585  1
  O  O26  1  0.20632784  0.14289870  0.26652585  1
  O  O27  1  0.70632784  0.85710130  0.23347415  1
  O  O28  1  0.20681542  0.88120824  0.49208893  1
  O  O29  1  0.70681542  0.11879176  0.00791107  1
  O  O30  1  0.29318458  0.38120824  0.50791107  1
  O  O31  1  0.79318458  0.61879176  0.99208893  1
  O  O32  1  0.22555738  0.64331805  0.39694663  1
  O  O33  1  0.72555738  0.35668195  0.10305337  1
  O  O34  1  0.27444262  0.14331805  0.60305337  1
  O  O35  1  0.77444262  0.85668195  0.89694663  1
  O  O36  1  0.61014653  0.61450671  0.85115051  1
  O  O37  1  0.11014653  0.38549329  0.64884949  1
  O  O38  1  0.88985347  0.11450671  0.14884949  1
  O  O39  1  0.38985347  0.88549329  0.35115051  1
  O  O40  1  0.55607843  0.64838002  0.51406299  1
  O  O41  1  0.05607843  0.35161998  0.98593701  1
  O  O42  1  0.94392157  0.14838002  0.48593701  1
  O  O43  1  0.44392157  0.85161998  0.01406299  1
  O  O44  1  0.53862378  0.61467090  0.19140706  1
  O  O45  1  0.03862378  0.38532910  0.30859294  1
  O  O46  1  0.96137622  0.11467090  0.80859294  1
  O  O47  1  0.76043495  0.12313704  0.34204995  1
  Na  Na48  1  0.69648054  0.85858340  0.40555811  1
  Na  Na49  1  0.19648054  0.14141660  0.09444189  1
  Na  Na50  1  0.80351946  0.35858340  0.59444189  1
  Na  Na51  1  0.30351946  0.64141660  0.90555811  1
  Na  Na52  1  0.78625467  0.84882759  0.73629349  1
  Na  Na53  1  0.28625467  0.15117241  0.76370651  1
  Na  Na54  1  0.71374533  0.34882759  0.26370651  1
  Na  Na55  1  0.21374533  0.65117241  0.23629349  1
  Na  Na56  1  0.77095225  0.85102337  0.06992504  1
  Na  Na57  1  0.27095225  0.14897663  0.43007496  1
  Na  Na58  1  0.72904775  0.35102337  0.93007496  1
  Na  Na59  1  0.22904775  0.64897663  0.56992504  1
  Mg  Mg60  1  0.55563193  0.51603465  0.73777671  1
  Mg  Mg61  1  0.05563193  0.48396535  0.76222329  1
  Mg  Mg62  1  0.94436807  0.01603465  0.26222329  1
  Mg  Mg63  1  0.44436807  0.98396535  0.23777671  1
  Mg  Mg64  1  0.95269454  0.52340376  0.40141567  1
  Mg  Mg65  1  0.45269454  0.47659624  0.09858433  1
  Mg  Mg66  1  0.54730546  0.02340376  0.59858433  1
  Mg  Mg67  1  0.04730546  0.97659624  0.90141567  1
  Mg  Mg68  1  0.97055012  0.50574461  0.07673120  1
  Mg  Mg69  1  0.47055012  0.49425539  0.42326880  1
  Mg  Mg70  1  0.52944988  0.00574461  0.92326880  1
  Mg  Mg71  1  0.02944988  0.99425539  0.57673120  1
  P  P72  1  0.78777935  0.67936702  0.89867046  1
  P  P73  1  0.28777935  0.32063298  0.60132954  1
  P  P74  1  0.71222065  0.17936702  0.10132954  1
  P  P75  1  0.21222065  0.82063298  0.39867046  1
  P  P76  1  0.72057650  0.68046346  0.23409313  1
  P  P77  1  0.22057650  0.31953654  0.26590687  1
  P  P78  1  0.77942350  0.18046346  0.76590687  1
  P  P79  1  0.27942350  0.81953654  0.73409313  1
  P  P80  1  0.74280177  0.68539512  0.56436674  1
  P  P81  1  0.24280177  0.31460488  0.93563326  1
  P  P82  1  0.75719823  0.18539512  0.43563326  1
  P  P83  1  0.25719823  0.81460488  0.06436674  1
