# generated using pymatgen
data_Al(ICl2)3
_symmetry_space_group_name_H-M   'P 1'
_cell_length_a   7.75043356
_cell_length_b   14.97543152
_cell_length_c   14.49747523
_cell_angle_alpha   106.50347197
_cell_angle_beta   105.50383158
_cell_angle_gamma   90.00000263
_symmetry_Int_Tables_number   1
_chemical_formula_structural   Al(ICl2)3
_chemical_formula_sum   'Al4 I12 Cl24'
_cell_volume   1549.37879829
_cell_formula_units_Z   4
loop_
 _symmetry_equiv_pos_site_id
 _symmetry_equiv_pos_as_xyz
  1  'x, y, z'
loop_
 _atom_site_type_symbol
 _atom_site_label
 _atom_site_symmetry_multiplicity
 _atom_site_fract_x
 _atom_site_fract_y
 _atom_site_fract_z
 _atom_site_occupancy
  Al  Al0  1  0.57715642  0.46091917  0.26183245  1
  Al  Al1  1  0.31532397  0.03908083  0.73816755  1
  Al  Al2  1  0.68467603  0.96091917  0.26183245  1
  Al  Al3  1  0.42284358  0.53908083  0.73816755  1
  I  I4  1  0.76908787  0.10282124  0.06658093  1
  I  I5  1  0.93270730  0.78313046  0.76850019  1
  I  I6  1  0.83579290  0.28313046  0.76850019  1
  I  I7  1  0.16420710  0.71686954  0.23149981  1
  I  I8  1  0.23091213  0.89717876  0.93341907  1
  I  I9  1  0.70250694  0.39717876  0.93341907  1
  I  I10  1  0.06729270  0.21686954  0.23149981  1
  I  I11  1  0.05025779  0.82715935  0.40392646  1
  I  I12  1  0.64633133  0.67284065  0.59607354  1
  I  I13  1  0.29749306  0.60282124  0.06658093  1
  I  I14  1  0.35366867  0.32715935  0.40392646  1
  I  I15  1  0.94974221  0.17284065  0.59607354  1
  Cl  Cl16  1  0.97797890  0.99037429  0.33366723  1
  Cl  Cl17  1  0.40488885  0.91617340  0.78867252  1
  Cl  Cl18  1  0.59511115  0.08382660  0.21132748  1
  Cl  Cl19  1  0.39735574  0.21273261  0.49051790  1
  Cl  Cl20  1  0.64431167  0.50962571  0.66633277  1
  Cl  Cl21  1  0.11890005  0.89433218  0.07017750  1
  Cl  Cl22  1  0.09316216  0.71273261  0.49051790  1
  Cl  Cl23  1  0.38378367  0.41617340  0.78867252  1
  Cl  Cl24  1  0.44688239  0.04553117  0.62889388  1
  Cl  Cl25  1  0.81798851  0.45446883  0.37110612  1
  Cl  Cl26  1  0.88109995  0.10566782  0.92982250  1
  Cl  Cl27  1  0.02202110  0.00962571  0.66633277  1
  Cl  Cl28  1  0.55311761  0.95446883  0.37110612  1
  Cl  Cl29  1  0.95127745  0.39433218  0.07017750  1
  Cl  Cl30  1  0.51177040  0.65966915  0.86253616  1
  Cl  Cl31  1  0.60264426  0.78726739  0.50948210  1
  Cl  Cl32  1  0.35568833  0.49037429  0.33366723  1
  Cl  Cl33  1  0.35076577  0.15966915  0.86253616  1
  Cl  Cl34  1  0.18201149  0.54553117  0.62889388  1
  Cl  Cl35  1  0.90683784  0.28726739  0.50948210  1
  Cl  Cl36  1  0.48822960  0.34033085  0.13746384  1
  Cl  Cl37  1  0.61621633  0.58382660  0.21132748  1
  Cl  Cl38  1  0.04872255  0.60566782  0.92982250  1
  Cl  Cl39  1  0.64923423  0.84033085  0.13746384  1
