# generated using pymatgen
data_TaP2NCl12
_symmetry_space_group_name_H-M   'P 1'
_cell_length_a   8.27879762
_cell_length_b   8.27879748
_cell_length_c   15.84779806
_cell_angle_alpha   78.39908696
_cell_angle_beta   78.39908717
_cell_angle_gamma   65.46513757
_symmetry_Int_Tables_number   1
_chemical_formula_structural   TaP2NCl12
_chemical_formula_sum   'Ta2 P4 N2 Cl24'
_cell_volume   959.46208057
_cell_formula_units_Z   2
loop_
 _symmetry_equiv_pos_site_id
 _symmetry_equiv_pos_as_xyz
  1  'x, y, z'
loop_
 _atom_site_type_symbol
 _atom_site_label
 _atom_site_symmetry_multiplicity
 _atom_site_fract_x
 _atom_site_fract_y
 _atom_site_fract_z
 _atom_site_occupancy
  Ta  Ta0  1  0.00000000  0.00000000  0.50000000  1
  Ta  Ta1  1  0.00000000  0.00000000  0.00000000  1
  P  P2  1  0.54000682  0.68144880  0.72951213  1
  P  P3  1  0.31855120  0.45999318  0.77048787  1
  P  P4  1  0.68144880  0.54000682  0.22951213  1
  P  P5  1  0.45999318  0.31855120  0.27048787  1
  N  N6  1  0.62289842  0.37710158  0.25000000  1
  N  N7  1  0.37710158  0.62289842  0.75000000  1
  Cl  Cl8  1  0.23720016  0.49902145  0.32370108  1
  Cl  Cl9  1  0.73052387  0.59856250  0.33445182  1
  Cl  Cl10  1  0.59856250  0.73052387  0.83445182  1
  Cl  Cl11  1  0.49902145  0.23720016  0.82370108  1
  Cl  Cl12  1  0.89854743  0.78634194  0.47409426  1
  Cl  Cl13  1  0.95301534  0.91327539  0.65201577  1
  Cl  Cl14  1  0.50097855  0.76279984  0.17629892  1
  Cl  Cl15  1  0.91327539  0.95301534  0.15201577  1
  Cl  Cl16  1  0.90539681  0.48642930  0.14824789  1
  Cl  Cl17  1  0.09460319  0.51357070  0.85175211  1
  Cl  Cl18  1  0.08672461  0.04698466  0.84798423  1
  Cl  Cl19  1  0.29765857  0.77855302  0.49208156  1
  Cl  Cl20  1  0.78634194  0.89854743  0.97409426  1
  Cl  Cl21  1  0.04698466  0.08672461  0.34798423  1
  Cl  Cl22  1  0.70234143  0.22144698  0.50791844  1
  Cl  Cl23  1  0.77855302  0.29765857  0.99208156  1
  Cl  Cl24  1  0.48642930  0.90539681  0.64824789  1
  Cl  Cl25  1  0.21365806  0.10145257  0.02590574  1
  Cl  Cl26  1  0.76279984  0.50097855  0.67629892  1
  Cl  Cl27  1  0.51357070  0.09460319  0.35175211  1
  Cl  Cl28  1  0.10145257  0.21365806  0.52590574  1
  Cl  Cl29  1  0.26947613  0.40143750  0.66554818  1
  Cl  Cl30  1  0.40143750  0.26947613  0.16554818  1
  Cl  Cl31  1  0.22144698  0.70234143  0.00791844  1
