# generated using pymatgen
data_KSn4(PO4)3
_symmetry_space_group_name_H-M   'P 1'
_cell_length_a   10.22494989
_cell_length_b   10.22494989
_cell_length_c   10.22494989
_cell_angle_alpha   58.98941690
_cell_angle_beta   58.98941691
_cell_angle_gamma   58.98941690
_symmetry_Int_Tables_number   1
_chemical_formula_structural   KSn4(PO4)3
_chemical_formula_sum   'K2 Sn8 P6 O24'
_cell_volume   738.48119042
_cell_formula_units_Z   2
loop_
 _symmetry_equiv_pos_site_id
 _symmetry_equiv_pos_as_xyz
  1  'x, y, z'
loop_
 _atom_site_type_symbol
 _atom_site_label
 _atom_site_symmetry_multiplicity
 _atom_site_fract_x
 _atom_site_fract_y
 _atom_site_fract_z
 _atom_site_occupancy
  O  O0  1  0.18651878  0.89122850  0.71172315  1
  O  O1  1  0.91321631  0.57130907  0.75215999  1
  O  O2  1  0.63616062  0.12410625  0.18880782  1
  O  O3  1  0.12410625  0.18880782  0.63616062  1
  O  O4  1  0.18880782  0.63616062  0.12410625  1
  O  O5  1  0.68880782  0.62410625  0.13616062  1
  O  O6  1  0.62410625  0.13616062  0.68880782  1
  O  O7  1  0.13616062  0.68880782  0.62410625  1
  O  O8  1  0.57130907  0.75215999  0.91321631  1
  O  O9  1  0.07130907  0.41321631  0.25215999  1
  O  O10  1  0.41321631  0.25215999  0.07130907  1
  O  O11  1  0.25215999  0.07130907  0.41321631  1
  O  O12  1  0.68651878  0.21172315  0.39122850  1
  O  O13  1  0.21172315  0.39122850  0.68651878  1
  O  O14  1  0.10091253  0.59560749  0.95947276  1
  O  O15  1  0.39122850  0.68651878  0.21172315  1
  O  O16  1  0.59560749  0.95947276  0.10091253  1
  O  O17  1  0.09560749  0.60091253  0.45947276  1
  O  O18  1  0.45947276  0.09560749  0.60091253  1
  O  O19  1  0.60091253  0.45947276  0.09560749  1
  O  O20  1  0.95947276  0.10091253  0.59560749  1
  O  O21  1  0.71172315  0.18651878  0.89122850  1
  O  O22  1  0.89122850  0.71172315  0.18651878  1
  O  O23  1  0.75215999  0.91321631  0.57130907  1
  P  P24  1  0.56226081  0.63080184  0.08900804  1
  P  P25  1  0.63080184  0.08900804  0.56226081  1
  P  P26  1  0.08900804  0.56226081  0.63080184  1
  P  P27  1  0.06226081  0.58900804  0.13080184  1
  P  P28  1  0.58900804  0.13080184  0.06226081  1
  P  P29  1  0.13080184  0.06226081  0.58900804  1
  K  K30  1  0.34261339  0.34261339  0.34261339  1
  K  K31  1  0.84261339  0.84261339  0.84261339  1
  Sn  Sn32  1  0.79449754  0.23376004  0.14061120  1
  Sn  Sn33  1  0.23376004  0.14061120  0.79449754  1
  Sn  Sn34  1  0.14061120  0.79449754  0.23376004  1
  Sn  Sn35  1  0.64061120  0.73376004  0.29449754  1
  Sn  Sn36  1  0.73376004  0.29449754  0.64061120  1
  Sn  Sn37  1  0.29449754  0.64061120  0.73376004  1
  Sn  Sn38  1  0.69469053  0.69469053  0.69469053  1
  Sn  Sn39  1  0.19469053  0.19469053  0.19469053  1
