# generated using pymatgen
data_KNbCl6
_symmetry_space_group_name_H-M   'P 1'
_cell_length_a   7.36500895
_cell_length_b   14.67210544
_cell_length_c   12.71817538
_cell_angle_alpha   30.01440438
_cell_angle_beta   54.46236351
_cell_angle_gamma   59.76515908
_symmetry_Int_Tables_number   1
_chemical_formula_structural   KNbCl6
_chemical_formula_sum   'K2 Nb2 Cl12'
_cell_volume   559.41216785
_cell_formula_units_Z   2
loop_
 _symmetry_equiv_pos_site_id
 _symmetry_equiv_pos_as_xyz
  1  'x, y, z'
loop_
 _atom_site_type_symbol
 _atom_site_label
 _atom_site_symmetry_multiplicity
 _atom_site_fract_x
 _atom_site_fract_y
 _atom_site_fract_z
 _atom_site_occupancy
  K  K0  1  0.28315411  0.99285744  0.28816145  1
  K  K1  1  0.15399805  0.50410765  0.27524880  1
  Nb  Nb2  1  0.00664513  0.00104025  0.00380382  1
  Nb  Nb3  1  0.98494694  0.49678450  0.00736415  1
  Cl  Cl4  1  0.22307559  0.26971177  0.23266173  1
  Cl  Cl5  1  0.76564969  0.00037257  0.23542491  1
  Cl  Cl6  1  0.23086532  0.23062285  0.77419931  1
  Cl  Cl7  1  0.22804626  0.76782274  0.23683081  1
  Cl  Cl8  1  0.76576647  0.26429986  0.23706881  1
  Cl  Cl9  1  0.22532759  0.50095425  0.77350822  1
  Cl  Cl10  1  0.76082065  0.49370163  0.24117748  1
  Cl  Cl11  1  0.21886230  0.72430881  0.78326615  1
  Cl  Cl12  1  0.77007711  0.22803909  0.77687535  1
  Cl  Cl13  1  0.76935849  0.77412859  0.23032449  1
  Cl  Cl14  1  0.23050489  0.99973050  0.77521753  1
  Cl  Cl15  1  0.76136541  0.72765951  0.77656298  1
