# generated using pymatgen
data_Ta6Te3S
_symmetry_space_group_name_H-M   'P 1'
_cell_length_a   10.20485864
_cell_length_b   10.38834901
_cell_length_c   13.89199596
_cell_angle_alpha   79.41306528
_cell_angle_beta   81.36257722
_cell_angle_gamma   86.16701265
_symmetry_Int_Tables_number   1
_chemical_formula_structural   Ta6Te3S
_chemical_formula_sum   'Ta36 Te18 S6'
_cell_volume   1430.05701182
_cell_formula_units_Z   6
loop_
 _symmetry_equiv_pos_site_id
 _symmetry_equiv_pos_as_xyz
  1  'x, y, z'
loop_
 _atom_site_type_symbol
 _atom_site_label
 _atom_site_symmetry_multiplicity
 _atom_site_fract_x
 _atom_site_fract_y
 _atom_site_fract_z
 _atom_site_occupancy
  Ta  Ta0  1  0.23780597  0.44302907  0.46672900  1
  Ta  Ta1  1  0.35326432  0.25208736  0.03583671  1
  Ta  Ta2  1  0.26313400  0.47508989  0.66292121  1
  Ta  Ta3  1  0.28883243  0.71980705  0.47506918  1
  Ta  Ta4  1  0.36545236  0.14411907  0.24920434  1
  Ta  Ta5  1  0.36884725  0.43359054  0.19163178  1
  Ta  Ta6  1  0.38248570  0.00070147  0.46242965  1
  Ta  Ta7  1  0.33544584  0.21469612  0.79260371  1
  Ta  Ta8  1  0.43102594  0.74012380  0.10735288  1
  Ta  Ta9  1  0.39642288  0.86979791  0.27922939  1
  Ta  Ta10  1  0.35625435  0.46519342  0.85412726  1
  Ta  Ta11  1  0.42851240  0.23406828  0.56847370  1
  Ta  Ta12  1  0.50000000  0.50000000  0.00000000  1
  Ta  Ta13  1  0.38497993  0.97992961  0.69154080  1
  Ta  Ta14  1  0.47148779  0.59778810  0.31164505  1
  Ta  Ta15  1  0.55016966  0.00948687  0.09219288  1
  Ta  Ta16  1  0.40101077  0.74233754  0.86379907  1
  Ta  Ta17  1  0.44225532  0.70733351  0.64577524  1
  Ta  Ta18  1  0.50000000  0.50000000  0.50000000  1
  Ta  Ta19  1  0.55774468  0.29266649  0.35422476  1
  Ta  Ta20  1  0.59898923  0.25766246  0.13620093  1
  Ta  Ta21  1  0.44983034  0.99051313  0.90780712  1
  Ta  Ta22  1  0.52851221  0.40221190  0.68835495  1
  Ta  Ta23  1  0.61502007  0.02007039  0.30845920  1
  Ta  Ta24  1  0.57148760  0.76593172  0.43152630  1
  Ta  Ta25  1  0.64374565  0.53480658  0.14587274  1
  Ta  Ta26  1  0.60357712  0.13020209  0.72077061  1
  Ta  Ta27  1  0.56897406  0.25987620  0.89264712  1
  Ta  Ta28  1  0.66455416  0.78530388  0.20739629  1
  Ta  Ta29  1  0.61751430  0.99929853  0.53757035  1
  Ta  Ta30  1  0.63115275  0.56640946  0.80836822  1
  Ta  Ta31  1  0.63454764  0.85588093  0.75079566  1
  Ta  Ta32  1  0.71116757  0.28019295  0.52493082  1
  Ta  Ta33  1  0.73686600  0.52491011  0.33707879  1
  Ta  Ta34  1  0.64673568  0.74791264  0.96416329  1
  Ta  Ta35  1  0.76219403  0.55697093  0.53327100  1
  Te  Te36  1  0.04320903  0.61223258  0.57362593  1
  Te  Te37  1  0.14014020  0.29467351  0.19040780  1
  Te  Te38  1  0.15301572  0.23866276  0.64414243  1
  Te  Te39  1  0.15332875  0.96808377  0.37412379  1
  Te  Te40  1  0.23618621  0.61441386  0.03182680  1
  Te  Te41  1  0.13220417  0.31290985  0.92574066  1
  Te  Te42  1  0.20262527  0.64042135  0.28925974  1
  Te  Te43  1  0.27107110  0.98265506  0.09405357  1
  Te  Te44  1  0.19322048  0.95986963  0.85838038  1
  Te  Te45  1  0.80677952  0.04013037  0.14161962  1
  Te  Te46  1  0.72892890  0.01734494  0.90594643  1
  Te  Te47  1  0.79737473  0.35957865  0.71074026  1
  Te  Te48  1  0.86779583  0.68709015  0.07425934  1
  Te  Te49  1  0.76381379  0.38558614  0.96817320  1
  Te  Te50  1  0.84667125  0.03191623  0.62587621  1
  Te  Te51  1  0.84698428  0.76133724  0.35585757  1
  Te  Te52  1  0.85985980  0.70532649  0.80959220  1
  Te  Te53  1  0.95679097  0.38776742  0.42637407  1
  S  S54  1  0.23347642  0.64996168  0.76916519  1
  S  S55  1  0.32065917  0.23893781  0.40580235  1
  S  S56  1  0.24852892  0.86648059  0.60353893  1
  S  S57  1  0.75147108  0.13351941  0.39646107  1
  S  S58  1  0.67934083  0.76106219  0.59419765  1
  S  S59  1  0.76652358  0.35003832  0.23083481  1
