# generated using pymatgen
data_Ca(Ga3Te5)2
_symmetry_space_group_name_H-M   'P 1'
_cell_length_a   10.47056056
_cell_length_b   10.42566570
_cell_length_c   10.47018696
_cell_angle_alpha   90.04620682
_cell_angle_beta   89.17878488
_cell_angle_gamma   90.05566797
_symmetry_Int_Tables_number   1
_chemical_formula_structural   Ca(Ga3Te5)2
_chemical_formula_sum   'Ca2 Ga12 Te20'
_cell_volume   1142.83415999
_cell_formula_units_Z   2
loop_
 _symmetry_equiv_pos_site_id
 _symmetry_equiv_pos_as_xyz
  1  'x, y, z'
loop_
 _atom_site_type_symbol
 _atom_site_label
 _atom_site_symmetry_multiplicity
 _atom_site_fract_x
 _atom_site_fract_y
 _atom_site_fract_z
 _atom_site_occupancy
  Ca  Ca0  1  0.00371475  0.99966877  0.00335063  1
  Ca  Ca1  1  0.74167968  0.51001464  0.74161476  1
  Ga  Ga2  1  0.09135841  0.42408452  0.74708599  1
  Ga  Ga3  1  0.17582470  0.41556233  0.12834292  1
  Ga  Ga4  1  0.31597244  0.13192820  0.84088545  1
  Ga  Ga5  1  0.40408854  0.50821978  0.83154096  1
  Ga  Ga6  1  0.49044385  0.59187545  0.16983778  1
  Ga  Ga7  1  0.57493645  0.91821383  0.25421419  1
  Ga  Ga8  1  0.58173645  0.82889226  0.87407693  1
  Ga  Ga9  1  0.61649779  0.09452862  0.56899077  1
  Ga  Ga10  1  0.87063277  0.68153120  0.16342775  1
  Ga  Ga11  1  0.90390030  0.37834952  0.42880920  1
  Ga  Ga12  1  0.91331092  0.00201044  0.34087202  1
  Ga  Ga13  1  0.99790015  0.08640251  0.65356429  1
  Te  Te14  1  0.06411146  0.82056664  0.24736176  1
  Te  Te15  1  0.07436772  0.18612335  0.42825698  1
  Te  Te16  1  0.17595022  0.58203931  0.93112234  1
  Te  Te17  1  0.17585009  0.93878669  0.75186565  1
  Te  Te18  1  0.24543082  0.17253193  0.08199327  1
  Te  Te19  1  0.30691942  0.50813745  0.31690643  1
  Te  Te20  1  0.31650122  0.32431517  0.67042767  1
  Te  Te21  1  0.41935268  0.82403109  0.07122942  1
  Te  Te22  1  0.42801318  0.00167873  0.43784766  1
  Te  Te23  1  0.49784275  0.68963794  0.68076044  1
  Te  Te24  1  0.57211700  0.08422937  0.82644084  1
  Te  Te25  1  0.57212835  0.42362972  0.99559851  1
  Te  Te26  1  0.66280363  0.33764666  0.49947877  1
  Te  Te27  1  0.67328633  0.68615442  0.32556724  1
  Te  Te28  1  0.74937856  0.08635336  0.17251468  1
  Te  Te29  1  0.81376774  0.92842375  0.56913151  1
  Te  Te30  1  0.82535275  0.75513311  0.91963106  1
  Te  Te31  1  0.91660971  0.25514571  0.82886467  1
  Te  Te32  1  0.91827752  0.42620861  0.17267999  1
  Te  Te33  1  0.99274163  0.57154490  0.56920750  1
