# generated using pymatgen
data_Zr2N2O
_symmetry_space_group_name_H-M   'P 1'
_cell_length_a   8.87551201
_cell_length_b   8.87104316
_cell_length_c   8.86285287
_cell_angle_alpha   109.42313820
_cell_angle_beta   109.41800929
_cell_angle_gamma   109.41624157
_symmetry_Int_Tables_number   1
_chemical_formula_structural   Zr2N2O
_chemical_formula_sum   'Zr16 N16 O8'
_cell_volume   538.21342375
_cell_formula_units_Z   8
loop_
 _symmetry_equiv_pos_site_id
 _symmetry_equiv_pos_as_xyz
  1  'x, y, z'
loop_
 _atom_site_type_symbol
 _atom_site_label
 _atom_site_symmetry_multiplicity
 _atom_site_fract_x
 _atom_site_fract_y
 _atom_site_fract_z
 _atom_site_occupancy
  Zr  Zr0  1  0.21667974  0.75640619  0.96994376  1
  Zr  Zr1  1  0.98631139  0.48838421  0.48173679  1
  Zr  Zr2  1  0.03218504  0.78261829  0.25149814  1
  Zr  Zr3  1  0.46310017  0.70491680  0.74905421  1
  Zr  Zr4  1  0.24485486  0.52495951  0.28331535  1
  Zr  Zr5  1  0.24478931  0.03326254  0.78004608  1
  Zr  Zr6  1  0.00903207  0.99709928  0.99282407  1
  Zr  Zr7  1  0.29175102  0.25399042  0.53543223  1
  Zr  Zr8  1  0.71522014  0.74678007  0.46113214  1
  Zr  Zr9  1  0.50667493  0.01583495  0.50883541  1
  Zr  Zr10  1  0.50818208  0.51548598  0.01250084  1
  Zr  Zr11  1  0.74360753  0.96386055  0.21882801  1
  Zr  Zr12  1  0.74915024  0.46966440  0.71800060  1
  Zr  Zr13  1  0.53689711  0.28894162  0.25569174  1
  Zr  Zr14  1  0.95834271  0.20932019  0.74859231  1
  Zr  Zr15  1  0.79417218  0.25508842  0.03616758  1
  N  N16  1  0.25861408  0.98598178  0.53271799  1
  N  N17  1  0.22824001  0.45621092  0.48926959  1
  N  N18  1  0.04194755  0.26905116  0.03415241  1
  N  N19  1  0.54202098  0.51035647  0.77159159  1
  N  N20  1  0.45601635  0.49006353  0.22787920  1
  N  N21  1  0.46585379  0.74006166  0.01112360  1
  N  N22  1  0.27309241  0.03074146  0.04258516  1
  N  N23  1  0.48372077  0.22410630  0.45130505  1
  N  N24  1  0.72646791  0.23940834  0.77201540  1
  N  N25  1  0.95948828  0.72868574  0.97131275  1
  N  N26  1  0.97034500  0.95775389  0.72878088  1
  N  N27  1  0.77806889  0.54722366  0.51704934  1
  N  N28  1  0.77248759  0.72711654  0.23722971  1
  N  N29  1  0.73658697  0.01046763  0.46667535  1
  N  N30  1  0.76061497  0.22777753  0.26708720  1
  N  N31  1  0.98858210  0.53432854  0.26016225  1
  O  O32  1  0.02023356  0.46670243  0.74157018  1
  O  O33  1  0.23757811  0.77170083  0.73022025  1
  O  O34  1  0.22779776  0.27308170  0.76329924  1
  O  O35  1  0.02890086  0.04820457  0.27197456  1
  O  O36  1  0.27673379  0.75876888  0.22792173  1
  O  O37  1  0.51173866  0.77517671  0.54924130  1
  O  O38  1  0.72532870  0.96148600  0.94892999  1
  O  O39  1  0.52859038  0.25893029  0.98230603  1
