# generated using pymatgen
data_Li7Mn2(CoO4)3
_symmetry_space_group_name_H-M   'P 1'
_cell_length_a   2.91956469
_cell_length_b   6.54734064
_cell_length_c   11.95548444
_cell_angle_alpha   75.85593171
_cell_angle_beta   90.00000000
_cell_angle_gamma   102.88282828
_symmetry_Int_Tables_number   1
_chemical_formula_structural   Li7Mn2(CoO4)3
_chemical_formula_sum   'Li7 Mn2 Co3 O12'
_cell_volume   215.66818106
_cell_formula_units_Z   1
loop_
 _symmetry_equiv_pos_site_id
 _symmetry_equiv_pos_as_xyz
  1  'x, y, z'
loop_
 _atom_site_type_symbol
 _atom_site_label
 _atom_site_symmetry_multiplicity
 _atom_site_fract_x
 _atom_site_fract_y
 _atom_site_fract_z
 _atom_site_occupancy
  Li  Li0  1  0.33248721  0.66497542  0.41236103  1
  Li  Li1  1  0.66903436  0.33806771  0.57711658  1
  Li  Li2  1  0.99852207  0.99704415  0.75587804  1
  Li  Li3  1  0.33201488  0.66403075  0.92549758  1
  Li  Li4  1  0.67227649  0.34455198  0.08892467  1
  Li  Li5  1  0.99454578  0.98909156  0.24471844  1
  Li  Li6  1  0.33137934  0.66275969  0.16318114  1
  Mn  Mn7  1  0.99329249  0.98658498  0.00277847  1
  Mn  Mn8  1  -0.00012559  -0.00025118  0.49912052  1
  Co  Co9  1  0.68260132  0.36520163  0.32187299  1
  Co  Co10  1  0.32744846  0.65489792  0.67066993  1
  Co  Co11  1  0.67159471  0.34318841  0.83520106  1
  O  O12  1  0.49610155  0.99220210  0.61220804  1
  O  O13  1  0.83516939  0.67033879  0.78375413  1
  O  O14  1  0.16036057  0.32072214  0.95087304  1
  O  O15  1  0.50071637  0.00143175  0.10699965  1
  O  O16  1  0.82686497  0.65372994  0.29693928  1
  O  O17  1  0.15389141  0.30778382  0.45629945  1
  O  O18  1  0.16057050  0.32114100  0.21957221  1
  O  O19  1  0.50029780  0.00059659  0.39262033  1
  O  O20  1  0.84115953  0.68231805  0.54796064  1
  O  O21  1  0.17054272  0.34108544  0.71216909  1
  O  O22  1  0.50379708  0.00759515  0.88636546  1
  O  O23  1  0.84545660  0.69091219  0.03691825  1
