# generated using pymatgen
data_Li3InCl6
_symmetry_space_group_name_H-M   'P 1'
_cell_length_a   38.39183185
_cell_length_b   6.55511540
_cell_length_c   6.55511491
_cell_angle_alpha   119.68782990
_cell_angle_beta   100.27495884
_cell_angle_gamma   100.27496100
_symmetry_Int_Tables_number   1
_chemical_formula_structural   Li3InCl6
_chemical_formula_sum   'Li18 In6 Cl36'
_cell_volume   1339.75307820
_cell_formula_units_Z   6
loop_
 _symmetry_equiv_pos_site_id
 _symmetry_equiv_pos_as_xyz
  1  'x, y, z'
loop_
 _atom_site_type_symbol
 _atom_site_label
 _atom_site_symmetry_multiplicity
 _atom_site_fract_x
 _atom_site_fract_y
 _atom_site_fract_z
 _atom_site_occupancy
  Li  Li0  1  0.08351462  0.83252832  0.16645964  1
  Li  Li1  1  0.08363157  0.14883477  0.82482973  1
  Li  Li2  1  0.08311203  0.52276883  0.51203929  1
  Li  Li3  1  0.24999094  0.15676712  0.84404952  1
  Li  Li4  1  0.24996947  0.84171244  0.15613670  1
  Li  Li5  1  0.24995039  0.50186665  0.50135361  1
  Li  Li6  1  0.41666340  0.15742800  0.84257045  1
  Li  Li7  1  0.41666124  0.84254318  0.15745919  1
  Li  Li8  1  0.41666387  0.49997315  0.49996458  1
  Li  Li9  1  0.58333660  0.15742955  0.84257200  1
  Li  Li10  1  0.58333876  0.84254081  0.15745682  1
  Li  Li11  1  0.58333613  0.50003542  0.50002685  1
  Li  Li12  1  0.75000906  0.15595048  0.84323288  1
  Li  Li13  1  0.75004961  0.49864639  0.49813335  1
  Li  Li14  1  0.75003053  0.84386330  0.15828756  1
  Li  Li15  1  0.91688797  0.48796071  0.47723117  1
  Li  Li16  1  0.91636843  0.17517027  0.85116523  1
  Li  Li17  1  0.91648538  0.83354036  0.16747168  1
  In  In18  1  0.00000000  0.66880585  0.33119415  1
  In  In19  1  0.16669293  0.00146007  0.00296864  1
  In  In20  1  0.33332666  0.99983302  0.99989326  1
  In  In21  1  0.50000000  0.99993412  0.00006588  1
  In  In22  1  0.66667334  0.00010674  0.00016698  1
  In  In23  1  0.83330707  0.99703136  0.99853993  1
  Cl  Cl24  1  0.04113421  0.75103404  0.72808805  1
  Cl  Cl25  1  0.04453535  0.45131926  0.11663468  1
  Cl  Cl26  1  0.04436956  0.06333103  0.42202231  1
  Cl  Cl27  1  0.12178116  0.60330467  0.91164260  1
  Cl  Cl28  1  0.12562660  0.92156500  0.60749780  1
  Cl  Cl29  1  0.12277187  0.21756997  0.21792423  1
  Cl  Cl30  1  0.20751462  0.77021153  0.77291526  1
  Cl  Cl31  1  0.21113113  0.08774582  0.39592829  1
  Cl  Cl32  1  0.21171538  0.39793787  0.09104139  1
  Cl  Cl33  1  0.28838384  0.91393182  0.60438258  1
  Cl  Cl34  1  0.28841622  0.60355179  0.91284037  1
  Cl  Cl35  1  0.29298647  0.22944931  0.22985881  1
  Cl  Cl36  1  0.37364625  0.77084977  0.77081518  1
  Cl  Cl37  1  0.37828421  0.08678773  0.39547099  1
  Cl  Cl38  1  0.37828706  0.39545070  0.08685773  1
  Cl  Cl39  1  0.45501624  0.60431602  0.91313775  1
  Cl  Cl40  1  0.45502608  0.91313038  0.60443478  1
  Cl  Cl41  1  0.45964996  0.22923485  0.22925964  1
  Cl  Cl42  1  0.54035004  0.77074036  0.77076515  1
  Cl  Cl43  1  0.54498376  0.08686225  0.39568398  1
  Cl  Cl44  1  0.54497392  0.39556522  0.08686962  1
  Cl  Cl45  1  0.62171579  0.60452901  0.91321227  1
  Cl  Cl46  1  0.62171294  0.91314227  0.60454930  1
  Cl  Cl47  1  0.62635375  0.22918482  0.22915023  1
  Cl  Cl48  1  0.70701353  0.77014119  0.77055069  1
  Cl  Cl49  1  0.71158378  0.08715963  0.39644821  1
  Cl  Cl50  1  0.71161616  0.39561742  0.08606818  1
  Cl  Cl51  1  0.78886887  0.60407171  0.91225418  1
  Cl  Cl52  1  0.78828462  0.90895861  0.60206213  1
  Cl  Cl53  1  0.79248538  0.22708474  0.22978847  1
  Cl  Cl54  1  0.87722813  0.78207577  0.78243003  1
  Cl  Cl55  1  0.87821884  0.08835740  0.39669533  1
  Cl  Cl56  1  0.87437340  0.39250220  0.07843500  1
  Cl  Cl57  1  0.95546465  0.88336532  0.54868074  1
  Cl  Cl58  1  0.95563044  0.57797769  0.93666897  1
  Cl  Cl59  1  0.95886579  0.27191195  0.24896596  1
