# generated using pymatgen
data_Yb6U3O17
_symmetry_space_group_name_H-M   'P 1'
_cell_length_a   11.11634619
_cell_length_b   13.54320127
_cell_length_c   12.33991055
_cell_angle_alpha   29.03528228
_cell_angle_beta   25.73064589
_cell_angle_gamma   46.79549707
_symmetry_Int_Tables_number   1
_chemical_formula_structural   Yb6U3O17
_chemical_formula_sum   'Yb6 U3 O17'
_cell_volume   341.47229557
_cell_formula_units_Z   1
loop_
 _symmetry_equiv_pos_site_id
 _symmetry_equiv_pos_as_xyz
  1  'x, y, z'
loop_
 _atom_site_type_symbol
 _atom_site_label
 _atom_site_symmetry_multiplicity
 _atom_site_fract_x
 _atom_site_fract_y
 _atom_site_fract_z
 _atom_site_occupancy
  Yb  Yb0  1  0.00792205  0.99212485  0.99880443  1
  Yb  Yb1  1  0.27387220  0.97436117  0.08612032  1
  Yb  Yb2  1  0.24985484  0.34097027  0.97469350  1
  Yb  Yb3  1  0.12920555  0.67454215  0.97517897  1
  Yb  Yb4  1  0.88895733  0.32569573  0.99760533  1
  Yb  Yb5  1  0.74191466  0.69230583  0.00920382  1
  U  U6  1  0.67543719  0.00904250  0.98249308  1
  U  U7  1  0.56846312  0.33333300  0.98709288  1
  U  U8  1  0.44356015  0.65762450  0.00962058  1
  O  O9  1  0.25041980  0.99421078  0.27213329  1
  O  O10  1  0.18851860  0.34828720  0.20261735  1
  O  O11  1  0.59223810  0.00323587  0.22624952  1
  O  O12  1  0.10312114  0.01463049  0.70726025  1
  O  O13  1  0.05666626  0.66343113  0.23595713  1
  O  O14  1  0.47249511  0.31837880  0.24747994  1
  O  O15  1  0.86251079  0.96726135  0.32720403  1
  O  O16  1  0.43938894  0.98762695  0.75769901  1
  O  O17  1  0.33379230  0.67245622  0.25476562  1
  O  O18  1  0.30542928  0.33333300  0.75012672  1
  O  O19  1  0.74551489  0.03855273  0.73133646  1
  O  O20  1  0.69240812  0.69940565  0.22898806  1
  O  O21  1  0.19344319  0.67904005  0.72057986  1
  O  O22  1  0.66638573  0.33497006  0.73186615  1
  O  O23  1  0.54957789  0.65203651  0.75115172  1
  O  O24  1  0.97608180  0.33169594  0.73677732  1
  O  O25  1  0.78726499  0.62811427  0.84699466  1
