# generated using pymatgen
data_K6InP3
_symmetry_space_group_name_H-M   'P 1'
_cell_length_a   8.88982397
_cell_length_b   9.10820397
_cell_length_c   10.09301168
_cell_angle_alpha   80.86043350
_cell_angle_beta   72.87211612
_cell_angle_gamma   59.56166450
_symmetry_Int_Tables_number   1
_chemical_formula_structural   K6InP3
_chemical_formula_sum   'K12 In2 P6'
_cell_volume   673.30386135
_cell_formula_units_Z   2
loop_
 _symmetry_equiv_pos_site_id
 _symmetry_equiv_pos_as_xyz
  1  'x, y, z'
loop_
 _atom_site_type_symbol
 _atom_site_label
 _atom_site_symmetry_multiplicity
 _atom_site_fract_x
 _atom_site_fract_y
 _atom_site_fract_z
 _atom_site_occupancy
  K  K0  1  0.14519411  0.48898943  0.13818285  1
  K  K1  1  0.26281120  0.14551663  0.60816874  1
  K  K2  1  0.24340935  0.12435015  0.99390030  1
  K  K3  1  0.02136782  0.80994373  0.61106786  1
  K  K4  1  0.38238288  0.45008504  0.39605581  1
  K  K5  1  0.73224942  0.22743570  0.10567568  1
  K  K6  1  0.26775058  0.77256430  0.89432432  1
  K  K7  1  0.61761712  0.54991496  0.60394419  1
  K  K8  1  0.97863218  0.19005627  0.38893214  1
  K  K9  1  0.75659065  0.87564985  0.00609970  1
  K  K10  1  0.73718880  0.85448337  0.39183126  1
  K  K11  1  0.85480589  0.51101057  0.86181715  1
  In  In12  1  0.58427290  0.17761813  0.74981610  1
  In  In13  1  0.41572710  0.82238187  0.25018390  1
  P  P14  1  0.40188236  0.11265516  0.25782604  1
  P  P15  1  0.12935667  0.83014514  0.23770096  1
  P  P16  1  0.28173670  0.44966679  0.75819531  1
  P  P17  1  0.71826330  0.55033321  0.24180469  1
  P  P18  1  0.87064333  0.16985486  0.76229904  1
  P  P19  1  0.59811764  0.88734484  0.74217396  1
