# generated using pymatgen
data_Er2Fe3Si5
_symmetry_space_group_name_H-M   'P 1'
_cell_length_a   5.42064165
_cell_length_b   10.32804963
_cell_length_c   10.32804963
_cell_angle_alpha   90.00000000
_cell_angle_beta   90.00000000
_cell_angle_gamma   90.00000000
_symmetry_Int_Tables_number   1
_chemical_formula_structural   Er2Fe3Si5
_chemical_formula_sum   'Er8 Fe12 Si20'
_cell_volume   578.21230556
_cell_formula_units_Z   4
loop_
 _symmetry_equiv_pos_site_id
 _symmetry_equiv_pos_as_xyz
  1  'x, y, z'
loop_
 _atom_site_type_symbol
 _atom_site_label
 _atom_site_symmetry_multiplicity
 _atom_site_fract_x
 _atom_site_fract_y
 _atom_site_fract_z
 _atom_site_occupancy
  Er  Er0  1  0.00000000  0.76330436  0.07114295  1
  Er  Er1  1  0.00000000  0.92885705  0.76330436  1
  Er  Er2  1  0.50000000  0.42885705  0.73669564  1
  Er  Er3  1  0.00000000  0.07114295  0.23669564  1
  Er  Er4  1  0.50000000  0.57114295  0.26330436  1
  Er  Er5  1  0.50000000  0.26330436  0.42885705  1
  Er  Er6  1  0.50000000  0.73669564  0.57114295  1
  Er  Er7  1  0.00000000  0.23669564  0.92885705  1
  Fe  Fe8  1  0.00000000  0.35432344  0.62182709  1
  Fe  Fe9  1  0.00000000  0.62182709  0.64567656  1
  Fe  Fe10  1  0.50000000  0.12182709  0.85432344  1
  Fe  Fe11  1  0.00000000  0.64567656  0.37817291  1
  Fe  Fe12  1  0.50000000  0.87817291  0.14567656  1
  Fe  Fe13  1  0.00000000  0.37817291  0.35432344  1
  Fe  Fe14  1  0.50000000  0.85432344  0.87817291  1
  Fe  Fe15  1  0.75000000  0.50000000  0.00000000  1
  Fe  Fe16  1  0.50000000  0.14567656  0.12182709  1
  Fe  Fe17  1  0.25000000  0.00000000  0.50000000  1
  Fe  Fe18  1  0.75000000  0.00000000  0.50000000  1
  Fe  Fe19  1  0.25000000  0.50000000  0.00000000  1
  Si  Si20  1  0.73716334  0.00000000  0.00000000  1
  Si  Si21  1  0.75000000  0.82394420  0.32394420  1
  Si  Si22  1  0.00000000  0.18064660  0.47621242  1
  Si  Si23  1  0.75000000  0.32394420  0.17605580  1
  Si  Si24  1  0.23716334  0.50000000  0.50000000  1
  Si  Si25  1  0.50000000  0.97621242  0.68064660  1
  Si  Si26  1  0.26283666  0.00000000  0.00000000  1
  Si  Si27  1  0.00000000  0.52378758  0.18064660  1
  Si  Si28  1  0.25000000  0.32394420  0.17605580  1
  Si  Si29  1  0.76283666  0.50000000  0.50000000  1
  Si  Si30  1  0.50000000  0.02378758  0.31935340  1
  Si  Si31  1  0.25000000  0.82394420  0.32394420  1
  Si  Si32  1  0.25000000  0.67605580  0.82394420  1
  Si  Si33  1  0.75000000  0.67605580  0.82394420  1
  Si  Si34  1  0.50000000  0.31935340  0.97621242  1
  Si  Si35  1  0.00000000  0.47621242  0.81935340  1
  Si  Si36  1  0.50000000  0.68064660  0.02378758  1
  Si  Si37  1  0.25000000  0.17605580  0.67605580  1
  Si  Si38  1  0.75000000  0.17605580  0.67605580  1
  Si  Si39  1  0.00000000  0.81935340  0.52378758  1
