# generated using pymatgen
data_Li7Mn4CoO12
_symmetry_space_group_name_H-M   'P 1'
_cell_length_a   2.97342665
_cell_length_b   14.61273765
_cell_length_c   5.11350829
_cell_angle_alpha   91.47154288
_cell_angle_beta   87.95853871
_cell_angle_gamma   91.96820486
_symmetry_Int_Tables_number   1
_chemical_formula_structural   Li7Mn4CoO12
_chemical_formula_sum   'Li7 Mn4 Co1 O12'
_cell_volume   221.84289126
_cell_formula_units_Z   1
loop_
 _symmetry_equiv_pos_site_id
 _symmetry_equiv_pos_as_xyz
  1  'x, y, z'
loop_
 _atom_site_type_symbol
 _atom_site_label
 _atom_site_symmetry_multiplicity
 _atom_site_fract_x
 _atom_site_fract_y
 _atom_site_fract_z
 _atom_site_occupancy
  Li  Li0  1  -0.00020054  0.16533512  0.66554666  1
  Li  Li1  1  0.49263983  0.50844004  0.49713668  1
  Li  Li2  1  0.99595141  0.81922860  0.31525637  1
  Li  Li3  1  0.49554636  0.16766657  0.16455202  1
  Li  Li4  1  0.99178500  0.51680953  0.01627851  1
  Li  Li5  1  0.50987849  0.82350405  0.83640642  1
  Li  Li6  1  0.49950029  0.66655286  0.16695934  1
  Mn  Mn7  1  0.00527019  -0.00019006  0.00081257  1
  Mn  Mn8  1  0.00106656  0.66548989  0.66717573  1
  Mn  Mn9  1  0.49617827  0.33452470  0.83361246  1
  Mn  Mn10  1  0.50520236  0.99955768  0.50055715  1
  Co  Co11  1  0.99757073  0.33488902  0.33302514  1
  O  O12  1  0.46274917  0.07834798  0.82045659  1
  O  O13  1  0.97469736  0.40857847  0.67591771  1
  O  O14  1  0.51969319  0.73778343  0.52009319  1
  O  O15  1  0.96551777  0.07809914  0.32190922  1
  O  O16  1  0.52827528  0.40643656  0.17232110  1
  O  O17  1  0.99767739  0.74369735  0.97262882  1
  O  O18  1  0.47219982  0.25959805  0.49495714  1
  O  O19  1  0.00724638  0.58696351  0.36143736  1
  O  O20  1  0.54102904  0.92324828  0.17904155  1
  O  O21  1  0.02138593  0.25680018  -0.00674033  1
  O  O22  1  0.48456216  0.59302194  0.81449456  1
  O  O23  1  0.03457756  0.92561712  0.67616406  1
