# generated using pymatgen
data_Cs4Th2P5Se17
_symmetry_space_group_name_H-M   'P 1'
_cell_length_a   10.41140913
_cell_length_b   11.05217164
_cell_length_c   33.28272106
_cell_angle_alpha   90.00000000
_cell_angle_beta   90.00000000
_cell_angle_gamma   95.89740236
_symmetry_Int_Tables_number   1
_chemical_formula_structural   Cs4Th2P5Se17
_chemical_formula_sum   'Cs16 Th8 P20 Se68'
_cell_volume   3809.52950369
_cell_formula_units_Z   4
loop_
 _symmetry_equiv_pos_site_id
 _symmetry_equiv_pos_as_xyz
  1  'x, y, z'
loop_
 _atom_site_type_symbol
 _atom_site_label
 _atom_site_symmetry_multiplicity
 _atom_site_fract_x
 _atom_site_fract_y
 _atom_site_fract_z
 _atom_site_occupancy
  Cs  Cs0  1  0.69128359  0.19674260  0.26612689  1
  Cs  Cs1  1  0.80249025  0.83400632  0.72780906  1
  Cs  Cs2  1  0.30871641  0.80325740  0.73387311  1
  Cs  Cs3  1  0.69128359  0.69674260  0.23387311  1
  Cs  Cs4  1  0.19750975  0.16599368  0.27219094  1
  Cs  Cs5  1  0.82210107  0.35371668  0.94542922  1
  Cs  Cs6  1  0.82210107  0.85371668  0.55457078  1
  Cs  Cs7  1  0.17789893  0.14628332  0.44542922  1
  Cs  Cs8  1  0.30871641  0.30325740  0.76612689  1
  Cs  Cs9  1  0.30286066  0.26752861  0.93490277  1
  Cs  Cs10  1  0.19750975  0.66599368  0.22780906  1
  Cs  Cs11  1  0.30286066  0.76752861  0.56509723  1
  Cs  Cs12  1  0.17789893  0.64628332  0.05457078  1
  Cs  Cs13  1  0.69713934  0.23247139  0.43490277  1
  Cs  Cs14  1  0.80249025  0.33400632  0.77219094  1
  Cs  Cs15  1  0.69713934  0.73247139  0.06509723  1
  Th  Th16  1  0.64815056  0.70904946  0.40041371  1
  Th  Th17  1  0.64815056  0.20904946  0.09958629  1
  Th  Th18  1  0.20947332  0.65989192  0.39126646  1
  Th  Th19  1  0.79052668  0.84010808  0.89126646  1
  Th  Th20  1  0.20947332  0.15989192  0.10873354  1
  Th  Th21  1  0.35184944  0.79095054  0.90041371  1
  Th  Th22  1  0.79052668  0.34010808  0.60873354  1
  Th  Th23  1  0.35184944  0.29095054  0.59958629  1
  P  P24  1  0.97677043  0.55352978  0.47106714  1
  P  P25  1  0.38221431  0.99725636  0.18623898  1
  P  P26  1  0.61778569  0.50274364  0.68623898  1
  P  P27  1  0.02322957  0.44647022  0.52893286  1
  P  P28  1  0.38221431  0.49725636  0.31376102  1
  P  P29  1  0.99636973  0.86252033  0.33458510  1
  P  P30  1  0.14048851  0.51796336  0.86496546  1
  P  P31  1  0.99636973  0.36252033  0.16541490  1
  P  P32  1  0.00363027  0.13747967  0.66541490  1
  P  P33  1  0.51775877  0.09502923  0.86326623  1
  P  P34  1  0.02322957  0.94647022  0.97106714  1
  P  P35  1  0.48224123  0.90497077  0.13673377  1
  P  P36  1  0.51775877  0.59502923  0.63673377  1
  P  P37  1  0.85951149  0.98203664  0.36496546  1
  P  P38  1  0.14048851  0.01796336  0.63503454  1
  P  P39  1  0.48224123  0.40497077  0.36326623  1
  P  P40  1  0.97677043  0.05352978  0.02893286  1
  P  P41  1  0.85951149  0.48203664  0.13503454  1
  P  P42  1  0.00363027  0.63747967  0.83458510  1
  P  P43  1  0.61778569  0.00274364  0.81376102  1
  Se  Se44  1  0.31320429  0.52334502  0.64613607  1
  Se  Se45  1  0.98356761  0.88640215  0.27073049  1
  Se  Se46  1  0.06470794  0.32369723  0.64042517  1
  Se  Se47  1  0.19448499  0.91204935  0.35948598  1
  Se  Se48  1  0.93529206  0.67630277  0.35957483  1
  Se  Se49  1  0.17339858  0.96573557  0.17220563  1
  Se  Se50  1  0.56174784  0.06162358  0.75536266  1
  Se  Se51  1  0.43349595  0.21081949  0.36059346  1
  Se  Se52  1  0.89010767  0.27626054  0.52826894  1
  Se  Se53  1  0.43825216  0.43837642  0.25536266  1
  Se  Se54  1  0.56650405  0.28918051  0.86059346  1
  Se  Se55  1  0.03138612  0.44246080  0.41969120  1
  Se  Se56  1  0.56650405  0.78918051  0.63940654  1
  Se  Se57  1  0.23003638  0.91970496  0.97468663  1
  Se  Se58  1  0.93042233  0.66948716  0.14568424  1
  Se  Se59  1  0.46311410  0.74741627  0.97851102  1
  Se  Se60  1  0.89010767  0.77626054  0.97173106  1
  Se  Se61  1  0.06470794  0.82369723  0.85957483  1
  Se  Se62  1  0.76996362  0.58029504  0.47468663  1
  Se  Se63  1  0.01643239  0.11359785  0.72926951  1
  Se  Se64  1  0.43349595  0.71081949  0.13940654  1
  Se  Se65  1  0.83925944  0.42431437  0.07136896  1
  Se  Se66  1  0.16074056  0.07568563  0.57136896  1
  Se  Se67  1  0.06957767  0.33051284  0.85431576  1
  Se  Se68  1  0.76996362  0.08029504  0.02531337  1
  Se  Se69  1  0.32350292  0.59546256  0.83615450  1
  Se  Se70  1  0.53688590  0.75258373  0.47851102  1
  Se  Se71  1  0.01643239  0.61359785  0.77073049  1
  Se  Se72  1  0.42635609  0.50212297  0.41957693  1
  Se  Se73  1  0.67649708  0.40453744  0.16384550  1
  Se  Se74  1  0.46311410  0.24741627  0.52148898  1
  Se  Se75  1  0.57608480  0.65391097  0.92621901  1
  Se  Se76  1  0.82660142  0.53426443  0.67220563  1
  Se  Se77  1  0.82660142  0.03426443  0.82779437  1
  Se  Se78  1  0.19448499  0.41204935  0.14051402  1
  Se  Se79  1  0.98356761  0.38640215  0.22926951  1
  Se  Se80  1  0.43825216  0.93837642  0.24463734  1
  Se  Se81  1  0.57364391  0.99787703  0.91957693  1
  Se  Se82  1  0.93529206  0.17630277  0.14042517  1
  Se  Se83  1  0.80551501  0.08795065  0.64051402  1
  Se  Se84  1  0.43420524  0.69485423  0.32984549  1
  Se  Se85  1  0.42391520  0.84608903  0.42621901  1
  Se  Se86  1  0.83925944  0.92431437  0.42863104  1
  Se  Se87  1  0.80551501  0.58795065  0.85948598  1
  Se  Se88  1  0.56174784  0.56162358  0.74463734  1
  Se  Se89  1  0.10989233  0.72373946  0.47173106  1
  Se  Se90  1  0.23003638  0.41970496  0.52531337  1
  Se  Se91  1  0.17339858  0.46573557  0.32779437  1
  Se  Se92  1  0.53688590  0.25258373  0.02148898  1
  Se  Se93  1  0.43420524  0.19485423  0.17015451  1
  Se  Se94  1  0.16074056  0.57568563  0.92863104  1
  Se  Se95  1  0.96861388  0.55753920  0.58030880  1
  Se  Se96  1  0.32350292  0.09546256  0.66384550  1
  Se  Se97  1  0.56579476  0.30514577  0.67015451  1
  Se  Se98  1  0.56579476  0.80514577  0.82984549  1
  Se  Se99  1  0.68679571  0.97665498  0.14613607  1
  Se  Se100  1  0.42391520  0.34608903  0.07378099  1
  Se  Se101  1  0.42635609  0.00212297  0.08042307  1
  Se  Se102  1  0.68679571  0.47665498  0.35386393  1
  Se  Se103  1  0.57364391  0.49787703  0.58042307  1
  Se  Se104  1  0.67649708  0.90453744  0.33615450  1
  Se  Se105  1  0.31320429  0.02334502  0.85386393  1
  Se  Se106  1  0.93042233  0.16948716  0.35431576  1
  Se  Se107  1  0.57608480  0.15391097  0.57378099  1
  Se  Se108  1  0.96861388  0.05753920  0.91969120  1
  Se  Se109  1  0.03138612  0.94246080  0.08030880  1
  Se  Se110  1  0.10989233  0.22373946  0.02826894  1
  Se  Se111  1  0.06957767  0.83051284  0.64568424  1
