# generated using pymatgen
data_Nb12Br17F13
_symmetry_space_group_name_H-M   'P 1'
_cell_length_a   13.34075271
_cell_length_b   13.32264959
_cell_length_c   13.29839770
_cell_angle_alpha   43.58147939
_cell_angle_beta   43.37793775
_cell_angle_gamma   43.42303351
_symmetry_Int_Tables_number   1
_chemical_formula_structural   Nb12Br17F13
_chemical_formula_sum   'Nb12 Br17 F13'
_cell_volume   1014.59741948
_cell_formula_units_Z   1
loop_
 _symmetry_equiv_pos_site_id
 _symmetry_equiv_pos_as_xyz
  1  'x, y, z'
loop_
 _atom_site_type_symbol
 _atom_site_label
 _atom_site_symmetry_multiplicity
 _atom_site_fract_x
 _atom_site_fract_y
 _atom_site_fract_z
 _atom_site_occupancy
  Nb  Nb0  1  0.00085427  0.88223996  0.21815495  1
  Nb  Nb1  1  0.21788567  0.99697062  0.88627699  1
  Nb  Nb2  1  0.88603882  0.21159230  0.00141371  1
  Nb  Nb3  1  0.28367216  0.61592415  0.49943931  1
  Nb  Nb4  1  0.49972451  0.28395679  0.61530232  1
  Nb  Nb5  1  0.61663459  0.49898308  0.28271834  1
  Nb  Nb6  1  0.38358855  0.50100403  0.71662114  1
  Nb  Nb7  1  0.50049425  0.71604883  0.38434940  1
  Nb  Nb8  1  0.71626806  0.38438963  0.50051835  1
  Nb  Nb9  1  0.11686414  0.78266430  0.99971354  1
  Nb  Nb10  1  0.78395491  0.99567385  0.11985790  1
  Nb  Nb11  1  0.99754565  0.11491910  0.78972107  1
  Br  Br12  1  0.99691837  0.25566727  0.50268095  1
  Br  Br13  1  0.25004648  0.49775604  0.00205929  1
  Br  Br14  1  0.49787850  0.00158015  0.25066473  1
  Br  Br15  1  0.14435917  0.58511422  0.27026273  1
  Br  Br16  1  0.26399857  0.14892295  0.58882504  1
  Br  Br17  1  0.58798540  0.27060420  0.14095640  1
  Br  Br18  1  0.08547572  0.64475847  0.77056618  1
  Br  Br19  1  0.23027801  0.91334301  0.35625674  1
  Br  Br20  1  0.35508912  0.23124007  0.91364479  1
  Br  Br21  1  0.64506063  0.76858680  0.08595514  1
  Br  Br22  1  0.76995049  0.08687054  0.64356334  1
  Br  Br23  1  0.91468088  0.35522607  0.22935676  1
  Br  Br24  1  0.41591163  0.72863604  0.85416816  1
  Br  Br25  1  0.73043476  0.85280743  0.41701423  1
  Br  Br26  1  0.50236176  0.99792721  0.74954473  1
  Br  Br27  1  0.75179971  0.50057091  0.99356263  1
  Br  Br28  1  0.99773880  0.74916528  0.50339839  1
  F  F29  1  0.10085212  0.21529923  0.88944272  1
  F  F30  1  0.21552407  0.88927816  0.10395127  1
  F  F31  1  0.28469719  0.39835075  0.60937811  1
  F  F32  1  0.39890571  0.60903074  0.28399799  1
  F  F33  1  0.61012261  0.28456333  0.39699387  1
  F  F34  1  0.88965954  0.10248142  0.21574677  1
  F  F35  1  0.10857307  0.90151761  0.78333587  1
  F  F36  1  0.38972844  0.71560312  0.60276164  1
  F  F37  1  0.60097637  0.39100121  0.71598946  1
  F  F38  1  0.71527102  0.60193998  0.39027962  1
  F  F39  1  0.78329040  0.11184255  0.90017260  1
  F  F40  1  0.89956781  0.78306415  0.10889843  1
  F  F41  1  0.87796809  0.34138445  0.78045439  1
