# generated using pymatgen
data_Y21B7(C7I9)2
_symmetry_space_group_name_H-M   'P 1'
_cell_length_a   10.88528253
_cell_length_b   15.65390048
_cell_length_c   18.54094803
_cell_angle_alpha   82.53393858
_cell_angle_beta   85.12216879
_cell_angle_gamma   83.09603804
_symmetry_Int_Tables_number   1
_chemical_formula_structural   Y21B7(C7I9)2
_chemical_formula_sum   'Y42 B14 C28 I36'
_cell_volume   3102.08399604
_cell_formula_units_Z   2
loop_
 _symmetry_equiv_pos_site_id
 _symmetry_equiv_pos_as_xyz
  1  'x, y, z'
loop_
 _atom_site_type_symbol
 _atom_site_label
 _atom_site_symmetry_multiplicity
 _atom_site_fract_x
 _atom_site_fract_y
 _atom_site_fract_z
 _atom_site_occupancy
  Y  Y0  1  0.08064697  0.63122489  0.20671865  1
  Y  Y1  1  0.16704942  0.31576673  0.55558911  1
  Y  Y2  1  0.90938633  0.23079101  0.65160401  1
  Y  Y3  1  0.10965533  0.42468704  0.35522736  1
  Y  Y4  1  0.16049977  0.20637671  0.76343298  1
  Y  Y5  1  0.86402073  0.94120374  0.37328385  1
  Y  Y6  1  0.12090446  0.98264853  0.93661564  1
  Y  Y7  1  0.87909554  0.01735147  0.06338436  1
  Y  Y8  1  0.85502139  0.82916987  0.57735047  1
  Y  Y9  1  0.11588322  0.87380345  0.14842730  1
  Y  Y10  1  0.14341351  0.60373538  0.84584040  1
  Y  Y11  1  0.88411678  0.12619655  0.85157270  1
  Y  Y12  1  0.83295058  0.68423327  0.44441089  1
  Y  Y13  1  0.87927833  0.28563973  0.35697052  1
  Y  Y14  1  0.12072167  0.71436027  0.64302948  1
  Y  Y15  1  0.84537761  0.64403939  0.08907858  1
  Y  Y16  1  0.89034467  0.57531296  0.64477264  1
  Y  Y17  1  0.11151001  0.91344280  0.48829993  1
  Y  Y18  1  0.13597927  0.05879626  0.62671615  1
  Y  Y19  1  0.15462239  0.35596061  0.91092142  1
  Y  Y20  1  0.88806614  0.14774613  0.20993326  1
  Y  Y21  1  0.10983160  0.49527671  0.06215702  1
  Y  Y22  1  0.83001175  0.53983455  0.30159121  1
  Y  Y23  1  0.09061367  0.76920899  0.34839599  1
  Y  Y24  1  0.11539363  0.57145772  0.49639280  1
  Y  Y25  1  0.89016840  0.50472329  0.93784298  1
  Y  Y26  1  0.12150556  0.27446287  0.22009311  1
  Y  Y27  1  0.14001353  0.11959547  0.08412277  1
  Y  Y28  1  0.86482877  0.97890583  0.71063865  1
  Y  Y29  1  0.13517123  0.02109417  0.28936135  1
  Y  Y30  1  0.89544236  0.25995675  0.00325968  1
  Y  Y31  1  0.11193386  0.85225387  0.79006674  1
  Y  Y32  1  0.83950023  0.79362329  0.23656702  1
  Y  Y33  1  0.87849444  0.72553713  0.77990689  1
  Y  Y34  1  0.88848999  0.08655720  0.51170007  1
  Y  Y35  1  0.16998825  0.46016545  0.69840879  1
  Y  Y36  1  0.85998647  0.88040453  0.91587723  1
  Y  Y37  1  0.88460637  0.42854228  0.50360720  1
  Y  Y38  1  0.10455764  0.74004325  0.99674032  1
  Y  Y39  1  0.14497861  0.17083013  0.42264953  1
  Y  Y40  1  0.91935303  0.36877511  0.79328135  1
  Y  Y41  1  0.85658649  0.39626462  0.15415960  1
  B  B42  1  0.98976325  0.60505089  0.36171376  1
  B  B43  1  0.02003111  0.88983414  0.63527446  1
  B  B44  1  0.99940557  0.53442239  0.77755403  1
  B  B45  1  0.01023675  0.39494911  0.63828624  1
  B  B46  1  0.03339734  0.03283766  0.77506221  1
  B  B47  1  0.05042163  0.17464369  0.92315711  1
  B  B48  1  0.99556672  0.25496535  0.50335877  1
  B  B49  1  0.94957837  0.82535631  0.07684289  1
  B  B50  1  0.96660266  0.96716234  0.22493779  1
  B  B51  1  0.97996889  0.11016586  0.36472554  1
  B  B52  1  0.96371115  0.67610984  0.92356577  1
  B  B53  1  0.00443328  0.74503465  0.49664123  1
  B  B54  1  0.00059443  0.46557761  0.22244597  1
  B  B55  1  0.03628885  0.32389016  0.07643423  1
  C  C56  1  0.99905595  0.60972342  0.98497338  1
  C  C57  1  0.04447862  0.46795482  0.83695467  1
  C  C58  1  0.96703384  0.53179707  0.41605757  1
  C  C59  1  0.02916722  0.25097746  0.87009919  1
  C  C60  1  0.98620690  0.97176951  0.58899001  1
  C  C61  1  0.01131373  0.11537625  0.72821800  1
  C  C62  1  0.00094405  0.39027658  0.01502662  1
  C  C63  1  0.02493136  0.17255232  0.30398692  1
  C  C64  1  0.98335429  0.97441196  0.83731516  1
  C  C65  1  0.01664571  0.02558804  0.16268484  1
  C  C66  1  0.02433459  0.32131210  0.44239323  1
  C  C67  1  0.01379310  0.02823049  0.41100999  1
  C  C68  1  0.03296616  0.46820293  0.58394243  1
  C  C69  1  0.95745480  0.82444382  0.45090320  1
  C  C70  1  0.94119480  0.67805514  0.30999761  1
  C  C71  1  0.02798998  0.61283619  0.72975092  1
  C  C72  1  0.98868627  0.88462375  0.27178200  1
  C  C73  1  0.00262612  0.24586019  0.12403942  1
  C  C74  1  0.99737388  0.75413981  0.87596058  1
  C  C75  1  0.04254520  0.17555618  0.54909680  1
  C  C76  1  0.97506864  0.82744768  0.69601308  1
  C  C77  1  0.97083278  0.74902254  0.12990081  1
  C  C78  1  0.95552138  0.53204518  0.16304533  1
  C  C79  1  0.00718833  0.11000332  0.98122247  1
  C  C80  1  0.05880520  0.32194486  0.69000239  1
  C  C81  1  0.97201002  0.38716381  0.27024908  1
  C  C82  1  0.99281167  0.88999668  0.01877753  1
  C  C83  1  0.97566541  0.67868790  0.55760677  1
  I  I84  1  0.33252338  0.03244278  0.82314332  1
  I  I85  1  0.70348558  0.26713739  0.51214060  1
  I  I86  1  0.35966718  0.16847121  0.62357222  1
  I  I87  1  0.63481082  0.67242619  0.21743281  1
  I  I88  1  0.64033282  0.83152879  0.37642778  1
  I  I89  1  0.28275076  0.58678095  0.33321438  1
  I  I90  1  0.33764833  0.49046847  0.94578728  1
  I  I91  1  0.34041032  0.12633184  0.20687063  1
  I  I92  1  0.35122301  0.59891777  0.71780308  1
  I  I93  1  0.35613593  0.45001212  0.55796888  1
  I  I94  1  0.64386407  0.54998788  0.44203112  1
  I  I95  1  0.67255645  0.24113108  0.11763587  1
  I  I96  1  0.69639239  0.57948814  0.81759701  1
  I  I97  1  0.66747662  0.96755722  0.17685668  1
  I  I98  1  0.64877699  0.40108223  0.28219692  1
  I  I99  1  0.30360761  0.42051186  0.18240299  1
  I  I100  1  0.69250740  0.31383604  0.89411164  1
  I  I101  1  0.71724924  0.41321905  0.66678562  1
  I  I102  1  0.31894622  0.85482119  0.26437603  1
  I  I103  1  0.65958968  0.87366816  0.79312937  1
  I  I104  1  0.66235167  0.50953153  0.05421272  1
  I  I105  1  0.65081401  0.70591465  0.59903617  1
  I  I106  1  0.67132093  0.04499874  0.95303129  1
  I  I107  1  0.68834013  0.12653387  0.34667832  1
  I  I108  1  0.29651442  0.73286261  0.48785940  1
  I  I109  1  0.32867907  0.95500126  0.04696871  1
  I  I110  1  0.34355209  0.01287790  0.43273111  1
  I  I111  1  0.32744355  0.75886892  0.88236413  1
  I  I112  1  0.65644791  0.98712210  0.56726889  1
  I  I113  1  0.31165987  0.87346613  0.65332168  1
  I  I114  1  0.68105378  0.14517881  0.73562397  1
  I  I115  1  0.65548309  0.77635186  0.00331735  1
  I  I116  1  0.36518918  0.32757381  0.78256719  1
  I  I117  1  0.34451691  0.22364814  0.99668265  1
  I  I118  1  0.30749260  0.68616396  0.10588836  1
  I  I119  1  0.34918599  0.29408535  0.40096383  1
