# generated using pymatgen
data_RbMo3Br7
_symmetry_space_group_name_H-M   'P 1'
_cell_length_a   10.46652494
_cell_length_b   12.92837549
_cell_length_c   12.92837632
_cell_angle_alpha   72.56020503
_cell_angle_beta   68.80383957
_cell_angle_gamma   68.80384140
_symmetry_Int_Tables_number   1
_chemical_formula_structural   RbMo3Br7
_chemical_formula_sum   'Rb4 Mo12 Br28'
_cell_volume   1491.70258630
_cell_formula_units_Z   4
loop_
 _symmetry_equiv_pos_site_id
 _symmetry_equiv_pos_as_xyz
  1  'x, y, z'
loop_
 _atom_site_type_symbol
 _atom_site_label
 _atom_site_symmetry_multiplicity
 _atom_site_fract_x
 _atom_site_fract_y
 _atom_site_fract_z
 _atom_site_occupancy
  Rb  Rb0  1  0.24977560  0.42329619  0.57641035  1
  Rb  Rb1  1  0.49162313  0.02450779  0.98077648  1
  Rb  Rb2  1  0.74977560  0.57641035  0.42329619  1
  Rb  Rb3  1  0.99162313  0.98077648  0.02450779  1
  Mo  Mo4  1  0.05466893  0.05200612  0.34326330  1
  Mo  Mo5  1  0.12408835  0.06513547  0.51585541  1
  Mo  Mo6  1  0.35212101  0.51679415  0.13431278  1
  Mo  Mo7  1  0.14911475  0.86529467  0.48362543  1
  Mo  Mo8  1  0.55466893  0.34326330  0.05200612  1
  Mo  Mo9  1  0.62408835  0.51585541  0.06513547  1
  Mo  Mo10  1  0.37719067  0.48425763  0.93431562  1
  Mo  Mo11  1  0.44565954  0.65684393  0.94798449  1
  Mo  Mo12  1  0.85212101  0.13431278  0.51679416  1
  Mo  Mo13  1  0.64911475  0.48362543  0.86529466  1
  Mo  Mo14  1  0.87719067  0.93431563  0.48425763  1
  Mo  Mo15  1  0.94565954  0.94798449  0.65684394  1
  Br  Br16  1  0.12870044  0.12722638  0.11925216  1
  Br  Br17  1  0.02885077  0.25073700  0.37744361  1
  Br  Br18  1  0.17681840  0.65621318  0.01691745  1
  Br  Br19  1  0.13965512  0.53792596  0.32379528  1
  Br  Br20  1  0.28583154  0.34574020  0.12000072  1
  Br  Br21  1  0.07787356  0.85253081  0.31210501  1
  Br  Br22  1  0.29997407  0.15248751  0.53873583  1
  Br  Br23  1  0.20245253  0.45964584  0.84679851  1
  Br  Br24  1  0.62870044  0.11925216  0.12722638  1
  Br  Br25  1  0.42396543  0.68775786  0.14651960  1
  Br  Br26  1  0.52885077  0.37744361  0.25073701  1
  Br  Br27  1  0.21398335  0.87967862  0.65500600  1
  Br  Br28  1  0.36170867  0.67586903  0.46216426  1
  Br  Br29  1  0.32337998  0.98289098  0.34281900  1
  Br  Br30  1  0.67681840  0.01691745  0.65621319  1
  Br  Br31  1  0.63965512  0.32379528  0.53792596  1
  Br  Br32  1  0.78583154  0.12000072  0.34574020  1
  Br  Br33  1  0.47250134  0.62267947  0.74873194  1
  Br  Br34  1  0.57787356  0.31210501  0.85253081  1
  Br  Br35  1  0.36176283  0.88121716  0.87651081  1
  Br  Br36  1  0.79997407  0.53873583  0.15248751  1
  Br  Br37  1  0.70245253  0.84679851  0.45964584  1
  Br  Br38  1  0.92396543  0.14651960  0.68775786  1
  Br  Br39  1  0.71398335  0.65500600  0.87967862  1
  Br  Br40  1  0.86170867  0.46216426  0.67586903  1
  Br  Br41  1  0.82337998  0.34281900  0.98289098  1
  Br  Br42  1  0.97250134  0.74873194  0.62267947  1
  Br  Br43  1  0.86176283  0.87651081  0.88121716  1
