# generated using pymatgen
data_Rb2LiSn4
_symmetry_space_group_name_H-M   'P 1'
_cell_length_a   9.83237031
_cell_length_b   14.99100849
_cell_length_c   15.11135629
_cell_angle_alpha   97.39653345
_cell_angle_beta   103.56043591
_cell_angle_gamma   102.52266344
_symmetry_Int_Tables_number   1
_chemical_formula_structural   Rb2LiSn4
_chemical_formula_sum   'Rb16 Li8 Sn32'
_cell_volume   2075.57911902
_cell_formula_units_Z   8
loop_
 _symmetry_equiv_pos_site_id
 _symmetry_equiv_pos_as_xyz
  1  'x, y, z'
loop_
 _atom_site_type_symbol
 _atom_site_label
 _atom_site_symmetry_multiplicity
 _atom_site_fract_x
 _atom_site_fract_y
 _atom_site_fract_z
 _atom_site_occupancy
  Rb  Rb0  1  0.65834791  0.46304712  0.93621154  1
  Rb  Rb1  1  0.84148083  0.04246754  0.06565620  1
  Rb  Rb2  1  0.03072423  0.64890890  0.88355373  1
  Rb  Rb3  1  0.39262102  0.08981929  0.56586517  1
  Rb  Rb4  1  0.98903996  0.88403576  0.61466807  1
  Rb  Rb5  1  0.15851917  0.95753246  0.93434380  1
  Rb  Rb6  1  0.50700254  0.13335431  0.87173102  1
  Rb  Rb7  1  0.49299746  0.86664569  0.12826898  1
  Rb  Rb8  1  0.89495750  0.59240577  0.56370569  1
  Rb  Rb9  1  0.53675503  0.39721029  0.62763606  1
  Rb  Rb10  1  0.60737898  0.91018071  0.43413483  1
  Rb  Rb11  1  0.10504250  0.40759423  0.43629431  1
  Rb  Rb12  1  0.46324497  0.60278971  0.37236394  1
  Rb  Rb13  1  0.34165209  0.53695288  0.06378846  1
  Rb  Rb14  1  0.96927577  0.35109110  0.11644627  1
  Rb  Rb15  1  0.01096004  0.11596424  0.38533193  1
  Li  Li16  1  0.70751560  0.24618512  0.45515304  1
  Li  Li17  1  0.20224486  0.95315429  0.25103825  1
  Li  Li18  1  0.71169540  0.75304077  0.95264122  1
  Li  Li19  1  0.29248440  0.75381488  0.54484696  1
  Li  Li20  1  0.28830460  0.24695923  0.04735878  1
  Li  Li21  1  0.20988542  0.46041731  0.75277117  1
  Li  Li22  1  0.79011458  0.53958269  0.24722883  1
  Li  Li23  1  0.79775514  0.04684571  0.74896175  1
  Sn  Sn24  1  0.07996556  0.64833244  0.36069668  1
  Sn  Sn25  1  0.86877172  0.13875158  0.59914013  1
  Sn  Sn26  1  0.49465161  0.90274157  0.69331400  1
  Sn  Sn27  1  0.13122828  0.86124842  0.40085987  1
  Sn  Sn28  1  0.23938626  0.14802656  0.19614073  1
  Sn  Sn29  1  0.25908124  0.76646797  0.26053732  1
  Sn  Sn30  1  0.49340630  0.13246489  0.11314144  1
  Sn  Sn31  1  0.74912305  0.68746772  0.13879790  1
  Sn  Sn32  1  0.88827599  0.88536837  0.24170856  1
  Sn  Sn33  1  0.34874727  0.60179588  0.64367826  1
  Sn  Sn34  1  0.74091876  0.23353203  0.73946268  1
  Sn  Sn35  1  0.75417767  0.23854627  0.26913819  1
  Sn  Sn36  1  0.02442443  0.80001326  0.10118140  1
  Sn  Sn37  1  0.50659370  0.86753511  0.88685856  1
  Sn  Sn38  1  0.34448152  0.36180647  0.23206454  1
  Sn  Sn39  1  0.60301571  0.74179876  0.61052216  1
  Sn  Sn40  1  0.98736170  0.39289740  0.85383775  1
  Sn  Sn41  1  0.50534839  0.09725843  0.30668600  1
  Sn  Sn42  1  0.39698429  0.25820124  0.38947784  1
  Sn  Sn43  1  0.97557557  0.19998674  0.89881860  1
  Sn  Sn44  1  0.82479461  0.73566713  0.35257761  1
  Sn  Sn45  1  0.17520539  0.26433287  0.64742239  1
  Sn  Sn46  1  0.65551848  0.63819353  0.76793546  1
  Sn  Sn47  1  0.92003444  0.35166756  0.63930332  1
  Sn  Sn48  1  0.25087695  0.31253228  0.86120210  1
  Sn  Sn49  1  0.65125273  0.39820412  0.35632174  1
  Sn  Sn50  1  0.01263830  0.60710260  0.14616225  1
  Sn  Sn51  1  0.24582233  0.76145373  0.73086181  1
  Sn  Sn52  1  0.11172401  0.11463163  0.75829144  1
  Sn  Sn53  1  0.76061374  0.85197344  0.80385927  1
  Sn  Sn54  1  0.59034029  0.34689538  0.14458779  1
  Sn  Sn55  1  0.40965971  0.65310462  0.85541221  1
