# generated using pymatgen
data_KLi3Si12(SnO15)2
_symmetry_space_group_name_H-M   'P 1'
_cell_length_a   10.15712127
_cell_length_b   10.15712127
_cell_length_c   14.51307155
_cell_angle_alpha   90.00000000
_cell_angle_beta   90.00000000
_cell_angle_gamma   119.99999997
_symmetry_Int_Tables_number   1
_chemical_formula_structural   KLi3Si12(SnO15)2
_chemical_formula_sum   'K2 Li6 Si24 Sn4 O60'
_cell_volume   1296.67531590
_cell_formula_units_Z   2
loop_
 _symmetry_equiv_pos_site_id
 _symmetry_equiv_pos_as_xyz
  1  'x, y, z'
loop_
 _atom_site_type_symbol
 _atom_site_label
 _atom_site_symmetry_multiplicity
 _atom_site_fract_x
 _atom_site_fract_y
 _atom_site_fract_z
 _atom_site_occupancy
  Li  Li0  1  0.50000000  0.50000000  0.25000000  1
  Li  Li1  1  0.50000000  0.00000000  0.75000000  1
  Li  Li2  1  0.00000000  0.50000000  0.75000000  1
  Li  Li3  1  0.50000000  0.50000000  0.75000000  1
  Li  Li4  1  0.50000000  0.00000000  0.25000000  1
  Li  Li5  1  0.00000000  0.50000000  0.25000000  1
  O  O6  1  0.22224119  0.27859173  0.13270706  1
  O  O7  1  0.15781499  0.65652828  0.67271419  1
  O  O8  1  0.15781499  0.50128671  0.82728581  1
  O  O9  1  0.49871329  0.84218501  0.67271419  1
  O  O10  1  0.50128671  0.15781499  0.67271419  1
  O  O11  1  0.65652828  0.49871329  0.67271419  1
  O  O12  1  0.34347172  0.50128671  0.67271419  1
  O  O13  1  0.65652828  0.15781499  0.82728581  1
  O  O14  1  0.50128671  0.34347172  0.82728581  1
  O  O15  1  0.49871329  0.65652828  0.82728581  1
  O  O16  1  0.34347172  0.84218501  0.82728581  1
  O  O17  1  0.84218501  0.49871329  0.82728581  1
  O  O18  1  0.15781499  0.65652828  0.32728581  1
  O  O19  1  0.34347172  0.50128671  0.32728581  1
  O  O20  1  0.49871329  0.84218501  0.32728581  1
  O  O21  1  0.50128671  0.15781499  0.32728581  1
  O  O22  1  0.84218501  0.49871329  0.17271419  1
  O  O23  1  0.84218501  0.34347172  0.32728581  1
  O  O24  1  0.65652828  0.49871329  0.32728581  1
  O  O25  1  0.34347172  0.84218501  0.17271419  1
  O  O26  1  0.49871329  0.65652828  0.17271419  1
  O  O27  1  0.50128671  0.34347172  0.17271419  1
  O  O28  1  0.65652828  0.15781499  0.17271419  1
  O  O29  1  0.05635054  0.27859173  0.63270706  1
  O  O30  1  0.77775881  0.05635054  0.63270706  1
  O  O31  1  0.94364946  0.72140827  0.63270706  1
  O  O32  1  0.27859173  0.22224119  0.63270706  1
  O  O33  1  0.72140827  0.77775881  0.63270706  1
  O  O34  1  0.22224119  0.27859173  0.86729294  1
  O  O35  1  0.22224119  0.94364946  0.63270706  1
  O  O36  1  0.13329533  0.40053345  0.00000000  1
  O  O37  1  0.73276188  0.13329533  0.00000000  1
  O  O38  1  0.40053345  0.26723812  0.00000000  1
  O  O39  1  0.59946655  0.73276188  0.00000000  1
  O  O40  1  0.26723812  0.86670467  0.00000000  1
  O  O41  1  0.73276188  0.59946655  0.50000000  1
  O  O42  1  0.86670467  0.26723812  0.50000000  1
  O  O43  1  0.86670467  0.59946655  0.00000000  1
  O  O44  1  0.40053345  0.13329533  0.50000000  1
  O  O45  1  0.59946655  0.86670467  0.50000000  1
  O  O46  1  0.26723812  0.40053345  0.50000000  1
  O  O47  1  0.13329533  0.73276188  0.50000000  1
  O  O48  1  0.84218501  0.34347172  0.67271419  1
  O  O49  1  0.94364946  0.22224119  0.13270706  1
  O  O50  1  0.27859173  0.05635054  0.13270706  1
  O  O51  1  0.72140827  0.94364946  0.13270706  1
  O  O52  1  0.05635054  0.77775881  0.13270706  1
  O  O53  1  0.94364946  0.72140827  0.36729294  1
  O  O54  1  0.77775881  0.05635054  0.36729294  1
  O  O55  1  0.77775881  0.72140827  0.13270706  1
  O  O56  1  0.27859173  0.22224119  0.36729294  1
  O  O57  1  0.72140827  0.77775881  0.36729294  1
  O  O58  1  0.05635054  0.27859173  0.36729294  1
  O  O59  1  0.22224119  0.94364946  0.36729294  1
  O  O60  1  0.77775881  0.72140827  0.86729294  1
  O  O61  1  0.05635054  0.77775881  0.86729294  1
  O  O62  1  0.72140827  0.94364946  0.86729294  1
  O  O63  1  0.27859173  0.05635054  0.86729294  1
  O  O64  1  0.94364946  0.22224119  0.86729294  1
  O  O65  1  0.15781499  0.50128671  0.17271419  1
  Si  Si66  1  0.76215790  0.11828452  0.89125910  1
  Si  Si67  1  0.88171548  0.64387339  0.89125910  1
  Si  Si68  1  0.35612661  0.23784210  0.89125910  1
  Si  Si69  1  0.64387339  0.76215790  0.89125910  1
  Si  Si70  1  0.23784210  0.35612661  0.60874090  1
  Si  Si71  1  0.23784210  0.88171548  0.89125910  1
  Si  Si72  1  0.11828452  0.35612661  0.89125910  1
  Si  Si73  1  0.88171548  0.23784210  0.60874090  1
  Si  Si74  1  0.35612661  0.11828452  0.60874090  1
  Si  Si75  1  0.64387339  0.88171548  0.60874090  1
  Si  Si76  1  0.11828452  0.76215790  0.60874090  1
  Si  Si77  1  0.76215790  0.64387339  0.60874090  1
  Si  Si78  1  0.23784210  0.88171548  0.10874090  1
  Si  Si79  1  0.11828452  0.35612661  0.10874090  1
  Si  Si80  1  0.64387339  0.76215790  0.10874090  1
  Si  Si81  1  0.23784210  0.35612661  0.39125910  1
  Si  Si82  1  0.76215790  0.64387339  0.39125910  1
  Si  Si83  1  0.76215790  0.11828452  0.10874090  1
  Si  Si84  1  0.88171548  0.64387339  0.10874090  1
  Si  Si85  1  0.11828452  0.76215790  0.39125910  1
  Si  Si86  1  0.64387339  0.88171548  0.39125910  1
  Si  Si87  1  0.35612661  0.11828452  0.39125910  1
  Si  Si88  1  0.88171548  0.23784210  0.39125910  1
  Si  Si89  1  0.35612661  0.23784210  0.10874090  1
  K  K90  1  0.00000000  0.00000000  0.25000000  1
  K  K91  1  0.00000000  0.00000000  0.75000000  1
  Sn  Sn92  1  0.33333333  0.66666667  0.25000000  1
  Sn  Sn93  1  0.66666667  0.33333333  0.25000000  1
  Sn  Sn94  1  0.66666667  0.33333333  0.75000000  1
  Sn  Sn95  1  0.33333333  0.66666667  0.75000000  1
