# generated using pymatgen
data_K11(In2Bi3)3
_symmetry_space_group_name_H-M   'P 1'
_cell_length_a   12.28648222
_cell_length_b   13.56656553
_cell_length_c   13.95565674
_cell_angle_alpha   76.85055250
_cell_angle_beta   63.95105353
_cell_angle_gamma   76.24301211
_symmetry_Int_Tables_number   1
_chemical_formula_structural   K11(In2Bi3)3
_chemical_formula_sum   'K22 In12 Bi18'
_cell_volume   2009.66667226
_cell_formula_units_Z   2
loop_
 _symmetry_equiv_pos_site_id
 _symmetry_equiv_pos_as_xyz
  1  'x, y, z'
loop_
 _atom_site_type_symbol
 _atom_site_label
 _atom_site_symmetry_multiplicity
 _atom_site_fract_x
 _atom_site_fract_y
 _atom_site_fract_z
 _atom_site_occupancy
  K  K0  1  0.45078909  0.25446479  0.70938823  1
  K  K1  1  0.54921091  0.74553521  0.29061177  1
  K  K2  1  0.70057192  0.69160733  0.51391241  1
  K  K3  1  0.20340488  0.45604483  0.19348960  1
  K  K4  1  0.79659512  0.54395517  0.80651040  1
  K  K5  1  0.93916013  0.01135900  0.38154487  1
  K  K6  1  0.94085667  0.28475820  0.22087618  1
  K  K7  1  0.95770048  0.25634261  0.71407047  1
  K  K8  1  0.60992620  0.99020284  0.07236169  1
  K  K9  1  0.39007380  0.00979716  0.92763831  1
  K  K10  1  0.59387347  0.97859351  0.59104732  1
  K  K11  1  0.29942808  0.30839267  0.48608759  1
  K  K12  1  0.37595893  0.54683982  0.80936626  1
  K  K13  1  0.41016261  0.71894597  0.07055572  1
  K  K14  1  0.06083987  0.98864100  0.61845513  1
  K  K15  1  0.62404107  0.45316018  0.19063374  1
  K  K16  1  0.05914333  0.71524180  0.77912382  1
  K  K17  1  0.40612653  0.02140649  0.40895268  1
  K  K18  1  0.00000000  0.50000000  0.00000000  1
  K  K19  1  0.58983739  0.28105403  0.92944428  1
  K  K20  1  0.04229952  0.74365739  0.28592953  1
  K  K21  1  0.00000000  0.00000000  0.00000000  1
  In  In22  1  0.70731101  0.14474133  0.20490229  1
  In  In23  1  0.12212828  0.24265504  0.88819253  1
  In  In24  1  0.29268899  0.85525867  0.79509771  1
  In  In25  1  0.62819840  0.44738215  0.45999269  1
  In  In26  1  0.20858852  0.78557017  0.45255518  1
  In  In27  1  0.79141148  0.21442983  0.54744482  1
  In  In28  1  0.06619869  0.55064426  0.53783070  1
  In  In29  1  0.26392327  0.15278485  0.20691936  1
  In  In30  1  0.73607673  0.84721515  0.79308064  1
  In  In31  1  0.37180160  0.55261785  0.54000731  1
  In  In32  1  0.87787172  0.75734496  0.11180747  1
  In  In33  1  0.93380131  0.44935574  0.46216930  1
  Bi  Bi34  1  0.63498893  0.22951192  0.41991708  1
  Bi  Bi35  1  0.15459340  0.72158433  0.00065662  1
  Bi  Bi36  1  0.45643046  0.25258840  0.21410528  1
  Bi  Bi37  1  0.27347982  0.92749958  0.23782906  1
  Bi  Bi38  1  0.69306340  0.41039178  0.65469397  1
  Bi  Bi39  1  0.26634338  0.28370396  0.99766596  1
  Bi  Bi40  1  0.30693660  0.58960822  0.34530603  1
  Bi  Bi41  1  0.36501107  0.77048808  0.58008292  1
  Bi  Bi42  1  0.06666965  0.22909974  0.42497654  1
  Bi  Bi43  1  0.15672503  0.44926232  0.72094181  1
  Bi  Bi44  1  0.72652018  0.07250042  0.76217094  1
  Bi  Bi45  1  0.84327497  0.55073768  0.27905819  1
  Bi  Bi46  1  0.93333035  0.77090026  0.57502346  1
  Bi  Bi47  1  0.75806470  0.91797388  0.27288673  1
  Bi  Bi48  1  0.54356954  0.74741160  0.78589472  1
  Bi  Bi49  1  0.24193530  0.08202612  0.72711327  1
  Bi  Bi50  1  0.84540660  0.27841567  0.99934338  1
  Bi  Bi51  1  0.73365662  0.71629604  0.00233404  1
