# generated using pymatgen
data_KTaPS6
_symmetry_space_group_name_H-M   'P 1'
_cell_length_a   14.22487572
_cell_length_b   16.08377625
_cell_length_c   18.05985761
_cell_angle_alpha   90.00000000
_cell_angle_beta   90.00000000
_cell_angle_gamma   108.26005104
_symmetry_Int_Tables_number   1
_chemical_formula_structural   KTaPS6
_chemical_formula_sum   'K16 Ta16 P16 S96'
_cell_volume   3923.84401170
_cell_formula_units_Z   16
loop_
 _symmetry_equiv_pos_site_id
 _symmetry_equiv_pos_as_xyz
  1  'x, y, z'
loop_
 _atom_site_type_symbol
 _atom_site_label
 _atom_site_symmetry_multiplicity
 _atom_site_fract_x
 _atom_site_fract_y
 _atom_site_fract_z
 _atom_site_occupancy
  K  K0  1  0.65886486  0.48431613  0.67715783  1
  K  K1  1  0.05165004  0.53685738  0.87599831  1
  K  K2  1  0.48456167  0.63187875  0.98377464  1
  K  K3  1  0.55165004  0.03685738  0.62400169  1
  K  K4  1  0.34313742  0.04035951  0.07204214  1
  K  K5  1  0.34113514  0.51568387  0.32284217  1
  K  K6  1  0.15686258  0.45964049  0.57204214  1
  K  K7  1  0.01543833  0.86812125  0.48377464  1
  K  K8  1  0.94834996  0.46314262  0.12400169  1
  K  K9  1  0.51543833  0.36812125  0.01622536  1
  K  K10  1  0.84313742  0.54035951  0.42795786  1
  K  K11  1  0.44834996  0.96314262  0.37599831  1
  K  K12  1  0.84113514  0.01568387  0.17715783  1
  K  K13  1  0.15886486  0.98431613  0.82284217  1
  K  K14  1  0.98456167  0.13187875  0.51622536  1
  K  K15  1  0.65686258  0.95964049  0.92795786  1
  Ta  Ta16  1  0.35993140  0.70110451  0.78235441  1
  Ta  Ta17  1  0.14006860  0.79889549  0.28235441  1
  Ta  Ta18  1  0.24848384  0.74973061  0.11702600  1
  Ta  Ta19  1  0.32706879  0.17306711  0.61785822  1
  Ta  Ta20  1  0.20805038  0.22702728  0.28413958  1
  Ta  Ta21  1  0.64006860  0.29889549  0.21764559  1
  Ta  Ta22  1  0.74848384  0.24973061  0.38297400  1
  Ta  Ta23  1  0.67293121  0.82693289  0.38214178  1
  Ta  Ta24  1  0.70805038  0.72702728  0.21586042  1
  Ta  Ta25  1  0.25151616  0.75026939  0.61702600  1
  Ta  Ta26  1  0.29194962  0.27297272  0.78413958  1
  Ta  Ta27  1  0.75151616  0.25026939  0.88297400  1
  Ta  Ta28  1  0.79194962  0.77297272  0.71586042  1
  Ta  Ta29  1  0.85993140  0.20110451  0.71764559  1
  Ta  Ta30  1  0.17293121  0.32693289  0.11785822  1
  Ta  Ta31  1  0.82706879  0.67306711  0.88214178  1
  P  P32  1  0.66461718  0.51125867  0.20906137  1
  P  P33  1  0.83538282  0.98874133  0.70906137  1
  P  P34  1  0.28062115  0.30922502  0.45065031  1
  P  P35  1  0.75025265  0.45676636  0.89147517  1
  P  P36  1  0.24974735  0.54323364  0.10852483  1
  P  P37  1  0.30543557  0.83550239  0.94796498  1
  P  P38  1  0.69456443  0.16449761  0.05203502  1
  P  P39  1  0.16461718  0.01125867  0.29093863  1
  P  P40  1  0.74974735  0.04323364  0.39147517  1
  P  P41  1  0.71937885  0.69077498  0.54934969  1
  P  P42  1  0.80543557  0.33550239  0.55203502  1
  P  P43  1  0.33538282  0.48874133  0.79093863  1
  P  P44  1  0.21937885  0.19077498  0.95065031  1
  P  P45  1  0.78062115  0.80922502  0.04934969  1
  P  P46  1  0.19456443  0.66449761  0.44796498  1
  P  P47  1  0.25025265  0.95676636  0.60852483  1
  S  S48  1  0.28318014  0.10641634  0.24560454  1
  S  S49  1  0.94755643  0.68177101  0.96148416  1
  S  S50  1  0.83988286  0.68718382  0.61590271  1
  S  S51  1  0.38586253  0.78658537  0.02416456  1
  S  S52  1  0.87412591  0.92571229  0.02486679  1
  S  S53  1  0.90901250  0.08248871  0.78412712  1
  S  S54  1  0.92876967  0.26970907  0.84262801  1
  S  S55  1  0.19572736  0.04404077  0.55489613  1
  S  S56  1  0.66603886  0.96113330  0.31042667  1
  S  S57  1  0.86268987  0.34209246  0.78037114  1
  S  S58  1  0.78318014  0.60641634  0.25439546  1
  S  S59  1  0.68861349  0.33081244  0.47978979  1
  S  S60  1  0.44755643  0.18177101  0.53851584  1
  S  S61  1  0.28626145  0.25758270  0.04630092  1
  S  S62  1  0.11413747  0.71341463  0.52416456  1
  S  S63  1  0.32829911  0.22635155  0.38231730  1
  S  S64  1  0.94098628  0.73829029  0.77136488  1
  S  S65  1  0.33396114  0.03886670  0.68957333  1
  S  S66  1  0.31138651  0.66918756  0.52021021  1
  S  S67  1  0.66011714  0.81281618  0.11590271  1
  S  S68  1  0.33988286  0.18718382  0.88409729  1
  S  S69  1  0.07123033  0.73029093  0.15737199  1
  S  S70  1  0.31770457  0.32847626  0.21235097  1
  S  S71  1  0.18861349  0.83081244  0.02021021  1
  S  S72  1  0.85587481  0.14976666  0.34752727  1
  S  S73  1  0.16491016  0.59901976  0.04613345  1
  S  S74  1  0.17170089  0.27364845  0.88231730  1
  S  S75  1  0.40901250  0.58248871  0.71587288  1
  S  S76  1  0.12496832  0.54654181  0.40783098  1
  S  S77  1  0.61413747  0.21341463  0.97583544  1
  S  S78  1  0.59992074  0.67242813  0.33395424  1
  S  S79  1  0.21681986  0.39358366  0.74560454  1
  S  S80  1  0.69572736  0.54404077  0.94510387  1
  S  S81  1  0.90007926  0.82757187  0.83395424  1
  S  S82  1  0.81770457  0.82847626  0.28764903  1
  S  S83  1  0.50569388  0.23022141  0.15365519  1
  S  S84  1  0.76426514  0.25751358  0.13208134  1
  S  S85  1  0.21105067  0.93270447  0.36423386  1
  S  S86  1  0.82829911  0.72635155  0.11768270  1
  S  S87  1  0.68270197  0.14761831  0.79468341  1
  S  S88  1  0.57815364  0.57901827  0.16529654  1
  S  S89  1  0.49430612  0.76977859  0.84634481  1
  S  S90  1  0.78626145  0.75758270  0.45369908  1
  S  S91  1  0.18229543  0.17152374  0.71235097  1
  S  S92  1  0.31729803  0.85238169  0.20531659  1
  S  S93  1  0.68229543  0.67152374  0.78764903  1
  S  S94  1  0.36268987  0.84209246  0.71962886  1
  S  S95  1  0.09992074  0.17242813  0.16604576  1
  S  S96  1  0.59098750  0.41751129  0.28412712  1
  S  S97  1  0.37412591  0.42571229  0.47513321  1
  S  S98  1  0.99430612  0.26977859  0.65365519  1
  S  S99  1  0.78894933  0.06729553  0.63576614  1
  S  S100  1  0.71105067  0.43270447  0.13576614  1
  S  S101  1  0.44098628  0.23829029  0.72863512  1
  S  S102  1  0.14412519  0.85023334  0.65247273  1
  S  S103  1  0.07815364  0.07901827  0.33470346  1
  S  S104  1  0.81138651  0.16918756  0.97978979  1
  S  S105  1  0.57123033  0.23029093  0.34262801  1
  S  S106  1  0.66491016  0.09901976  0.45386655  1
  S  S107  1  0.80427264  0.95595923  0.44510387  1
  S  S108  1  0.87503168  0.45345819  0.59216902  1
  S  S109  1  0.73573486  0.24248642  0.63208134  1
  S  S110  1  0.00569388  0.73022141  0.34634481  1
  S  S111  1  0.63731013  0.15790754  0.28037114  1
  S  S112  1  0.26426514  0.75751358  0.36791866  1
  S  S113  1  0.67170089  0.77364845  0.61768270  1
  S  S114  1  0.40007926  0.32757187  0.66604576  1
  S  S115  1  0.55244357  0.81822899  0.46148416  1
  S  S116  1  0.92184636  0.92098173  0.66529654  1
  S  S117  1  0.05244357  0.31822899  0.03851584  1
  S  S118  1  0.16603886  0.46113330  0.18957333  1
  S  S119  1  0.28894933  0.56729553  0.86423386  1
  S  S120  1  0.64412519  0.35023334  0.84752727  1
  S  S121  1  0.35587481  0.64976666  0.15247273  1
  S  S122  1  0.30427264  0.45595923  0.05489613  1
  S  S123  1  0.88586253  0.28658537  0.47583544  1
  S  S124  1  0.71681986  0.89358366  0.75439546  1
  S  S125  1  0.83396114  0.53886670  0.81042667  1
  S  S126  1  0.42184636  0.42098173  0.83470346  1
  S  S127  1  0.55901372  0.76170971  0.27136488  1
  S  S128  1  0.05901372  0.26170971  0.22863512  1
  S  S129  1  0.71373855  0.74241730  0.95369908  1
  S  S130  1  0.12587409  0.07428771  0.97513321  1
  S  S131  1  0.18270197  0.64761831  0.70531659  1
  S  S132  1  0.09098750  0.91751129  0.21587288  1
  S  S133  1  0.37503168  0.95345819  0.90783098  1
  S  S134  1  0.62587409  0.57428771  0.52486679  1
  S  S135  1  0.21373855  0.24241730  0.54630092  1
  S  S136  1  0.16011714  0.31281618  0.38409729  1
  S  S137  1  0.83508984  0.40098024  0.95386655  1
  S  S138  1  0.62496832  0.04654181  0.09216902  1
  S  S139  1  0.33508984  0.90098024  0.54613345  1
  S  S140  1  0.42876967  0.76970907  0.65737199  1
  S  S141  1  0.81729803  0.35238169  0.29468341  1
  S  S142  1  0.23573486  0.74248642  0.86791866  1
  S  S143  1  0.13731013  0.65790754  0.21962886  1
