# generated using pymatgen
data_Ca2AlH10BrO8
_symmetry_space_group_name_H-M   'P 1'
_cell_length_a   9.02709293
_cell_length_b   9.00796088
_cell_length_c   17.96214962
_cell_angle_alpha   37.37409053
_cell_angle_beta   37.30409547
_cell_angle_gamma   37.53175541
_symmetry_Int_Tables_number   1
_chemical_formula_structural   Ca2AlH10BrO8
_chemical_formula_sum   'Ca4 Al2 H20 Br2 O16'
_cell_volume   483.21031158
_cell_formula_units_Z   2
loop_
 _symmetry_equiv_pos_site_id
 _symmetry_equiv_pos_as_xyz
  1  'x, y, z'
loop_
 _atom_site_type_symbol
 _atom_site_label
 _atom_site_symmetry_multiplicity
 _atom_site_fract_x
 _atom_site_fract_y
 _atom_site_fract_z
 _atom_site_occupancy
  Ca  Ca0  1  0.30846654  0.30733397  0.15412826  1
  Ca  Ca1  1  0.30930598  0.30776523  0.65364283  1
  Ca  Ca2  1  0.69153346  0.69266603  0.34587174  1
  Ca  Ca3  1  0.69069402  0.69223477  0.84635717  1
  Al  Al4  1  0.99974198  0.99967773  0.00003165  1
  Al  Al5  1  0.00025802  0.00032227  0.49996835  1
  H  H6  1  0.27341876  0.29213083  0.00441301  1
  H  H7  1  0.28555794  0.01430663  0.13698485  1
  H  H8  1  0.21475632  0.73163725  0.13949067  1
  H  H9  1  0.26987355  0.22286922  0.36554017  1
  H  H10  1  0.73234800  0.27273308  0.10988211  1
  H  H11  1  0.01202671  0.26335225  0.64963875  1
  H  H12  1  0.26626944  0.29621954  0.50572755  1
  H  H13  1  0.26765200  0.72726692  0.39011789  1
  H  H14  1  0.73012645  0.77713078  0.13445983  1
  H  H15  1  0.78524368  0.26836275  0.36050933  1
  H  H16  1  0.22217364  0.73262843  0.63488859  1
  H  H17  1  0.27623411  0.21690703  0.86571553  1
  H  H18  1  0.72904157  0.26875850  0.61351432  1
  H  H19  1  0.71444206  0.98569337  0.36301515  1
  H  H20  1  0.72658124  0.70786917  0.49558699  1
  H  H21  1  0.27095843  0.73124150  0.88648568  1
  H  H22  1  0.72376589  0.78309297  0.63428447  1
  H  H23  1  0.77782636  0.26737157  0.86511141  1
  H  H24  1  0.73373056  0.70378046  0.99427245  1
  H  H25  1  0.98797329  0.73664775  0.85036125  1
  Br  Br26  1  0.50000000  0.50000000  0.25000000  1
  Br  Br27  1  0.50000000  0.50000000  0.75000000  1
  O  O28  1  0.22071106  0.20562842  0.10086022  1
  O  O29  1  0.09860022  0.73081771  0.14510910  1
  O  O30  1  0.28978543  0.10003106  0.36508445  1
  O  O31  1  0.72958566  0.28904219  0.05032632  1
  O  O32  1  0.20138267  0.22081516  0.60272364  1
  O  O33  1  0.27041434  0.71095781  0.44967368  1
  O  O34  1  0.71021457  0.89996894  0.13491555  1
  O  O35  1  0.90139978  0.26918229  0.35489090  1
  O  O36  1  0.09780592  0.73206192  0.64591603  1
  O  O37  1  0.28988906  0.09873212  0.86522342  1
  O  O38  1  0.73227038  0.29055862  0.54962025  1
  O  O39  1  0.77928894  0.79437158  0.39913978  1
  O  O40  1  0.26772962  0.70944138  0.95037975  1
  O  O41  1  0.71011094  0.90126788  0.63477658  1
  O  O42  1  0.90219408  0.26793808  0.85408397  1
  O  O43  1  0.79861733  0.77918484  0.89727636  1
