# generated using pymatgen
data_Ca9LaTi10O30
_symmetry_space_group_name_H-M   'P 1'
_cell_length_a   27.18383132
_cell_length_b   7.74827276
_cell_length_c   9.43014627
_cell_angle_alpha   66.16373136
_cell_angle_beta   54.79435364
_cell_angle_gamma   45.46403575
_symmetry_Int_Tables_number   1
_chemical_formula_structural   Ca9LaTi10O30
_chemical_formula_sum   'Ca18 La2 Ti20 O60'
_cell_volume   1156.84944797
_cell_formula_units_Z   2
loop_
 _symmetry_equiv_pos_site_id
 _symmetry_equiv_pos_as_xyz
  1  'x, y, z'
loop_
 _atom_site_type_symbol
 _atom_site_label
 _atom_site_symmetry_multiplicity
 _atom_site_fract_x
 _atom_site_fract_y
 _atom_site_fract_z
 _atom_site_occupancy
  Ca  Ca0  1  0.13951582  0.03885630  0.25064535  1
  Ca  Ca1  1  0.05672990  0.45730240  0.74909581  1
  Ca  Ca2  1  0.14476825  0.53958873  0.24933692  1
  Ca  Ca3  1  0.33804909  0.04381761  0.25132529  1
  Ca  Ca4  1  0.06068920  0.95948503  0.74959827  1
  Ca  Ca5  1  0.25673989  0.45708530  0.74788879  1
  Ca  Ca6  1  0.34435323  0.53960173  0.25104233  1
  Ca  Ca7  1  0.53981059  0.04000490  0.25060603  1
  Ca  Ca8  1  0.26107799  0.95901480  0.75043967  1
  Ca  Ca9  1  0.45504912  0.46171528  0.74993737  1
  Ca  Ca10  1  0.54452351  0.53984076  0.25029136  1
  Ca  Ca11  1  0.74020856  0.03983286  0.24761661  1
  Ca  Ca12  1  0.65473525  0.45958558  0.75183004  1
  Ca  Ca13  1  0.74464364  0.54214796  0.24956252  1
  Ca  Ca14  1  0.93907457  0.04136669  0.24984558  1
  Ca  Ca15  1  0.66058117  0.95837956  0.75050368  1
  Ca  Ca16  1  0.85476025  0.46050431  0.75105670  1
  Ca  Ca17  1  0.86053657  0.96030925  0.74939211  1
  La  La18  1  0.45711196  0.97074484  0.74976400  1
  La  La19  1  0.94497884  0.53130169  0.24990542  1
  Ti  Ti20  1  0.10072107  0.99690957  0.99720088  1
  Ti  Ti21  1  0.10187071  0.49881469  0.99654895  1
  Ti  Ti22  1  0.29848506  0.99897074  0.00511107  1
  Ti  Ti23  1  0.19968612  0.99988734  0.50167667  1
  Ti  Ti24  1  0.29826783  0.50453343  0.00347189  1
  Ti  Ti25  1  0.19980870  0.50053384  0.50008062  1
  Ti  Ti26  1  0.50117312  -0.00008854  0.00041089  1
  Ti  Ti27  1  0.39963243  0.00024603  0.49523866  1
  Ti  Ti28  1  0.39919682  0.50449989  0.49812450  1
  Ti  Ti29  1  0.50072847  0.49534181  0.00213744  1
  Ti  Ti30  1  0.69997644  -0.00005061  0.00050047  1
  Ti  Ti31  1  0.60188180  0.99965756  0.49696933  1
  Ti  Ti32  1  0.69989716  0.49953172  0.00132274  1
  Ti  Ti33  1  0.60133837  0.49664622  0.49714898  1
  Ti  Ti34  1  0.89958484  0.00455427  0.99771207  1
  Ti  Ti35  1  0.79846128  0.00486831  0.50342522  1
  Ti  Ti36  1  0.89966546  0.50174427  0.99529269  1
  Ti  Ti37  1  0.79845520  0.49914008  0.50512397  1
  Ti  Ti38  1  0.00063501  0.99558001  0.50162784  1
  Ti  Ti39  1  0.00126962  0.49914106  0.50042656  1
  O  O40  1  0.08021793  0.27969913  0.04085008  1
  O  O41  1  0.06934750  0.48139071  0.25087806  1
  O  O42  1  0.09068440  0.21786791  0.54675446  1
  O  O43  1  0.00847717  0.21841949  0.95769907  1
  O  O44  1  0.00460690  0.71695339  0.54542419  1
  O  O45  1  0.03628812  0.98880746  0.24992775  1
  O  O46  1  0.16304984  0.01797248  0.74978002  1
  O  O47  1  0.19521856  0.28322600  0.45558822  1
  O  O48  1  0.27932061  0.27999783  0.04248292  1
  O  O49  1  0.10916539  0.78188412  0.45512620  1
  O  O50  1  0.19139472  0.78161707  0.04511184  1
  O  O51  1  0.12968692  0.52138631  0.75009446  1
  O  O52  1  0.26984294  0.48177970  0.25033295  1
  O  O53  1  0.20853337  0.21855185  0.95592559  1
  O  O54  1  0.29081628  0.21683783  0.54277850  1
  O  O55  1  0.20442252  0.71733130  0.54445989  1
  O  O56  1  0.12304236  0.71647193  0.95476698  1
  O  O57  1  0.23736105  0.98005685  0.25018501  1
  O  O58  1  0.36090820  0.01796638  0.74983438  1
  O  O59  1  0.39589534  0.28038562  0.45808505  1
  O  O60  1  0.47777759  0.28182912  0.04732870  1
  O  O61  1  0.39157658  0.78475786  0.04211937  1
  O  O62  1  0.30926290  0.78256970  0.45502284  1
  O  O63  1  0.33228464  0.51009319  0.74957044  1
  O  O64  1  0.47036878  0.48041514  0.24938499  1
  O  O65  1  0.49214153  0.22056912  0.54071514  1
  O  O66  1  0.40850799  0.22069760  0.95895833  1
  O  O67  1  0.40420248  0.71755277  0.54381498  1
  O  O68  1  0.32156106  0.71816797  0.95631335  1
  O  O69  1  0.43753039  0.97887810  0.25057572  1
  O  O70  1  0.56162547  0.02006023  0.75066714  1
  O  O71  1  0.59667530  0.28207053  0.45337325  1
  O  O72  1  0.67735394  0.28355713  0.04482296  1
  O  O73  1  0.59124241  0.78289900  0.04585247  1
  O  O74  1  0.50871731  0.78402284  0.45794300  1
  O  O75  1  0.52943070  0.51993257  0.75006046  1
  O  O76  1  0.67083476  0.47916578  0.24999307  1
  O  O77  1  0.69054382  0.21665778  0.54585184  1
  O  O78  1  0.60865452  0.21663248  0.95521796  1
  O  O79  1  0.60392770  0.71881878  0.54506091  1
  O  O80  1  0.52190234  0.71880502  0.95477745  1
  O  O81  1  0.63812043  0.97945969  0.24978140  1
  O  O82  1  0.76222738  0.02063706  0.74969094  1
  O  O83  1  0.79451797  0.28384197  0.45686604  1
  O  O84  1  0.87734101  0.28384477  0.04250912  1
  O  O85  1  0.70901656  0.78429773  0.45578838  1
  O  O86  1  0.79131392  0.78385252  0.04292117  1
  O  O87  1  0.72927379  0.52006495  0.74984008  1
  O  O88  1  0.86822447  0.48097050  0.24976782  1
  O  O89  1  0.89129751  0.21935681  0.54201313  1
  O  O90  1  0.80869042  0.21672420  0.95400054  1
  O  O91  1  0.72206712  0.71723308  0.95544702  1
  O  O92  1  0.80564874  0.71470254  0.54199854  1
  O  O93  1  0.83762416  0.97995879  0.24971940  1
  O  O94  1  0.96225671  0.01972781  0.75000716  1
  O  O95  1  0.99693040  0.27903156  0.45841955  1
  O  O96  1  0.90927020  0.78162456  0.45516059  1
  O  O97  1  0.99126725  0.78171099  0.04513017  1
  O  O98  1  0.92928450  0.52086745  0.75020583  1
  O  O99  1  0.92255223  0.71438974  0.95798787  1
