# generated using pymatgen
data_RbTaPS6
_symmetry_space_group_name_H-M   'P 1'
_cell_length_a   14.45882685
_cell_length_b   16.15232743
_cell_length_c   18.03059628
_cell_angle_alpha   90.00000000
_cell_angle_beta   90.00000000
_cell_angle_gamma   106.69122466
_symmetry_Int_Tables_number   1
_chemical_formula_structural   RbTaPS6
_chemical_formula_sum   'Rb16 Ta16 P16 S96'
_cell_volume   4033.51093252
_cell_formula_units_Z   16
loop_
 _symmetry_equiv_pos_site_id
 _symmetry_equiv_pos_as_xyz
  1  'x, y, z'
loop_
 _atom_site_type_symbol
 _atom_site_label
 _atom_site_symmetry_multiplicity
 _atom_site_fract_x
 _atom_site_fract_y
 _atom_site_fract_z
 _atom_site_occupancy
  Rb  Rb0  1  0.05312093  0.51109675  0.62581044  1
  Rb  Rb1  1  0.94687907  0.48890325  0.37418956  1
  Rb  Rb2  1  0.85187027  0.54457682  0.06759920  1
  Rb  Rb3  1  0.64812973  0.95542318  0.56759920  1
  Rb  Rb4  1  0.48900645  0.62878815  0.51541802  1
  Rb  Rb5  1  0.14430368  0.97721800  0.67242374  1
  Rb  Rb6  1  0.85569632  0.02278200  0.32757626  1
  Rb  Rb7  1  0.01099355  0.87121185  0.01541802  1
  Rb  Rb8  1  0.98900645  0.12878815  0.98458198  1
  Rb  Rb9  1  0.35569632  0.52278200  0.17242374  1
  Rb  Rb10  1  0.44687907  0.98890325  0.12581044  1
  Rb  Rb11  1  0.35187027  0.04457682  0.43240080  1
  Rb  Rb12  1  0.14812973  0.45542318  0.93240080  1
  Rb  Rb13  1  0.51099355  0.37121185  0.48458198  1
  Rb  Rb14  1  0.64430368  0.47721800  0.82757626  1
  Rb  Rb15  1  0.55312093  0.01109675  0.87418956  1
  Ta  Ta16  1  0.75182967  0.24623422  0.61214058  1
  Ta  Ta17  1  0.74817033  0.25376578  0.11214058  1
  Ta  Ta18  1  0.29256297  0.26936777  0.71297274  1
  Ta  Ta19  1  0.67229873  0.83553466  0.12215411  1
  Ta  Ta20  1  0.32770127  0.16446534  0.87784589  1
  Ta  Ta21  1  0.24817033  0.75376578  0.38785942  1
  Ta  Ta22  1  0.63716560  0.30519072  0.27689286  1
  Ta  Ta23  1  0.13716560  0.80519072  0.22310714  1
  Ta  Ta24  1  0.70743703  0.73063223  0.28702726  1
  Ta  Ta25  1  0.36283440  0.69480928  0.72310714  1
  Ta  Ta26  1  0.82770127  0.66446534  0.62215411  1
  Ta  Ta27  1  0.20743703  0.23063223  0.21297274  1
  Ta  Ta28  1  0.25182967  0.74623422  0.88785942  1
  Ta  Ta29  1  0.17229873  0.33553466  0.37784589  1
  Ta  Ta30  1  0.86283440  0.19480928  0.77689286  1
  Ta  Ta31  1  0.79256297  0.76936777  0.78702726  1
  P  P32  1  0.69254915  0.16768730  0.44133779  1
  P  P33  1  0.19254915  0.66768730  0.05866221  1
  P  P34  1  0.84005346  0.98464806  0.78757886  1
  P  P35  1  0.30745085  0.83231270  0.55866221  1
  P  P36  1  0.80745085  0.33231270  0.94133779  1
  P  P37  1  0.25119791  0.54861667  0.38963028  1
  P  P38  1  0.34005346  0.48464806  0.71242114  1
  P  P39  1  0.24880209  0.95138333  0.88963028  1
  P  P40  1  0.74880209  0.45138333  0.61036972  1
  P  P41  1  0.65994654  0.51535194  0.28757886  1
  P  P42  1  0.28605616  0.30217680  0.04482515  1
  P  P43  1  0.21394384  0.19782320  0.54482515  1
  P  P44  1  0.71394384  0.69782320  0.95517485  1
  P  P45  1  0.15994654  0.01535194  0.21242114  1
  P  P46  1  0.75119791  0.04861667  0.11036972  1
  P  P47  1  0.78605616  0.80217680  0.45517485  1
  S  S48  1  0.18858773  0.64410573  0.79996643  1
  S  S49  1  0.86269211  0.33322248  0.71379537  1
  S  S50  1  0.55471544  0.82898284  0.04255594  1
  S  S51  1  0.28024226  0.26133713  0.44937122  1
  S  S52  1  0.41163246  0.57506381  0.78866313  1
  S  S53  1  0.64663106  0.34611872  0.65342209  1
  S  S54  1  0.69641465  0.54181647  0.55901410  1
  S  S55  1  0.74208550  0.23750242  0.86372201  1
  S  S56  1  0.93683664  0.72554658  0.73494691  1
  S  S57  1  0.35336894  0.65388128  0.34657791  1
  S  S58  1  0.72369537  0.89198903  0.74353028  1
  S  S59  1  0.42404611  0.41503698  0.66754263  1
  S  S60  1  0.61353727  0.21145459  0.52160861  1
  S  S61  1  0.31439259  0.32982286  0.28353867  1
  S  S62  1  0.16883014  0.31623177  0.10847812  1
  S  S63  1  0.94528456  0.67101716  0.54255594  1
  S  S64  1  0.43683664  0.22554658  0.76505309  1
  S  S65  1  0.17159392  0.60491846  0.45697264  1
  S  S66  1  0.68858773  0.14410573  0.70003357  1
  S  S67  1  0.29529010  0.56470658  0.63966416  1
  S  S68  1  0.32840608  0.89508154  0.95697264  1
  S  S69  1  0.79529010  0.06470658  0.86033584  1
  S  S70  1  0.13730789  0.66677752  0.28620463  1
  S  S71  1  0.83195857  0.52930005  0.69206039  1
  S  S72  1  0.71975774  0.73866287  0.55062878  1
  S  S73  1  0.19641465  0.04181647  0.94098590  1
  S  S74  1  0.87505608  0.44658794  0.89807405  1
  S  S75  1  0.05471544  0.32898284  0.45744406  1
  S  S76  1  0.69055868  0.33116070  0.01082168  1
  S  S77  1  0.67672030  0.78366830  0.88349611  1
  S  S78  1  0.99506587  0.26155195  0.83861514  1
  S  S79  1  0.82840608  0.39508154  0.54302736  1
  S  S80  1  0.38496396  0.41153798  0.02083786  1
  S  S81  1  0.33195857  0.02930005  0.80793961  1
  S  S82  1  0.36269211  0.83322248  0.78620463  1
  S  S83  1  0.83116986  0.68376823  0.89152188  1
  S  S84  1  0.11353727  0.71145459  0.97839139  1
  S  S85  1  0.56316336  0.77445342  0.23494691  1
  S  S86  1  0.08836754  0.92493619  0.28866313  1
  S  S87  1  0.81141227  0.35589427  0.20003357  1
  S  S88  1  0.66804143  0.97069995  0.19206039  1
  S  S89  1  0.50493413  0.23844805  0.33861514  1
  S  S90  1  0.57595389  0.58496302  0.33245737  1
  S  S91  1  0.62494392  0.05341206  0.39807405  1
  S  S92  1  0.85336894  0.15388128  0.15342209  1
  S  S93  1  0.18560741  0.17017714  0.78353867  1
  S  S94  1  0.91163246  0.07506381  0.71133687  1
  S  S95  1  0.25791450  0.76249758  0.13627799  1
  S  S96  1  0.14663106  0.84611872  0.84657791  1
  S  S97  1  0.20470990  0.93529342  0.13966416  1
  S  S98  1  0.80944132  0.16883930  0.51082168  1
  S  S99  1  0.37505608  0.94658794  0.60192595  1
  S  S100  1  0.19055868  0.83116070  0.48917832  1
  S  S101  1  0.67159392  0.10491846  0.04302736  1
  S  S102  1  0.30358535  0.45818353  0.44098590  1
  S  S103  1  0.16804143  0.47069995  0.30793961  1
  S  S104  1  0.61503604  0.58846202  0.97916214  1
  S  S105  1  0.31141227  0.85589427  0.29996643  1
  S  S106  1  0.80358535  0.95818353  0.05901410  1
  S  S107  1  0.92404611  0.91503698  0.83245737  1
  S  S108  1  0.63730789  0.16677752  0.21379537  1
  S  S109  1  0.57454320  0.24095453  0.14985683  1
  S  S110  1  0.12494392  0.55341206  0.10192595  1
  S  S111  1  0.00493413  0.73844805  0.16138486  1
  S  S112  1  0.77630463  0.60801097  0.24353028  1
  S  S113  1  0.17672030  0.28366830  0.61650389  1
  S  S114  1  0.30944132  0.66883930  0.98917832  1
  S  S115  1  0.60043489  0.68465232  0.16991238  1
  S  S116  1  0.38646273  0.78854541  0.47839139  1
  S  S117  1  0.92545680  0.25904547  0.64985683  1
  S  S118  1  0.06316336  0.27445342  0.26505309  1
  S  S119  1  0.66883014  0.81623177  0.39152188  1
  S  S120  1  0.10043489  0.18465232  0.33008762  1
  S  S121  1  0.82327970  0.71633170  0.38349611  1
  S  S122  1  0.07454320  0.74095453  0.35014317  1
  S  S123  1  0.89956511  0.81534768  0.66991238  1
  S  S124  1  0.78024226  0.76133713  0.05062878  1
  S  S125  1  0.21975774  0.23866287  0.94937122  1
  S  S126  1  0.49506587  0.76155195  0.66138486  1
  S  S127  1  0.68560741  0.67017714  0.71646133  1
  S  S128  1  0.58836754  0.42493619  0.21133687  1
  S  S129  1  0.39956511  0.31534768  0.83008762  1
  S  S130  1  0.24208550  0.73750242  0.63627799  1
  S  S131  1  0.70470990  0.43529342  0.36033584  1
  S  S132  1  0.88646273  0.28854541  0.02160861  1
  S  S133  1  0.42545680  0.75904547  0.85014317  1
  S  S134  1  0.11503604  0.08846202  0.52083786  1
  S  S135  1  0.32327970  0.21633170  0.11650389  1
  S  S136  1  0.07595389  0.08496302  0.16754263  1
  S  S137  1  0.88496396  0.91153798  0.47916214  1
  S  S138  1  0.22369537  0.39198903  0.75646972  1
  S  S139  1  0.27630463  0.10801097  0.25646972  1
  S  S140  1  0.33116986  0.18376823  0.60847812  1
  S  S141  1  0.81439259  0.82982286  0.21646133  1
  S  S142  1  0.75791450  0.26249758  0.36372201  1
  S  S143  1  0.44528456  0.17101716  0.95744406  1
