# generated using pymatgen
data_Li9Co7O16
_symmetry_space_group_name_H-M   'P 1'
_cell_length_a   2.97977513
_cell_length_b   10.27513821
_cell_length_c   9.86659187
_cell_angle_alpha   106.56729252
_cell_angle_beta   91.41316142
_cell_angle_gamma   81.74256709
_symmetry_Int_Tables_number   1
_chemical_formula_structural   Li9Co7O16
_chemical_formula_sum   'Li9 Co7 O16'
_cell_volume   286.50610752
_cell_formula_units_Z   1
loop_
 _symmetry_equiv_pos_site_id
 _symmetry_equiv_pos_as_xyz
  1  'x, y, z'
loop_
 _atom_site_type_symbol
 _atom_site_label
 _atom_site_symmetry_multiplicity
 _atom_site_fract_x
 _atom_site_fract_y
 _atom_site_fract_z
 _atom_site_occupancy
  Li  Li0  1  0.93593057  0.12652356  0.30806561  1
  Li  Li1  1  0.43958447  0.12229635  0.81119566  1
  Li  Li2  1  0.31041553  0.37770365  0.43880434  1
  Li  Li3  1  0.81406943  0.37347644  0.94193439  1
  Li  Li4  1  0.68831054  0.62443595  0.56352100  1
  Li  Li5  1  0.19295921  0.62354563  0.06295916  1
  Li  Li6  1  0.06168946  0.87556405  0.68647900  1
  Li  Li7  1  0.55704079  0.87645437  0.18704084  1
  Li  Li8  1  0.37500000  0.25000000  0.12500000  1
  Co  Co9  1  0.99720810  0.00938751  0.00507741  1
  Co  Co10  1  0.75279190  0.49061249  0.24492259  1
  Co  Co11  1  0.49983338  0.99696808  0.50111143  1
  Co  Co12  1  0.87500000  0.25000000  0.62500000  1
  Co  Co13  1  0.25016662  0.50303192  0.74888857  1
  Co  Co14  1  0.12107433  0.74724683  0.37338817  1
  Co  Co15  1  0.62892567  0.75275317  0.87661183  1
  O  O16  1  0.43627322  0.05735670  0.14348292  1
  O  O17  1  0.97702776  0.06239853  0.64584079  1
  O  O18  1  0.83152918  0.33288893  0.28170693  1
  O  O19  1  0.34084268  0.31495165  0.77334814  1
  O  O20  1  0.17636804  0.56672277  0.39602964  1
  O  O21  1  0.72496568  0.56915974  0.89983113  1
  O  O22  1  0.59013227  0.81571591  0.52410979  1
  O  O23  1  0.09885901  0.82336603  0.02203620  1
  O  O24  1  0.40915732  0.18504835  0.47665086  1
  O  O25  1  0.91846982  0.16711107  0.96829307  1
  O  O26  1  0.77297324  0.43760147  0.60415921  1
  O  O27  1  0.31372678  0.44264330  0.10651808  1
  O  O28  1  0.15986773  0.68428409  0.72589021  1
  O  O29  1  0.65114099  0.67663397  0.22796380  1
  O  O30  1  0.57363196  0.93327723  0.85397036  1
  O  O31  1  0.02503432  0.93084026  0.35016887  1
