# generated using pymatgen
data_Ba2CeC3O9F
_symmetry_space_group_name_H-M   'P 1'
_cell_length_a   5.16264170
_cell_length_b   6.69904951
_cell_length_c   13.29881676
_cell_angle_alpha   102.69746009
_cell_angle_beta   90.00000000
_cell_angle_gamma   90.00000000
_symmetry_Int_Tables_number   1
_chemical_formula_structural   Ba2CeC3O9F
_chemical_formula_sum   'Ba4 Ce2 C6 O18 F2'
_cell_volume   448.68873429
_cell_formula_units_Z   2
loop_
 _symmetry_equiv_pos_site_id
 _symmetry_equiv_pos_as_xyz
  1  'x, y, z'
loop_
 _atom_site_type_symbol
 _atom_site_label
 _atom_site_symmetry_multiplicity
 _atom_site_fract_x
 _atom_site_fract_y
 _atom_site_fract_z
 _atom_site_occupancy
  Ba  Ba0  1  0.25000000  0.72660166  0.41652534  1
  Ba  Ba1  1  0.25000000  0.78540957  0.07500582  1
  Ba  Ba2  1  0.75000000  0.27339834  0.58347466  1
  Ba  Ba3  1  0.75000000  0.21459043  0.92499418  1
  Ce  Ce4  1  0.75000000  0.22824157  0.23920563  1
  Ce  Ce5  1  0.25000000  0.77175843  0.76079437  1
  C  C6  1  0.25000000  0.33186204  0.12882224  1
  C  C7  1  0.25000000  0.21456891  0.72704029  1
  C  C8  1  0.75000000  0.78543109  0.27295971  1
  C  C9  1  0.25000000  0.25351503  0.42611801  1
  C  C10  1  0.75000000  0.74648497  0.57388199  1
  C  C11  1  0.75000000  0.66813796  0.87117776  1
  O  O12  1  0.03161026  0.32007458  0.39641406  1
  O  O13  1  0.03405056  0.12098879  0.73717973  1
  O  O14  1  0.25000000  0.13563851  0.49062535  1
  O  O15  1  0.53161026  0.67992542  0.60358594  1
  O  O16  1  0.96944770  0.59877679  0.89555052  1
  O  O17  1  0.46594944  0.12098879  0.73717973  1
  O  O18  1  0.03055230  0.40122321  0.10444948  1
  O  O19  1  0.25000000  0.19242286  0.18403991  1
  O  O20  1  0.96838974  0.67992542  0.60358594  1
  O  O21  1  0.96594944  0.87901121  0.26282027  1
  O  O22  1  0.25000000  0.39109873  0.70258324  1
  O  O23  1  0.46944770  0.40122321  0.10444948  1
  O  O24  1  0.75000000  0.86436149  0.50937465  1
  O  O25  1  0.75000000  0.80757714  0.81596009  1
  O  O26  1  0.53405056  0.87901121  0.26282027  1
  O  O27  1  0.53055230  0.59877679  0.89555052  1
  O  O28  1  0.46838974  0.32007458  0.39641406  1
  O  O29  1  0.75000000  0.60890127  0.29741676  1
  F  F30  1  0.75000000  0.98576504  0.07435250  1
  F  F31  1  0.25000000  0.01423496  0.92564750  1
