# generated using pymatgen
data_KCa10(PO4)7
_symmetry_space_group_name_H-M   'P 1'
_cell_length_a   13.94147189
_cell_length_b   13.94147189
_cell_length_c   13.94147189
_cell_angle_alpha   44.71720567
_cell_angle_beta   44.71720566
_cell_angle_gamma   44.71720567
_symmetry_Int_Tables_number   1
_chemical_formula_structural   KCa10(PO4)7
_chemical_formula_sum   'K2 Ca20 P14 O56'
_cell_volume   1220.26825251
_cell_formula_units_Z   2
loop_
 _symmetry_equiv_pos_site_id
 _symmetry_equiv_pos_as_xyz
  1  'x, y, z'
loop_
 _atom_site_type_symbol
 _atom_site_label
 _atom_site_symmetry_multiplicity
 _atom_site_fract_x
 _atom_site_fract_y
 _atom_site_fract_z
 _atom_site_occupancy
  O  O0  1  0.96040314  0.26848936  0.50569268  1
  O  O1  1  0.26848936  0.50569268  0.96040314  1
  O  O2  1  0.50569268  0.96040314  0.26848936  1
  O  O3  1  0.00569268  0.76848936  0.46040314  1
  O  O4  1  0.76848936  0.46040314  0.00569268  1
  O  O5  1  0.46040314  0.00569268  0.76848936  1
  O  O6  1  0.21956658  0.03961127  0.49268583  1
  O  O7  1  0.03961127  0.49268583  0.21956658  1
  O  O8  1  0.49268583  0.21956658  0.03961127  1
  O  O9  1  0.99268583  0.53961127  0.71956658  1
  O  O10  1  0.53961127  0.71956658  0.99268583  1
  O  O11  1  0.71956658  0.99268583  0.53961127  1
  O  O12  1  0.03095737  0.05819438  0.48713476  1
  O  O13  1  0.05819438  0.48713476  0.03095737  1
  O  O14  1  0.48713476  0.03095737  0.05819438  1
  O  O15  1  0.98713476  0.55819438  0.53095737  1
  O  O16  1  0.55819438  0.53095737  0.98713476  1
  O  O17  1  0.53095737  0.98713476  0.55819438  1
  O  O18  1  0.98468544  0.01633953  0.72726665  1
  O  O19  1  0.01633953  0.72726665  0.98468544  1
  O  O20  1  0.72726665  0.98468544  0.01633953  1
  O  O21  1  0.22726665  0.51633953  0.48468544  1
  O  O22  1  0.70059759  0.25921436  0.50778718  1
  O  O23  1  0.51633953  0.48468544  0.22726665  1
  O  O24  1  0.73113856  0.01299067  0.73541514  1
  O  O25  1  0.01299067  0.73541514  0.73113856  1
  O  O26  1  0.73541514  0.73113856  0.01299067  1
  O  O27  1  0.23541514  0.51299067  0.23113856  1
  O  O28  1  0.51299067  0.23113856  0.23541514  1
  O  O29  1  0.23113856  0.23541514  0.51299067  1
  O  O30  1  0.47133514  0.20721871  0.76395159  1
  O  O31  1  0.20721871  0.76395159  0.47133514  1
  O  O32  1  0.76395159  0.47133514  0.20721871  1
  O  O33  1  0.26395159  0.70721871  0.97133514  1
  O  O34  1  0.70721871  0.97133514  0.26395159  1
  O  O35  1  0.97133514  0.26395159  0.70721871  1
  O  O36  1  0.17590562  0.17590562  0.17590562  1
  O  O37  1  0.67590562  0.67590562  0.67590562  1
  O  O38  1  0.12702201  0.25752519  0.97873025  1
  O  O39  1  0.97873025  0.12702201  0.25752519  1
  O  O40  1  0.25752519  0.97873025  0.12702201  1
  O  O41  1  0.75752519  0.62702201  0.47873025  1
  O  O42  1  0.47873025  0.75752519  0.62702201  1
  O  O43  1  0.62702201  0.47873025  0.75752519  1
  O  O44  1  0.13394022  0.23463068  0.75533537  1
  O  O45  1  0.75533537  0.13394022  0.23463068  1
  O  O46  1  0.23463068  0.75533537  0.13394022  1
  O  O47  1  0.73463068  0.63394022  0.25533537  1
  O  O48  1  0.25533537  0.73463068  0.63394022  1
  O  O49  1  0.63394022  0.25533537  0.73463068  1
  O  O50  1  0.20059759  0.00778718  0.75921436  1
  O  O51  1  0.75921436  0.20059759  0.00778718  1
  O  O52  1  0.00778718  0.75921436  0.20059759  1
  O  O53  1  0.50778718  0.70059759  0.25921436  1
  O  O54  1  0.25921436  0.50778718  0.70059759  1
  O  O55  1  0.48468544  0.22726665  0.51633953  1
  P  P56  1  0.04959639  0.09655579  0.55255775  1
  P  P57  1  0.09655579  0.55255775  0.04959639  1
  P  P58  1  0.55255775  0.04959639  0.09655579  1
  P  P59  1  0.05255775  0.59655579  0.54959639  1
  P  P60  1  0.59655579  0.54959639  0.05255775  1
  P  P61  1  0.54959639  0.05255775  0.59655579  1
  P  P62  1  0.63610846  0.18741339  0.68066046  1
  P  P63  1  0.18741339  0.68066046  0.63610846  1
  P  P64  1  0.68066046  0.63610846  0.18741339  1
  P  P65  1  0.18066046  0.68741339  0.13610846  1
  P  P66  1  0.68741339  0.13610846  0.18066046  1
  P  P67  1  0.13610846  0.18066046  0.68741339  1
  P  P68  1  0.63440076  0.63440076  0.63440076  1
  P  P69  1  0.13440076  0.13440076  0.13440076  1
  K  K70  1  0.54869123  0.54869123  0.54869123  1
  K  K71  1  0.04869123  0.04869123  0.04869123  1
  Ca  Ca72  1  0.86707762  0.86707762  0.86707762  1
  Ca  Ca73  1  0.36707762  0.36707762  0.36707762  1
  Ca  Ca74  1  0.77554265  0.21300056  0.81342856  1
  Ca  Ca75  1  0.21300056  0.81342856  0.77554265  1
  Ca  Ca76  1  0.81342856  0.77554265  0.21300056  1
  Ca  Ca77  1  0.31342856  0.71300056  0.27554265  1
  Ca  Ca78  1  0.71300056  0.27554265  0.31342856  1
  Ca  Ca79  1  0.27554265  0.31342856  0.71300056  1
  Ca  Ca80  1  0.02462905  0.44035852  0.43145083  1
  Ca  Ca81  1  0.44035852  0.43145083  0.02462905  1
  Ca  Ca82  1  0.43145083  0.02462905  0.44035852  1
  Ca  Ca83  1  0.93145083  0.94035852  0.52462905  1
  Ca  Ca84  1  0.94035852  0.52462905  0.93145083  1
  Ca  Ca85  1  0.52462905  0.93145083  0.94035852  1
  Ca  Ca86  1  0.93261864  0.34074909  0.30768829  1
  Ca  Ca87  1  0.34074909  0.30768829  0.93261864  1
  Ca  Ca88  1  0.30768829  0.93261864  0.34074909  1
  Ca  Ca89  1  0.80768829  0.84074909  0.43261864  1
  Ca  Ca90  1  0.84074909  0.43261864  0.80768829  1
  Ca  Ca91  1  0.43261864  0.80768829  0.84074909  1
