# generated using pymatgen
data_K3Ga2(PO4)3
_symmetry_space_group_name_H-M   'P 1'
_cell_length_a   8.55270375
_cell_length_b   8.87904249
_cell_length_c   17.24774842
_cell_angle_alpha   90.00000000
_cell_angle_beta   90.00000000
_cell_angle_gamma   90.00000000
_symmetry_Int_Tables_number   1
_chemical_formula_structural   K3Ga2(PO4)3
_chemical_formula_sum   'K12 Ga8 P12 O48'
_cell_volume   1309.79091043
_cell_formula_units_Z   4
loop_
 _symmetry_equiv_pos_site_id
 _symmetry_equiv_pos_as_xyz
  1  'x, y, z'
loop_
 _atom_site_type_symbol
 _atom_site_label
 _atom_site_symmetry_multiplicity
 _atom_site_fract_x
 _atom_site_fract_y
 _atom_site_fract_z
 _atom_site_occupancy
  O  O0  1  0.69527257  0.76830047  0.97251986  1
  O  O1  1  0.19527257  0.23169953  0.02748014  1
  O  O2  1  0.19527257  0.73169953  0.47251986  1
  O  O3  1  0.69527257  0.26830047  0.52748014  1
  O  O4  1  0.89160630  0.62366797  0.05608419  1
  O  O5  1  0.39160630  0.37633203  0.94391581  1
  O  O6  1  0.39160630  0.87633203  0.55608419  1
  O  O7  1  0.89160630  0.12366797  0.44391581  1
  O  O8  1  0.92922319  0.90649057  0.03378683  1
  O  O9  1  0.42922319  0.09350943  0.96621317  1
  O  O10  1  0.42922319  0.59350943  0.53378683  1
  O  O11  1  0.92922319  0.40649057  0.46621317  1
  O  O12  1  0.97663117  0.71900204  0.92651564  1
  O  O13  1  0.47663117  0.28099796  0.07348436  1
  O  O14  1  0.47663117  0.78099796  0.42651564  1
  O  O15  1  0.97663117  0.21900204  0.57348436  1
  O  O16  1  0.81045198  0.96712121  0.65967901  1
  O  O17  1  0.31045198  0.03287879  0.34032099  1
  O  O18  1  0.31045198  0.53287879  0.15967901  1
  O  O19  1  0.12926664  0.56462558  0.79556548  1
  O  O20  1  0.81045198  0.46712121  0.84032099  1
  O  O21  1  0.35615645  0.20961117  0.22726061  1
  O  O22  1  0.35615645  0.70961117  0.27273939  1
  O  O23  1  0.85615645  0.29038883  0.72726061  1
  O  O24  1  0.61630588  0.76558111  0.69128217  1
  O  O25  1  0.11630588  0.23441889  0.30871783  1
  O  O26  1  0.11630588  0.73441889  0.19128217  1
  O  O27  1  0.61630588  0.26558111  0.80871783  1
  O  O28  1  0.87507657  0.68953533  0.63241167  1
  O  O29  1  0.37507657  0.31046467  0.36758833  1
  O  O30  1  0.37507657  0.81046467  0.13241167  1
  O  O31  1  0.87507657  0.18953533  0.86758833  1
  O  O32  1  0.28591024  0.21010900  0.79953275  1
  O  O33  1  0.78591024  0.78989100  0.20046725  1
  O  O34  1  0.78591024  0.28989100  0.29953275  1
  O  O35  1  0.28591024  0.71010900  0.70046725  1
  O  O36  1  0.42019710  0.03014177  0.70969566  1
  O  O37  1  0.92019710  0.96985823  0.29030434  1
  O  O38  1  0.92019710  0.46985823  0.20969566  1
  O  O39  1  0.42019710  0.53014177  0.79030434  1
  O  O40  1  0.31348489  0.27550662  0.65441570  1
  O  O41  1  0.81348489  0.72449338  0.34558430  1
  O  O42  1  0.81348489  0.22449338  0.15441570  1
  O  O43  1  0.31348489  0.77550662  0.84558430  1
  O  O44  1  0.12926664  0.06462558  0.70443452  1
  O  O45  1  0.62926664  0.93537442  0.29556548  1
  O  O46  1  0.62926664  0.43537442  0.20443452  1
  O  O47  1  0.85615645  0.79038883  0.77273939  1
  P  P48  1  0.28765163  0.15230208  0.71337717  1
  P  P49  1  0.78765163  0.84769792  0.28662283  1
  P  P50  1  0.78765163  0.34769792  0.21337717  1
  P  P51  1  0.28765163  0.65230208  0.78662283  1
  P  P52  1  0.79610838  0.29886882  0.81353751  1
  P  P53  1  0.29610838  0.70113118  0.18646249  1
  P  P54  1  0.29610838  0.20113118  0.31353751  1
  P  P55  1  0.79610838  0.79886882  0.68646249  1
  P  P56  1  0.86582588  0.26286075  0.50273532  1
  P  P57  1  0.36582588  0.73713925  0.49726468  1
  P  P58  1  0.36582588  0.23713925  0.00273532  1
  P  P59  1  0.86582588  0.76286075  0.99726468  1
  K  K60  1  0.59573909  0.45476165  0.64479166  1
  K  K61  1  0.09573909  0.54523835  0.35520834  1
  K  K62  1  0.09573909  0.04523835  0.14479166  1
  K  K63  1  0.59573909  0.95476165  0.85520834  1
  K  K64  1  0.12330102  0.00908837  0.90078327  1
  K  K65  1  0.62330102  0.99091163  0.09921673  1
  K  K66  1  0.62330102  0.49091163  0.40078327  1
  K  K67  1  0.12330102  0.50908837  0.59921673  1
  K  K68  1  0.40303074  0.17310658  0.50947579  1
  K  K69  1  0.90303074  0.82689342  0.49052421  1
  K  K70  1  0.90303074  0.32689342  0.00947579  1
  K  K71  1  0.40303074  0.67310658  0.99052421  1
  Ga  Ga72  1  0.93901906  0.13341375  0.66855739  1
  Ga  Ga73  1  0.43901906  0.86658625  0.33144261  1
  Ga  Ga74  1  0.43901906  0.36658625  0.16855739  1
  Ga  Ga75  1  0.93901906  0.63341375  0.83144261  1
  Ga  Ga76  1  0.42708122  0.34674710  0.84022213  1
  Ga  Ga77  1  0.92708122  0.65325290  0.15977787  1
  Ga  Ga78  1  0.92708122  0.15325290  0.34022213  1
  Ga  Ga79  1  0.42708122  0.84674710  0.65977787  1
