# generated using pymatgen
data_Cs4Mg3H10
_symmetry_space_group_name_H-M   'P 1'
_cell_length_a   6.32544687
_cell_length_b   8.00733108
_cell_length_c   13.83202124
_cell_angle_alpha   90.00000000
_cell_angle_beta   90.00000000
_cell_angle_gamma   113.26463484
_symmetry_Int_Tables_number   1
_chemical_formula_structural   Cs4Mg3H10
_chemical_formula_sum   'Cs8 Mg6 H20'
_cell_volume   643.62632810
_cell_formula_units_Z   2
loop_
 _symmetry_equiv_pos_site_id
 _symmetry_equiv_pos_as_xyz
  1  'x, y, z'
loop_
 _atom_site_type_symbol
 _atom_site_label
 _atom_site_symmetry_multiplicity
 _atom_site_fract_x
 _atom_site_fract_y
 _atom_site_fract_z
 _atom_site_occupancy
  Cs  Cs0  1  0.24612630  0.49225259  0.89371250  1
  Cs  Cs1  1  0.75387370  0.50774741  0.10628750  1
  Cs  Cs2  1  0.25387370  0.50774741  0.39371250  1
  Cs  Cs3  1  0.74612630  0.49225259  0.60628750  1
  Cs  Cs4  1  0.04293919  0.08587838  0.63792211  1
  Cs  Cs5  1  0.95706081  0.91412162  0.36207789  1
  Cs  Cs6  1  0.45706081  0.91412162  0.13792211  1
  Cs  Cs7  1  0.54293919  0.08587838  0.86207789  1
  Mg  Mg8  1  0.38177639  0.76355278  0.65569758  1
  Mg  Mg9  1  0.61822361  0.23644722  0.34430242  1
  Mg  Mg10  1  0.11822361  0.23644722  0.15569758  1
  Mg  Mg11  1  0.88177639  0.76355278  0.84430242  1
  Mg  Mg12  1  0.50000000  0.00000000  0.50000000  1
  Mg  Mg13  1  0.00000000  0.00000000  0.00000000  1
  H  H14  1  0.20155905  0.80689362  0.53835206  1
  H  H15  1  0.39466543  0.19310638  0.46164794  1
  H  H16  1  0.89466543  0.19310638  0.03835206  1
  H  H17  1  0.70155905  0.80689362  0.96164794  1
  H  H18  1  0.79844095  0.19310638  0.46164794  1
  H  H19  1  0.60533457  0.80689362  0.53835206  1
  H  H20  1  0.10533457  0.80689362  0.96164794  1
  H  H21  1  0.29844095  0.19310638  0.03835206  1
  H  H22  1  0.25291742  0.50583484  0.64820459  1
  H  H23  1  0.74708258  0.49416516  0.35179541  1
  H  H24  1  0.24708258  0.49416516  0.14820459  1
  H  H25  1  0.75291742  0.50583484  0.85179541  1
  H  H26  1  0.02290943  0.04581885  0.85740851  1
  H  H27  1  0.97709057  0.95418115  0.14259149  1
  H  H28  1  0.47709057  0.95418115  0.35740851  1
  H  H29  1  0.52290943  0.04581885  0.64259149  1
  H  H30  1  0.14138255  0.78276510  0.75000000  1
  H  H31  1  0.35861745  0.21723490  0.25000000  1
  H  H32  1  0.85861745  0.21723490  0.25000000  1
  H  H33  1  0.64138255  0.78276510  0.75000000  1
