# generated using pymatgen
data_Na2P2H2O7
_symmetry_space_group_name_H-M   'P 1'
_cell_length_a   15.22350248
_cell_length_b   7.11136594
_cell_length_c   14.32877904
_cell_angle_alpha   83.12501423
_cell_angle_beta   27.66096012
_cell_angle_gamma   69.01601087
_symmetry_Int_Tables_number   1
_chemical_formula_structural   Na2P2H2O7
_chemical_formula_sum   'Na8 P8 H8 O28'
_cell_volume   598.54807745
_cell_formula_units_Z   4
loop_
 _symmetry_equiv_pos_site_id
 _symmetry_equiv_pos_as_xyz
  1  'x, y, z'
loop_
 _atom_site_type_symbol
 _atom_site_label
 _atom_site_symmetry_multiplicity
 _atom_site_fract_x
 _atom_site_fract_y
 _atom_site_fract_z
 _atom_site_occupancy
  Na  Na0  1  0.71596832  0.31529025  0.63452879  1
  Na  Na1  1  0.63404276  0.83135312  0.71547832  1
  Na  Na2  1  0.31866226  0.71423389  0.83234885  1
  Na  Na3  1  0.83552381  0.62997968  0.31728922  1
  Na  Na4  1  0.28252566  0.68350503  0.36673924  1
  Na  Na5  1  0.36894883  0.16830658  0.28257794  1
  Na  Na6  1  0.68461412  0.28038271  0.16507199  1
  Na  Na7  1  0.16649240  0.37072009  0.68483803  1
  P  P8  1  0.21442812  0.75056156  0.18001508  1
  P  P9  1  0.18250400  0.35309322  0.21249338  1
  P  P10  1  0.75051029  0.21320184  0.35533587  1
  P  P11  1  0.35574477  0.17922167  0.74983284  1
  P  P12  1  0.78776768  0.24813250  0.81733525  1
  P  P13  1  0.81811715  0.64554887  0.78707832  1
  P  P14  1  0.24901292  0.78772646  0.64605192  1
  P  P15  1  0.64631942  0.81880168  0.24794740  1
  H  H16  1  0.24453024  0.00647221  0.23614207  1
  H  H17  1  0.00478017  0.23995589  0.01551761  1
  H  H18  1  0.75839726  0.99189596  0.76052447  1
  H  H19  1  0.98570829  0.76337052  0.99499466  1
  H  H20  1  0.94768236  0.94932961  0.30253789  1
  H  H21  1  0.30157517  0.29953615  0.94810113  1
  H  H22  1  0.05296294  0.05401611  0.69839731  1
  H  H23  1  0.69817898  0.69861162  0.05018257  1
  O  O24  1  0.26313617  0.82744505  0.22211075  1
  O  O25  1  0.22810344  0.18290667  0.25760621  1
  O  O26  1  0.83080145  0.25725230  0.18431841  1
  O  O27  1  0.18543563  0.22417449  0.83018692  1
  O  O28  1  0.74411922  0.16840329  0.77013433  1
  O  O29  1  0.77168997  0.81627467  0.74300499  1
  O  O30  1  0.16874080  0.74514661  0.81675153  1
  O  O31  1  0.81555643  0.77460496  0.16983611  1
  O  O32  1  0.96760702  0.92648979  0.36950597  1
  O  O33  1  0.36862571  0.23580067  0.96769501  1
  O  O34  1  0.92603312  0.96747715  0.23878869  1
  O  O35  1  0.23887753  0.36652608  0.92521614  1
  O  O36  1  0.03353310  0.07576420  0.63017447  1
  O  O37  1  0.63140640  0.76231418  0.03277775  1
  O  O38  1  0.07414429  0.03448220  0.76184095  1
  O  O39  1  0.76319452  0.63077149  0.07344690  1
  O  O40  1  0.38520320  0.68793627  0.94594831  1
  O  O41  1  0.94632145  0.48200463  0.38659104  1
  O  O42  1  0.68705184  0.38673170  0.48071816  1
  O  O43  1  0.48620051  0.94379814  0.68235571  1
  O  O44  1  0.61376129  0.31097671  0.05303909  1
  O  O45  1  0.05343581  0.51777474  0.61443119  1
  O  O46  1  0.31219595  0.61447478  0.52068028  1
  O  O47  1  0.51949236  0.05486278  0.31240160  1
  O  O48  1  0.22492181  0.52641954  0.21828846  1
  O  O49  1  0.52826267  0.22264317  0.52835348  1
  O  O50  1  0.77544065  0.47344686  0.78099494  1
  O  O51  1  0.47232875  0.77901064  0.47058749  1
