# generated using pymatgen
data_LaHBr2
_symmetry_space_group_name_H-M   'P 1'
_cell_length_a   4.13783273
_cell_length_b   4.13785613
_cell_length_c   14.83968114
_cell_angle_alpha   90.00000000
_cell_angle_beta   90.00000000
_cell_angle_gamma   119.99981288
_symmetry_Int_Tables_number   1
_chemical_formula_structural   LaHBr2
_chemical_formula_sum   'La2 H2 Br4'
_cell_volume   220.04136819
_cell_formula_units_Z   2
loop_
 _symmetry_equiv_pos_site_id
 _symmetry_equiv_pos_as_xyz
  1  'x, y, z'
loop_
 _atom_site_type_symbol
 _atom_site_label
 _atom_site_symmetry_multiplicity
 _atom_site_fract_x
 _atom_site_fract_y
 _atom_site_fract_z
 _atom_site_occupancy
  La  La0  1  0.99995614  0.99991228  0.25000000  1
  La  La1  1  0.00004386  0.00008772  0.75000000  1
  H  H2  1  0.33339038  0.66678077  0.75000000  1
  H  H3  1  0.66660962  0.33321923  0.25000000  1
  Br  Br4  1  0.33328290  0.66656579  0.11898714  1
  Br  Br5  1  0.66671710  0.33343421  0.88101286  1
  Br  Br6  1  0.66671710  0.33343421  0.61898714  1
  Br  Br7  1  0.33328290  0.66656579  0.38101286  1
