# generated using pymatgen
data_CdH6C(BrN)3
_symmetry_space_group_name_H-M   'P 1'
_cell_length_a   7.60467118
_cell_length_b   7.67197718
_cell_length_c   8.98687403
_cell_angle_alpha   64.72329735
_cell_angle_beta   97.74486227
_cell_angle_gamma   108.40388943
_symmetry_Int_Tables_number   1
_chemical_formula_structural   CdH6C(BrN)3
_chemical_formula_sum   'Cd2 H12 C2 Br6 N6'
_cell_volume   449.87055834
_cell_formula_units_Z   2
loop_
 _symmetry_equiv_pos_site_id
 _symmetry_equiv_pos_as_xyz
  1  'x, y, z'
loop_
 _atom_site_type_symbol
 _atom_site_label
 _atom_site_symmetry_multiplicity
 _atom_site_fract_x
 _atom_site_fract_y
 _atom_site_fract_z
 _atom_site_occupancy
  Cd  Cd0  1  0.75000718  0.95084655  0.09830888  1
  Cd  Cd1  1  0.24999242  0.04915331  0.90169137  1
  H  H2  1  0.58582739  0.34733165  0.17983602  1
  H  H3  1  0.91417501  0.47284404  0.17982643  1
  H  H4  1  0.47153333  0.27796709  0.36289412  1
  H  H5  1  0.02847150  0.35913928  0.36289558  1
  H  H6  1  0.12921277  0.77304197  0.38598806  1
  H  H7  1  0.37078485  0.84097083  0.38598637  1
  H  H8  1  0.62921576  0.15902842  0.61401349  1
  H  H9  1  0.87078716  0.22695926  0.61401257  1
  H  H10  1  0.97152818  0.64085931  0.63710444  1
  H  H11  1  0.52846579  0.72203235  0.63710571  1
  H  H12  1  0.08582511  0.52715590  0.82017367  1
  H  H13  1  0.41417321  0.65266907  0.82016354  1
  C  C14  1  0.75001014  0.30721526  0.38556171  1
  C  C15  1  0.24998979  0.69278532  0.61443855  1
  Br  Br16  1  0.13575458  0.19629028  0.08151222  1
  Br  Br17  1  0.36430811  0.72221547  0.08155725  1
  Br  Br18  1  0.75004139  0.78930135  0.42146279  1
  Br  Br19  1  0.24995838  0.21070271  0.57853523  1
  Br  Br20  1  0.63569224  0.27778410  0.91844141  1
  Br  Br21  1  0.86424654  0.80370819  0.91848666  1
  N  N22  1  0.58982096  0.30728131  0.30372260  1
  N  N23  1  0.91017100  0.38899464  0.30372134  1
  N  N24  1  0.25000332  0.77501237  0.44997613  1
  N  N25  1  0.74999701  0.22499408  0.55002199  1
  N  N26  1  0.08983071  0.61100287  0.69627806  1
  N  N27  1  0.41017715  0.69272003  0.69627580  1
