# generated using pymatgen
data_Ba6Mg7H26
_symmetry_space_group_name_H-M   'P 1'
_cell_length_a   10.02518394
_cell_length_b   10.02518394
_cell_length_c   10.02518394
_cell_angle_alpha   146.29099206
_cell_angle_beta   106.62878075
_cell_angle_gamma   83.22119759
_symmetry_Int_Tables_number   1
_chemical_formula_structural   Ba6Mg7H26
_chemical_formula_sum   'Ba6 Mg7 H26'
_cell_volume   521.96835847
_cell_formula_units_Z   1
loop_
 _symmetry_equiv_pos_site_id
 _symmetry_equiv_pos_as_xyz
  1  'x, y, z'
loop_
 _atom_site_type_symbol
 _atom_site_label
 _atom_site_symmetry_multiplicity
 _atom_site_fract_x
 _atom_site_fract_y
 _atom_site_fract_z
 _atom_site_occupancy
  Ba  Ba0  1  0.90610604  0.64731289  0.25879315  1
  Ba  Ba1  1  0.09389396  0.35268711  0.74120685  1
  Ba  Ba2  1  0.61148026  0.35268711  0.25879315  1
  Ba  Ba3  1  0.38851974  0.64731289  0.74120685  1
  Ba  Ba4  1  0.64417199  0.14417199  0.50000000  1
  Ba  Ba5  1  0.35582801  0.85582801  0.50000000  1
  Mg  Mg6  1  0.78165218  0.78165218  0.00000000  1
  Mg  Mg7  1  0.21834782  0.21834782  0.00000000  1
  Mg  Mg8  1  0.25799799  0.00000000  0.25799799  1
  Mg  Mg9  1  0.74200201  0.00000000  0.74200201  1
  Mg  Mg10  1  0.00000000  0.25492196  0.25492196  1
  Mg  Mg11  1  0.00000000  0.74507804  0.74507804  1
  Mg  Mg12  1  0.50000000  0.50000000  0.00000000  1
  H  H13  1  0.86703210  0.98631273  0.34393105  1
  H  H14  1  0.13296790  0.47689895  0.11928063  1
  H  H15  1  0.35761832  0.01368727  0.88071937  1
  H  H16  1  0.64238168  0.52310105  0.65606895  1
  H  H17  1  0.13296790  0.01368727  0.65606895  1
  H  H18  1  0.86703210  0.52310105  0.88071937  1
  H  H19  1  0.64238168  0.98631273  0.11928063  1
  H  H20  1  0.35761832  0.47689895  0.34393105  1
  H  H21  1  0.38553634  0.24919210  0.63472843  1
  H  H22  1  0.61446366  0.24919210  0.86365576  1
  H  H23  1  0.38553634  0.75080790  0.13634424  1
  H  H24  1  0.61446366  0.75080790  0.36527157  1
  H  H25  1  0.16241464  0.26546813  0.42788278  1
  H  H26  1  0.83758536  0.26546813  0.10305349  1
  H  H27  1  0.16241464  0.73453187  0.89694651  1
  H  H28  1  0.83758536  0.73453187  0.57211722  1
  H  H29  1  0.14752169  0.87231575  0.27520594  1
  H  H30  1  0.85247831  0.12768425  0.72479406  1
  H  H31  1  0.40289019  0.12768425  0.27520594  1
  H  H32  1  0.59710981  0.87231575  0.72479406  1
  H  H33  1  0.91008562  0.41008562  0.50000000  1
  H  H34  1  0.08991438  0.58991438  0.50000000  1
  H  H35  1  0.91338490  0.91338490  0.00000000  1
  H  H36  1  0.08661510  0.08661510  0.00000000  1
  H  H37  1  0.62955078  0.62955078  0.00000000  1
  H  H38  1  0.37044922  0.37044922  0.00000000  1
