# generated using pymatgen
data_Li9Co7O16
_symmetry_space_group_name_H-M   'P 1'
_cell_length_a   2.99364465
_cell_length_b   19.42844766
_cell_length_c   4.97253427
_cell_angle_alpha   94.73911386
_cell_angle_beta   89.99999968
_cell_angle_gamma   85.58139527
_symmetry_Int_Tables_number   1
_chemical_formula_structural   Li9Co7O16
_chemical_formula_sum   'Li9 Co7 O16'
_cell_volume   287.36057485
_cell_formula_units_Z   1
loop_
 _symmetry_equiv_pos_site_id
 _symmetry_equiv_pos_as_xyz
  1  'x, y, z'
loop_
 _atom_site_type_symbol
 _atom_site_label
 _atom_site_symmetry_multiplicity
 _atom_site_fract_x
 _atom_site_fract_y
 _atom_site_fract_z
 _atom_site_occupancy
  Li  Li0  1  0.43949215  0.12101569  0.18824445  1
  Li  Li1  1  0.31260487  0.37479026  0.56120806  1
  Li  Li2  1  0.18742817  0.62514366  0.93857736  1
  Li  Li3  1  0.06079368  0.87841265  0.31977120  1
  Li  Li4  1  0.93920632  0.12158735  0.68022880  1
  Li  Li5  1  0.81257183  0.37485634  0.06142264  1
  Li  Li6  1  0.68739513  0.62520974  0.43879194  1
  Li  Li7  1  0.56050785  0.87898431  0.81175555  1
  Li  Li8  1  0.50000000  0.00000000  0.50000000  1
  Co  Co9  1  -0.00000000  0.00000000  -0.00000000  1
  Co  Co10  1  0.87561976  0.24876048  0.37372452  1
  Co  Co11  1  0.75000802  0.49998396  0.74998765  1
  Co  Co12  1  0.62455062  0.75089875  0.12563403  1
  Co  Co13  1  0.37544938  0.24910125  0.87436597  1
  Co  Co14  1  0.24999198  0.50001604  0.25001235  1
  Co  Co15  1  0.12438024  0.75123952  0.62627548  1
  O  O16  1  0.47343394  0.05313211  0.86319963  1
  O  O17  1  0.34640580  0.30718840  0.20935035  1
  O  O18  1  0.22110278  0.55779443  0.58526144  1
  O  O19  1  0.09578928  0.80842144  0.96183324  1
  O  O20  1  0.97229038  0.05541924  0.30446412  1
  O  O21  1  0.84649477  0.30701045  0.70799066  1
  O  O22  1  0.72108060  0.55783880  0.08521486  1
  O  O23  1  0.59500239  0.80999522  0.45960975  1
  O  O24  1  0.40499761  0.19000478  0.54039025  1
  O  O25  1  0.27891940  0.44216120  0.91478514  1
  O  O26  1  0.15350523  0.69298955  0.29200934  1
  O  O27  1  0.02770962  0.94458076  0.69553588  1
  O  O28  1  0.90421072  0.19157856  0.03816676  1
  O  O29  1  0.77889722  0.44220557  0.41473856  1
  O  O30  1  0.65359420  0.69281160  0.79064965  1
  O  O31  1  0.52656606  0.94686789  0.13680037  1
