# generated using pymatgen
data_LiB(HO2)2
_symmetry_space_group_name_H-M   'P 1'
_cell_length_a   7.12222557
_cell_length_b   7.99555558
_cell_length_c   5.13923856
_cell_angle_alpha   90.00000000
_cell_angle_beta   97.54348544
_cell_angle_gamma   90.00000000
_symmetry_Int_Tables_number   1
_chemical_formula_structural   LiB(HO2)2
_chemical_formula_sum   'Li4 B4 H8 O16'
_cell_volume   290.12703056
_cell_formula_units_Z   4
loop_
 _symmetry_equiv_pos_site_id
 _symmetry_equiv_pos_as_xyz
  1  'x, y, z'
loop_
 _atom_site_type_symbol
 _atom_site_label
 _atom_site_symmetry_multiplicity
 _atom_site_fract_x
 _atom_site_fract_y
 _atom_site_fract_z
 _atom_site_occupancy
  Li  Li0  1  0.09526992  0.17426500  0.05894407  1
  Li  Li1  1  0.90473008  0.67426500  0.44105593  1
  Li  Li2  1  0.90473008  0.82573500  0.94105593  1
  Li  Li3  1  0.09526992  0.32573500  0.55894407  1
  B  B4  1  0.19877358  0.97041646  0.52215935  1
  B  B5  1  0.80122642  0.47041646  0.97784065  1
  B  B6  1  0.80122642  0.02958354  0.47784065  1
  B  B7  1  0.19877358  0.52958354  0.02215935  1
  H  H8  1  0.33761005  0.78280701  0.73775198  1
  H  H9  1  0.66238995  0.28280701  0.76224802  1
  H  H10  1  0.66238995  0.21719299  0.26224802  1
  H  H11  1  0.33761005  0.71719299  0.23775198  1
  H  H12  1  0.39177713  0.13495728  0.41287500  1
  H  H13  1  0.60822287  0.63495728  0.08712500  1
  H  H14  1  0.60822287  0.86504272  0.58712500  1
  H  H15  1  0.39177713  0.36504272  0.91287500  1
  O  O16  1  0.05620550  0.87930048  0.32619897  1
  O  O17  1  0.94379450  0.37930048  0.17380103  1
  O  O18  1  0.94379450  0.12069952  0.67380103  1
  O  O19  1  0.05620550  0.62069952  0.82619897  1
  O  O20  1  0.10356324  0.00227215  0.76307619  1
  O  O21  1  0.89643676  0.50227215  0.73692381  1
  O  O22  1  0.89643676  0.99772785  0.23692381  1
  O  O23  1  0.10356324  0.49772785  0.26307619  1
  O  O24  1  0.35396375  0.85428523  0.58653383  1
  O  O25  1  0.64603625  0.35428523  0.91346617  1
  O  O26  1  0.64603625  0.14571477  0.41346617  1
  O  O27  1  0.35396375  0.64571477  0.08653383  1
  O  O28  1  0.25219977  0.12701931  0.40655547  1
  O  O29  1  0.74780023  0.62701931  0.09344453  1
  O  O30  1  0.74780023  0.87298069  0.59344453  1
  O  O31  1  0.25219977  0.37298069  0.90655547  1
