# generated using pymatgen
data_Ba5Re3O16
_symmetry_space_group_name_H-M   'P 1'
_cell_length_a   11.07861906
_cell_length_b   11.07861887
_cell_length_c   7.96378935
_cell_angle_alpha   90.00000000
_cell_angle_beta   90.00000000
_cell_angle_gamma   120.00094698
_symmetry_Int_Tables_number   1
_chemical_formula_structural   Ba5Re3O16
_chemical_formula_sum   'Ba10 Re6 O32'
_cell_volume   846.48156206
_cell_formula_units_Z   2
loop_
 _symmetry_equiv_pos_site_id
 _symmetry_equiv_pos_as_xyz
  1  'x, y, z'
loop_
 _atom_site_type_symbol
 _atom_site_label
 _atom_site_symmetry_multiplicity
 _atom_site_fract_x
 _atom_site_fract_y
 _atom_site_fract_z
 _atom_site_occupancy
  Ba  Ba0  1  0.66669187  0.33336115  0.50293907  1
  Ba  Ba1  1  0.33336115  0.66669187  0.50293907  1
  Ba  Ba2  1  0.33330813  0.66663885  0.00293907  1
  Ba  Ba3  1  0.66663885  0.33330813  0.00293907  1
  Ba  Ba4  1  0.26023954  0.26023954  0.23957149  1
  Ba  Ba5  1  0.73974062  0.00000199  0.23959443  1
  Ba  Ba6  1  0.00000199  0.73974062  0.23959443  1
  Ba  Ba7  1  0.73976046  0.73976046  0.73957149  1
  Ba  Ba8  1  0.26025938  -0.00000199  0.73959443  1
  Ba  Ba9  1  -0.00000199  0.26025938  0.73959443  1
  Re  Re10  1  0.39001859  0.39001859  0.79490286  1
  Re  Re11  1  0.60998192  -0.00000109  0.79486070  1
  Re  Re12  1  -0.00000109  0.60998192  0.79486070  1
  Re  Re13  1  0.60998141  0.60998141  0.29490286  1
  Re  Re14  1  0.39001808  0.00000109  0.29486070  1
  Re  Re15  1  0.00000109  0.39001808  0.29486070  1
  O  O16  1  0.00000523  0.00000523  0.17934975  1
  O  O17  1  0.99999477  0.99999477  0.67934975  1
  O  O18  1  0.29694487  0.29694487  0.61567914  1
  O  O19  1  0.70306011  0.99999510  0.61566806  1
  O  O20  1  0.99999510  0.70306011  0.61566806  1
  O  O21  1  0.70305513  0.70305513  0.11567914  1
  O  O22  1  0.29693989  0.00000490  0.11566806  1
  O  O23  1  0.00000490  0.29693989  0.11566806  1
  O  O24  1  0.57690585  0.44624408  0.75913072  1
  O  O25  1  0.55374480  0.13067003  0.75913176  1
  O  O26  1  0.86932525  0.42307579  0.75913656  1
  O  O27  1  0.44624408  0.57690585  0.75913072  1
  O  O28  1  0.13067003  0.55374480  0.75913176  1
  O  O29  1  0.42307579  0.86932525  0.75913656  1
  O  O30  1  0.42309415  0.55375592  0.25913072  1
  O  O31  1  0.44625520  0.86932997  0.25913176  1
  O  O32  1  0.13067475  0.57692421  0.25913656  1
  O  O33  1  0.55375592  0.42309415  0.25913072  1
  O  O34  1  0.86932997  0.44625520  0.25913176  1
  O  O35  1  0.57692421  0.13067475  0.25913656  1
  O  O36  1  0.38580626  0.25444111  0.93542508  1
  O  O37  1  0.74553426  0.13134917  0.93540648  1
  O  O38  1  0.86865424  0.61418311  0.93540552  1
  O  O39  1  0.25444111  0.38580626  0.93542508  1
  O  O40  1  0.13134917  0.74553426  0.93540648  1
  O  O41  1  0.61418311  0.86865424  0.93540552  1
  O  O42  1  0.61419374  0.74555889  0.43542508  1
  O  O43  1  0.25446574  0.86865083  0.43540648  1
  O  O44  1  0.13134576  0.38581689  0.43540552  1
  O  O45  1  0.74555889  0.61419374  0.43542508  1
  O  O46  1  0.86865083  0.25446574  0.43540648  1
  O  O47  1  0.38581689  0.13134576  0.43540552  1
