# generated using pymatgen
data_Pr4Si4N7ClO3
_symmetry_space_group_name_H-M   'P 1'
_cell_length_a   10.60309810
_cell_length_b   10.42905729
_cell_length_c   10.47631714
_cell_angle_alpha   90.00000000
_cell_angle_beta   90.00000000
_cell_angle_gamma   90.00000000
_symmetry_Int_Tables_number   1
_chemical_formula_structural   Pr4Si4N7ClO3
_chemical_formula_sum   'Pr16 Si16 N28 Cl4 O12'
_cell_volume   1158.47447595
_cell_formula_units_Z   4
loop_
 _symmetry_equiv_pos_site_id
 _symmetry_equiv_pos_as_xyz
  1  'x, y, z'
loop_
 _atom_site_type_symbol
 _atom_site_label
 _atom_site_symmetry_multiplicity
 _atom_site_fract_x
 _atom_site_fract_y
 _atom_site_fract_z
 _atom_site_occupancy
  Pr  Pr0  1  0.04310322  0.81700046  0.69016117  1
  Pr  Pr1  1  0.10201635  0.10762832  0.10870219  1
  Pr  Pr2  1  0.17857732  0.19367248  0.45088846  1
  Pr  Pr3  1  0.18957270  0.45534796  0.18537742  1
  Pr  Pr4  1  0.31042730  0.54465204  0.68537742  1
  Pr  Pr5  1  0.32142268  0.80632752  0.95088846  1
  Pr  Pr6  1  0.39798365  0.89237168  0.60870219  1
  Pr  Pr7  1  0.45689678  0.18299954  0.19016117  1
  Pr  Pr8  1  0.54310322  0.68299954  0.30983883  1
  Pr  Pr9  1  0.60201635  0.39237168  0.89129781  1
  Pr  Pr10  1  0.67857732  0.30632752  0.54911154  1
  Pr  Pr11  1  0.68957270  0.04465204  0.81462258  1
  Pr  Pr12  1  0.81042730  0.95534796  0.31462258  1
  Pr  Pr13  1  0.82142268  0.69367248  0.04911154  1
  Pr  Pr14  1  0.89798365  0.60762832  0.39129781  1
  Pr  Pr15  1  0.95689678  0.31700046  0.80983883  1
  Si  Si16  1  0.07129603  0.57181270  0.92876328  1
  Si  Si17  1  0.07651537  0.74750266  0.19785116  1
  Si  Si18  1  0.19572889  0.08092628  0.74368932  1
  Si  Si19  1  0.24512522  0.30399191  0.91907059  1
  Si  Si20  1  0.25487478  0.69600809  0.41907059  1
  Si  Si21  1  0.30427111  0.91907372  0.24368932  1
  Si  Si22  1  0.42348463  0.25249734  0.69785116  1
  Si  Si23  1  0.42870397  0.42818730  0.42876328  1
  Si  Si24  1  0.57129603  0.92818730  0.07123672  1
  Si  Si25  1  0.57651537  0.75249734  0.80214884  1
  Si  Si26  1  0.69572889  0.41907372  0.25631068  1
  Si  Si27  1  0.74512522  0.19600809  0.08092941  1
  Si  Si28  1  0.75487478  0.80399191  0.58092941  1
  Si  Si29  1  0.80427111  0.58092628  0.75631068  1
  Si  Si30  1  0.92348463  0.24750266  0.30214884  1
  Si  Si31  1  0.92870397  0.07181270  0.57123672  1
  N  N32  1  0.05618716  0.63443640  0.07743727  1
  N  N33  1  0.07498505  0.28708173  0.26055866  1
  N  N34  1  0.07654368  0.05360022  0.63537360  1
  N  N35  1  0.13005181  0.65189247  0.32575406  1
  N  N36  1  0.13414375  0.42150947  0.94315863  1
  N  N37  1  0.15241982  0.17425663  0.87185474  1
  N  N38  1  0.17638277  0.87112624  0.15343115  1
  N  N39  1  0.32361723  0.12887376  0.65343115  1
  N  N40  1  0.34758018  0.82574337  0.37185474  1
  N  N41  1  0.36585625  0.57849053  0.44315863  1
  N  N42  1  0.36994819  0.34810753  0.82575406  1
  N  N43  1  0.42345632  0.94639978  0.13537360  1
  N  N44  1  0.42501495  0.71291827  0.76055866  1
  N  N45  1  0.44381284  0.36556360  0.57743727  1
  N  N46  1  0.55618716  0.86556360  0.92256273  1
  N  N47  1  0.57498505  0.21291827  0.73944134  1
  N  N48  1  0.57654368  0.44639978  0.36462640  1
  N  N49  1  0.63005181  0.84810753  0.67424594  1
  N  N50  1  0.63414375  0.07849053  0.05684137  1
  N  N51  1  0.65241982  0.32574337  0.12814526  1
  N  N52  1  0.67638277  0.62887376  0.84656885  1
  N  N53  1  0.82361723  0.37112624  0.34656885  1
  N  N54  1  0.84758018  0.67425663  0.62814526  1
  N  N55  1  0.86585625  0.92150947  0.55684137  1
  N  N56  1  0.86994819  0.15189247  0.17424594  1
  N  N57  1  0.92345632  0.55360022  0.86462640  1
  N  N58  1  0.92501495  0.78708173  0.23944134  1
  N  N59  1  0.94381284  0.13443640  0.42256273  1
  Cl  Cl60  1  0.07156921  0.42648327  0.57531899  1
  Cl  Cl61  1  0.42843079  0.57351673  0.07531899  1
  Cl  Cl62  1  0.57156921  0.07351673  0.42468101  1
  Cl  Cl63  1  0.92843079  0.92648327  0.92468101  1
  O  O64  1  0.15991738  0.66502187  0.83548813  1
  O  O65  1  0.20957447  0.73781270  0.56809654  1
  O  O66  1  0.23431814  0.93017948  0.78775666  1
  O  O67  1  0.26568186  0.06982052  0.28775666  1
  O  O68  1  0.29042553  0.26218730  0.06809654  1
  O  O69  1  0.34008262  0.33497813  0.33548813  1
  O  O70  1  0.65991738  0.83497813  0.16451187  1
  O  O71  1  0.70957447  0.76218730  0.43190346  1
  O  O72  1  0.73431814  0.56982052  0.21224334  1
  O  O73  1  0.76568186  0.43017948  0.71224334  1
  O  O74  1  0.79042553  0.23781270  0.93190346  1
  O  O75  1  0.84008262  0.16502187  0.66451187  1
