# generated using pymatgen
data_KMgIn(MoO4)3
_symmetry_space_group_name_H-M   'P 1'
_cell_length_a   9.67485250
_cell_length_b   9.67485220
_cell_length_c   9.99091915
_cell_angle_alpha   61.10592325
_cell_angle_beta   61.10592433
_cell_angle_gamma   59.93175449
_symmetry_Int_Tables_number   1
_chemical_formula_structural   KMgIn(MoO4)3
_chemical_formula_sum   'K2 Mg2 In2 Mo6 O24'
_cell_volume   671.75114940
_cell_formula_units_Z   2
loop_
 _symmetry_equiv_pos_site_id
 _symmetry_equiv_pos_as_xyz
  1  'x, y, z'
loop_
 _atom_site_type_symbol
 _atom_site_label
 _atom_site_symmetry_multiplicity
 _atom_site_fract_x
 _atom_site_fract_y
 _atom_site_fract_z
 _atom_site_occupancy
  K  K0  1  0.11945257  0.37571096  0.75528631  1
  K  K1  1  0.62428904  0.88054743  0.24471369  1
  Mg  Mg2  1  0.75582702  0.03165986  0.81846340  1
  Mg  Mg3  1  0.96834014  0.24417298  0.18153660  1
  In  In4  1  0.25463548  0.53246321  0.31990162  1
  In  In5  1  0.46753679  0.74536452  0.68009838  1
  Mo  Mo6  1  0.07133155  0.92866845  0.00000000  1
  Mo  Mo7  1  0.36326779  0.35039389  0.99736758  1
  Mo  Mo8  1  0.14089608  0.85910392  0.50000000  1
  Mo  Mo9  1  0.58054479  0.13621732  0.50112031  1
  Mo  Mo10  1  0.86378268  0.41945521  0.49887969  1
  Mo  Mo11  1  0.64960611  0.63673221  0.00263242  1
  O  O12  1  0.04313021  0.11256872  0.02496940  1
  O  O13  1  0.10939376  0.03367858  0.32558533  1
  O  O14  1  0.18255245  0.32142459  0.02323717  1
  O  O15  1  0.04218814  0.45078450  0.48314252  1
  O  O16  1  0.10361762  0.75018719  0.17661715  1
  O  O17  1  0.33591692  0.38311642  0.17277753  1
  O  O18  1  0.17078350  0.66729107  0.48177675  1
  O  O19  1  0.39146731  0.32008416  0.48071622  1
  O  O20  1  0.46973320  0.61080872  0.17972376  1
  O  O21  1  0.61141907  0.10116936  0.67724542  1
  O  O22  1  0.75738083  0.16640777  0.33006022  1
  O  O23  1  0.33270893  0.82921650  0.51822325  1
  O  O24  1  0.38919128  0.53026680  0.82027624  1
  O  O25  1  0.83333526  0.45640722  0.02850901  1
  O  O26  1  0.54359278  0.16666474  0.97149099  1
  O  O27  1  0.24981281  0.89638238  0.82338285  1
  O  O28  1  0.67991584  0.60853269  0.51928378  1
  O  O29  1  0.89883064  0.38858093  0.32275458  1
  O  O30  1  0.54921550  0.95781186  0.51685748  1
  O  O31  1  0.83359223  0.24261917  0.66993978  1
  O  O32  1  0.61688358  0.66408308  0.82722247  1
  O  O33  1  0.67857541  0.81744754  0.97676283  1
  O  O34  1  0.96632142  0.89060624  0.67441467  1
  O  O35  1  0.88743128  0.95686979  0.97503060  1
