# generated using pymatgen
data_RbTeHOF4
_symmetry_space_group_name_H-M   'P 1'
_cell_length_a   8.43051657
_cell_length_b   8.43051657
_cell_length_c   14.07560913
_cell_angle_alpha   85.88648963
_cell_angle_beta   94.11351037
_cell_angle_gamma   145.61781841
_symmetry_Int_Tables_number   1
_chemical_formula_structural   RbTeHOF4
_chemical_formula_sum   'Rb4 Te4 H4 O4 F16'
_cell_volume   563.34387607
_cell_formula_units_Z   4
loop_
 _symmetry_equiv_pos_site_id
 _symmetry_equiv_pos_as_xyz
  1  'x, y, z'
loop_
 _atom_site_type_symbol
 _atom_site_label
 _atom_site_symmetry_multiplicity
 _atom_site_fract_x
 _atom_site_fract_y
 _atom_site_fract_z
 _atom_site_occupancy
  Rb  Rb0  1  0.35955518  0.83189448  0.51303021  1
  Rb  Rb1  1  0.16810552  0.64044482  0.01303021  1
  Rb  Rb2  1  0.64019450  0.52449083  0.74953291  1
  Rb  Rb3  1  0.47550917  0.35980550  0.24953291  1
  Te  Te4  1  0.02267747  0.01933402  0.49657682  1
  Te  Te5  1  0.98066598  0.97732253  0.99657682  1
  Te  Te6  1  0.83623852  0.19772879  0.75443000  1
  Te  Te7  1  0.80227121  0.16376148  0.25443000  1
  H  H8  1  0.35003917  0.89486942  0.75431630  1
  H  H9  1  0.10513058  0.64996083  0.25431630  1
  H  H10  1  0.46540655  0.27850883  0.00649146  1
  H  H11  1  0.72149117  0.53459345  0.50649146  1
  O  O12  1  0.52740679  0.08828059  0.72748812  1
  O  O13  1  0.91171941  0.47259321  0.22748812  1
  O  O14  1  0.91843598  0.71584833  0.53037938  1
  O  O15  1  0.28415167  0.08156402  0.03037938  1
  F  F16  1  0.03461815  0.57520453  0.78413083  1
  F  F17  1  0.42479547  0.96538185  0.28413083  1
  F  F18  1  0.91349234  0.30885169  0.61374455  1
  F  F19  1  0.69114831  0.08650766  0.11374455  1
  F  F20  1  0.69200081  0.06096839  0.89081494  1
  F  F21  1  0.93903161  0.30799919  0.39081494  1
  F  F22  1  0.56045465  0.79966724  0.72259912  1
  F  F23  1  0.20033276  0.43954535  0.22259912  1
  F  F24  1  0.10339111  0.08051029  0.85791876  1
  F  F25  1  0.91948971  0.89660889  0.35791876  1
  F  F26  1  0.61171920  0.72783251  0.51104080  1
  F  F27  1  0.27216749  0.38828080  0.01104080  1
  F  F28  1  0.10833828  0.08818268  0.63927006  1
  F  F29  1  0.91181732  0.89166172  0.13927006  1
  F  F30  1  0.77458668  0.59438276  0.96723573  1
  F  F31  1  0.40561724  0.22541332  0.46723573  1
