# generated using pymatgen
data_AlH15N5Cl3
_symmetry_space_group_name_H-M   'P 1'
_cell_length_a   13.65230350
_cell_length_b   10.69876911
_cell_length_c   6.78633791
_cell_angle_alpha   90.00000000
_cell_angle_beta   90.00000000
_cell_angle_gamma   90.00000000
_symmetry_Int_Tables_number   1
_chemical_formula_structural   AlH15N5Cl3
_chemical_formula_sum   'Al4 H60 N20 Cl12'
_cell_volume   991.23180846
_cell_formula_units_Z   4
loop_
 _symmetry_equiv_pos_site_id
 _symmetry_equiv_pos_as_xyz
  1  'x, y, z'
loop_
 _atom_site_type_symbol
 _atom_site_label
 _atom_site_symmetry_multiplicity
 _atom_site_fract_x
 _atom_site_fract_y
 _atom_site_fract_z
 _atom_site_occupancy
  Al  Al0  1  0.60130687  0.25000000  0.32282828  1
  Al  Al1  1  0.10130687  0.25000000  0.17717172  1
  Al  Al2  1  0.39869313  0.75000000  0.67717172  1
  Al  Al3  1  0.89869313  0.75000000  0.82282828  1
  H  H4  1  0.77304965  0.25000000  0.49152477  1
  H  H5  1  0.27304965  0.25000000  0.00847523  1
  H  H6  1  0.22695035  0.75000000  0.50847523  1
  H  H7  1  0.72695035  0.75000000  0.99152477  1
  H  H8  1  0.69554188  0.17223281  0.63145875  1
  H  H9  1  0.19554188  0.32776719  0.86854125  1
  H  H10  1  0.30445812  0.67223281  0.36854125  1
  H  H11  1  0.80445812  0.82776719  0.13145875  1
  H  H12  1  0.30445812  0.82776719  0.36854125  1
  H  H13  1  0.80445812  0.67223281  0.13145875  1
  H  H14  1  0.69554188  0.32776719  0.63145875  1
  H  H15  1  0.19554188  0.17223281  0.86854125  1
  H  H16  1  0.53246552  0.25000000  0.95671062  1
  H  H17  1  0.03246552  0.25000000  0.54328938  1
  H  H18  1  0.46753448  0.75000000  0.04328938  1
  H  H19  1  0.96753448  0.75000000  0.45671062  1
  H  H20  1  0.95815756  0.17284941  0.39484832  1
  H  H21  1  0.45815756  0.32715059  0.10515168  1
  H  H22  1  0.04184244  0.67284941  0.60515168  1
  H  H23  1  0.54184244  0.82715059  0.89484832  1
  H  H24  1  0.04184244  0.82715059  0.60515168  1
  H  H25  1  0.54184244  0.67284941  0.89484832  1
  H  H26  1  0.95815756  0.32715059  0.39484832  1
  H  H27  1  0.45815756  0.17284941  0.10515168  1
  H  H28  1  0.78367391  0.25000000  0.16741205  1
  H  H29  1  0.28367391  0.25000000  0.33258795  1
  H  H30  1  0.21632609  0.75000000  0.83258795  1
  H  H31  1  0.71632609  0.75000000  0.66741205  1
  H  H32  1  0.70718727  0.17285717  0.02690399  1
  H  H33  1  0.20718727  0.32714283  0.47309601  1
  H  H34  1  0.29281273  0.67285717  0.97309601  1
  H  H35  1  0.79281273  0.82714283  0.52690399  1
  H  H36  1  0.29281273  0.82714283  0.97309601  1
  H  H37  1  0.79281273  0.67285717  0.52690399  1
  H  H38  1  0.70718727  0.32714283  0.02690399  1
  H  H39  1  0.20718727  0.17285717  0.47309601  1
  H  H40  1  0.53400746  0.02309305  0.28240322  1
  H  H41  1  0.03400746  0.47690695  0.21759678  1
  H  H42  1  0.46599254  0.52309305  0.71759678  1
  H  H43  1  0.96599254  0.97690695  0.78240322  1
  H  H44  1  0.46599254  0.97690695  0.71759678  1
  H  H45  1  0.96599254  0.52309305  0.78240322  1
  H  H46  1  0.53400746  0.47690695  0.28240322  1
  H  H47  1  0.03400746  0.02309305  0.21759678  1
  H  H48  1  0.61322463  0.02404110  0.46458045  1
  H  H49  1  0.11322463  0.47595890  0.03541955  1
  H  H50  1  0.38677537  0.52404110  0.53541955  1
  H  H51  1  0.88677537  0.97595890  0.96458045  1
  H  H52  1  0.38677537  0.97595890  0.53541955  1
  H  H53  1  0.88677537  0.52404110  0.96458045  1
  H  H54  1  0.61322463  0.47595890  0.46458045  1
  H  H55  1  0.11322463  0.02404110  0.03541955  1
  H  H56  1  0.65199645  0.02095442  0.23496602  1
  H  H57  1  0.15199645  0.47904558  0.26503398  1
  H  H58  1  0.34800355  0.52095442  0.76503398  1
  H  H59  1  0.84800355  0.97904558  0.73496602  1
  H  H60  1  0.34800355  0.97904558  0.76503398  1
  H  H61  1  0.84800355  0.52095442  0.73496602  1
  H  H62  1  0.65199645  0.47904558  0.23496602  1
  H  H63  1  0.15199645  0.02095442  0.26503398  1
  N  N64  1  0.70258229  0.25000000  0.54254429  1
  N  N65  1  0.20258229  0.25000000  0.95745571  1
  N  N66  1  0.29741771  0.75000000  0.45745571  1
  N  N67  1  0.79741771  0.75000000  0.04254429  1
  N  N68  1  0.50369104  0.25000000  0.09609819  1
  N  N69  1  0.00369104  0.25000000  0.40390181  1
  N  N70  1  0.49630896  0.75000000  0.90390181  1
  N  N71  1  0.99630896  0.75000000  0.59609819  1
  N  N72  1  0.71283008  0.25000000  0.11787838  1
  N  N73  1  0.21283008  0.25000000  0.38212162  1
  N  N74  1  0.28716992  0.75000000  0.88212162  1
  N  N75  1  0.78716992  0.75000000  0.61787838  1
  N  N76  1  0.60023185  0.05981154  0.32591888  1
  N  N77  1  0.10023185  0.44018846  0.17408112  1
  N  N78  1  0.39976815  0.55981154  0.67408112  1
  N  N79  1  0.89976815  0.94018846  0.82591888  1
  N  N80  1  0.39976815  0.94018846  0.67408112  1
  N  N81  1  0.89976815  0.55981154  0.82591888  1
  N  N82  1  0.60023185  0.44018846  0.32591888  1
  N  N83  1  0.10023185  0.05981154  0.17408112  1
  Cl  Cl84  1  0.97345021  0.25000000  0.95351143  1
  Cl  Cl85  1  0.47345021  0.25000000  0.54648857  1
  Cl  Cl86  1  0.02654979  0.75000000  0.04648857  1
  Cl  Cl87  1  0.52654979  0.75000000  0.45351143  1
  Cl  Cl88  1  0.85210278  0.00087754  0.33447701  1
  Cl  Cl89  1  0.35210278  0.49912246  0.16552299  1
  Cl  Cl90  1  0.14789722  0.50087754  0.66552299  1
  Cl  Cl91  1  0.64789722  0.99912246  0.83447701  1
  Cl  Cl92  1  0.14789722  0.99912246  0.66552299  1
  Cl  Cl93  1  0.64789722  0.50087754  0.83447701  1
  Cl  Cl94  1  0.85210278  0.49912246  0.33447701  1
  Cl  Cl95  1  0.35210278  0.00087754  0.16552299  1
