# generated using pymatgen
data_NaCa9TaTi9(SiO5)10
_symmetry_space_group_name_H-M   'P 1'
_cell_length_a   5.50701090
_cell_length_b   27.56043223
_cell_length_c   7.86990384
_cell_angle_alpha   61.67898354
_cell_angle_beta   114.36055022
_cell_angle_gamma   105.50514035
_symmetry_Int_Tables_number   1
_chemical_formula_structural   NaCa9TaTi9(SiO5)10
_chemical_formula_sum   'Na1 Ca9 Ta1 Ti9 Si10 O50'
_cell_volume   954.04056769
_cell_formula_units_Z   1
loop_
 _symmetry_equiv_pos_site_id
 _symmetry_equiv_pos_as_xyz
  1  'x, y, z'
loop_
 _atom_site_type_symbol
 _atom_site_label
 _atom_site_symmetry_multiplicity
 _atom_site_fract_x
 _atom_site_fract_y
 _atom_site_fract_z
 _atom_site_occupancy
  Na  Na0  1  0.17658248  0.81491389  0.76477490  1
  Ca  Ca1  1  0.17179240  0.61423831  0.75594924  1
  Ca  Ca2  1  0.17150939  0.41557767  0.75007245  1
  Ca  Ca3  1  0.82800492  0.98492121  0.24560619  1
  Ca  Ca4  1  0.17129816  0.21583610  0.74972296  1
  Ca  Ca5  1  0.82414107  0.78739370  0.22828183  1
  Ca  Ca6  1  0.17152466  0.01595238  0.74966186  1
  Ca  Ca7  1  0.82885040  0.58380945  0.25161124  1
  Ca  Ca8  1  0.82857017  0.38394339  0.25073931  1
  Ca  Ca9  1  0.82837304  0.18423849  0.25016176  1
  Ta  Ta10  1  0.50354355  0.80073819  0.50447975  1
  Ti  Ti11  1  0.49567358  0.90088378  0.98965926  1
  Ti  Ti12  1  0.50077066  0.59880997  0.50558894  1
  Ti  Ti13  1  0.49724498  0.69856692  0.00879130  1
  Ti  Ti14  1  0.49976552  0.39956529  0.50164328  1
  Ti  Ti15  1  0.50059695  0.49903239  0.00310455  1
  Ti  Ti16  1  0.49988203  0.20016220  0.49920817  1
  Ti  Ti17  1  0.50018417  0.29984839  0.00041454  1
  Ti  Ti18  1  0.49872122  0.00071843  0.49455174  1
  Ti  Ti19  1  0.49997299  0.10063096  0.99760739  1
  Si  Si20  1  0.17995986  0.91577253  0.24176378  1
  Si  Si21  1  0.17977152  0.71250423  0.25254731  1
  Si  Si22  1  0.82389291  0.88772556  0.75135021  1
  Si  Si23  1  0.18079719  0.51335589  0.25169264  1
  Si  Si24  1  0.81706312  0.68462867  0.75394213  1
  Si  Si25  1  0.18075781  0.31382616  0.24984001  1
  Si  Si26  1  0.81937247  0.48548697  0.75187120  1
  Si  Si27  1  0.18080208  0.11430375  0.24829332  1
  Si  Si28  1  0.81923622  0.28615247  0.74995965  1
  Si  Si29  1  0.81903165  0.08656487  0.74814036  1
  O  O30  1  0.12392412  0.87004545  0.91038114  1
  O  O31  1  0.43029065  0.96442933  0.74597639  1
  O  O32  1  0.12060801  0.66792432  0.91172700  1
  O  O33  1  0.25229815  0.94427487  0.40179364  1
  O  O34  1  0.18737281  0.84748823  0.36828516  1
  O  O35  1  0.62201926  0.86201679  0.88646664  1
  O  O36  1  0.42761767  0.76302285  0.75478883  1
  O  O37  1  0.12236669  0.46769618  0.90965807  1
  O  O38  1  0.24221038  0.74361632  0.40421998  1
  O  O39  1  0.38953112  0.94099654  0.11190940  1
  O  O40  1  0.18702210  0.64496659  0.39091329  1
  O  O41  1  0.81451878  0.95522618  0.61302941  1
  O  O42  1  0.61000131  0.65966121  0.88558244  1
  O  O43  1  0.74457563  0.85865703  0.59129613  1
  O  O44  1  0.42914693  0.56268431  0.75211238  1
  O  O45  1  0.12247055  0.26845145  0.90760359  1
  O  O46  1  0.57731427  0.83690389  0.24775765  1
  O  O47  1  0.24895525  0.54211062  0.41007840  1
  O  O48  1  0.39744980  0.73634987  0.13133971  1
  O  O49  1  0.18677423  0.44551535  0.38457223  1
  O  O50  1  0.80078844  0.75221337  0.61325118  1
  O  O51  1  0.61386089  0.45999888  0.88566114  1
  O  O52  1  0.75194665  0.65495321  0.59878588  1
  O  O53  1  0.43095838  0.36370407  0.75016314  1
  O  O54  1  0.12250151  0.06900704  0.90638265  1
  O  O55  1  0.87749665  0.93347906  0.08714851  1
  O  O56  1  0.56632270  0.63461917  0.25255152  1
  O  O57  1  0.24996454  0.34271598  0.40813531  1
  O  O58  1  0.38669202  0.53869234  0.11817663  1
  O  O59  1  0.18680743  0.24600144  0.38309346  1
  O  O60  1  0.81270428  0.55325843  0.61888091  1
  O  O61  1  0.61359399  0.26070705  0.88361491  1
  O  O62  1  0.75001223  0.45675067  0.59307714  1
  O  O63  1  0.43090576  0.16431229  0.74849175  1
  O  O64  1  0.87725717  0.72968020  0.09380715  1
  O  O65  1  0.56981316  0.43579320  0.25133014  1
  O  O66  1  0.25016997  0.14316360  0.40679421  1
  O  O67  1  0.38642129  0.33927683  0.11623770  1
  O  O68  1  0.18731304  0.04647855  0.38100857  1
  O  O69  1  0.81309417  0.35395123  0.61676415  1
  O  O70  1  0.61326364  0.06133076  0.88165955  1
  O  O71  1  0.75017691  0.25729362  0.59155074  1
  O  O72  1  0.87796285  0.53123598  0.09296799  1
  O  O73  1  0.56919045  0.23637330  0.24941529  1
  O  O74  1  0.38643014  0.13987754  0.11455259  1
  O  O75  1  0.81296797  0.15442510  0.61502100  1
  O  O76  1  0.75023735  0.05757782  0.59048446  1
  O  O77  1  0.87764410  0.33158252  0.09215562  1
  O  O78  1  0.57140719  0.03719598  0.24783280  1
  O  O79  1  0.87793525  0.13221319  0.09048217  1
