# generated using pymatgen
data_Nd2(MoO4)3
_symmetry_space_group_name_H-M   'P 1'
_cell_length_a   16.12875112
_cell_length_b   12.00488876
_cell_length_c   7.02406784
_cell_angle_alpha   80.13366018
_cell_angle_beta   67.46849344
_cell_angle_gamma   26.57409729
_symmetry_Int_Tables_number   1
_chemical_formula_structural   Nd2(MoO4)3
_chemical_formula_sum   'Nd4 Mo6 O24'
_cell_volume   511.37128007
_cell_formula_units_Z   2
loop_
 _symmetry_equiv_pos_site_id
 _symmetry_equiv_pos_as_xyz
  1  'x, y, z'
loop_
 _atom_site_type_symbol
 _atom_site_label
 _atom_site_symmetry_multiplicity
 _atom_site_fract_x
 _atom_site_fract_y
 _atom_site_fract_z
 _atom_site_occupancy
  Nd  Nd0  1  0.12320276  0.13255422  0.74572703  1
  Nd  Nd1  1  0.46362188  0.11439355  0.74728529  1
  Nd  Nd2  1  0.21013024  0.86744578  0.25427297  1
  Nd  Nd3  1  0.86971112  0.88560645  0.25271471  1
  Mo  Mo4  1  0.04120208  0.37521532  0.24799408  1
  Mo  Mo5  1  0.37505706  0.36591275  0.25421995  1
  Mo  Mo6  1  0.29213192  0.62478468  0.75200592  1
  Mo  Mo7  1  0.70538759  0.38591737  0.25076773  1
  Mo  Mo8  1  0.62794541  0.61408263  0.74923227  1
  Mo  Mo9  1  0.95827594  0.63408725  0.74578005  1
  O  O10  1  0.12781514  0.15465747  0.09114806  1
  O  O11  1  0.15237221  0.23092274  0.42294120  1
  O  O12  1  0.11082544  0.43937654  0.08916140  1
  O  O13  1  0.24837737  0.31876498  0.59171313  1
  O  O14  1  0.48487834  0.14153014  0.05670762  1
  O  O15  1  0.08495663  0.68123502  0.40828687  1
  O  O16  1  0.51603479  0.19430398  0.41477863  1
  O  O17  1  0.41091943  0.46687889  0.11084231  1
  O  O18  1  0.22250856  0.56062346  0.91083860  1
  O  O19  1  0.18096079  0.76907726  0.57705880  1
  O  O20  1  0.57882985  0.30476509  0.57424186  1
  O  O21  1  0.81259042  0.14210022  0.10643828  1
  O  O22  1  0.20551886  0.84534253  0.90885194  1
  O  O23  1  0.40360704  0.71984401  0.41296264  1
  O  O24  1  0.84015895  0.22630116  0.40509703  1
  O  O25  1  0.79481873  0.41059897  0.05351353  1
  O  O26  1  0.53851427  0.58940103  0.94648647  1
  O  O27  1  0.49317505  0.77369884  0.59490297  1
  O  O28  1  0.92972596  0.28015599  0.58703736  1
  O  O29  1  0.52074258  0.85789978  0.89356172  1
  O  O30  1  0.75450315  0.69523491  0.42575814  1
  O  O31  1  0.92241357  0.53312111  0.88915769  1
  O  O32  1  0.81729821  0.80569602  0.58522137  1
  O  O33  1  0.84845466  0.85846986  0.94329238  1
