# generated using pymatgen
data_Na2Co5Mo4(ClO4)4
_symmetry_space_group_name_H-M   'P 1'
_cell_length_a   7.03967334
_cell_length_b   7.03967339
_cell_length_c   10.79257609
_cell_angle_alpha   74.84566218
_cell_angle_beta   74.84566198
_cell_angle_gamma   79.32542151
_symmetry_Int_Tables_number   1
_chemical_formula_structural   Na2Co5Mo4(ClO4)4
_chemical_formula_sum   'Na2 Co5 Mo4 Cl4 O16'
_cell_volume   494.35850390
_cell_formula_units_Z   1
loop_
 _symmetry_equiv_pos_site_id
 _symmetry_equiv_pos_as_xyz
  1  'x, y, z'
loop_
 _atom_site_type_symbol
 _atom_site_label
 _atom_site_symmetry_multiplicity
 _atom_site_fract_x
 _atom_site_fract_y
 _atom_site_fract_z
 _atom_site_occupancy
  Na  Na0  1  0.67315922  0.67315922  0.49231111  1
  Na  Na1  1  0.32684078  0.32684078  0.50768889  1
  Co  Co2  1  0.00000000  -0.00000000  0.50000000  1
  Co  Co3  1  0.08504753  0.44292840  0.13585385  1
  Co  Co4  1  0.44292840  0.08504753  0.13585385  1
  Co  Co5  1  0.55707160  0.91495247  0.86414615  1
  Co  Co6  1  0.91495247  0.55707160  0.86414615  1
  Mo  Mo7  1  0.55417117  0.55417118  0.15355852  1
  Mo  Mo8  1  0.04085610  0.04085610  0.80670036  1
  Mo  Mo9  1  0.95914390  0.95914390  0.19329964  1
  Mo  Mo10  1  0.44582883  0.44582882  0.84644148  1
  Cl  Cl11  1  0.03296016  0.64017512  0.62377757  1
  Cl  Cl12  1  0.35982488  0.96703984  0.37622243  1
  Cl  Cl13  1  0.64017512  0.03296016  0.62377757  1
  Cl  Cl14  1  0.96703984  0.35982488  0.37622243  1
  O  O15  1  0.48582512  0.81400620  0.08265387  1
  O  O16  1  0.52511185  0.52511185  0.32297751  1
  O  O17  1  0.81400620  0.48582512  0.08265387  1
  O  O18  1  0.60673679  0.60673679  0.86985944  1
  O  O19  1  0.73393177  0.05624462  0.14107021  1
  O  O20  1  0.14013863  0.14013863  0.13317246  1
  O  O21  1  0.94375538  0.26606823  0.85892979  1
  O  O22  1  0.90054398  0.90054398  0.36984586  1
  O  O23  1  0.09945602  0.09945602  0.63015414  1
  O  O24  1  0.05624462  0.73393177  0.14107021  1
  O  O25  1  0.85986137  0.85986137  0.86682754  1
  O  O26  1  0.26606823  0.94375538  0.85892979  1
  O  O27  1  0.39326321  0.39326321  0.13014056  1
  O  O28  1  0.18599380  0.51417488  0.91734613  1
  O  O29  1  0.47488815  0.47488815  0.67702249  1
  O  O30  1  0.51417488  0.18599380  0.91734613  1
