# generated using pymatgen
data_Li9Mn2Co5O16
_symmetry_space_group_name_H-M   'P 1'
_cell_length_a   5.19952535
_cell_length_b   7.71781124
_cell_length_c   7.71781116
_cell_angle_alpha   95.45268833
_cell_angle_beta   75.14400181
_cell_angle_gamma   75.14400455
_symmetry_Int_Tables_number   1
_chemical_formula_structural   Li9Mn2Co5O16
_chemical_formula_sum   'Li9 Mn2 Co5 O16'
_cell_volume   285.03294341
_cell_formula_units_Z   1
loop_
 _symmetry_equiv_pos_site_id
 _symmetry_equiv_pos_as_xyz
  1  'x, y, z'
loop_
 _atom_site_type_symbol
 _atom_site_label
 _atom_site_symmetry_multiplicity
 _atom_site_fract_x
 _atom_site_fract_y
 _atom_site_fract_z
 _atom_site_occupancy
  Li  Li0  1  0.99757394  0.13378166  0.38405100  1
  Li  Li1  1  0.00242606  0.61594900  0.86621834  1
  Li  Li2  1  0.49943316  0.00015755  0.50378086  1
  Li  Li3  1  0.50056684  0.49621914  -0.00015755  1
  Li  Li4  1  -0.00150160  0.86654606  0.61687184  1
  Li  Li5  1  0.00150160  0.38312816  0.13345394  1
  Li  Li6  1  0.52081803  0.73979954  0.73486849  1
  Li  Li7  1  0.47918197  0.26513151  0.26020046  1
  Li  Li8  1  0.00000000  0.50186735  0.49813265  1
  Mn  Mn9  1  1.00000000  0.00234300  0.99765700  1
  Mn  Mn10  1  0.50000000  0.87383637  0.12616363  1
  Co  Co11  1  0.50000000  0.37247006  0.62752994  1
  Co  Co12  1  0.00000000  0.74533634  0.25466366  1
  Co  Co13  1  1.00000000  0.25299813  0.74700187  1
  Co  Co14  1  0.50000000  0.61951493  0.38048507  1
  Co  Co15  1  0.50000000  0.12595931  0.87404069  1
  O  O16  1  0.75048767  0.97645571  0.22678752  1
  O  O17  1  0.74279203  0.47020729  0.73389472  1
  O  O18  1  0.27108318  0.87595777  0.36376856  1
  O  O19  1  0.28067955  0.36337343  0.86345381  1
  O  O20  1  0.75952213  0.74611633  0.47798584  1
  O  O21  1  0.77080538  0.23846865  0.98339962  1
  O  O22  1  0.28137727  0.61108179  0.62560495  1
  O  O23  1  0.27867473  0.11708684  0.11889092  1
  O  O24  1  0.25720797  0.26610528  0.52979271  1
  O  O25  1  0.24951233  0.77321248  0.02354429  1
  O  O26  1  0.71932045  0.13654619  0.63662657  1
  O  O27  1  0.72891682  0.63623144  0.12404223  1
  O  O28  1  0.22919462  0.01660038  0.76153135  1
  O  O29  1  0.24047787  0.52201416  0.25388367  1
  O  O30  1  0.72132527  0.88110908  0.88291316  1
  O  O31  1  0.71862273  0.37439505  0.38891821  1
