# generated using pymatgen
data_ZnCoH18N6Cl5
_symmetry_space_group_name_H-M   'P 1'
_cell_length_a   21.69926904
_cell_length_b   7.82769104
_cell_length_c   8.27724165
_cell_angle_alpha   90.00000527
_cell_angle_beta   89.99985543
_cell_angle_gamma   89.99999533
_symmetry_Int_Tables_number   1
_chemical_formula_structural   ZnCoH18N6Cl5
_chemical_formula_sum   'Zn4 Co4 H72 N24 Cl20'
_cell_volume   1405.93231937
_cell_formula_units_Z   4
loop_
 _symmetry_equiv_pos_site_id
 _symmetry_equiv_pos_as_xyz
  1  'x, y, z'
loop_
 _atom_site_type_symbol
 _atom_site_label
 _atom_site_symmetry_multiplicity
 _atom_site_fract_x
 _atom_site_fract_y
 _atom_site_fract_z
 _atom_site_occupancy
  Zn  Zn0  1  0.59152576  0.25000010  0.36606944  1
  Zn  Zn1  1  0.09152623  0.25000014  0.13393007  1
  Zn  Zn2  1  0.40847392  0.75000018  0.63393019  1
  Zn  Zn3  1  0.90847407  0.75000010  0.86606938  1
  Co  Co4  1  0.85927363  0.25000002  0.38464393  1
  Co  Co5  1  0.35927328  0.25000012  0.11535598  1
  Co  Co6  1  0.14072542  0.75000003  0.61535687  1
  Co  Co7  1  0.64072565  0.75000017  0.88464291  1
  H  H8  1  0.75588395  0.24999999  0.23925833  1
  H  H9  1  0.25588257  0.25000011  0.26073800  1
  H  H10  1  0.24411042  0.75000015  0.76075564  1
  H  H11  1  0.74411008  0.75000001  0.73925057  1
  H  H12  1  0.80699540  0.14487641  0.12778768  1
  H  H13  1  0.30699636  0.35513077  0.37221590  1
  H  H14  1  0.19300811  0.64489350  0.87220894  1
  H  H15  1  0.69300615  0.85511015  0.62779458  1
  H  H16  1  0.19300811  0.85510675  0.87220896  1
  H  H17  1  0.69300613  0.64488993  0.62779455  1
  H  H18  1  0.80699534  0.35512347  0.12778758  1
  H  H19  1  0.30699640  0.14486943  0.37221575  1
  H  H20  1  0.88618989  0.95506609  0.27253325  1
  H  H21  1  0.38618769  0.54494000  0.22746562  1
  H  H22  1  0.11380420  0.45507799  0.72747057  1
  H  H23  1  0.61380631  0.04492216  0.77253202  1
  H  H24  1  0.11380412  0.04492177  0.72747055  1
  H  H25  1  0.61380633  0.45507780  0.77253205  1
  H  H26  1  0.88618997  0.54493361  0.27253329  1
  H  H27  1  0.38618770  0.95505982  0.22746579  1
  H  H28  1  0.95050238  0.05050887  0.33266947  1
  H  H29  1  0.45050392  0.44949024  0.16732659  1
  H  H30  1  0.04950307  0.55050468  0.66734549  1
  H  H31  1  0.54950295  0.94949100  0.83265924  1
  H  H32  1  0.04950296  0.94949534  0.66734530  1
  H  H33  1  0.54950289  0.55050896  0.83265936  1
  H  H34  1  0.95050248  0.44949122  0.33266942  1
  H  H35  1  0.45050398  0.05050975  0.16732663  1
  H  H36  1  0.91951780  0.10113098  0.15893820  1
  H  H37  1  0.41951797  0.39886477  0.34106982  1
  H  H38  1  0.08048183  0.60111777  0.84104712  1
  H  H39  1  0.58048276  0.89887633  0.65895190  1
  H  H40  1  0.08048183  0.89888227  0.84104701  1
  H  H41  1  0.58048279  0.60112371  0.65895178  1
  H  H42  1  0.91951780  0.39886922  0.15893867  1
  H  H43  1  0.41951803  0.10113517  0.34107010  1
  H  H44  1  0.76762036  0.11879249  0.52953331  1
  H  H45  1  0.26761851  0.38120271  0.97046522  1
  H  H46  1  0.23237389  0.61877551  0.47046956  1
  H  H47  1  0.73237399  0.88121852  0.02952914  1
  H  H48  1  0.23237398  0.88122438  0.47046957  1
  H  H49  1  0.73237400  0.61878151  0.02952920  1
  H  H50  1  0.76762021  0.38120751  0.52953358  1
  H  H51  1  0.26761845  0.11879748  0.97046512  1
  H  H52  1  0.83090812  0.02262440  0.58877929  1
  H  H53  1  0.33091030  0.47737759  0.91121325  1
  H  H54  1  0.16909806  0.52262566  0.41123391  1
  H  H55  1  0.66909608  0.97737130  0.08876608  1
  H  H56  1  0.16909812  0.97737425  0.41123418  1
  H  H57  1  0.66909611  0.52262860  0.08876635  1
  H  H58  1  0.83090809  0.47737565  0.58877922  1
  H  H59  1  0.33091029  0.02262254  0.91121317  1
  H  H60  1  0.80030403  0.97122121  0.41072379  1
  H  H61  1  0.30030391  0.52878332  0.08928291  1
  H  H62  1  0.19969649  0.47123270  0.58925570  1
  H  H63  1  0.69969567  0.02876702  0.91073797  1
  H  H64  1  0.19969656  0.02876758  0.58925593  1
  H  H65  1  0.69969571  0.47123292  0.91073788  1
  H  H66  1  0.80030395  0.52877906  0.41072385  1
  H  H67  1  0.30030388  0.97121679  0.08928275  1
  H  H68  1  0.90888407  0.35421525  0.64538826  1
  H  H69  1  0.40888309  0.14577726  0.85460795  1
  H  H70  1  0.09111219  0.85419780  0.35461612  1
  H  H71  1  0.59111402  0.64579857  0.14538142  1
  H  H72  1  0.09111225  0.64580245  0.35461618  1
  H  H73  1  0.59111402  0.85420130  0.14538144  1
  H  H74  1  0.90888406  0.14578473  0.64538820  1
  H  H75  1  0.40888313  0.35422294  0.85460783  1
  H  H76  1  0.96132488  0.24999994  0.53724997  1
  H  H77  1  0.46132670  0.25000011  0.96275326  1
  H  H78  1  0.03868102  0.75000005  0.46273388  1
  H  H79  1  0.53868132  0.74999996  0.03725897  1
  N  N80  1  0.80099546  0.24999984  0.20048006  1
  N  N81  1  0.30099628  0.24999998  0.29951457  1
  N  N82  1  0.19900771  0.74999998  0.79953071  1
  N  N83  1  0.69900814  0.74999998  0.70046994  1
  N  N84  1  0.90891878  0.07086050  0.27656345  1
  N  N85  1  0.40891775  0.42913634  0.22343287  1
  N  N86  1  0.09107940  0.57085418  0.72344163  1
  N  N87  1  0.59107895  0.92914590  0.77655825  1
  N  N88  1  0.09107944  0.92914571  0.72344178  1
  N  N89  1  0.59107902  0.57085400  0.77655844  1
  N  N90  1  0.90891889  0.42913985  0.27656252  1
  N  N91  1  0.40891774  0.07086358  0.22343271  1
  N  N92  1  0.80914437  0.07225336  0.48807886  1
  N  N93  1  0.30914511  0.42774221  0.01192462  1
  N  N94  1  0.19085796  0.57224474  0.51191425  1
  N  N95  1  0.69085858  0.92775651  0.98808606  1
  N  N96  1  0.19085805  0.92775539  0.51191423  1
  N  N97  1  0.69085863  0.57224367  0.98808579  1
  N  N98  1  0.80914451  0.42774704  0.48807944  1
  N  N99  1  0.30914524  0.07225787  0.01192442  1
  N  N100  1  0.91557106  0.24999966  0.57166746  1
  N  N101  1  0.41557027  0.24999997  0.92833695  1
  N  N102  1  0.08442575  0.74999980  0.42832286  1
  N  N103  1  0.58442541  0.74999972  0.07167736  1
  Cl  Cl104  1  0.55746403  0.25000002  0.09045313  1
  Cl  Cl105  1  0.05746436  0.24999890  0.40954746  1
  Cl  Cl106  1  0.44253597  0.74999999  0.90954667  1
  Cl  Cl107  1  0.94253605  0.74999954  0.59045322  1
  Cl  Cl108  1  0.65233287  0.00726663  0.37326894  1
  Cl  Cl109  1  0.15233270  0.49273272  0.12673092  1
  Cl  Cl110  1  0.34766733  0.50726668  0.62673249  1
  Cl  Cl111  1  0.84766722  0.99273335  0.87326858  1
  Cl  Cl112  1  0.34766715  0.99273341  0.62673244  1
  Cl  Cl113  1  0.84766710  0.50726616  0.87326844  1
  Cl  Cl114  1  0.65233262  0.49273290  0.37326834  1
  Cl  Cl115  1  0.15233287  0.00726750  0.12673066  1
  Cl  Cl116  1  0.51015737  0.24999931  0.53584312  1
  Cl  Cl117  1  0.01015780  0.25000036  0.96415919  1
  Cl  Cl118  1  0.48984171  0.75000106  0.46415531  1
  Cl  Cl119  1  0.98984124  0.74999947  0.03584330  1
  Cl  Cl120  1  0.69873420  0.24999988  0.73838084  1
  Cl  Cl121  1  0.19873432  0.25000002  0.76162179  1
  Cl  Cl122  1  0.30126638  0.75000023  0.26161603  1
  Cl  Cl123  1  0.80126607  0.74999999  0.23838100  1
