# generated using pymatgen
data_Sb4H2SO10
_symmetry_space_group_name_H-M   'P 1'
_cell_length_a   5.86752389
_cell_length_b   11.40666887
_cell_length_c   15.45887083
_cell_angle_alpha   90.00000000
_cell_angle_beta   90.00000000
_cell_angle_gamma   90.00000000
_symmetry_Int_Tables_number   1
_chemical_formula_structural   Sb4H2SO10
_chemical_formula_sum   'Sb16 H8 S4 O40'
_cell_volume   1034.64525236
_cell_formula_units_Z   4
loop_
 _symmetry_equiv_pos_site_id
 _symmetry_equiv_pos_as_xyz
  1  'x, y, z'
loop_
 _atom_site_type_symbol
 _atom_site_label
 _atom_site_symmetry_multiplicity
 _atom_site_fract_x
 _atom_site_fract_y
 _atom_site_fract_z
 _atom_site_occupancy
  Sb  Sb0  1  0.97821348  0.64094705  0.27778963  1
  Sb  Sb1  1  0.02178652  0.35905295  0.77778963  1
  Sb  Sb2  1  0.52178652  0.64094705  0.77778963  1
  Sb  Sb3  1  0.47821348  0.35905295  0.27778963  1
  Sb  Sb4  1  0.89759306  0.91042734  0.11906397  1
  Sb  Sb5  1  0.10240694  0.08957266  0.61906397  1
  Sb  Sb6  1  0.60240694  0.91042734  0.61906397  1
  Sb  Sb7  1  0.39759306  0.08957266  0.11906397  1
  Sb  Sb8  1  0.64974796  0.59194174  0.45440679  1
  Sb  Sb9  1  0.35025204  0.40805826  0.95440679  1
  Sb  Sb10  1  0.85025204  0.59194174  0.95440679  1
  Sb  Sb11  1  0.14974796  0.40805826  0.45440679  1
  Sb  Sb12  1  0.55061599  0.86032259  0.29143520  1
  Sb  Sb13  1  0.44938401  0.13967741  0.79143520  1
  Sb  Sb14  1  0.94938401  0.86032259  0.79143520  1
  Sb  Sb15  1  0.05061599  0.13967741  0.29143520  1
  H  H16  1  0.87718475  0.49575262  0.16303954  1
  H  H17  1  0.12281525  0.50424738  0.66303954  1
  H  H18  1  0.62281525  0.49575262  0.66303954  1
  H  H19  1  0.37718475  0.50424738  0.16303954  1
  H  H20  1  0.84895037  0.90240481  0.40539791  1
  H  H21  1  0.15104963  0.09759519  0.90539791  1
  H  H22  1  0.65104963  0.90240481  0.90539791  1
  H  H23  1  0.34895037  0.09759519  0.40539791  1
  S  S24  1  0.31918794  0.73815517  0.03239472  1
  S  S25  1  0.68081206  0.26184483  0.53239472  1
  S  S26  1  0.18081206  0.73815517  0.53239472  1
  S  S27  1  0.81918794  0.26184483  0.03239472  1
  O  O28  1  0.78247455  0.54003363  0.20420810  1
  O  O29  1  0.21752545  0.45996637  0.70420810  1
  O  O30  1  0.71752545  0.54003363  0.70420810  1
  O  O31  1  0.28247455  0.45996637  0.20420810  1
  O  O32  1  0.81913488  0.79530635  0.21251557  1
  O  O33  1  0.18086512  0.20469365  0.71251557  1
  O  O34  1  0.68086512  0.79530635  0.71251557  1
  O  O35  1  0.31913488  0.20469365  0.21251557  1
  O  O36  1  0.92379957  0.51105588  0.38940856  1
  O  O37  1  0.07620043  0.48894412  0.88940856  1
  O  O38  1  0.57620043  0.51105588  0.88940856  1
  O  O39  1  0.42379957  0.48894412  0.38940856  1
  O  O40  1  0.11518630  0.01073591  0.18973037  1
  O  O41  1  0.88481370  0.98926409  0.68973037  1
  O  O42  1  0.38481370  0.01073591  0.68973037  1
  O  O43  1  0.61518630  0.98926409  0.18973037  1
  O  O44  1  0.77470955  0.95159191  0.36141083  1
  O  O45  1  0.22529045  0.04840809  0.86141083  1
  O  O46  1  0.72529045  0.95159191  0.86141083  1
  O  O47  1  0.27470955  0.04840809  0.36141083  1
  O  O48  1  0.69957198  0.69333275  0.34765759  1
  O  O49  1  0.30042802  0.30666725  0.84765759  1
  O  O50  1  0.80042802  0.69333275  0.84765759  1
  O  O51  1  0.19957198  0.30666725  0.34765759  1
  O  O52  1  0.15055792  0.75019839  0.95990771  1
  O  O53  1  0.84944208  0.24980161  0.45990771  1
  O  O54  1  0.34944208  0.75019839  0.45990771  1
  O  O55  1  0.65055792  0.24980161  0.95990771  1
  O  O56  1  0.35136625  0.61251320  0.05343386  1
  O  O57  1  0.64863375  0.38748680  0.55343386  1
  O  O58  1  0.14863375  0.61251320  0.55343386  1
  O  O59  1  0.85136625  0.38748680  0.05343386  1
  O  O60  1  0.53645458  0.79632452  0.00957306  1
  O  O61  1  0.46354542  0.20367548  0.50957306  1
  O  O62  1  0.96354542  0.79632452  0.50957306  1
  O  O63  1  0.03645458  0.20367548  0.00957306  1
  O  O64  1  0.22152491  0.79825870  0.11254659  1
  O  O65  1  0.77847509  0.20174130  0.61254659  1
  O  O66  1  0.27847509  0.79825870  0.61254659  1
  O  O67  1  0.72152491  0.20174130  0.11254659  1
