# generated using pymatgen
data_NbCl4F
_symmetry_space_group_name_H-M   'P 1'
_cell_length_a   10.22838792
_cell_length_b   10.46331290
_cell_length_c   10.23162911
_cell_angle_alpha   106.97518283
_cell_angle_beta   96.42291559
_cell_angle_gamma   131.87211026
_symmetry_Int_Tables_number   1
_chemical_formula_structural   NbCl4F
_chemical_formula_sum   'Nb4 Cl16 F4'
_cell_volume   703.82553292
_cell_formula_units_Z   4
loop_
 _symmetry_equiv_pos_site_id
 _symmetry_equiv_pos_as_xyz
  1  'x, y, z'
loop_
 _atom_site_type_symbol
 _atom_site_label
 _atom_site_symmetry_multiplicity
 _atom_site_fract_x
 _atom_site_fract_y
 _atom_site_fract_z
 _atom_site_occupancy
  Nb  Nb0  1  0.91927172  0.19050643  0.20258709  1
  Nb  Nb1  1  0.08072828  0.80949357  0.79741291  1
  Nb  Nb2  1  0.19505980  0.02341188  0.26376124  1
  Nb  Nb3  1  0.80494020  0.97658812  0.73623876  1
  Cl  Cl4  1  0.98635025  0.30119342  0.45332129  1
  Cl  Cl5  1  0.01364975  0.69880658  0.54667871  1
  Cl  Cl6  1  0.24649670  0.14602577  0.51006499  1
  Cl  Cl7  1  0.75350330  0.85397423  0.48993501  1
  Cl  Cl8  1  0.33684325  0.92594728  0.28345830  1
  Cl  Cl9  1  0.66315675  0.07405272  0.71654170  1
  Cl  Cl10  1  0.76623037  0.26818609  0.14721109  1
  Cl  Cl11  1  0.23376963  0.73181391  0.85278891  1
  Cl  Cl12  1  0.12121501  0.28698608  0.82459015  1
  Cl  Cl13  1  0.87878499  0.71301392  0.17540985  1
  Cl  Cl14  1  0.46948733  0.32686961  0.29215611  1
  Cl  Cl15  1  0.53051267  0.67313039  0.70784389  1
  Cl  Cl16  1  0.77719424  0.52089558  0.75902867  1
  Cl  Cl17  1  0.22280576  0.47910442  0.24097133  1
  Cl  Cl18  1  0.36416078  0.13782682  0.87466906  1
  Cl  Cl19  1  0.63583922  0.86217318  0.12533094  1
  F  F20  1  0.05464067  0.10159256  0.21800389  1
  F  F21  1  0.94535933  0.89840744  0.78199611  1
  F  F22  1  0.87206516  0.07713019  0.97151616  1
  F  F23  1  0.12793484  0.92286981  0.02848384  1
