# generated using pymatgen
data_CaTi2(HO3)2
_symmetry_space_group_name_H-M   'P 1'
_cell_length_a   4.97458513
_cell_length_b   12.20023354
_cell_length_c   16.06113985
_cell_angle_alpha   89.98873864
_cell_angle_beta   98.86838701
_cell_angle_gamma   89.99002492
_symmetry_Int_Tables_number   1
_chemical_formula_structural   CaTi2(HO3)2
_chemical_formula_sum   'Ca8 Ti16 H16 O48'
_cell_volume   963.11493087
_cell_formula_units_Z   8
loop_
 _symmetry_equiv_pos_site_id
 _symmetry_equiv_pos_as_xyz
  1  'x, y, z'
loop_
 _atom_site_type_symbol
 _atom_site_label
 _atom_site_symmetry_multiplicity
 _atom_site_fract_x
 _atom_site_fract_y
 _atom_site_fract_z
 _atom_site_occupancy
  Ca  Ca0  1  0.97612430  0.45040316  0.75984142  1
  Ca  Ca1  1  0.47405172  0.05070959  0.25873021  1
  Ca  Ca2  1  0.02570404  0.55135151  0.24153892  1
  Ca  Ca3  1  0.52959989  0.94799170  0.74034310  1
  Ca  Ca4  1  0.91336005  0.81179971  0.12243191  1
  Ca  Ca5  1  0.41247579  0.68839132  0.62325602  1
  Ca  Ca6  1  0.08731911  0.18734069  0.87712470  1
  Ca  Ca7  1  0.58699113  0.31266767  0.37727769  1
  Ti  Ti8  1  0.67446079  0.19649248  0.04247042  1
  Ti  Ti9  1  0.17275446  0.30361065  0.54286561  1
  Ti  Ti10  1  0.32909817  0.80275013  0.95651154  1
  Ti  Ti11  1  0.82596786  0.69756055  0.45786269  1
  Ti  Ti12  1  0.27699304  0.01237872  0.06080392  1
  Ti  Ti13  1  0.77525223  0.48693816  0.56184900  1
  Ti  Ti14  1  0.72596748  0.98659939  0.93822617  1
  Ti  Ti15  1  0.22465601  0.51361766  0.43901841  1
  Ti  Ti16  1  0.52411725  0.40995335  0.92742185  1
  Ti  Ti17  1  0.02327192  0.09010970  0.42696185  1
  Ti  Ti18  1  0.47705146  0.58949069  0.07325711  1
  Ti  Ti19  1  0.97696965  0.91071542  0.57304300  1
  Ti  Ti20  1  0.91782592  0.61237394  0.95149437  1
  Ti  Ti21  1  0.41597458  0.88751084  0.45098807  1
  Ti  Ti22  1  0.08482255  0.38694563  0.04964597  1
  Ti  Ti23  1  0.58299545  0.11342654  0.54886368  1
  H  H24  1  0.42827798  0.70423172  0.21058386  1
  H  H25  1  0.92857123  0.79506306  0.71009193  1
  H  H26  1  0.57301656  0.29661240  0.78931645  1
  H  H27  1  0.07156069  0.20333764  0.28801203  1
  H  H28  1  0.45051374  0.58453261  0.79767354  1
  H  H29  1  0.94956144  0.91732211  0.29731151  1
  H  H30  1  0.55327940  0.41572520  0.20205825  1
  H  H31  1  0.05325783  0.08194734  0.70238364  1
  H  H32  1  0.32663264  0.74833455  0.29391964  1
  H  H33  1  0.83019179  0.75273979  0.79467950  1
  H  H34  1  0.67356652  0.25462927  0.70529203  1
  H  H35  1  0.17328122  0.24730149  0.20448403  1
  H  H36  1  0.19992311  0.66316075  0.79883657  1
  H  H37  1  0.69720383  0.83949723  0.29733991  1
  H  H38  1  0.80649381  0.33773539  0.20217202  1
  H  H39  1  0.30565520  0.15965956  0.70247819  1
  O  O40  1  0.54556965  0.90258268  0.04019824  1
  O  O41  1  0.04216966  0.59770355  0.54186315  1
  O  O42  1  0.45769192  0.09758729  0.95829824  1
  O  O43  1  0.95626459  0.40282409  0.45918589  1
  O  O44  1  0.83015049  0.31254122  0.95270866  1
  O  O45  1  0.32895897  0.18801662  0.45245661  1
  O  O46  1  0.17144984  0.68730437  0.04765205  1
  O  O47  1  0.67125335  0.81302637  0.54783532  1
  O  O48  1  0.61784207  0.69226122  0.98408858  1
  O  O49  1  0.11723084  0.80769382  0.48436826  1
  O  O50  1  0.38374800  0.30743484  0.01651295  1
  O  O51  1  0.88256330  0.19285396  0.51546184  1
  O  O52  1  0.23025735  0.50330121  0.96503508  1
  O  O53  1  0.72884585  0.99719864  0.46415034  1
  O  O54  1  0.76920548  0.49641156  0.03567698  1
  O  O55  1  0.26965088  0.00369013  0.53568136  1
  O  O56  1  0.95978139  0.10111318  0.01256952  1
  O  O57  1  0.45880849  0.39858032  0.51267755  1
  O  O58  1  0.04315455  0.89792964  0.98641070  1
  O  O59  1  0.54017431  0.60240852  0.48798609  1
  O  O60  1  0.05841237  0.71213844  0.88228007  1
  O  O61  1  0.55745004  0.78790471  0.38220170  1
  O  O62  1  0.94438648  0.28687692  0.11804444  1
  O  O63  1  0.44174455  0.21235245  0.61801374  1
  O  O64  1  0.70645458  0.52052746  0.86714196  1
  O  O65  1  0.20619336  0.97910705  0.36651453  1
  O  O66  1  0.29235407  0.47942199  0.13401121  1
  O  O67  1  0.79277835  0.02103455  0.63303752  1
  O  O68  1  0.32710848  0.34528983  0.83774223  1
  O  O69  1  0.82791985  0.15490207  0.33690862  1
  O  O70  1  0.67243180  0.65435101  0.16329002  1
  O  O71  1  0.17197086  0.84523563  0.66281171  1
  O  O72  1  0.25866557  0.72355796  0.23521035  1
  O  O73  1  0.75966975  0.77626683  0.73590348  1
  O  O74  1  0.74227453  0.27824611  0.76417782  1
  O  O75  1  0.24100118  0.22236713  0.26383932  1
  O  O76  1  0.28107428  0.61151970  0.76099242  1
  O  O77  1  0.77872355  0.89192277  0.26035064  1
  O  O78  1  0.72375081  0.39019418  0.23899696  1
  O  O79  1  0.22293608  0.10787992  0.73973749  1
  O  O80  1  0.18421697  0.96441502  0.15588838  1
  O  O81  1  0.67960888  0.53362370  0.65679507  1
  O  O82  1  0.81782771  0.03409959  0.84297144  1
  O  O83  1  0.31899760  0.46638714  0.34385541  1
  O  O84  1  0.53447269  0.12026650  0.12379035  1
  O  O85  1  0.03611615  0.37978514  0.62488219  1
  O  O86  1  0.47056225  0.87801885  0.87510537  1
  O  O87  1  0.96799341  0.62160684  0.37657346  1
