# generated using pymatgen
data_TeH9SN2O5F3
_symmetry_space_group_name_H-M   'P 1'
_cell_length_a   7.12313170
_cell_length_b   7.60776325
_cell_length_c   8.82136489
_cell_angle_alpha   78.45521122
_cell_angle_beta   86.99053877
_cell_angle_gamma   72.47397376
_symmetry_Int_Tables_number   1
_chemical_formula_structural   TeH9SN2O5F3
_chemical_formula_sum   'Te2 H18 S2 N4 O10 F6'
_cell_volume   446.61107715
_cell_formula_units_Z   2
loop_
 _symmetry_equiv_pos_site_id
 _symmetry_equiv_pos_as_xyz
  1  'x, y, z'
loop_
 _atom_site_type_symbol
 _atom_site_label
 _atom_site_symmetry_multiplicity
 _atom_site_fract_x
 _atom_site_fract_y
 _atom_site_fract_z
 _atom_site_occupancy
  Te  Te0  1  0.00363885  0.00001537  0.98846574  1
  Te  Te1  1  0.63692087  0.39196695  0.48974838  1
  H  H2  1  0.14777028  0.48274621  0.84523437  1
  H  H3  1  0.03008706  0.62398534  0.68479338  1
  H  H4  1  0.59561972  0.77789187  0.80174483  1
  H  H5  1  0.47912682  0.92581195  0.64253884  1
  H  H6  1  0.21169396  0.43632954  0.16731871  1
  H  H7  1  0.42295073  0.93141751  0.14836194  1
  H  H8  1  0.71691618  0.91006346  0.68132755  1
  H  H9  1  0.29443214  0.70946121  0.99142353  1
  H  H10  1  0.90444936  0.50953179  0.81743772  1
  H  H11  1  0.07270216  0.35021496  0.31419228  1
  H  H12  1  0.65898784  0.38937441  0.20570785  1
  H  H13  1  0.59278896  0.79022623  0.28029955  1
  H  H14  1  0.18793375  0.50775780  0.33880627  1
  H  H15  1  0.07633773  0.38418265  0.71227390  1
  H  H16  1  0.53196269  0.01643323  0.78866788  1
  H  H17  1  0.43055184  0.98139978  0.32612990  1
  H  H18  1  0.60756369  0.00781055  0.19682500  1
  H  H19  1  0.99535604  0.57330988  0.21445284  1
  S  S20  1  0.07782741  0.04529798  0.57648431  1
  S  S21  1  0.54087559  0.37792885  0.93001389  1
  N  N22  1  0.03988038  0.50089232  0.76417199  1
  N  N23  1  0.58114053  0.90704811  0.72917959  1
  N  N24  1  0.51453257  0.92781784  0.23670356  1
  N  N25  1  0.11739662  0.46596250  0.25930970  1
  O  O26  1  0.27206631  0.96161782  0.51331799  1
  O  O27  1  0.65476495  0.25104896  0.07064670  1
  O  O28  1  0.34021571  0.48403692  0.98304811  1
  O  O29  1  0.95748846  0.19897870  0.44777530  1
  O  O30  1  0.51720632  0.26230289  0.82017280  1
  O  O31  1  0.64582114  0.51457089  0.85931471  1
  O  O32  1  0.09936670  0.13724483  0.70815198  1
  O  O33  1  0.97258304  0.90445285  0.63212885  1
  O  O34  1  0.27425522  0.84376004  0.00320985  1
  O  O35  1  0.66061666  0.48294649  0.27172611  1
  F  F36  1  0.91999446  0.76571596  0.98724851  1
  F  F37  1  0.52669147  0.20375846  0.42846762  1
  F  F38  1  0.72087345  0.62316691  0.49489581  1
  F  F39  1  0.12155444  0.18080803  0.05034520  1
  F  F40  1  0.35756915  0.54854733  0.48107725  1
  F  F41  1  0.96190876  0.92642460  0.20755971  1
