# generated using pymatgen
data_UAsH9O10
_symmetry_space_group_name_H-M   'P 1'
_cell_length_a   7.23755307
_cell_length_b   7.16654233
_cell_length_c   17.72373196
_cell_angle_alpha   90.18322798
_cell_angle_beta   89.99232350
_cell_angle_gamma   90.07542084
_symmetry_Int_Tables_number   1
_chemical_formula_structural   UAsH9O10
_chemical_formula_sum   'U4 As4 H36 O40'
_cell_volume   919.29310875
_cell_formula_units_Z   4
loop_
 _symmetry_equiv_pos_site_id
 _symmetry_equiv_pos_as_xyz
  1  'x, y, z'
loop_
 _atom_site_type_symbol
 _atom_site_label
 _atom_site_symmetry_multiplicity
 _atom_site_fract_x
 _atom_site_fract_y
 _atom_site_fract_z
 _atom_site_occupancy
  U  U0  1  0.25228653  0.25164124  0.55412508  1
  U  U1  1  0.74771347  0.74835876  0.44587492  1
  U  U2  1  0.75147225  0.75133456  0.94542803  1
  U  U3  1  0.24852775  0.24866544  0.05457197  1
  As  As4  1  0.25024577  0.74892792  0.49876906  1
  As  As5  1  0.74975423  0.25107208  0.50123094  1
  As  As6  1  0.24888549  0.74914794  0.99754127  1
  As  As7  1  0.75111451  0.25085206  0.00245873  1
  H  H8  1  0.73049592  0.95192510  0.68834765  1
  H  H9  1  0.26950408  0.04807490  0.31165235  1
  H  H10  1  0.23499360  0.05155382  0.81191352  1
  H  H11  1  0.76500640  0.94844618  0.18808648  1
  H  H12  1  0.58474211  0.63243969  0.68950568  1
  H  H13  1  0.41525789  0.36756031  0.31049432  1
  H  H14  1  0.09384922  0.37814696  0.80930645  1
  H  H15  1  0.90615078  0.62185304  0.19069355  1
  H  H16  1  0.00108635  0.80493678  0.69756272  1
  H  H17  1  0.99891365  0.19506322  0.30243728  1
  H  H18  1  0.49614603  0.19873701  0.80525706  1
  H  H19  1  0.50385397  0.80126299  0.19474294  1
  H  H20  1  0.87675519  0.07476880  0.64415182  1
  H  H21  1  0.12324481  0.92523120  0.35584818  1
  H  H22  1  0.38677941  0.94257031  0.86035244  1
  H  H23  1  0.61322059  0.05742969  0.13964756  1
  H  H24  1  0.62123353  0.43405099  0.64107394  1
  H  H25  1  0.37876647  0.56594901  0.35892606  1
  H  H26  1  0.12238511  0.57388338  0.85879142  1
  H  H27  1  0.87761489  0.42611662  0.14120858  1
  H  H28  1  0.12184316  0.65239442  0.65008743  1
  H  H29  1  0.87815684  0.34760558  0.34991257  1
  H  H30  1  0.61683132  0.35431241  0.84973328  1
  H  H31  1  0.38316868  0.64568759  0.15026672  1
  H  H32  1  0.43691908  0.86453872  0.64380808  1
  H  H33  1  0.56308092  0.13546128  0.35619192  1
  H  H34  1  0.94028226  0.14254158  0.85881817  1
  H  H35  1  0.05971774  0.85745842  0.14118183  1
  H  H36  1  0.60890078  0.41678206  0.73850537  1
  H  H37  1  0.39109922  0.58321794  0.26149463  1
  H  H38  1  0.11945704  0.59637571  0.76006623  1
  H  H39  1  0.88054296  0.40362429  0.23993377  1
  H  H40  1  0.44143127  0.88514107  0.73363791  1
  H  H41  1  0.55856873  0.11485893  0.26636209  1
  H  H42  1  0.93977199  0.12085407  0.76989137  1
  H  H43  1  0.06022801  0.87914593  0.23010863  1
  O  O44  1  0.25346190  0.25025713  0.65650633  1
  O  O45  1  0.74653810  0.74974287  0.34349367  1
  O  O46  1  0.74810535  0.75078772  0.84339126  1
  O  O47  1  0.25189465  0.24921228  0.15660874  1
  O  O48  1  0.74260741  0.74595996  0.54808972  1
  O  O49  1  0.25739259  0.25404004  0.45191028  1
  O  O50  1  0.24307341  0.25395841  0.95232425  1
  O  O51  1  0.75692659  0.74604159  0.04767575  1
  O  O52  1  0.93632989  0.20457050  0.55793294  1
  O  O53  1  0.06367011  0.79542950  0.44206706  1
  O  O54  1  0.43602381  0.80660827  0.94270521  1
  O  O55  1  0.56397619  0.19339173  0.05729479  1
  O  O56  1  0.57014051  0.30707286  0.56095077  1
  O  O57  1  0.42985949  0.69292714  0.43904923  1
  O  O58  1  0.07007095  0.69645618  0.93670569  1
  O  O59  1  0.92992905  0.30354382  0.06329431  1
  O  O60  1  0.20496160  0.56919639  0.56031102  1
  O  O61  1  0.79503840  0.43080361  0.43968898  1
  O  O62  1  0.70196990  0.43436702  0.94350134  1
  O  O63  1  0.29803010  0.56563298  0.05649866  1
  O  O64  1  0.30608965  0.93531972  0.55554375  1
  O  O65  1  0.69391035  0.06468028  0.44445625  1
  O  O66  1  0.81059781  0.06886376  0.94388930  1
  O  O67  1  0.18940219  0.93113624  0.05611070  1
  O  O68  1  0.85895510  0.00119375  0.69079393  1
  O  O69  1  0.14104490  0.99880625  0.30920607  1
  O  O70  1  0.36476590  0.00595059  0.81139261  1
  O  O71  1  0.63523410  0.99404941  0.18860739  1
  O  O72  1  0.64493870  0.50205105  0.68950097  1
  O  O73  1  0.35506130  0.49794895  0.31049903  1
  O  O74  1  0.15117478  0.50871583  0.80991041  1
  O  O75  1  0.84882522  0.49128417  0.19008959  1
  O  O76  1  0.10084129  0.70856092  0.70041351  1
  O  O77  1  0.89915871  0.29143908  0.29958649  1
  O  O78  1  0.58307952  0.30695593  0.79950389  1
  O  O79  1  0.41692048  0.69304407  0.20049611  1
  O  O80  1  0.51234204  0.83740136  0.68883529  1
  O  O81  1  0.48765796  0.16259864  0.31116471  1
  O  O82  1  0.01487905  0.16870835  0.81329977  1
  O  O83  1  0.98512095  0.83129165  0.18670023  1
