# generated using pymatgen
data_Li9Mn2Co5O16
_symmetry_space_group_name_H-M   'P 1'
_cell_length_a   5.71457168
_cell_length_b   10.09134821
_cell_length_c   5.91600760
_cell_angle_alpha   91.55920570
_cell_angle_beta   118.55231971
_cell_angle_gamma   73.04272661
_symmetry_Int_Tables_number   1
_chemical_formula_structural   Li9Mn2Co5O16
_chemical_formula_sum   'Li9 Mn2 Co5 O16'
_cell_volume   284.07496867
_cell_formula_units_Z   1
loop_
 _symmetry_equiv_pos_site_id
 _symmetry_equiv_pos_as_xyz
  1  'x, y, z'
loop_
 _atom_site_type_symbol
 _atom_site_label
 _atom_site_symmetry_multiplicity
 _atom_site_fract_x
 _atom_site_fract_y
 _atom_site_fract_z
 _atom_site_occupancy
  Li  Li0  1  0.99544203  0.26296207  0.75190067  1
  Li  Li1  1  0.50531273  0.74445551  0.25620951  1
  Li  Li2  1  -0.00124756  0.25439590  0.25167125  1
  Li  Li3  1  0.49898724  0.74777399  0.74851617  1
  Li  Li4  1  0.50101276  0.25222601  0.25148383  1
  Li  Li5  1  0.00124756  0.74560410  0.74832875  1
  Li  Li6  1  0.49468727  0.25554449  0.74379049  1
  Li  Li7  1  0.00455797  0.73703793  0.24809933  1
  Li  Li8  1  -0.00000000  0.50000000  -0.00000000  1
  Mn  Mn9  1  -0.00000000  0.00000000  -0.00000000  1
  Mn  Mn10  1  -0.00000000  0.00000000  0.50000000  1
  Co  Co11  1  0.50000000  0.50000000  0.50000000  1
  Co  Co12  1  0.50000000  0.50000000  -0.00000000  1
  Co  Co13  1  0.50000000  0.00000000  0.50000000  1
  Co  Co14  1  0.50000000  0.00000000  -0.00000000  1
  Co  Co15  1  -0.00000000  0.50000000  0.50000000  1
  O  O16  1  0.24678639  0.12153803  0.10274877  1
  O  O17  1  0.74811461  0.60889423  0.60822805  1
  O  O18  1  0.26041834  0.11264330  0.62568494  1
  O  O19  1  0.76427660  0.60020079  0.15987003  1
  O  O20  1  0.73669284  0.11592277  0.60248764  1
  O  O21  1  0.29467856  0.60020499  0.16112631  1
  O  O22  1  0.75343739  0.12379945  0.10765022  1
  O  O23  1  0.23958128  0.61805721  0.60069405  1
  O  O24  1  0.76041872  0.38194279  0.39930595  1
  O  O25  1  0.24656261  0.87620055  0.89234978  1
  O  O26  1  0.70532144  0.39979501  0.83887369  1
  O  O27  1  0.26330716  0.88407723  0.39751236  1
  O  O28  1  0.23572340  0.39979921  0.84012997  1
  O  O29  1  0.73958166  0.88735670  0.37431506  1
  O  O30  1  0.25188539  0.39110577  0.39177195  1
  O  O31  1  0.75321361  0.87846197  0.89725123  1
