# generated using pymatgen
data_ZnH12C2(N3Cl2)2
_symmetry_space_group_name_H-M   'P 1'
_cell_length_a   7.40080360
_cell_length_b   12.80656528
_cell_length_c   7.22777926
_cell_angle_alpha   93.80043811
_cell_angle_beta   103.12352356
_cell_angle_gamma   82.15466799
_symmetry_Int_Tables_number   1
_chemical_formula_structural   ZnH12C2(N3Cl2)2
_chemical_formula_sum   'Zn2 H24 C4 N12 Cl8'
_cell_volume   660.46276528
_cell_formula_units_Z   2
loop_
 _symmetry_equiv_pos_site_id
 _symmetry_equiv_pos_as_xyz
  1  'x, y, z'
loop_
 _atom_site_type_symbol
 _atom_site_label
 _atom_site_symmetry_multiplicity
 _atom_site_fract_x
 _atom_site_fract_y
 _atom_site_fract_z
 _atom_site_occupancy
  Zn  Zn0  1  0.82506388  0.77558202  0.95747702  1
  Zn  Zn1  1  0.17493612  0.22441798  0.04252298  1
  H  H2  1  0.95935009  0.47990885  0.24426008  1
  H  H3  1  0.04064991  0.52009115  0.75573992  1
  H  H4  1  0.83145846  0.60707396  0.23583233  1
  H  H5  1  0.16854154  0.39292604  0.76416767  1
  H  H6  1  0.51450897  0.62700970  0.24586504  1
  H  H7  1  0.48549103  0.37299030  0.75413496  1
  H  H8  1  0.40677111  0.51411265  0.26234215  1
  H  H9  1  0.59322889  0.48588735  0.73765785  1
  H  H10  1  0.57295259  0.35301712  0.28718119  1
  H  H11  1  0.42704741  0.64698288  0.71281881  1
  H  H12  1  0.81069640  0.33426334  0.27344825  1
  H  H13  1  0.18930360  0.66573666  0.72655175  1
  H  H14  1  0.34780691  0.82897619  0.37344798  1
  H  H15  1  0.65219309  0.17102381  0.62655202  1
  H  H16  1  0.50608742  0.87862115  0.56898403  1
  H  H17  1  0.49391258  0.12137885  0.43101597  1
  H  H18  1  0.40008965  0.94057503  0.84173092  1
  H  H19  1  0.59991035  0.05942497  0.15826908  1
  H  H20  1  0.16540571  0.93703789  0.84994306  1
  H  H21  1  0.83459429  0.06296211  0.15005694  1
  H  H22  1  0.96051457  0.87147777  0.59252211  1
  H  H23  1  0.03948543  0.12852223  0.40747789  1
  H  H24  1  0.04139975  0.82389285  0.38644816  1
  H  H25  1  0.95860025  0.17610715  0.61355184  1
  C  C26  1  0.68358884  0.48627803  0.25685620  1
  C  C27  1  0.31641116  0.51372197  0.74314380  1
  C  C28  1  0.23769731  0.88051613  0.60255960  1
  C  C29  1  0.76230269  0.11948387  0.39744040  1
  N  N30  1  0.83673186  0.52750411  0.24364316  1
  N  N31  1  0.16326814  0.47249589  0.75635684  1
  N  N32  1  0.52216378  0.54748435  0.25470926  1
  N  N33  1  0.47783622  0.45251565  0.74529074  1
  N  N34  1  0.69093952  0.38255893  0.27518437  1
  N  N35  1  0.30906048  0.61744107  0.72481563  1
  N  N36  1  0.37482820  0.86069755  0.50827657  1
  N  N37  1  0.62517180  0.13930245  0.49172343  1
  N  N38  1  0.27015962  0.92258436  0.77852795  1
  N  N39  1  0.72984038  0.07741564  0.22147205  1
  N  N40  1  0.06605432  0.85622679  0.52115336  1
  N  N41  1  0.93394568  0.14377321  0.47884664  1
  Cl  Cl42  1  0.76149587  0.64562247  0.72202139  1
  Cl  Cl43  1  0.23850413  0.35437753  0.27797861  1
  Cl  Cl44  1  0.12918373  0.73055493  0.11136563  1
  Cl  Cl45  1  0.87081627  0.26944507  0.88863437  1
  Cl  Cl46  1  0.77547094  0.93509072  0.81377462  1
  Cl  Cl47  1  0.22452906  0.06490928  0.18622538  1
  Cl  Cl48  1  0.64473501  0.78791994  0.17753285  1
  Cl  Cl49  1  0.35526499  0.21208006  0.82246715  1
