# generated using pymatgen
data_K4GeH4N2O3
_symmetry_space_group_name_H-M   'P 1'
_cell_length_a   11.11296368
_cell_length_b   6.53551672
_cell_length_c   12.44277345
_cell_angle_alpha   90.00000000
_cell_angle_beta   106.28081080
_cell_angle_gamma   90.00000000
_symmetry_Int_Tables_number   1
_chemical_formula_structural   K4GeH4N2O3
_chemical_formula_sum   'K16 Ge4 H16 N8 O12'
_cell_volume   867.46640727
_cell_formula_units_Z   4
loop_
 _symmetry_equiv_pos_site_id
 _symmetry_equiv_pos_as_xyz
  1  'x, y, z'
loop_
 _atom_site_type_symbol
 _atom_site_label
 _atom_site_symmetry_multiplicity
 _atom_site_fract_x
 _atom_site_fract_y
 _atom_site_fract_z
 _atom_site_occupancy
  K  K0  1  0.63254887  0.39422119  0.61438603  1
  K  K1  1  0.36745113  0.89422119  0.88561397  1
  K  K2  1  0.36745113  0.60577881  0.38561397  1
  K  K3  1  0.63254887  0.10577881  0.11438603  1
  K  K4  1  0.51204329  0.37752172  0.85320102  1
  K  K5  1  0.48795671  0.87752172  0.64679898  1
  K  K6  1  0.48795671  0.62247828  0.14679898  1
  K  K7  1  0.51204329  0.12247828  0.35320102  1
  K  K8  1  0.84848662  0.32075685  0.90242752  1
  K  K9  1  0.15151338  0.82075685  0.59757248  1
  K  K10  1  0.15151338  0.67924315  0.09757248  1
  K  K11  1  0.84848662  0.17924315  0.40242752  1
  K  K12  1  0.19400407  0.37917321  0.82197558  1
  K  K13  1  0.80599593  0.87917321  0.67802442  1
  K  K14  1  0.80599593  0.62082679  0.17802442  1
  K  K15  1  0.19400407  0.12082679  0.32197558  1
  Ge  Ge16  1  0.30314467  0.30527066  0.59898670  1
  Ge  Ge17  1  0.69685533  0.80527066  0.90101330  1
  Ge  Ge18  1  0.69685533  0.69472934  0.40101330  1
  Ge  Ge19  1  0.30314467  0.19472934  0.09898670  1
  H  H20  1  0.07141162  0.31868680  0.55998178  1
  H  H21  1  0.92858838  0.81868680  0.94001822  1
  H  H22  1  0.92858838  0.68131320  0.44001822  1
  H  H23  1  0.07141162  0.18131320  0.05998178  1
  H  H24  1  0.11200003  0.42746954  0.45771238  1
  H  H25  1  0.88799997  0.92746954  0.04228762  1
  H  H26  1  0.88799997  0.57253046  0.54228762  1
  H  H27  1  0.11200003  0.07253046  0.95771238  1
  H  H28  1  0.97419415  0.30579622  0.17091140  1
  H  H29  1  0.02580585  0.80579622  0.32908860  1
  H  H30  1  0.02580585  0.69420378  0.82908860  1
  H  H31  1  0.97419415  0.19420378  0.67091140  1
  H  H32  1  0.92667261  0.41889607  0.69195683  1
  H  H33  1  0.07332739  0.91889607  0.80804317  1
  H  H34  1  0.07332739  0.58110393  0.30804317  1
  H  H35  1  0.92667261  0.08110393  0.19195683  1
  N  N36  1  0.12787082  0.29878647  0.50792327  1
  N  N37  1  0.87212918  0.79878647  0.99207673  1
  N  N38  1  0.87212918  0.70121353  0.49207673  1
  N  N39  1  0.12787082  0.20121353  0.00792327  1
  N  N40  1  0.89290998  0.27534781  0.66590321  1
  N  N41  1  0.10709002  0.77534781  0.83409679  1
  N  N42  1  0.10709002  0.72465219  0.33409679  1
  N  N43  1  0.89290998  0.22465219  0.16590321  1
  O  O44  1  0.39078923  0.26807580  0.00599913  1
  O  O45  1  0.60921077  0.76807580  0.49400087  1
  O  O46  1  0.60921077  0.73192420  0.99400087  1
  O  O47  1  0.39078923  0.23192420  0.50599913  1
  O  O48  1  0.30814054  0.37777333  0.20492907  1
  O  O49  1  0.69185946  0.87777333  0.29507093  1
  O  O50  1  0.69185946  0.62222667  0.79507093  1
  O  O51  1  0.30814054  0.12222667  0.70492907  1
  O  O52  1  0.65713497  0.44841430  0.34264595  1
  O  O53  1  0.34286503  0.94841430  0.15735405  1
  O  O54  1  0.34286503  0.55158570  0.65735405  1
  O  O55  1  0.65713497  0.05158570  0.84264595  1
