# generated using pymatgen
data_Nb3CoS6
_symmetry_space_group_name_H-M   'P 1'
_cell_length_a   5.81605592
_cell_length_b   5.81605588
_cell_length_c   11.81201528
_cell_angle_alpha   90.00000000
_cell_angle_beta   90.00000000
_cell_angle_gamma   120.00000023
_symmetry_Int_Tables_number   1
_chemical_formula_structural   Nb3CoS6
_chemical_formula_sum   'Nb6 Co2 S12'
_cell_volume   346.02842404
_cell_formula_units_Z   2
loop_
 _symmetry_equiv_pos_site_id
 _symmetry_equiv_pos_as_xyz
  1  'x, y, z'
loop_
 _atom_site_type_symbol
 _atom_site_label
 _atom_site_symmetry_multiplicity
 _atom_site_fract_x
 _atom_site_fract_y
 _atom_site_fract_z
 _atom_site_occupancy
  Nb  Nb0  1  0.33333300  0.66666700  0.99722747  1
  Nb  Nb1  1  0.66666700  0.33333300  0.49722747  1
  Nb  Nb2  1  0.33333300  0.66666700  0.50277253  1
  Nb  Nb3  1  0.00000000  0.00000000  0.00000000  1
  Nb  Nb4  1  0.66666700  0.33333300  0.00277253  1
  Nb  Nb5  1  0.00000000  0.00000000  0.50000000  1
  Co  Co6  1  0.66666700  0.33333300  0.75000000  1
  Co  Co7  1  0.33333300  0.66666700  0.25000000  1
  S  S8  1  0.00274737  0.66806591  0.13287310  1
  S  S9  1  0.66806591  0.66531854  0.63287310  1
  S  S10  1  0.00274737  0.33468146  0.36712690  1
  S  S11  1  0.33193409  0.33468146  0.13287310  1
  S  S12  1  0.33468146  0.00274737  0.63287310  1
  S  S13  1  0.33468146  0.33193409  0.86712690  1
  S  S14  1  0.66531854  0.66806591  0.36712690  1
  S  S15  1  0.99725263  0.66531854  0.86712690  1
  S  S16  1  0.66806591  0.00274737  0.86712690  1
  S  S17  1  0.33193409  0.99725263  0.36712690  1
  S  S18  1  0.66531854  0.99725263  0.13287310  1
  S  S19  1  0.99725263  0.33193409  0.63287310  1
