# generated using pymatgen
data_KHSeO4
_symmetry_space_group_name_H-M   'P 1'
_cell_length_a   8.79933078
_cell_length_b   10.18129758
_cell_length_c   19.72191740
_cell_angle_alpha   90.00000000
_cell_angle_beta   90.00000000
_cell_angle_gamma   90.00000000
_symmetry_Int_Tables_number   1
_chemical_formula_structural   KHSeO4
_chemical_formula_sum   'K16 H16 Se16 O64'
_cell_volume   1766.85907126
_cell_formula_units_Z   16
loop_
 _symmetry_equiv_pos_site_id
 _symmetry_equiv_pos_as_xyz
  1  'x, y, z'
loop_
 _atom_site_type_symbol
 _atom_site_label
 _atom_site_symmetry_multiplicity
 _atom_site_fract_x
 _atom_site_fract_y
 _atom_site_fract_z
 _atom_site_occupancy
  K  K0  1  0.88457210  0.17606938  0.37473978  1
  K  K1  1  0.38457210  0.32393062  0.62526022  1
  K  K2  1  0.11542790  0.67606938  0.12526022  1
  K  K3  1  0.61542790  0.82393062  0.87473978  1
  K  K4  1  0.11542790  0.82393062  0.62526022  1
  K  K5  1  0.61542790  0.67606938  0.37473978  1
  K  K6  1  0.88457210  0.32393062  0.87473978  1
  K  K7  1  0.38457210  0.17606938  0.12526022  1
  K  K8  1  0.37502670  0.31941129  0.38094018  1
  K  K9  1  0.87502670  0.18058871  0.61905982  1
  K  K10  1  0.62497330  0.81941129  0.11905982  1
  K  K11  1  0.12497330  0.68058871  0.88094018  1
  K  K12  1  0.62497330  0.68058871  0.61905982  1
  K  K13  1  0.12497330  0.81941129  0.38094018  1
  K  K14  1  0.37502670  0.18058871  0.88094018  1
  K  K15  1  0.87502670  0.31941129  0.11905982  1
  H  H16  1  0.91126149  0.60804621  0.49986226  1
  H  H17  1  0.41126149  0.89195379  0.50013774  1
  H  H18  1  0.08873851  0.10804621  0.00013774  1
  H  H19  1  0.58873851  0.39195379  0.99986226  1
  H  H20  1  0.08873851  0.39195379  0.50013774  1
  H  H21  1  0.58873851  0.10804621  0.49986226  1
  H  H22  1  0.91126149  0.89195379  0.99986226  1
  H  H23  1  0.41126149  0.60804621  0.00013774  1
  H  H24  1  0.22620389  0.06947812  0.27853746  1
  H  H25  1  0.72620389  0.43052188  0.72146254  1
  H  H26  1  0.77379611  0.56947812  0.22146254  1
  H  H27  1  0.27379611  0.93052188  0.77853746  1
  H  H28  1  0.77379611  0.93052188  0.72146254  1
  H  H29  1  0.27379611  0.56947812  0.27853746  1
  H  H30  1  0.22620389  0.43052188  0.77853746  1
  H  H31  1  0.72620389  0.06947812  0.22146254  1
  Se  Se32  1  0.75500716  0.42300510  0.49732844  1
  Se  Se33  1  0.25500716  0.07699490  0.50267156  1
  Se  Se34  1  0.24499284  0.92300510  0.00267156  1
  Se  Se35  1  0.74499284  0.57699490  0.99732844  1
  Se  Se36  1  0.24499284  0.57699490  0.50267156  1
  Se  Se37  1  0.74499284  0.92300510  0.49732844  1
  Se  Se38  1  0.75500716  0.07699490  0.99732844  1
  Se  Se39  1  0.25500716  0.42300510  0.00267156  1
  Se  Se40  1  0.48256522  0.01568383  0.29515111  1
  Se  Se41  1  0.98256522  0.48431617  0.70484889  1
  Se  Se42  1  0.51743478  0.51568383  0.20484889  1
  Se  Se43  1  0.01743478  0.98431617  0.79515111  1
  Se  Se44  1  0.51743478  0.98431617  0.70484889  1
  Se  Se45  1  0.01743478  0.51568383  0.29515111  1
  Se  Se46  1  0.48256522  0.48431617  0.79515111  1
  Se  Se47  1  0.98256522  0.01568383  0.20484889  1
  O  O48  1  0.79570748  0.59402750  0.49936564  1
  O  O49  1  0.29570748  0.90597250  0.50063436  1
  O  O50  1  0.20429252  0.09402750  0.00063436  1
  O  O51  1  0.70429252  0.40597250  0.99936564  1
  O  O52  1  0.20429252  0.40597250  0.50063436  1
  O  O53  1  0.70429252  0.09402750  0.49936564  1
  O  O54  1  0.79570748  0.90597250  0.99936564  1
  O  O55  1  0.29570748  0.59402750  0.00063436  1
  O  O56  1  0.91913066  0.34246031  0.49341883  1
  O  O57  1  0.41913066  0.15753969  0.50658117  1
  O  O58  1  0.08086934  0.84246031  0.00658117  1
  O  O59  1  0.58086934  0.65753969  0.99341883  1
  O  O60  1  0.08086934  0.65753969  0.50658117  1
  O  O61  1  0.58086934  0.84246031  0.49341883  1
  O  O62  1  0.91913066  0.15753969  0.99341883  1
  O  O63  1  0.41913066  0.34246031  0.00658117  1
  O  O64  1  0.66508611  0.39532389  0.56942573  1
  O  O65  1  0.16508611  0.10467611  0.43057427  1
  O  O66  1  0.33491389  0.89532389  0.93057427  1
  O  O67  1  0.83491389  0.60467611  0.06942573  1
  O  O68  1  0.33491389  0.60467611  0.43057427  1
  O  O69  1  0.83491389  0.89532389  0.56942573  1
  O  O70  1  0.66508611  0.10467611  0.06942573  1
  O  O71  1  0.16508611  0.39532389  0.93057427  1
  O  O72  1  0.65262404  0.40229805  0.42804475  1
  O  O73  1  0.15262404  0.09770195  0.57195525  1
  O  O74  1  0.34737596  0.90229805  0.07195525  1
  O  O75  1  0.84737596  0.59770195  0.92804475  1
  O  O76  1  0.34737596  0.59770195  0.57195525  1
  O  O77  1  0.84737596  0.90229805  0.42804475  1
  O  O78  1  0.65262404  0.09770195  0.92804475  1
  O  O79  1  0.15262404  0.40229805  0.07195525  1
  O  O80  1  0.56960652  0.00237167  0.21974903  1
  O  O81  1  0.06960652  0.49762833  0.78025097  1
  O  O82  1  0.43039348  0.50237167  0.28025097  1
  O  O83  1  0.93039348  0.99762833  0.71974903  1
  O  O84  1  0.43039348  0.99762833  0.78025097  1
  O  O85  1  0.93039348  0.50237167  0.21974903  1
  O  O86  1  0.56960652  0.49762833  0.71974903  1
  O  O87  1  0.06960652  0.00237167  0.28025097  1
  O  O88  1  0.32783896  0.12098510  0.27644260  1
  O  O89  1  0.82783896  0.37901490  0.72355740  1
  O  O90  1  0.67216104  0.62098510  0.22355740  1
  O  O91  1  0.17216104  0.87901490  0.77644260  1
  O  O92  1  0.67216104  0.87901490  0.72355740  1
  O  O93  1  0.17216104  0.62098510  0.27644260  1
  O  O94  1  0.32783896  0.37901490  0.77644260  1
  O  O95  1  0.82783896  0.12098510  0.22355740  1
  O  O96  1  0.41535199  0.87430561  0.32266100  1
  O  O97  1  0.91535199  0.62569439  0.67733900  1
  O  O98  1  0.58464801  0.37430561  0.17733900  1
  O  O99  1  0.08464801  0.12569439  0.82266100  1
  O  O100  1  0.58464801  0.12569439  0.67733900  1
  O  O101  1  0.08464801  0.37430561  0.32266100  1
  O  O102  1  0.41535199  0.62569439  0.82266100  1
  O  O103  1  0.91535199  0.87430561  0.17733900  1
  O  O104  1  0.58342196  0.10166500  0.34956016  1
  O  O105  1  0.08342196  0.39833500  0.65043984  1
  O  O106  1  0.41657804  0.60166500  0.15043984  1
  O  O107  1  0.91657804  0.89833500  0.84956016  1
  O  O108  1  0.41657804  0.89833500  0.65043984  1
  O  O109  1  0.91657804  0.60166500  0.34956016  1
  O  O110  1  0.58342196  0.39833500  0.84956016  1
  O  O111  1  0.08342196  0.10166500  0.15043984  1
