# generated using pymatgen
data_Li9Mn2Co5O16
_symmetry_space_group_name_H-M   'P 1'
_cell_length_a   2.90833160
_cell_length_b   10.30178317
_cell_length_c   9.90639782
_cell_angle_alpha   80.49583963
_cell_angle_beta   91.21469906
_cell_angle_gamma   91.15462584
_symmetry_Int_Tables_number   1
_chemical_formula_structural   Li9Mn2Co5O16
_chemical_formula_sum   'Li9 Mn2 Co5 O16'
_cell_volume   292.62402140
_cell_formula_units_Z   1
loop_
 _symmetry_equiv_pos_site_id
 _symmetry_equiv_pos_as_xyz
  1  'x, y, z'
loop_
 _atom_site_type_symbol
 _atom_site_label
 _atom_site_symmetry_multiplicity
 _atom_site_fract_x
 _atom_site_fract_y
 _atom_site_fract_z
 _atom_site_occupancy
  Li  Li0  1  0.99695883  0.13392067  0.24512352  1
  Li  Li1  1  0.48643924  0.13029001  0.76073525  1
  Li  Li2  1  0.50705785  0.38915303  0.22920155  1
  Li  Li3  1  0.98568783  0.37528573  0.75646038  1
  Li  Li4  1  0.01431217  0.62471427  0.24353962  1
  Li  Li5  1  0.49294215  0.61084697  0.77079845  1
  Li  Li6  1  0.51356076  0.86970999  0.23926475  1
  Li  Li7  1  0.00304117  0.86607933  0.75487648  1
  Li  Li8  1  -0.00000000  0.50000000  -0.00000000  1
  Mn  Mn9  1  -0.00000000  0.00000000  -0.00000000  1
  Mn  Mn10  1  0.50000000  0.00000000  0.50000000  1
  Co  Co11  1  0.50121844  0.27065395  -0.00574014  1
  Co  Co12  1  0.00898532  0.25330303  0.49903374  1
  Co  Co13  1  0.50000000  0.50000000  0.50000000  1
  Co  Co14  1  0.49878156  0.72934605  0.00574014  1
  Co  Co15  1  -0.00898532  0.74669697  0.50096626  1
  O  O16  1  0.50824449  0.05404469  0.11096359  1
  O  O17  1  0.00863413  0.05474494  0.61020742  1
  O  O18  1  0.00833755  0.30430688  0.11938576  1
  O  O19  1  0.48671873  0.30916754  0.61562686  1
  O  O20  1  0.50447991  0.57533824  0.12130373  1
  O  O21  1  0.98079417  0.56344301  0.61371525  1
  O  O22  1  0.00375995  0.82419955  0.10822947  1
  O  O23  1  0.47968741  0.82472624  0.60908552  1
  O  O24  1  0.52031259  0.17527376  0.39091448  1
  O  O25  1  -0.00375995  0.17580045  0.89177053  1
  O  O26  1  0.01920583  0.43655699  0.38628475  1
  O  O27  1  0.49552009  0.42466176  0.87869627  1
  O  O28  1  0.51328127  0.69083246  0.38437314  1
  O  O29  1  -0.00833755  0.69569312  0.88061424  1
  O  O30  1  -0.00863413  0.94525506  0.38979258  1
  O  O31  1  0.49175551  0.94595531  0.88903641  1
