# generated using pymatgen
data_Cd2B2O5
_symmetry_space_group_name_H-M   'P 1'
_cell_length_a   3.52274688
_cell_length_b   6.46814882
_cell_length_c   10.07804092
_cell_angle_alpha   105.80392874
_cell_angle_beta   91.32190686
_cell_angle_gamma   91.26788697
_symmetry_Int_Tables_number   1
_chemical_formula_structural   Cd2B2O5
_chemical_formula_sum   'Cd4 B4 O10'
_cell_volume   220.79921240
_cell_formula_units_Z   2
loop_
 _symmetry_equiv_pos_site_id
 _symmetry_equiv_pos_as_xyz
  1  'x, y, z'
loop_
 _atom_site_type_symbol
 _atom_site_label
 _atom_site_symmetry_multiplicity
 _atom_site_fract_x
 _atom_site_fract_y
 _atom_site_fract_z
 _atom_site_occupancy
  B  B0  1  0.67342083  0.12644870  0.31992998  1
  B  B1  1  0.32657917  0.87355130  0.68007002  1
  B  B2  1  0.67172368  0.67242280  0.84404728  1
  B  B3  1  0.32827632  0.32757720  0.15595272  1
  O  O4  1  0.46771440  0.15487017  0.20281526  1
  O  O5  1  0.53228560  0.84512983  0.79718474  1
  O  O6  1  0.26848195  0.70465410  0.56385286  1
  O  O7  1  0.73151805  0.29534590  0.43614714  1
  O  O8  1  0.20872376  0.07895317  0.69774125  1
  O  O9  1  0.79127624  0.92104683  0.30225875  1
  O  O10  1  0.26020606  0.28860738  0.01748127  1
  O  O11  1  0.73979394  0.71139262  0.98251873  1
  O  O12  1  0.27649094  0.52550446  0.24724436  1
  O  O13  1  0.72350906  0.47449554  0.75275564  1
  Cd  Cd14  1  0.75232630  0.22112889  0.87499481  1
  Cd  Cd15  1  0.24767370  0.77887111  0.12500519  1
  Cd  Cd16  1  0.77296277  0.65247419  0.40671835  1
  Cd  Cd17  1  0.22703723  0.34752581  0.59328165  1
