# generated using pymatgen
data_Hf3Cu8
_symmetry_space_group_name_H-M   'P 1'
_cell_length_a   7.85502910
_cell_length_b   8.11666898
_cell_length_c   9.99592150
_cell_angle_alpha   90.00000000
_cell_angle_beta   90.00000000
_cell_angle_gamma   90.00000000
_symmetry_Int_Tables_number   1
_chemical_formula_structural   Hf3Cu8
_chemical_formula_sum   'Hf12 Cu32'
_cell_volume   637.30667875
_cell_formula_units_Z   4
loop_
 _symmetry_equiv_pos_site_id
 _symmetry_equiv_pos_as_xyz
  1  'x, y, z'
loop_
 _atom_site_type_symbol
 _atom_site_label
 _atom_site_symmetry_multiplicity
 _atom_site_fract_x
 _atom_site_fract_y
 _atom_site_fract_z
 _atom_site_occupancy
  Hf  Hf0  1  0.56308159  0.44596594  0.35992519  1
  Hf  Hf1  1  0.06308159  0.05403406  0.14007481  1
  Hf  Hf2  1  0.43691841  0.94596594  0.64007481  1
  Hf  Hf3  1  0.93691841  0.55403406  0.85992519  1
  Hf  Hf4  1  0.43691841  0.55403406  0.64007481  1
  Hf  Hf5  1  0.93691841  0.94596594  0.85992519  1
  Hf  Hf6  1  0.56308159  0.05403406  0.35992519  1
  Hf  Hf7  1  0.06308159  0.44596594  0.14007481  1
  Hf  Hf8  1  0.96022849  0.25000000  0.45311055  1
  Hf  Hf9  1  0.46022849  0.25000000  0.04688945  1
  Hf  Hf10  1  0.03977151  0.75000000  0.54688945  1
  Hf  Hf11  1  0.53977151  0.75000000  0.95311055  1
  Cu  Cu12  1  0.87923367  0.57585806  0.34009057  1
  Cu  Cu13  1  0.37923367  0.92414194  0.15990943  1
  Cu  Cu14  1  0.12076633  0.07585806  0.65990943  1
  Cu  Cu15  1  0.62076633  0.42414194  0.84009057  1
  Cu  Cu16  1  0.12076633  0.42414194  0.65990943  1
  Cu  Cu17  1  0.62076633  0.07585806  0.84009057  1
  Cu  Cu18  1  0.87923367  0.92414194  0.34009057  1
  Cu  Cu19  1  0.37923367  0.57585806  0.15990943  1
  Cu  Cu20  1  0.69895007  0.49909997  0.09384063  1
  Cu  Cu21  1  0.19895007  0.00090003  0.40615937  1
  Cu  Cu22  1  0.30104993  0.99909997  0.90615937  1
  Cu  Cu23  1  0.80104993  0.50090003  0.59384063  1
  Cu  Cu24  1  0.30104993  0.50090003  0.90615937  1
  Cu  Cu25  1  0.80104993  0.99909997  0.59384063  1
  Cu  Cu26  1  0.69895007  0.00090003  0.09384063  1
  Cu  Cu27  1  0.19895007  0.49909997  0.40615937  1
  Cu  Cu28  1  0.78502301  0.25000000  0.22704028  1
  Cu  Cu29  1  0.28502301  0.25000000  0.27295972  1
  Cu  Cu30  1  0.21497699  0.75000000  0.77295972  1
  Cu  Cu31  1  0.71497699  0.75000000  0.72704028  1
  Cu  Cu32  1  0.61657639  0.25000000  0.59670684  1
  Cu  Cu33  1  0.11657639  0.25000000  0.90329316  1
  Cu  Cu34  1  0.38342361  0.75000000  0.40329316  1
  Cu  Cu35  1  0.88342361  0.75000000  0.09670684  1
  Cu  Cu36  1  0.86936781  0.25000000  0.73489466  1
  Cu  Cu37  1  0.36936781  0.25000000  0.76510534  1
  Cu  Cu38  1  0.13063219  0.75000000  0.26510534  1
  Cu  Cu39  1  0.63063219  0.75000000  0.23489466  1
  Cu  Cu40  1  0.82348620  0.25000000  0.98306365  1
  Cu  Cu41  1  0.32348620  0.25000000  0.51693635  1
  Cu  Cu42  1  0.17651380  0.75000000  0.01693635  1
  Cu  Cu43  1  0.67651380  0.75000000  0.48306365  1
