# generated using pymatgen
data_V3HPb5O13
_symmetry_space_group_name_H-M   'P 1'
_cell_length_a   10.36108151
_cell_length_b   10.36132070
_cell_length_c   7.56335435
_cell_angle_alpha   90.00324412
_cell_angle_beta   89.99774608
_cell_angle_gamma   120.00704481
_symmetry_Int_Tables_number   1
_chemical_formula_structural   V3HPb5O13
_chemical_formula_sum   'V6 H2 Pb10 O26'
_cell_volume   703.12809471
_cell_formula_units_Z   2
loop_
 _symmetry_equiv_pos_site_id
 _symmetry_equiv_pos_as_xyz
  1  'x, y, z'
loop_
 _atom_site_type_symbol
 _atom_site_label
 _atom_site_symmetry_multiplicity
 _atom_site_fract_x
 _atom_site_fract_y
 _atom_site_fract_z
 _atom_site_occupancy
  V  V0  1  0.39850562  0.36859640  0.74398021  1
  V  V1  1  0.63037446  0.02960950  0.74394748  1
  V  V2  1  0.96945519  0.60031795  0.74391128  1
  V  V3  1  0.60052992  0.63044288  0.24398218  1
  V  V4  1  0.36863908  0.96938436  0.24394490  1
  V  V5  1  0.02954534  0.39869953  0.24391277  1
  H  H6  1  0.99997026  0.99998475  0.93640882  1
  H  H7  1  0.99914806  0.99996599  0.43640598  1
  Pb  Pb8  1  0.33280249  0.66599360  0.49928790  1
  Pb  Pb9  1  0.66608369  0.33288710  0.48333379  1
  Pb  Pb10  1  0.66614496  0.33296752  0.99928523  1
  Pb  Pb11  1  0.33289345  0.66609805  0.98332962  1
  Pb  Pb12  1  0.25045462  0.00657634  0.75047286  1
  Pb  Pb13  1  0.99238934  0.24306862  0.75060201  1
  Pb  Pb14  1  0.75605658  0.74860707  0.75050946  1
  Pb  Pb15  1  0.74850013  0.99243901  0.25042525  1
  Pb  Pb16  1  0.00670762  0.75602931  0.25066353  1
  Pb  Pb17  1  0.24298906  0.25033712  0.25049486  1
  O  O18  1  0.32640561  0.48986680  0.74713977  1
  O  O19  1  0.50903303  0.83627593  0.74714253  1
  O  O20  1  0.16284334  0.67256161  0.74712782  1
  O  O21  1  0.67258522  0.50914109  0.24713721  1
  O  O22  1  0.48996754  0.16272066  0.24714532  1
  O  O23  1  0.83615247  0.32642177  0.24713082  1
  O  O24  1  0.59429573  0.46943964  0.74082960  1
  O  O25  1  0.52964416  0.12464597  0.74083502  1
  O  O26  1  0.87441488  0.40458558  0.74063053  1
  O  O27  1  0.40477383  0.52969413  0.24083745  1
  O  O28  1  0.46941210  0.87438970  0.24082384  1
  O  O29  1  0.12454574  0.59445243  0.24063381  1
  O  O30  1  0.33609162  0.24916528  0.56193699  1
  O  O31  1  0.74981299  0.08665544  0.56189928  1
  O  O32  1  0.91236727  0.66293799  0.56203100  1
  O  O33  1  0.65304916  0.74947773  0.42552220  1
  O  O34  1  0.24956033  0.90277381  0.42546128  1
  O  O35  1  0.09631546  0.34662145  0.42558576  1
  O  O36  1  0.66293602  0.74984905  0.06192358  1
  O  O37  1  0.24919142  0.91233639  0.06190726  1
  O  O38  1  0.08663769  0.33608762  0.06203229  1
  O  O39  1  0.34602630  0.24955534  0.92549647  1
  O  O40  1  0.74945465  0.09621261  0.92546692  1
  O  O41  1  0.90271044  0.65243071  0.92559784  1
  O  O42  1  0.99986646  0.99982505  0.80741352  1
  O  O43  1  0.99971669  0.99987113  0.30741370  1
