# generated using pymatgen
data_KH(IO3)2
_symmetry_space_group_name_H-M   'P 1'
_cell_length_a   7.15361435
_cell_length_b   8.32355610
_cell_length_c   22.22918041
_cell_angle_alpha   90.00000000
_cell_angle_beta   98.10233072
_cell_angle_gamma   90.00000000
_symmetry_Int_Tables_number   1
_chemical_formula_structural   KH(IO3)2
_chemical_formula_sum   'K8 H8 I16 O48'
_cell_volume   1310.39112557
_cell_formula_units_Z   8
loop_
 _symmetry_equiv_pos_site_id
 _symmetry_equiv_pos_as_xyz
  1  'x, y, z'
loop_
 _atom_site_type_symbol
 _atom_site_label
 _atom_site_symmetry_multiplicity
 _atom_site_fract_x
 _atom_site_fract_y
 _atom_site_fract_z
 _atom_site_occupancy
  K  K0  1  0.24914016  0.62459182  0.00363905  1
  K  K1  1  0.75085984  0.12459182  0.49636095  1
  K  K2  1  0.75085984  0.37540818  0.99636095  1
  K  K3  1  0.24914016  0.87540818  0.50363905  1
  K  K4  1  0.14486886  0.88769204  0.17129252  1
  K  K5  1  0.85513114  0.38769204  0.32870748  1
  K  K6  1  0.85513114  0.11230796  0.82870748  1
  K  K7  1  0.14486886  0.61230796  0.67129252  1
  H  H8  1  0.53974698  0.17689431  0.25128850  1
  H  H9  1  0.46025302  0.67689431  0.24871150  1
  H  H10  1  0.46025302  0.82310569  0.74871150  1
  H  H11  1  0.53974698  0.32310569  0.75128850  1
  H  H12  1  0.77557425  0.65530845  0.24762475  1
  H  H13  1  0.22442575  0.15530845  0.25237525  1
  H  H14  1  0.22442575  0.34469155  0.75237525  1
  H  H15  1  0.77557425  0.84469155  0.74762475  1
  I  I16  1  0.16760646  0.39581100  0.15645884  1
  I  I17  1  0.83239354  0.89581100  0.34354116  1
  I  I18  1  0.83239354  0.60418900  0.84354116  1
  I  I19  1  0.16760646  0.10418900  0.65645884  1
  I  I20  1  0.22961262  0.11241275  0.99915534  1
  I  I21  1  0.77038738  0.61241275  0.50084466  1
  I  I22  1  0.77038738  0.88758725  0.00084466  1
  I  I23  1  0.22961262  0.38758725  0.49915534  1
  I  I24  1  0.66741196  0.13211855  0.15595938  1
  I  I25  1  0.33258804  0.63211855  0.34404062  1
  I  I26  1  0.33258804  0.86788145  0.84404062  1
  I  I27  1  0.66741196  0.36788145  0.65595938  1
  I  I28  1  0.65254247  0.63898295  0.13570374  1
  I  I29  1  0.34745753  0.13898295  0.36429626  1
  I  I30  1  0.34745753  0.36101705  0.86429626  1
  I  I31  1  0.65254247  0.86101705  0.63570374  1
  O  O32  1  0.05577600  0.22831611  0.19255990  1
  O  O33  1  0.94422400  0.72831611  0.30744010  1
  O  O34  1  0.94422400  0.77168389  0.80744010  1
  O  O35  1  0.05577600  0.27168389  0.69255990  1
  O  O36  1  0.01372404  0.56411048  0.16841476  1
  O  O37  1  0.98627596  0.06411048  0.33158524  1
  O  O38  1  0.98627596  0.43588952  0.83158524  1
  O  O39  1  0.01372404  0.93588952  0.66841476  1
  O  O40  1  0.09720503  0.35781480  0.07549666  1
  O  O41  1  0.90279497  0.85781480  0.42450334  1
  O  O42  1  0.90279497  0.64218520  0.92450334  1
  O  O43  1  0.09720503  0.14218520  0.57549666  1
  O  O44  1  0.99414141  0.14103241  0.95672803  1
  O  O45  1  0.00585859  0.64103241  0.54327197  1
  O  O46  1  0.00585859  0.85896759  0.04327197  1
  O  O47  1  0.99414141  0.35896759  0.45672803  1
  O  O48  1  0.31926875  0.95247178  0.95352552  1
  O  O49  1  0.68073125  0.45247178  0.54647448  1
  O  O50  1  0.68073125  0.04752822  0.04647448  1
  O  O51  1  0.31926875  0.54752822  0.45352552  1
  O  O52  1  0.34976026  0.29131925  0.97324614  1
  O  O53  1  0.65023974  0.79131925  0.52675386  1
  O  O54  1  0.65023974  0.70868075  0.02675386  1
  O  O55  1  0.34976026  0.20868075  0.47324614  1
  O  O56  1  0.41475882  0.10833599  0.13579750  1
  O  O57  1  0.58524118  0.60833599  0.36420250  1
  O  O58  1  0.58524118  0.89166401  0.86420250  1
  O  O59  1  0.41475882  0.39166401  0.63579750  1
  O  O60  1  0.65005177  0.22669562  0.23485279  1
  O  O61  1  0.34994823  0.72669562  0.26514721  1
  O  O62  1  0.34994823  0.77330438  0.76514721  1
  O  O63  1  0.65005177  0.27330438  0.73485279  1
  O  O64  1  0.74292318  0.93320981  0.18398141  1
  O  O65  1  0.25707682  0.43320981  0.31601859  1
  O  O66  1  0.25707682  0.06679019  0.81601859  1
  O  O67  1  0.74292318  0.56679019  0.68398141  1
  O  O68  1  0.40350891  0.68771979  0.12645993  1
  O  O69  1  0.59649109  0.18771979  0.37354007  1
  O  O70  1  0.59649109  0.31228021  0.87354007  1
  O  O71  1  0.40350891  0.81228021  0.62645993  1
  O  O72  1  0.66050406  0.60157266  0.22452989  1
  O  O73  1  0.33949594  0.10157266  0.27547011  1
  O  O74  1  0.33949594  0.39842734  0.77547011  1
  O  O75  1  0.66050406  0.89842734  0.72452989  1
  O  O76  1  0.62505036  0.43203815  0.11018326  1
  O  O77  1  0.37494964  0.93203815  0.38981674  1
  O  O78  1  0.37494964  0.56796185  0.88981674  1
  O  O79  1  0.62505036  0.06796185  0.61018326  1
