# generated using pymatgen
data_Mg2MnH24(ClO2)6
_symmetry_space_group_name_H-M   'P 1'
_cell_length_a   9.94779227
_cell_length_b   9.94779240
_cell_length_c   11.59577990
_cell_angle_alpha   90.00005766
_cell_angle_beta   90.00005765
_cell_angle_gamma   120.00084853
_symmetry_Int_Tables_number   1
_chemical_formula_structural   Mg2MnH24(ClO2)6
_chemical_formula_sum   'Mg4 Mn2 H48 Cl12 O24'
_cell_volume   993.75723363
_cell_formula_units_Z   2
loop_
 _symmetry_equiv_pos_site_id
 _symmetry_equiv_pos_as_xyz
  1  'x, y, z'
loop_
 _atom_site_type_symbol
 _atom_site_label
 _atom_site_symmetry_multiplicity
 _atom_site_fract_x
 _atom_site_fract_y
 _atom_site_fract_z
 _atom_site_occupancy
  Mg  Mg0  1  0.33332943  0.66666589  0.99855983  1
  Mg  Mg1  1  0.66666589  0.33332943  0.49855983  1
  Mg  Mg2  1  0.99999772  -0.00000017  0.60164634  1
  Mg  Mg3  1  -0.00000017  0.99999772  0.10164634  1
  Mn  Mn4  1  0.33331876  0.66665052  0.50257885  1
  Mn  Mn5  1  0.66665052  0.33331876  0.00257885  1
  H  H6  1  0.46522551  0.50373689  0.90842118  1
  H  H7  1  0.49626906  0.96148870  0.90841599  1
  H  H8  1  0.03850563  0.53477221  0.90842058  1
  H  H9  1  0.50373689  0.46522551  0.40842118  1
  H  H10  1  0.96148870  0.49626906  0.40841599  1
  H  H11  1  0.53477221  0.03850563  0.40842058  1
  H  H12  1  0.47545644  0.61822417  0.81288237  1
  H  H13  1  0.38177289  0.85723049  0.81288251  1
  H  H14  1  0.14276614  0.52453963  0.81288441  1
  H  H15  1  0.61822417  0.47545644  0.31288237  1
  H  H16  1  0.85723049  0.38177289  0.31288251  1
  H  H17  1  0.52453963  0.14276614  0.31288441  1
  H  H18  1  0.53814483  0.91659654  0.11343351  1
  H  H19  1  0.08339952  0.62154253  0.11343323  1
  H  H20  1  0.37845433  0.46185810  0.11343276  1
  H  H21  1  0.91659654  0.53814483  0.61343351  1
  H  H22  1  0.62154253  0.08339952  0.61343323  1
  H  H23  1  0.46185810  0.37845433  0.61343276  1
  H  H24  1  0.53261735  0.78365746  0.18697968  1
  H  H25  1  0.21634124  0.74895817  0.18697842  1
  H  H26  1  0.25103715  0.46738047  0.18697795  1
  H  H27  1  0.78365746  0.53261735  0.68697968  1
  H  H28  1  0.74895817  0.21634124  0.68697842  1
  H  H29  1  0.46738047  0.25103715  0.68697795  1
  H  H30  1  0.88761738  0.18044067  0.51911647  1
  H  H31  1  0.81955452  0.70717471  0.51911599  1
  H  H32  1  0.29282377  0.11238122  0.51911636  1
  H  H33  1  0.18044067  0.88761738  0.01911647  1
  H  H34  1  0.70717471  0.81955452  0.01911599  1
  H  H35  1  0.11238122  0.29282377  0.01911636  1
  H  H36  1  0.04272254  0.22397852  0.45210852  1
  H  H37  1  0.77601556  0.81874272  0.45210887  1
  H  H38  1  0.18125495  0.95727343  0.45210942  1
  H  H39  1  0.22397852  0.04272254  0.95210852  1
  H  H40  1  0.81874272  0.77601556  0.95210887  1
  H  H41  1  0.95727343  0.18125495  0.95210942  1
  H  H42  1  0.70576840  0.83431957  0.69241797  1
  H  H43  1  0.16567931  0.87144907  0.69241635  1
  H  H44  1  0.12855117  0.29423048  0.69241735  1
  H  H45  1  0.83431957  0.70576840  0.19241797  1
  H  H46  1  0.87144907  0.16567931  0.19241635  1
  H  H47  1  0.29423048  0.12855117  0.19241735  1
  H  H48  1  0.79288575  0.98641302  0.77082838  1
  H  H49  1  0.01358632  0.80647224  0.77082746  1
  H  H50  1  0.19352666  0.20711373  0.77082813  1
  H  H51  1  0.98641302  0.79288575  0.27082838  1
  H  H52  1  0.80647224  0.01358632  0.27082746  1
  H  H53  1  0.20711373  0.19352666  0.27082813  1
  Cl  Cl54  1  0.50526370  0.61125874  0.63525747  1
  Cl  Cl55  1  0.38873150  0.89399739  0.63525836  1
  Cl  Cl56  1  0.10598056  0.49471873  0.63526015  1
  Cl  Cl57  1  0.61125874  0.50526370  0.13525747  1
  Cl  Cl58  1  0.89399739  0.38873150  0.13525836  1
  Cl  Cl59  1  0.49471873  0.10598056  0.13526015  1
  Cl  Cl60  1  0.25571947  0.42639468  0.37517842  1
  Cl  Cl61  1  0.57359216  0.82931981  0.37517969  1
  Cl  Cl62  1  0.17066936  0.74426526  0.37518076  1
  Cl  Cl63  1  0.42639468  0.25571947  0.87517842  1
  Cl  Cl64  1  0.82931981  0.57359216  0.87517969  1
  Cl  Cl65  1  0.74426526  0.17066936  0.87518076  1
  O  O66  1  0.46427473  0.60148238  0.89773415  1
  O  O67  1  0.39851527  0.86279190  0.89773219  1
  O  O68  1  0.13720124  0.53572012  0.89773437  1
  O  O69  1  0.60148238  0.46427473  0.39773415  1
  O  O70  1  0.86279190  0.39851527  0.39773219  1
  O  O71  1  0.53572012  0.13720124  0.39773437  1
  O  O72  1  0.52607139  0.81157645  0.10578127  1
  O  O73  1  0.18842058  0.71449184  0.10578153  1
  O  O74  1  0.28550753  0.47392947  0.10578110  1
  O  O75  1  0.81157645  0.52607139  0.60578127  1
  O  O76  1  0.71449184  0.18842058  0.60578153  1
  O  O77  1  0.47392947  0.28550753  0.60578110  1
  O  O78  1  0.95359305  0.13887478  0.49254136  1
  O  O79  1  0.86111794  0.81471844  0.49254400  1
  O  O80  1  0.18528124  0.04640290  0.49254204  1
  O  O81  1  0.13887478  0.95359305  0.99254136  1
  O  O82  1  0.81471844  0.86111794  0.99254400  1
  O  O83  1  0.04640290  0.18528124  0.99254204  1
  O  O84  1  0.80632100  0.92885420  0.70769566  1
  O  O85  1  0.07114392  0.87746254  0.70769064  1
  O  O86  1  0.12254091  0.19368148  0.70768797  1
  O  O87  1  0.92885420  0.80632100  0.20769566  1
  O  O88  1  0.87746254  0.07114392  0.20769064  1
  O  O89  1  0.19368148  0.12254091  0.20768797  1
