# generated using pymatgen
data_Cs2Se3
_symmetry_space_group_name_H-M   'P 1'
_cell_length_a   7.14692778
_cell_length_b   7.14692778
_cell_length_c   8.53790234
_cell_angle_alpha   90.00000000
_cell_angle_beta   90.00000000
_cell_angle_gamma   110.70507708
_symmetry_Int_Tables_number   1
_chemical_formula_structural   Cs2Se3
_chemical_formula_sum   'Cs4 Se6'
_cell_volume   407.93712856
_cell_formula_units_Z   2
loop_
 _symmetry_equiv_pos_site_id
 _symmetry_equiv_pos_as_xyz
  1  'x, y, z'
loop_
 _atom_site_type_symbol
 _atom_site_label
 _atom_site_symmetry_multiplicity
 _atom_site_fract_x
 _atom_site_fract_y
 _atom_site_fract_z
 _atom_site_occupancy
  Se  Se0  1  0.39925075  0.07347284  0.66584789  1
  Se  Se1  1  0.60074925  0.92652716  0.16584789  1
  Se  Se2  1  0.92652716  0.60074925  0.66584789  1
  Se  Se3  1  0.07347284  0.39925075  0.16584789  1
  Se  Se4  1  0.79247359  0.20752641  0.00778671  1
  Se  Se5  1  0.20752641  0.79247359  0.50778671  1
  Cs  Cs6  1  0.41746875  0.58253125  0.82130440  1
  Cs  Cs7  1  0.58253125  0.41746875  0.32130440  1
  Cs  Cs8  1  0.90225043  0.09774957  0.54021312  1
  Cs  Cs9  1  0.09774957  0.90225043  0.04021312  1
