# generated using pymatgen
data_AsH18N3O7
_symmetry_space_group_name_H-M   'P 1'
_cell_length_a   6.79066662
_cell_length_b   6.36618225
_cell_length_c   23.13277791
_cell_angle_alpha   90.00000000
_cell_angle_beta   94.06229345
_cell_angle_gamma   90.00000000
_symmetry_Int_Tables_number   1
_chemical_formula_structural   AsH18N3O7
_chemical_formula_sum   'As4 H72 N12 O28'
_cell_volume   997.53186944
_cell_formula_units_Z   4
loop_
 _symmetry_equiv_pos_site_id
 _symmetry_equiv_pos_as_xyz
  1  'x, y, z'
loop_
 _atom_site_type_symbol
 _atom_site_label
 _atom_site_symmetry_multiplicity
 _atom_site_fract_x
 _atom_site_fract_y
 _atom_site_fract_z
 _atom_site_occupancy
  As  As0  1  0.20952103  0.13995494  0.84295842  1
  As  As1  1  0.79047897  0.63995494  0.65704158  1
  As  As2  1  0.79047897  0.86004506  0.15704158  1
  As  As3  1  0.20952103  0.36004506  0.34295842  1
  H  H4  1  0.25525108  0.10860604  0.64007707  1
  H  H5  1  0.74474892  0.60860604  0.85992293  1
  H  H6  1  0.74474892  0.89139396  0.35992293  1
  H  H7  1  0.25525108  0.39139396  0.14007707  1
  H  H8  1  0.01968228  0.03001871  0.65781199  1
  H  H9  1  0.98031772  0.53001871  0.84218801  1
  H  H10  1  0.98031772  0.96998129  0.34218801  1
  H  H11  1  0.01968228  0.46998129  0.15781199  1
  H  H12  1  0.80157873  0.11109201  0.78471604  1
  H  H13  1  0.19842127  0.61109201  0.71528396  1
  H  H14  1  0.19842127  0.88890799  0.21528396  1
  H  H15  1  0.80157873  0.38890799  0.28471604  1
  H  H16  1  0.71914278  0.03914831  0.71547916  1
  H  H17  1  0.28085722  0.53914831  0.78452084  1
  H  H18  1  0.28085722  0.96085169  0.28452084  1
  H  H19  1  0.71914278  0.46085169  0.21547916  1
  H  H20  1  0.13153732  0.27555642  0.01007390  1
  H  H21  1  0.86846268  0.77555642  0.48992610  1
  H  H22  1  0.86846268  0.72444358  0.98992610  1
  H  H23  1  0.13153732  0.22444358  0.51007390  1
  H  H24  1  0.36747016  0.34149604  0.02838042  1
  H  H25  1  0.63252984  0.84149604  0.47161958  1
  H  H26  1  0.63252984  0.65850396  0.97161958  1
  H  H27  1  0.36747016  0.15850396  0.52838042  1
  H  H28  1  0.82754836  0.20093229  0.99398346  1
  H  H29  1  0.17245164  0.70093229  0.50601654  1
  H  H30  1  0.17245164  0.79906771  0.00601654  1
  H  H31  1  0.82754836  0.29906771  0.49398346  1
  H  H32  1  0.59292182  0.04936139  0.61718775  1
  H  H33  1  0.40707818  0.54936139  0.88281225  1
  H  H34  1  0.40707818  0.95063861  0.38281225  1
  H  H35  1  0.59292182  0.45063861  0.11718775  1
  H  H36  1  0.82917868  0.11755972  0.89635639  1
  H  H37  1  0.17082132  0.61755972  0.60364361  1
  H  H38  1  0.17082132  0.88244028  0.10364361  1
  H  H39  1  0.82917868  0.38244028  0.39635639  1
  H  H40  1  0.19650280  0.11106870  0.71022044  1
  H  H41  1  0.80349720  0.61106870  0.78977956  1
  H  H42  1  0.80349720  0.88893130  0.28977956  1
  H  H43  1  0.19650280  0.38893130  0.21022044  1
  H  H44  1  0.09067304  0.28839385  0.66150196  1
  H  H45  1  0.90932696  0.78839385  0.83849804  1
  H  H46  1  0.90932696  0.71160615  0.33849804  1
  H  H47  1  0.09067304  0.21160615  0.16150196  1
  H  H48  1  0.55114539  0.10639620  0.76505455  1
  H  H49  1  0.44885461  0.60639620  0.73494545  1
  H  H50  1  0.44885461  0.89360380  0.23494545  1
  H  H51  1  0.55114539  0.39360380  0.26505455  1
  H  H52  1  0.69641680  0.29505240  0.73689090  1
  H  H53  1  0.30358320  0.79505240  0.76310910  1
  H  H54  1  0.30358320  0.70494760  0.26310910  1
  H  H55  1  0.69641680  0.20494760  0.23689090  1
  H  H56  1  0.30407574  0.22404861  0.96120027  1
  H  H57  1  0.69592426  0.72404861  0.53879973  1
  H  H58  1  0.69592426  0.77595139  0.03879973  1
  H  H59  1  0.30407574  0.27595139  0.46120027  1
  H  H60  1  0.23035512  0.47651486  0.97560760  1
  H  H61  1  0.76964488  0.97651486  0.52439240  1
  H  H62  1  0.76964488  0.52348514  0.02439240  1
  H  H63  1  0.23035512  0.02348514  0.47560760  1
  H  H64  1  0.83212417  0.15141318  0.06089999  1
  H  H65  1  0.16787583  0.65141318  0.43910001  1
  H  H66  1  0.16787583  0.84858682  0.93910001  1
  H  H67  1  0.83212417  0.34858682  0.56089999  1
  H  H68  1  0.55907445  0.29290106  0.60413306  1
  H  H69  1  0.44092555  0.79290106  0.89586694  1
  H  H70  1  0.44092555  0.70709894  0.39586694  1
  H  H71  1  0.55907445  0.20709894  0.10413306  1
  H  H72  1  0.60537440  0.10634435  0.91591307  1
  H  H73  1  0.39462560  0.60634435  0.58408693  1
  H  H74  1  0.39462560  0.89365565  0.08408693  1
  H  H75  1  0.60537440  0.39365565  0.41591307  1
  N  N76  1  0.14058737  0.13167423  0.66696457  1
  N  N77  1  0.85941263  0.63167423  0.83303543  1
  N  N78  1  0.85941263  0.86832577  0.33303543  1
  N  N79  1  0.14058737  0.36832577  0.16696457  1
  N  N80  1  0.69207204  0.13707486  0.75074923  1
  N  N81  1  0.30792796  0.63707486  0.74925077  1
  N  N82  1  0.30792796  0.86292514  0.24925077  1
  N  N83  1  0.69207204  0.36292514  0.25074923  1
  N  N84  1  0.26210093  0.32862386  0.99330291  1
  N  N85  1  0.73789907  0.82862386  0.50669709  1
  N  N86  1  0.73789907  0.67137614  0.00669709  1
  N  N87  1  0.26210093  0.17137614  0.49330291  1
  O  O88  1  0.30866797  0.05832226  0.78011838  1
  O  O89  1  0.69133203  0.55832226  0.71988162  1
  O  O90  1  0.69133203  0.94167774  0.21988162  1
  O  O91  1  0.30866797  0.44167774  0.28011838  1
  O  O92  1  0.33987501  0.03559788  0.90347311  1
  O  O93  1  0.66012499  0.53559788  0.59652689  1
  O  O94  1  0.66012499  0.96440212  0.09652689  1
  O  O95  1  0.33987501  0.46440212  0.40347311  1
  O  O96  1  0.21433151  0.40977213  0.84778241  1
  O  O97  1  0.78566849  0.90977213  0.65221759  1
  O  O98  1  0.78566849  0.59022787  0.15221759  1
  O  O99  1  0.21433151  0.09022787  0.34778241  1
  O  O100  1  0.96879321  0.05271675  0.84216718  1
  O  O101  1  0.03120679  0.55271675  0.65783282  1
  O  O102  1  0.03120679  0.94728325  0.15783282  1
  O  O103  1  0.96879321  0.44728325  0.34216718  1
  O  O104  1  0.88577261  0.25050527  0.03293044  1
  O  O105  1  0.11422739  0.75050527  0.46706956  1
  O  O106  1  0.11422739  0.74949473  0.96706956  1
  O  O107  1  0.88577261  0.24949473  0.53293044  1
  O  O108  1  0.49124786  0.15251811  0.60170833  1
  O  O109  1  0.50875214  0.65251811  0.89829167  1
  O  O110  1  0.50875214  0.84748189  0.39829167  1
  O  O111  1  0.49124786  0.34748189  0.10170833  1
  O  O112  1  0.74039099  0.15397397  0.92780865  1
  O  O113  1  0.25960901  0.65397397  0.57219135  1
  O  O114  1  0.25960901  0.84602603  0.07219135  1
  O  O115  1  0.74039099  0.34602603  0.42780865  1
