# generated using pymatgen
data_KP
_symmetry_space_group_name_H-M   'P 1'
_cell_length_a   6.10428140
_cell_length_b   6.61684631
_cell_length_c   11.43207427
_cell_angle_alpha   90.00000000
_cell_angle_beta   90.00000000
_cell_angle_gamma   90.00000000
_symmetry_Int_Tables_number   1
_chemical_formula_structural   KP
_chemical_formula_sum   'K8 P8'
_cell_volume   461.75396195
_cell_formula_units_Z   8
loop_
 _symmetry_equiv_pos_site_id
 _symmetry_equiv_pos_as_xyz
  1  'x, y, z'
loop_
 _atom_site_type_symbol
 _atom_site_label
 _atom_site_symmetry_multiplicity
 _atom_site_fract_x
 _atom_site_fract_y
 _atom_site_fract_z
 _atom_site_occupancy
  P  P0  1  0.41550955  0.93894576  0.35063861  1
  P  P1  1  0.91550955  0.06105424  0.14936139  1
  P  P2  1  0.08449045  0.43894576  0.64936139  1
  P  P3  1  0.58449045  0.56105424  0.85063861  1
  P  P4  1  0.15600336  0.83220131  0.22060373  1
  P  P5  1  0.65600336  0.16779869  0.27939627  1
  P  P6  1  0.34399664  0.33220131  0.77939627  1
  P  P7  1  0.84399664  0.66779869  0.72060373  1
  K  K8  1  0.64679192  0.63348976  0.16692880  1
  K  K9  1  0.14679192  0.36651024  0.33307120  1
  K  K10  1  0.85320808  0.13348976  0.83307120  1
  K  K11  1  0.35320808  0.86651024  0.66692880  1
  K  K12  1  0.91488632  0.89523314  0.46609301  1
  K  K13  1  0.41488632  0.10476686  0.03390699  1
  K  K14  1  0.58511368  0.39523314  0.53390699  1
  K  K15  1  0.08511368  0.60476686  0.96609301  1
