# generated using pymatgen
data_ClOF3
_symmetry_space_group_name_H-M   'P 1'
_cell_length_a   7.97742800
_cell_length_b   7.97753824
_cell_length_c   4.97297704
_cell_angle_alpha   89.86534935
_cell_angle_beta   90.53000256
_cell_angle_gamma   77.42738260
_symmetry_Int_Tables_number   1
_chemical_formula_structural   ClOF3
_chemical_formula_sum   'Cl4 O4 F12'
_cell_volume   308.87619547
_cell_formula_units_Z   4
loop_
 _symmetry_equiv_pos_site_id
 _symmetry_equiv_pos_as_xyz
  1  'x, y, z'
loop_
 _atom_site_type_symbol
 _atom_site_label
 _atom_site_symmetry_multiplicity
 _atom_site_fract_x
 _atom_site_fract_y
 _atom_site_fract_z
 _atom_site_occupancy
  Cl  Cl0  1  0.28012732  0.74226882  0.48751282  1
  Cl  Cl1  1  0.16173873  0.18331443  0.98049072  1
  Cl  Cl2  1  0.83826127  0.81668557  0.01950928  1
  Cl  Cl3  1  0.71987268  0.25773118  0.51248718  1
  O  O4  1  0.42898143  0.76827126  0.35815628  1
  O  O5  1  0.15930210  0.33227007  0.82430071  1
  O  O6  1  0.84069790  0.66772993  0.17569929  1
  O  O7  1  0.57101857  0.23172874  0.64184372  1
  F  F8  1  0.12349267  0.86849055  0.23643966  1
  F  F9  1  0.22951596  0.56705034  0.35742006  1
  F  F10  1  0.70753580  0.96997551  0.24699865  1
  F  F11  1  0.03824423  0.28609291  0.25788753  1
  F  F12  1  0.37765041  0.61434224  0.75665599  1
  F  F13  1  0.66535218  0.84348417  0.81966944  1
  F  F14  1  0.33464782  0.15651583  0.18033056  1
  F  F15  1  0.62234959  0.38565776  0.24334401  1
  F  F16  1  0.29246420  0.03002449  0.75300135  1
  F  F17  1  0.96175577  0.71390709  0.74211247  1
  F  F18  1  0.77048404  0.43294966  0.64257994  1
  F  F19  1  0.87650733  0.13150945  0.76356034  1
