# generated using pymatgen
data_Sr5Si3
_symmetry_space_group_name_H-M   'P 1'
_cell_length_a   8.07803486
_cell_length_b   8.07803486
_cell_length_c   9.77850866
_cell_angle_alpha   114.39660408
_cell_angle_beta   114.39660405
_cell_angle_gamma   90.00000003
_symmetry_Int_Tables_number   1
_chemical_formula_structural   Sr5Si3
_chemical_formula_sum   'Sr10 Si6'
_cell_volume   517.90944053
_cell_formula_units_Z   2
loop_
 _symmetry_equiv_pos_site_id
 _symmetry_equiv_pos_as_xyz
  1  'x, y, z'
loop_
 _atom_site_type_symbol
 _atom_site_label
 _atom_site_symmetry_multiplicity
 _atom_site_fract_x
 _atom_site_fract_y
 _atom_site_fract_z
 _atom_site_occupancy
  Si  Si0  1  0.60766978  0.10766978  0.00000000  1
  Si  Si1  1  0.89233022  0.60766978  0.00000000  1
  Si  Si2  1  0.10766978  0.39233022  0.00000000  1
  Si  Si3  1  0.39233022  0.89233022  0.00000000  1
  Si  Si4  1  0.75000000  0.75000000  0.50000000  1
  Si  Si5  1  0.25000000  0.25000000  0.50000000  1
  Sr  Sr6  1  0.17897085  0.03897521  0.71794606  1
  Sr  Sr7  1  0.03897521  0.53897521  0.71794606  1
  Sr  Sr8  1  0.67897085  0.17897085  0.71794606  1
  Sr  Sr9  1  0.96102479  0.46102479  0.28205394  1
  Sr  Sr10  1  0.53897521  0.67897085  0.71794606  1
  Sr  Sr11  1  0.82102915  0.96102479  0.28205394  1
  Sr  Sr12  1  0.46102479  0.32102915  0.28205394  1
  Sr  Sr13  1  0.32102915  0.82102915  0.28205394  1
  Sr  Sr14  1  0.50000000  0.50000000  0.00000000  1
  Sr  Sr15  1  0.00000000  0.00000000  0.00000000  1
