# generated using pymatgen
data_MoPH3O7
_symmetry_space_group_name_H-M   'P 1'
_cell_length_a   6.82976730
_cell_length_b   6.42866703
_cell_length_c   7.04534005
_cell_angle_alpha   90.00000000
_cell_angle_beta   109.84963012
_cell_angle_gamma   90.00000000
_symmetry_Int_Tables_number   1
_chemical_formula_structural   MoPH3O7
_chemical_formula_sum   'Mo2 P2 H6 O14'
_cell_volume   290.95630341
_cell_formula_units_Z   2
loop_
 _symmetry_equiv_pos_site_id
 _symmetry_equiv_pos_as_xyz
  1  'x, y, z'
loop_
 _atom_site_type_symbol
 _atom_site_label
 _atom_site_symmetry_multiplicity
 _atom_site_fract_x
 _atom_site_fract_y
 _atom_site_fract_z
 _atom_site_occupancy
  Mo  Mo0  1  0.27708762  0.25000000  0.17031992  1
  Mo  Mo1  1  0.72291238  0.75000000  0.82968008  1
  P  P2  1  0.66223831  0.25000000  0.66401773  1
  P  P3  1  0.33776169  0.75000000  0.33598227  1
  H  H4  1  0.99120770  0.25000000  0.68614883  1
  H  H5  1  0.00879230  0.75000000  0.31385117  1
  H  H6  1  0.73384025  0.25000000  0.28286369  1
  H  H7  1  0.26615975  0.75000000  0.71713631  1
  H  H8  1  0.65002767  0.25000000  0.04371673  1
  H  H9  1  0.34997233  0.75000000  0.95628327  1
  O  O10  1  0.67948272  0.06168257  0.80569119  1
  O  O11  1  0.32051728  0.56168257  0.19430881  1
  O  O12  1  0.32051728  0.93831743  0.19430881  1
  O  O13  1  0.67948272  0.43831743  0.80569119  1
  O  O14  1  0.46348141  0.25000000  0.48447902  1
  O  O15  1  0.53651859  0.75000000  0.51552098  1
  O  O16  1  0.84935276  0.25000000  0.57925281  1
  O  O17  1  0.15064724  0.75000000  0.42074719  1
  O  O18  1  0.19643075  0.25000000  0.90774112  1
  O  O19  1  0.80356925  0.75000000  0.09225888  1
  O  O20  1  0.60777130  0.25000000  0.16354128  1
  O  O21  1  0.39222870  0.75000000  0.83645872  1
  O  O22  1  0.04884256  0.25000000  0.22228854  1
  O  O23  1  0.95115744  0.75000000  0.77771146  1
