# generated using pymatgen
data_Sr2Fe2H2OF10
_symmetry_space_group_name_H-M   'P 1'
_cell_length_a   10.78734456
_cell_length_b   10.78734456
_cell_length_c   10.94571737
_cell_angle_alpha   90.00000000
_cell_angle_beta   90.00000000
_cell_angle_gamma   43.27067129
_symmetry_Int_Tables_number   1
_chemical_formula_structural   Sr2Fe2H2OF10
_chemical_formula_sum   'Sr8 Fe8 H8 O4 F40'
_cell_volume   873.06465458
_cell_formula_units_Z   4
loop_
 _symmetry_equiv_pos_site_id
 _symmetry_equiv_pos_as_xyz
  1  'x, y, z'
loop_
 _atom_site_type_symbol
 _atom_site_label
 _atom_site_symmetry_multiplicity
 _atom_site_fract_x
 _atom_site_fract_y
 _atom_site_fract_z
 _atom_site_occupancy
  Sr  Sr0  1  0.96973293  0.46973293  0.75000000  1
  Sr  Sr1  1  0.53026707  0.03026707  0.25000000  1
  Sr  Sr2  1  0.03026707  0.53026707  0.25000000  1
  Sr  Sr3  1  0.46973293  0.96973293  0.75000000  1
  Sr  Sr4  1  0.38019228  0.38019228  0.95311374  1
  Sr  Sr5  1  0.61980772  0.61980772  0.04688626  1
  Sr  Sr6  1  0.11980772  0.11980772  0.45311374  1
  Sr  Sr7  1  0.88019228  0.88019228  0.54688626  1
  Fe  Fe8  1  0.78436317  0.28436317  0.75000000  1
  Fe  Fe9  1  0.71563683  0.21563683  0.25000000  1
  Fe  Fe10  1  0.21563683  0.71563683  0.25000000  1
  Fe  Fe11  1  0.28436317  0.78436317  0.75000000  1
  Fe  Fe12  1  0.31916783  0.31916783  0.56447182  1
  Fe  Fe13  1  0.68083217  0.68083217  0.43552818  1
  Fe  Fe14  1  0.18083217  0.18083217  0.06447182  1
  Fe  Fe15  1  0.81916783  0.81916783  0.93552818  1
  H  H16  1  0.34002295  0.54579416  0.57987242  1
  H  H17  1  0.45420584  0.65997705  0.42012758  1
  H  H18  1  0.95420584  0.15997705  0.07987242  1
  H  H19  1  0.84002295  0.04579416  0.92012758  1
  H  H20  1  0.65997705  0.45420584  0.42012758  1
  H  H21  1  0.54579416  0.34002295  0.57987242  1
  H  H22  1  0.04579416  0.84002295  0.92012758  1
  H  H23  1  0.15997705  0.95420584  0.07987242  1
  O  O24  1  0.41906748  0.41906748  0.55145904  1
  O  O25  1  0.58093252  0.58093252  0.44854096  1
  O  O26  1  0.08093252  0.08093252  0.05145904  1
  O  O27  1  0.91906748  0.91906748  0.94854096  1
  F  F28  1  0.90612881  0.30406788  0.63533533  1
  F  F29  1  0.69593212  0.09387119  0.36466467  1
  F  F30  1  0.19593212  0.59387119  0.13533533  1
  F  F31  1  0.40612881  0.80406788  0.86466467  1
  F  F32  1  0.09387119  0.69593212  0.36466467  1
  F  F33  1  0.30406788  0.90612881  0.63533533  1
  F  F34  1  0.80406788  0.40612881  0.86466467  1
  F  F35  1  0.59387119  0.19593212  0.13533533  1
  F  F36  1  0.07162785  0.55237964  0.57853617  1
  F  F37  1  0.44762036  0.92837215  0.42146383  1
  F  F38  1  0.94762036  0.42837215  0.07853617  1
  F  F39  1  0.57162785  0.05237964  0.92146383  1
  F  F40  1  0.92837215  0.44762036  0.42146383  1
  F  F41  1  0.55237964  0.07162785  0.57853617  1
  F  F42  1  0.05237964  0.57162785  0.92146383  1
  F  F43  1  0.42837215  0.94762036  0.07853617  1
  F  F44  1  0.17602405  0.75604765  0.62567004  1
  F  F45  1  0.24395235  0.82397595  0.37432996  1
  F  F46  1  0.74395235  0.32397595  0.12567004  1
  F  F47  1  0.67602405  0.25604765  0.87432996  1
  F  F48  1  0.82397595  0.24395235  0.37432996  1
  F  F49  1  0.75604765  0.17602405  0.62567004  1
  F  F50  1  0.25604765  0.67602405  0.87432996  1
  F  F51  1  0.32397595  0.74395235  0.12567004  1
  F  F52  1  0.19837285  0.19837285  0.88850870  1
  F  F53  1  0.80162715  0.80162715  0.11149130  1
  F  F54  1  0.30162715  0.30162715  0.38850870  1
  F  F55  1  0.69837285  0.69837285  0.61149130  1
  F  F56  1  0.32015255  0.32015255  0.74709898  1
  F  F57  1  0.67984745  0.67984745  0.25290102  1
  F  F58  1  0.17984745  0.17984745  0.24709898  1
  F  F59  1  0.82015255  0.82015255  0.75290102  1
  F  F60  1  0.02967602  0.02967602  0.78971086  1
  F  F61  1  0.97032398  0.97032398  0.21028914  1
  F  F62  1  0.47032398  0.47032398  0.28971086  1
  F  F63  1  0.52967602  0.52967602  0.71028914  1
  F  F64  1  0.21944785  0.21944785  0.60221228  1
  F  F65  1  0.78055215  0.78055215  0.39778772  1
  F  F66  1  0.28055215  0.28055215  0.10221228  1
  F  F67  1  0.71944785  0.71944785  0.89778772  1
