# generated using pymatgen
data_FeP3(HO5)2
_symmetry_space_group_name_H-M   'P 1'
_cell_length_a   7.47995761
_cell_length_b   8.93217549
_cell_length_c   12.58992010
_cell_angle_alpha   90.00000000
_cell_angle_beta   112.39447677
_cell_angle_gamma   90.00000000
_symmetry_Int_Tables_number   1
_chemical_formula_structural   FeP3(HO5)2
_chemical_formula_sum   'Fe4 P12 H8 O40'
_cell_volume   777.72337205
_cell_formula_units_Z   4
loop_
 _symmetry_equiv_pos_site_id
 _symmetry_equiv_pos_as_xyz
  1  'x, y, z'
loop_
 _atom_site_type_symbol
 _atom_site_label
 _atom_site_symmetry_multiplicity
 _atom_site_fract_x
 _atom_site_fract_y
 _atom_site_fract_z
 _atom_site_occupancy
  Fe  Fe0  1  0.25450923  0.42686849  0.79538172  1
  Fe  Fe1  1  0.74549077  0.92686849  0.70461828  1
  Fe  Fe2  1  0.74549077  0.57313151  0.20461828  1
  Fe  Fe3  1  0.25450923  0.07313151  0.29538172  1
  P  P4  1  0.14630521  0.39684369  0.36454952  1
  P  P5  1  0.85369479  0.89684369  0.13545048  1
  P  P6  1  0.85369479  0.60315631  0.63545048  1
  P  P7  1  0.14630521  0.10315631  0.86454952  1
  P  P8  1  0.35445405  0.39663155  0.20652556  1
  P  P9  1  0.64554595  0.89663155  0.29347444  1
  P  P10  1  0.64554595  0.60336845  0.79347444  1
  P  P11  1  0.35445405  0.10336845  0.70652556  1
  P  P12  1  0.71150950  0.37834558  0.97828546  1
  P  P13  1  0.28849050  0.87834558  0.52171454  1
  P  P14  1  0.28849050  0.62165442  0.02171454  1
  P  P15  1  0.71150950  0.12165442  0.47828546  1
  H  H16  1  0.28304733  0.35651943  0.55285726  1
  H  H17  1  0.71695267  0.85651943  0.94714274  1
  H  H18  1  0.71695267  0.64348057  0.44714274  1
  H  H19  1  0.28304733  0.14348057  0.05285726  1
  H  H20  1  0.78263749  0.18078046  0.89769812  1
  H  H21  1  0.21736251  0.68078046  0.60230188  1
  H  H22  1  0.21736251  0.81921954  0.10230188  1
  H  H23  1  0.78263749  0.31921954  0.39769812  1
  O  O24  1  0.26677236  0.46710580  0.29298998  1
  O  O25  1  0.73322764  0.96710580  0.20701002  1
  O  O26  1  0.73322764  0.53289420  0.70701002  1
  O  O27  1  0.26677236  0.03289420  0.79298998  1
  O  O28  1  0.28982922  0.42311478  0.49088922  1
  O  O29  1  0.71017078  0.92311478  0.00911078  1
  O  O30  1  0.71017078  0.57688522  0.50911078  1
  O  O31  1  0.28982922  0.07688522  0.99088922  1
  O  O32  1  0.23808293  0.01547680  0.59079812  1
  O  O33  1  0.76191707  0.51547680  0.90920188  1
  O  O34  1  0.76191707  0.98452320  0.40920188  1
  O  O35  1  0.23808293  0.48452320  0.09079812  1
  O  O36  1  0.03415137  0.50857641  0.66311633  1
  O  O37  1  0.96584863  0.00857641  0.83688367  1
  O  O38  1  0.96584863  0.49142359  0.33688367  1
  O  O39  1  0.03415137  0.99142359  0.16311633  1
  O  O40  1  0.10719102  0.26786840  0.83474601  1
  O  O41  1  0.89280898  0.76786840  0.66525399  1
  O  O42  1  0.89280898  0.73213160  0.16525399  1
  O  O43  1  0.10719102  0.23213160  0.33474601  1
  O  O44  1  0.49635674  0.15028538  0.42396758  1
  O  O45  1  0.50364326  0.65028538  0.07603242  1
  O  O46  1  0.50364326  0.84971462  0.57603242  1
  O  O47  1  0.49635674  0.34971462  0.92396758  1
  O  O48  1  0.30071671  0.26735310  0.68354663  1
  O  O49  1  0.69928329  0.76735310  0.81645337  1
  O  O50  1  0.69928329  0.73264690  0.31645337  1
  O  O51  1  0.30071671  0.23264690  0.18354663  1
  O  O52  1  0.56841101  0.06744987  0.75022246  1
  O  O53  1  0.43158899  0.56744987  0.74977754  1
  O  O54  1  0.43158899  0.93255013  0.24977754  1
  O  O55  1  0.56841101  0.43255013  0.25022246  1
  O  O56  1  0.79521510  0.07791469  0.60329473  1
  O  O57  1  0.20478490  0.57791469  0.89670527  1
  O  O58  1  0.20478490  0.92208531  0.39670527  1
  O  O59  1  0.79521510  0.42208531  0.10329473  1
  O  O60  1  0.83640610  0.24235883  0.96720547  1
  O  O61  1  0.16359390  0.74235883  0.53279453  1
  O  O62  1  0.16359390  0.75764117  0.03279453  1
  O  O63  1  0.83640610  0.25764117  0.46720547  1
