# generated using pymatgen
data_VZnHPbO5
_symmetry_space_group_name_H-M   'P 1'
_cell_length_a   7.68190766
_cell_length_b   6.19263775
_cell_length_c   9.55320815
_cell_angle_alpha   90.00000000
_cell_angle_beta   90.00000000
_cell_angle_gamma   90.00000000
_symmetry_Int_Tables_number   1
_chemical_formula_structural   VZnHPbO5
_chemical_formula_sum   'V4 Zn4 H4 Pb4 O20'
_cell_volume   454.45825733
_cell_formula_units_Z   4
loop_
 _symmetry_equiv_pos_site_id
 _symmetry_equiv_pos_as_xyz
  1  'x, y, z'
loop_
 _atom_site_type_symbol
 _atom_site_label
 _atom_site_symmetry_multiplicity
 _atom_site_fract_x
 _atom_site_fract_y
 _atom_site_fract_z
 _atom_site_occupancy
  V  V0  1  0.86763596  0.75000000  0.18759683  1
  V  V1  1  0.36763596  0.75000000  0.31240317  1
  V  V2  1  0.13236404  0.25000000  0.81240317  1
  V  V3  1  0.63236404  0.25000000  0.68759683  1
  Zn  Zn4  1  0.50000000  0.00000000  0.00000000  1
  Zn  Zn5  1  0.00000000  0.50000000  0.50000000  1
  Zn  Zn6  1  0.50000000  0.50000000  0.00000000  1
  Zn  Zn7  1  0.00000000  0.00000000  0.50000000  1
  H  H8  1  0.76010159  0.25000000  0.01671023  1
  H  H9  1  0.26010159  0.25000000  0.48328977  1
  H  H10  1  0.23989841  0.75000000  0.98328977  1
  H  H11  1  0.73989841  0.75000000  0.51671023  1
  Pb  Pb12  1  0.63367898  0.25000000  0.32335044  1
  Pb  Pb13  1  0.13367898  0.25000000  0.17664956  1
  Pb  Pb14  1  0.36632102  0.75000000  0.67664956  1
  Pb  Pb15  1  0.86632102  0.75000000  0.82335044  1
  O  O16  1  0.68547221  0.75000000  0.07391713  1
  O  O17  1  0.18547221  0.75000000  0.42608287  1
  O  O18  1  0.31452779  0.25000000  0.92608287  1
  O  O19  1  0.81452779  0.25000000  0.57391713  1
  O  O20  1  0.04492452  0.75000000  0.08076041  1
  O  O21  1  0.54492452  0.75000000  0.41923959  1
  O  O22  1  0.95507548  0.25000000  0.91923959  1
  O  O23  1  0.45507548  0.25000000  0.58076041  1
  O  O24  1  0.87695728  0.98977570  0.29016713  1
  O  O25  1  0.37695728  0.51022430  0.20983287  1
  O  O26  1  0.12304272  0.48977570  0.70983287  1
  O  O27  1  0.62304272  0.01022430  0.79016713  1
  O  O28  1  0.12304272  0.01022430  0.70983287  1
  O  O29  1  0.62304272  0.48977570  0.79016713  1
  O  O30  1  0.87695728  0.51022430  0.29016713  1
  O  O31  1  0.37695728  0.98977570  0.20983287  1
  O  O32  1  0.64627638  0.25000000  0.06677086  1
  O  O33  1  0.14627638  0.25000000  0.43322914  1
  O  O34  1  0.35372362  0.75000000  0.93322914  1
  O  O35  1  0.85372362  0.75000000  0.56677086  1
