# generated using pymatgen
data_Na4SiO4
_symmetry_space_group_name_H-M   'P 1'
_cell_length_a   5.63726847
_cell_length_b   5.64373383
_cell_length_c   8.52366079
_cell_angle_alpha   81.05125823
_cell_angle_beta   71.76873332
_cell_angle_gamma   67.59975860
_symmetry_Int_Tables_number   1
_chemical_formula_structural   Na4SiO4
_chemical_formula_sum   'Na8 Si2 O8'
_cell_volume   237.93044561
_cell_formula_units_Z   2
loop_
 _symmetry_equiv_pos_site_id
 _symmetry_equiv_pos_as_xyz
  1  'x, y, z'
loop_
 _atom_site_type_symbol
 _atom_site_label
 _atom_site_symmetry_multiplicity
 _atom_site_fract_x
 _atom_site_fract_y
 _atom_site_fract_z
 _atom_site_occupancy
  O  O0  1  0.35043898  0.95645721  0.85160163  1
  O  O1  1  0.79074836  0.53696313  0.87236415  1
  O  O2  1  0.20925164  0.46303687  0.12763585  1
  O  O3  1  0.84575408  0.95740474  0.69383994  1
  O  O4  1  0.15424592  0.04259526  0.30616006  1
  O  O5  1  0.65182256  0.64855765  0.58644043  1
  O  O6  1  0.64956102  0.04354279  0.14839837  1
  O  O7  1  0.34817744  0.35144235  0.41355957  1
  Na  Na8  1  0.98092368  0.23378021  0.06324208  1
  Na  Na9  1  0.45195900  0.73642057  0.10788668  1
  Na  Na10  1  0.89888120  0.76521091  0.32957083  1
  Na  Na11  1  0.26404209  0.74342832  0.51705395  1
  Na  Na12  1  0.73595791  0.25657168  0.48294605  1
  Na  Na13  1  0.54804100  0.26357943  0.89211332  1
  Na  Na14  1  0.01907632  0.76621979  0.93675792  1
  Na  Na15  1  0.10111880  0.23478909  0.67042917  1
  Si  Si16  1  0.34329996  0.22457831  0.25301995  1
  Si  Si17  1  0.65670004  0.77542169  0.74698005  1
