# generated using pymatgen
data_CeNbO4
_symmetry_space_group_name_H-M   'P 1'
_cell_length_a   5.20329066
_cell_length_b   5.51978448
_cell_length_c   6.74155519
_cell_angle_alpha   111.71872374
_cell_angle_beta   110.13201964
_cell_angle_gamma   95.85013215
_symmetry_Int_Tables_number   1
_chemical_formula_structural   CeNbO4
_chemical_formula_sum   'Ce2 Nb2 O8'
_cell_volume   162.94934285
_cell_formula_units_Z   2
loop_
 _symmetry_equiv_pos_site_id
 _symmetry_equiv_pos_as_xyz
  1  'x, y, z'
loop_
 _atom_site_type_symbol
 _atom_site_label
 _atom_site_symmetry_multiplicity
 _atom_site_fract_x
 _atom_site_fract_y
 _atom_site_fract_z
 _atom_site_occupancy
  O  O0  1  0.29573691  0.14513890  0.08512265  1
  O  O1  1  0.78938574  0.43998375  0.08512265  1
  O  O2  1  0.70426309  0.85486110  0.91487735  1
  O  O3  1  0.21061426  0.56001625  0.91487735  1
  O  O4  1  0.50447294  0.70992602  0.43706992  1
  O  O5  1  0.93259699  0.22714391  0.43706992  1
  O  O6  1  0.49552706  0.29007398  0.56293008  1
  O  O7  1  0.06740301  0.77285609  0.56293008  1
  Nb  Nb8  1  0.34945244  0.59945244  0.69890488  1
  Nb  Nb9  1  0.65054756  0.40054756  0.30109512  1
  Ce  Ce10  1  0.88070748  0.13070748  0.76141495  1
  Ce  Ce11  1  0.11929252  0.86929252  0.23858505  1
