# generated using pymatgen
data_Li9Mn2Co5O16
_symmetry_space_group_name_H-M   'P 1'
_cell_length_a   5.06705865
_cell_length_b   5.13626733
_cell_length_c   11.17906750
_cell_angle_alpha   93.73605189
_cell_angle_beta   80.68177774
_cell_angle_gamma   97.68676945
_symmetry_Int_Tables_number   1
_chemical_formula_structural   Li9Mn2Co5O16
_chemical_formula_sum   'Li9 Mn2 Co5 O16'
_cell_volume   284.24305780
_cell_formula_units_Z   1
loop_
 _symmetry_equiv_pos_site_id
 _symmetry_equiv_pos_as_xyz
  1  'x, y, z'
loop_
 _atom_site_type_symbol
 _atom_site_label
 _atom_site_symmetry_multiplicity
 _atom_site_fract_x
 _atom_site_fract_y
 _atom_site_fract_z
 _atom_site_occupancy
  Li  Li0  1  0.56103596  0.23830506  0.93700506  1
  Li  Li1  1  0.44617116  0.76972080  0.06784270  1
  Li  Li2  1  0.68819009  0.75443276  0.81209792  1
  Li  Li3  1  0.81457306  0.24315554  0.68642063  1
  Li  Li4  1  0.93338372  0.75290680  0.55851829  1
  Li  Li5  1  0.06039336  0.25647919  0.43475151  1
  Li  Li6  1  0.18175863  0.74752947  0.30969761  1
  Li  Li7  1  0.32420867  0.23724434  0.19028566  1
  Li  Li8  1  0.75023266  0.00186248  0.25032924  1
  Mn  Mn9  1  0.99897025  0.00126405  0.00287684  1
  Mn  Mn10  1  0.37833991  0.49911023  0.62270570  1
  Co  Co11  1  0.86445538  0.50515469  0.13325777  1
  Co  Co12  1  0.62311815  0.49667974  0.37615819  1
  Co  Co13  1  0.50204021  0.99893246  0.49599974  1
  Co  Co14  1  0.25028268  0.99818404  0.74918426  1
  Co  Co15  1  0.12514488  0.49975279  0.87505049  1
  O  O16  1  0.32543514  0.88347036  0.90551933  1
  O  O17  1  0.18812541  0.35705340  0.02441213  1
  O  O18  1  0.44556572  0.37810565  0.78024829  1
  O  O19  1  0.58227280  0.89273716  0.65068635  1
  O  O20  1  0.70695486  0.39212004  0.52759777  1
  O  O21  1  0.79865993  0.85005745  0.40688673  1
  O  O22  1  0.94027997  0.39627672  0.28908407  1
  O  O23  1  0.09035988  0.87341525  0.14561994  1
  O  O24  1  0.81624359  0.64752357  0.96944386  1
  O  O25  1  0.68380789  0.12879425  0.08746391  1
  O  O26  1  0.92012960  0.11542560  0.84781197  1
  O  O27  1  0.05207283  0.61913632  0.72379892  1
  O  O28  1  0.17638584  0.10471660  0.59118966  1
  O  O29  1  0.30065345  0.60760467  0.46863741  1
  O  O30  1  0.43025689  0.15224357  0.35542806  1
  O  O31  1  0.54049745  0.60060496  0.22398998  1
