# generated using pymatgen
data_TiSnO3
_symmetry_space_group_name_H-M   'P 1'
_cell_length_a   7.42635334
_cell_length_b   7.42635354
_cell_length_c   7.42635422
_cell_angle_alpha   40.50845101
_cell_angle_beta   40.50845556
_cell_angle_gamma   40.50845095
_symmetry_Int_Tables_number   1
_chemical_formula_structural   TiSnO3
_chemical_formula_sum   'Ti2 Sn2 O6'
_cell_volume   155.85841328
_cell_formula_units_Z   2
loop_
 _symmetry_equiv_pos_site_id
 _symmetry_equiv_pos_as_xyz
  1  'x, y, z'
loop_
 _atom_site_type_symbol
 _atom_site_label
 _atom_site_symmetry_multiplicity
 _atom_site_fract_x
 _atom_site_fract_y
 _atom_site_fract_z
 _atom_site_occupancy
  Ti  Ti0  1  0.33472655  0.33472655  0.33472655  1
  Ti  Ti1  1  0.66527345  0.66527345  0.66527345  1
  Sn  Sn2  1  0.10809463  0.10809463  0.10809463  1
  Sn  Sn3  1  0.89190537  0.89190537  0.89190537  1
  O  O4  1  0.05320995  0.69431123  0.41095875  1
  O  O5  1  0.41095875  0.05320995  0.69431123  1
  O  O6  1  0.30568877  0.58904125  0.94679005  1
  O  O7  1  0.69431123  0.41095875  0.05320995  1
  O  O8  1  0.58904125  0.94679005  0.30568877  1
  O  O9  1  0.94679005  0.30568877  0.58904125  1
