# generated using pymatgen
data_Li4H3BrO3
_symmetry_space_group_name_H-M   'P 1'
_cell_length_a   5.54069288
_cell_length_b   7.73056302
_cell_length_c   6.62468295
_cell_angle_alpha   90.00000000
_cell_angle_beta   94.02242655
_cell_angle_gamma   90.00000000
_symmetry_Int_Tables_number   1
_chemical_formula_structural   Li4H3BrO3
_chemical_formula_sum   'Li8 H6 Br2 O6'
_cell_volume   283.05391809
_cell_formula_units_Z   2
loop_
 _symmetry_equiv_pos_site_id
 _symmetry_equiv_pos_as_xyz
  1  'x, y, z'
loop_
 _atom_site_type_symbol
 _atom_site_label
 _atom_site_symmetry_multiplicity
 _atom_site_fract_x
 _atom_site_fract_y
 _atom_site_fract_z
 _atom_site_occupancy
  Li  Li0  1  0.07756427  0.25000000  0.91909731  1
  Li  Li1  1  0.35078285  0.52162528  0.13224155  1
  Li  Li2  1  0.35078285  0.97837472  0.13224155  1
  Li  Li3  1  0.40190234  0.25000000  0.69324868  1
  Li  Li4  1  0.59809766  0.75000000  0.30675132  1
  Li  Li5  1  0.64921715  0.02162528  0.86775845  1
  Li  Li6  1  0.64921715  0.47837472  0.86775845  1
  Li  Li7  1  0.92243573  0.75000000  0.08090269  1
  H  H8  1  0.20113661  0.52845184  0.77646952  1
  H  H9  1  0.20113661  0.97154816  0.77646952  1
  H  H10  1  0.17536221  0.75000000  0.35897788  1
  H  H11  1  0.82463779  0.25000000  0.64102212  1
  H  H12  1  0.79886339  0.02845184  0.22353048  1
  H  H13  1  0.79886339  0.47154816  0.22353048  1
  Br  Br14  1  0.17235259  0.25000000  0.33163938  1
  Br  Br15  1  0.82764741  0.75000000  0.66836062  1
  O  O16  1  0.29325266  0.05802594  0.85462643  1
  O  O17  1  0.29325266  0.44197406  0.85462643  1
  O  O18  1  0.24663931  0.75000000  0.22722069  1
  O  O19  1  0.75336069  0.25000000  0.77277931  1
  O  O20  1  0.70674734  0.55802594  0.14537357  1
  O  O21  1  0.70674734  0.94197406  0.14537357  1
