# generated using pymatgen
data_Rb4PbO4
_symmetry_space_group_name_H-M   'P 1'
_cell_length_a   7.00976356
_cell_length_b   7.00551803
_cell_length_c   10.41169020
_cell_angle_alpha   71.54128822
_cell_angle_beta   79.19143043
_cell_angle_gamma   66.68162049
_symmetry_Int_Tables_number   1
_chemical_formula_structural   Rb4PbO4
_chemical_formula_sum   'Rb8 Pb2 O8'
_cell_volume   444.23206175
_cell_formula_units_Z   2
loop_
 _symmetry_equiv_pos_site_id
 _symmetry_equiv_pos_as_xyz
  1  'x, y, z'
loop_
 _atom_site_type_symbol
 _atom_site_label
 _atom_site_symmetry_multiplicity
 _atom_site_fract_x
 _atom_site_fract_y
 _atom_site_fract_z
 _atom_site_occupancy
  Rb  Rb0  1  0.23802976  0.76069193  0.03087020  1
  Rb  Rb1  1  0.27568296  0.50845940  0.44148057  1
  Rb  Rb2  1  0.26030839  0.40736042  0.83569463  1
  Rb  Rb3  1  0.21672481  0.96587541  0.62000761  1
  Rb  Rb4  1  0.78327519  0.03412459  0.37999239  1
  Rb  Rb5  1  0.73969161  0.59263958  0.16430537  1
  Rb  Rb6  1  0.72431704  0.49154060  0.55851943  1
  Rb  Rb7  1  0.76197024  0.23930807  0.96912980  1
  Pb  Pb8  1  0.27488210  0.15578777  0.24596268  1
  Pb  Pb9  1  0.72511790  0.84421223  0.75403732  1
  O  O10  1  0.12114448  0.15947991  0.08880597  1
  O  O11  1  0.02928955  0.30766275  0.37678959  1
  O  O12  1  0.46914321  0.34177704  0.18671808  1
  O  O13  1  0.54270029  0.15889233  0.64478845  1
  O  O14  1  0.45729971  0.84110767  0.35521155  1
  O  O15  1  0.53085679  0.65822296  0.81328292  1
  O  O16  1  0.97071045  0.69233725  0.62321041  1
  O  O17  1  0.87885552  0.84052009  0.91119403  1
