# generated using pymatgen
data_Os(OF2)2
_symmetry_space_group_name_H-M   'P 1'
_cell_length_a   5.02116098
_cell_length_b   5.02116172
_cell_length_c   27.87245729
_cell_angle_alpha   90.00000000
_cell_angle_beta   90.00000000
_cell_angle_gamma   120.00000350
_symmetry_Int_Tables_number   1
_chemical_formula_structural   Os(OF2)2
_chemical_formula_sum   'Os6 O12 F24'
_cell_volume   608.57517017
_cell_formula_units_Z   6
loop_
 _symmetry_equiv_pos_site_id
 _symmetry_equiv_pos_as_xyz
  1  'x, y, z'
loop_
 _atom_site_type_symbol
 _atom_site_label
 _atom_site_symmetry_multiplicity
 _atom_site_fract_x
 _atom_site_fract_y
 _atom_site_fract_z
 _atom_site_occupancy
  Os  Os0  1  0.00967097  0.46532289  0.83468366  1
  Os  Os1  1  0.45565192  0.99032903  0.50135066  1
  Os  Os2  1  0.46532289  0.45565192  0.66801766  1
  Os  Os3  1  0.53467711  0.54434808  0.16801766  1
  Os  Os4  1  0.54434808  0.00967097  0.00135066  1
  Os  Os5  1  0.99032903  0.53467711  0.33468366  1
  O  O6  1  0.17979990  0.73680973  0.54015985  1
  O  O7  1  0.25678384  0.73881339  0.79516222  1
  O  O8  1  0.26118661  0.51797045  0.12849522  1
  O  O9  1  0.26319027  0.44299017  0.87349285  1
  O  O10  1  0.48202955  0.74321616  0.46182922  1
  O  O11  1  0.55700983  0.82020010  0.20682685  1
  O  O12  1  0.44299017  0.17979990  0.70682685  1
  O  O13  1  0.51797045  0.25678384  0.96182922  1
  O  O14  1  0.73680973  0.55700983  0.37349285  1
  O  O15  1  0.73881339  0.48202955  0.62849522  1
  O  O16  1  0.74321616  0.26118661  0.29516222  1
  O  O17  1  0.82020010  0.26319027  0.04015985  1
  F  F18  1  0.04420673  0.86478607  0.29617454  1
  F  F19  1  0.21643924  0.96088985  0.03994125  1
  F  F20  1  0.22720075  0.66193281  0.96630958  1
  F  F21  1  0.32913950  0.85060812  0.37150490  1
  F  F22  1  0.14939188  0.47853138  0.70483890  1
  F  F23  1  0.03911015  0.25554939  0.37327425  1
  F  F24  1  0.13521393  0.17942066  0.62950754  1
  F  F25  1  0.43473106  0.77279925  0.63297558  1
  F  F26  1  0.33806719  0.56526894  0.29964258  1
  F  F27  1  0.25554939  0.21643924  0.20660725  1
  F  F28  1  0.17942066  0.04420673  0.46284154  1
  F  F29  1  0.52146862  0.67086050  0.03817190  1
  F  F30  1  0.47853138  0.32913950  0.53817190  1
  F  F31  1  0.82057934  0.95579327  0.96284154  1
  F  F32  1  0.74445061  0.78356076  0.70660725  1
  F  F33  1  0.66193281  0.43473106  0.79964258  1
  F  F34  1  0.56526894  0.22720075  0.13297558  1
  F  F35  1  0.86478607  0.82057934  0.12950754  1
  F  F36  1  0.96088985  0.74445061  0.87327425  1
  F  F37  1  0.85060812  0.52146862  0.20483890  1
  F  F38  1  0.67086050  0.14939188  0.87150490  1
  F  F39  1  0.77279925  0.33806719  0.46630958  1
  F  F40  1  0.78356076  0.03911015  0.53994125  1
  F  F41  1  0.95579327  0.13521393  0.79617454  1
