# generated using pymatgen
data_K(WO3)4
_symmetry_space_group_name_H-M   'P 1'
_cell_length_a   7.51551797
_cell_length_b   7.51551766
_cell_length_c   15.45914930
_cell_angle_alpha   90.00000000
_cell_angle_beta   90.00000000
_cell_angle_gamma   120.00000023
_symmetry_Int_Tables_number   1
_chemical_formula_structural   K(WO3)4
_chemical_formula_sum   'K3 W12 O36'
_cell_volume   756.19541416
_cell_formula_units_Z   3
loop_
 _symmetry_equiv_pos_site_id
 _symmetry_equiv_pos_as_xyz
  1  'x, y, z'
loop_
 _atom_site_type_symbol
 _atom_site_label
 _atom_site_symmetry_multiplicity
 _atom_site_fract_x
 _atom_site_fract_y
 _atom_site_fract_z
 _atom_site_occupancy
  K  K0  1  0.00000000  0.00000000  0.25052006  1
  K  K1  1  0.00000000  0.00000000  0.52730162  1
  K  K2  1  0.00000000  0.00000000  0.80462211  1
  W  W3  1  -0.00009640  0.50044209  0.37636412  1
  W  W4  1  0.99980013  0.49995498  0.87673378  1
  W  W5  1  0.00007913  0.49790659  0.12556482  1
  W  W6  1  -0.00011581  0.50022507  0.62675221  1
  W  W7  1  0.50004502  0.49984615  0.87673378  1
  W  W8  1  0.49955791  0.49946151  0.37636412  1
  W  W9  1  0.49977593  0.49966012  0.62675221  1
  W  W10  1  0.50209341  0.50217255  0.12556482  1
  W  W11  1  0.50033988  0.00011581  0.62675221  1
  W  W12  1  0.49782745  -0.00007913  0.12556482  1
  W  W13  1  0.50015385  0.00019987  0.87673378  1
  W  W14  1  0.50053849  0.00009640  0.37636412  1
  O  O15  1  0.98607637  0.49231043  0.00147061  1
  O  O16  1  0.98506256  0.49260341  0.50067392  1
  O  O17  1  0.21120498  0.78665991  0.12342532  1
  O  O18  1  0.21058574  0.78933181  0.62097575  1
  O  O19  1  0.21132402  0.78850260  0.87900246  1
  O  O20  1  0.21091710  0.78958219  0.38113857  1
  O  O21  1  0.21149740  0.42282042  0.87900246  1
  O  O22  1  0.21041781  0.42133590  0.38113857  1
  O  O23  1  0.21066819  0.42125293  0.62097575  1
  O  O24  1  0.21334009  0.42454507  0.12342532  1
  O  O25  1  0.50623406  0.01392363  0.00147061  1
  O  O26  1  0.50754085  0.01493744  0.50067392  1
  O  O27  1  0.57717958  0.78867598  0.87900246  1
  O  O28  1  0.57866410  0.78908290  0.38113857  1
  O  O29  1  0.57545493  0.78879502  0.12342532  1
  O  O30  1  0.57874707  0.78941426  0.62097575  1
  O  O31  1  0.50739659  0.49245915  0.50067392  1
  O  O32  1  0.50768957  0.49376594  0.00147061  1
  O  O33  1  0.49330557  0.50796445  0.25208306  1
  O  O34  1  0.49299981  0.50701411  0.75041906  1
  O  O35  1  0.42134136  0.21035453  0.37207441  1
  O  O36  1  0.42264167  0.21141900  0.87091364  1
  O  O37  1  0.42407729  0.21281659  0.13178394  1
  O  O38  1  0.42111699  0.21053040  0.62969342  1
  O  O39  1  0.49203555  0.98534112  0.25208306  1
  O  O40  1  0.49298589  0.98598470  0.75041906  1
  O  O41  1  0.78901317  0.57865864  0.37207441  1
  O  O42  1  0.78877734  0.57735833  0.87091364  1
  O  O43  1  0.78873930  0.57592271  0.13178394  1
  O  O44  1  0.78941342  0.57888301  0.62969342  1
  O  O45  1  0.78718341  0.21126070  0.13178394  1
  O  O46  1  0.78946960  0.21058658  0.62969342  1
  O  O47  1  0.78964547  0.21098683  0.37207441  1
  O  O48  1  0.78858100  0.21122266  0.87091364  1
  O  O49  1  0.01465888  0.50669443  0.25208306  1
  O  O50  1  0.01401530  0.50700019  0.75041906  1
