# generated using pymatgen
data_Li9Mn2Co5O16
_symmetry_space_group_name_H-M   'P 1'
_cell_length_a   5.15240935
_cell_length_b   10.09068241
_cell_length_c   5.92826399
_cell_angle_alpha   87.85052905
_cell_angle_beta   70.97105666
_cell_angle_gamma   79.31157593
_symmetry_Int_Tables_number   1
_chemical_formula_structural   Li9Mn2Co5O16
_chemical_formula_sum   'Li9 Mn2 Co5 O16'
_cell_volume   286.23262692
_cell_formula_units_Z   1
loop_
 _symmetry_equiv_pos_site_id
 _symmetry_equiv_pos_as_xyz
  1  'x, y, z'
loop_
 _atom_site_type_symbol
 _atom_site_label
 _atom_site_symmetry_multiplicity
 _atom_site_fract_x
 _atom_site_fract_y
 _atom_site_fract_z
 _atom_site_occupancy
  Li  Li0  1  0.99520579  0.99583680  0.49719600  1
  Li  Li1  1  0.00215950  0.25260466  0.24703613  1
  Li  Li2  1  0.50403648  0.86992579  0.60987798  1
  Li  Li3  1  0.50669873  0.12381179  0.37790493  1
  Li  Li4  1  0.01835062  0.74835870  0.75097135  1
  Li  Li5  1  0.48929826  0.63039207  0.88174780  1
  Li  Li6  1  0.98748240  0.50515178  0.00581264  1
  Li  Li7  1  0.49945887  0.37711718  0.12966744  1
  Li  Li8  1  -0.00063358  0.75031623  0.25047472  1
  Mn  Mn9  1  -0.00160482  0.99766169  0.00232079  1
  Mn  Mn10  1  0.49855634  0.37793134  0.62238272  1
  Co  Co11  1  0.00167598  0.25020994  0.75014839  1
  Co  Co12  1  0.00025750  0.50380272  0.49677676  1
  Co  Co13  1  0.49163877  0.86733585  0.13321599  1
  Co  Co14  1  0.50046459  0.12642301  0.87630606  1
  Co  Co15  1  0.50525237  0.62307211  0.37450559  1
  O  O16  1  0.75903443  0.94109685  0.29100936  1
  O  O17  1  0.76662077  0.17937087  0.05507306  1
  O  O18  1  0.28127183  0.80322924  0.42388503  1
  O  O19  1  0.24594951  0.05736657  0.15522795  1
  O  O20  1  0.74155795  0.66925509  0.53991573  1
  O  O21  1  0.27616995  0.56164963  0.67376307  1
  O  O22  1  0.77997880  0.43437689  0.79106631  1
  O  O23  1  0.26605289  0.30608244  0.91860206  1
  O  O24  1  0.22715565  0.06641618  0.70016852  1
  O  O25  1  0.22737549  0.32170258  0.44545494  1
  O  O26  1  0.75239060  0.94749463  0.83911840  1
  O  O27  1  0.73190647  0.19353135  0.58580055  1
  O  O28  1  0.24620838  0.82758867  0.94039266  1
  O  O29  1  0.72085340  0.68185453  0.08393322  1
  O  O30  1  0.25396765  0.56540350  0.22721597  1
  O  O31  1  0.72520842  0.44362932  0.32302788  1
