# generated using pymatgen
data_Na2SnGe2(HO4)2
_symmetry_space_group_name_H-M   'P 1'
_cell_length_a   5.66660679
_cell_length_b   5.94604516
_cell_length_c   11.50550711
_cell_angle_alpha   87.32279261
_cell_angle_beta   80.31751665
_cell_angle_gamma   75.25135095
_symmetry_Int_Tables_number   1
_chemical_formula_structural   Na2SnGe2(HO4)2
_chemical_formula_sum   'Na4 Sn2 Ge4 H4 O16'
_cell_volume   369.54913268
_cell_formula_units_Z   2
loop_
 _symmetry_equiv_pos_site_id
 _symmetry_equiv_pos_as_xyz
  1  'x, y, z'
loop_
 _atom_site_type_symbol
 _atom_site_label
 _atom_site_symmetry_multiplicity
 _atom_site_fract_x
 _atom_site_fract_y
 _atom_site_fract_z
 _atom_site_occupancy
  Na  Na0  1  0.78575716  0.38635363  0.56338188  1
  Na  Na1  1  0.21424284  0.61364637  0.43661812  1
  Na  Na2  1  0.49690930  0.18068966  0.85395365  1
  Na  Na3  1  0.50309070  0.81931034  0.14604635  1
  Sn  Sn4  1  -0.00000000  0.00000000  -0.00000000  1
  Sn  Sn5  1  0.50000000  0.00000000  0.50000000  1
  Ge  Ge6  1  0.31566618  0.72424452  0.74873816  1
  Ge  Ge7  1  0.68433382  0.27575548  0.25126184  1
  Ge  Ge8  1  0.82703339  0.56254946  0.87170534  1
  Ge  Ge9  1  0.17296661  0.43745054  0.12829466  1
  H  H10  1  0.21161792  0.31087157  0.63701548  1
  H  H11  1  0.78838208  0.68912843  0.36298452  1
  H  H12  1  0.77078606  0.91449017  0.66153900  1
  H  H13  1  0.22921394  0.08550983  0.33846100  1
  O  O14  1  0.74927533  0.83072798  0.94550584  1
  O  O15  1  0.25072467  0.16927202  0.05449416  1
  O  O16  1  0.77894275  0.32065316  0.95637128  1
  O  O17  1  0.22105725  0.67934684  0.04362872  1
  O  O18  1  0.13928808  0.50845446  0.79046592  1
  O  O19  1  0.86071192  0.49154554  0.20953408  1
  O  O20  1  0.63175131  0.57236500  0.76098655  1
  O  O21  1  0.36824869  0.42763500  0.23901345  1
  O  O22  1  0.20663224  0.97500697  0.83450632  1
  O  O23  1  0.79336776  0.02499303  0.16549368  1
  O  O24  1  0.32046363  0.76387188  0.59769071  1
  O  O25  1  0.67953637  0.23612812  0.40230929  1
  O  O26  1  0.20609144  0.27982169  0.55490741  1
  O  O27  1  0.79390856  0.72017831  0.44509259  1
  O  O28  1  0.65048002  0.05752672  0.64675734  1
  O  O29  1  0.34951998  0.94247328  0.35324266  1
