# generated using pymatgen
data_K4Sb2O5
_symmetry_space_group_name_H-M   'P 1'
_cell_length_a   7.97489945
_cell_length_b   18.36148695
_cell_length_c   6.45030172
_cell_angle_alpha   90.00004345
_cell_angle_beta   89.99878145
_cell_angle_gamma   89.99998061
_symmetry_Int_Tables_number   1
_chemical_formula_structural   K4Sb2O5
_chemical_formula_sum   'K16 Sb8 O20'
_cell_volume   944.52420961
_cell_formula_units_Z   4
loop_
 _symmetry_equiv_pos_site_id
 _symmetry_equiv_pos_as_xyz
  1  'x, y, z'
loop_
 _atom_site_type_symbol
 _atom_site_label
 _atom_site_symmetry_multiplicity
 _atom_site_fract_x
 _atom_site_fract_y
 _atom_site_fract_z
 _atom_site_occupancy
  K  K0  1  0.99990572  0.09775770  0.25000006  1
  K  K1  1  0.00007753  0.23674003  0.74999718  1
  K  K2  1  0.00007749  0.90189906  0.75000007  1
  K  K3  1  0.99992445  0.76206691  0.25000028  1
  K  K4  1  0.25007530  0.26206692  0.24999973  1
  K  K5  1  0.24992236  0.40189889  0.75000003  1
  K  K6  1  0.25009500  0.59775755  0.24999980  1
  K  K7  1  0.24992280  0.73674004  0.75000289  1
  K  K8  1  0.50007613  0.09810092  0.25000036  1
  K  K9  1  0.49992446  0.23793302  0.75000056  1
  K  K10  1  0.49990508  0.90224225  0.75000019  1
  K  K11  1  0.50007729  0.76326003  0.24999735  1
  K  K12  1  0.74992360  0.59810088  0.24999977  1
  K  K13  1  0.75007509  0.73793314  0.74999925  1
  K  K14  1  0.75009491  0.40224241  0.74999969  1
  K  K15  1  0.74992320  0.26326005  0.25000280  1
  Sb  Sb16  1  0.99684964  0.41751088  0.25000335  1
  Sb  Sb17  1  0.00315897  0.58247631  0.74999692  1
  Sb  Sb18  1  0.24684076  0.08247632  0.75000333  1
  Sb  Sb19  1  0.25315057  0.91751083  0.24999650  1
  Sb  Sb20  1  0.50315886  0.41752378  0.24999670  1
  Sb  Sb21  1  0.49684965  0.58248927  0.75000324  1
  Sb  Sb22  1  0.74684096  0.91752380  0.25000325  1
  Sb  Sb23  1  0.75315039  0.08248913  0.74999672  1
  O  O24  1  0.00003148  0.05265969  0.74999996  1
  O  O25  1  0.00091861  0.34834700  0.47801037  1
  O  O26  1  0.99909741  0.65165099  0.52201513  1
  O  O27  1  0.00092376  0.34834993  0.02200563  1
  O  O28  1  0.99909286  0.65164793  0.97796829  1
  O  O29  1  0.24996881  0.55265954  0.75000018  1
  O  O30  1  0.24908155  0.84834690  0.02198962  1
  O  O31  1  0.24907655  0.84835006  0.47799420  1
  O  O32  1  0.25090242  0.15165108  0.97798444  1
  O  O33  1  0.25090701  0.15164796  0.52203163  1
  O  O34  1  0.50092368  0.65165000  0.52200571  1
  O  O35  1  0.49909727  0.34834896  0.02201529  1
  O  O36  1  0.49909272  0.34835198  0.47796861  1
  O  O37  1  0.50091861  0.65165306  0.97801041  1
  O  O38  1  0.50003113  0.94734049  0.24999978  1
  O  O39  1  0.75090703  0.84835204  0.02203157  1
  O  O40  1  0.75090246  0.84834886  0.47798495  1
  O  O41  1  0.74908146  0.15165301  0.52198985  1
  O  O42  1  0.74907639  0.15165000  0.97799427  1
  O  O43  1  0.74996861  0.44734041  0.25000011  1
