# generated using pymatgen
data_Li2PdO2
_symmetry_space_group_name_H-M   'P 1'
_cell_length_a   3.03405615
_cell_length_b   3.82746870
_cell_length_c   5.26008096
_cell_angle_alpha   111.34713808
_cell_angle_beta   106.77185208
_cell_angle_gamma   89.99810389
_symmetry_Int_Tables_number   1
_chemical_formula_structural   Li2PdO2
_chemical_formula_sum   'Li2 Pd1 O2'
_cell_volume   54.09405388
_cell_formula_units_Z   1
loop_
 _symmetry_equiv_pos_site_id
 _symmetry_equiv_pos_as_xyz
  1  'x, y, z'
loop_
 _atom_site_type_symbol
 _atom_site_label
 _atom_site_symmetry_multiplicity
 _atom_site_fract_x
 _atom_site_fract_y
 _atom_site_fract_z
 _atom_site_occupancy
  O  O0  1  0.65040564  0.15030025  0.30068305  1
  Pd  Pd1  1  1.00000038  0.00000018  0.00000030  1
  Li  Li2  1  0.69700251  0.69706324  0.39409779  1
  Li  Li3  1  0.30299772  0.30293658  0.60590197  1
  O  O4  1  0.34959374  0.84969976  0.69931688  1
