# generated using pymatgen
data_Si(Ag4S3)2
_symmetry_space_group_name_H-M   'P 1'
_cell_length_a   7.58999448
_cell_length_b   10.69029691
_cell_length_c   15.21322284
_cell_angle_alpha   90.00000000
_cell_angle_beta   90.00000000
_cell_angle_gamma   90.00000000
_symmetry_Int_Tables_number   1
_chemical_formula_structural   Si(Ag4S3)2
_chemical_formula_sum   'Si4 Ag32 S24'
_cell_volume   1234.39016886
_cell_formula_units_Z   4
loop_
 _symmetry_equiv_pos_site_id
 _symmetry_equiv_pos_as_xyz
  1  'x, y, z'
loop_
 _atom_site_type_symbol
 _atom_site_label
 _atom_site_symmetry_multiplicity
 _atom_site_fract_x
 _atom_site_fract_y
 _atom_site_fract_z
 _atom_site_occupancy
  Si  Si0  1  0.26304496  0.03192389  0.37663873  1
  Si  Si1  1  0.73695504  0.53192389  0.62336127  1
  Si  Si2  1  0.23695504  0.03192389  0.87663873  1
  Si  Si3  1  0.76304496  0.53192389  0.12336127  1
  S  S4  1  0.99211456  0.41203017  0.12076344  1
  S  S5  1  0.00788544  0.91203017  0.87923656  1
  S  S6  1  0.50788544  0.41203017  0.62076344  1
  S  S7  1  0.49211456  0.91203017  0.37923656  1
  S  S8  1  0.76854716  0.64981312  0.00900964  1
  S  S9  1  0.23145284  0.14981312  0.99099036  1
  S  S10  1  0.73145284  0.64981312  0.50900964  1
  S  S11  1  0.26854716  0.14981312  0.49099036  1
  S  S12  1  0.77050984  0.65010705  0.23730331  1
  S  S13  1  0.22949016  0.15010705  0.76269669  1
  S  S14  1  0.72949016  0.65010705  0.73730331  1
  S  S15  1  0.27050984  0.15010705  0.26269669  1
  S  S16  1  0.18358517  0.51299508  0.38719670  1
  S  S17  1  0.81641483  0.01299508  0.61280330  1
  S  S18  1  0.31641483  0.51299508  0.88719670  1
  S  S19  1  0.68358517  0.01299508  0.11280330  1
  S  S20  1  0.23335281  0.77710206  0.12283605  1
  S  S21  1  0.76664719  0.27710206  0.87716395  1
  S  S22  1  0.26664719  0.77710206  0.62283605  1
  S  S23  1  0.73335281  0.27710206  0.37716395  1
  S  S24  1  0.03280029  0.91269832  0.37379519  1
  S  S25  1  0.96719971  0.41269832  0.62620481  1
  S  S26  1  0.46719971  0.91269832  0.87379519  1
  S  S27  1  0.53280029  0.41269832  0.12620481  1
  Ag  Ag28  1  0.06904946  0.35942220  0.93349563  1
  Ag  Ag29  1  0.12337588  0.47934631  0.76066683  1
  Ag  Ag30  1  0.87662412  0.97934631  0.23933317  1
  Ag  Ag31  1  0.37662412  0.47934631  0.26066683  1
  Ag  Ag32  1  0.26374353  0.54557632  0.06404817  1
  Ag  Ag33  1  0.73625647  0.04557632  0.93595183  1
  Ag  Ag34  1  0.23625647  0.54557632  0.56404817  1
  Ag  Ag35  1  0.76374353  0.04557632  0.43595183  1
  Ag  Ag36  1  0.37917673  0.69532152  0.41211283  1
  Ag  Ag37  1  0.62082327  0.19532152  0.58788717  1
  Ag  Ag38  1  0.12082327  0.69532152  0.91211283  1
  Ag  Ag39  1  0.87917673  0.19532152  0.08788717  1
  Ag  Ag40  1  0.49448219  0.78969091  0.22857733  1
  Ag  Ag41  1  0.50551781  0.28969091  0.77142267  1
  Ag  Ag42  1  0.00551781  0.78969091  0.72857733  1
  Ag  Ag43  1  0.99448219  0.28969091  0.27142267  1
  Ag  Ag44  1  0.93095054  0.85942220  0.06650437  1
  Ag  Ag45  1  0.62337588  0.97934631  0.73933317  1
  Ag  Ag46  1  0.56904946  0.85942220  0.56650437  1
  Ag  Ag47  1  0.43095054  0.35942220  0.43349563  1
  Ag  Ag48  1  0.11565535  0.68793236  0.26809498  1
  Ag  Ag49  1  0.88434465  0.18793236  0.73190502  1
  Ag  Ag50  1  0.38434465  0.68793236  0.76809498  1
  Ag  Ag51  1  0.61565535  0.18793236  0.23190502  1
  Ag  Ag52  1  0.48358141  0.77002202  0.01486594  1
  Ag  Ag53  1  0.51641859  0.27002202  0.98513406  1
  Ag  Ag54  1  0.01641859  0.77002202  0.51486594  1
  Ag  Ag55  1  0.98358141  0.27002202  0.48513406  1
  Ag  Ag56  1  0.72772976  0.51421866  0.37073958  1
  Ag  Ag57  1  0.27227024  0.01421866  0.62926042  1
  Ag  Ag58  1  0.77227024  0.51421866  0.87073958  1
  Ag  Ag59  1  0.22772976  0.01421866  0.12926042  1
