# generated using pymatgen
data_La10Bi8O27
_symmetry_space_group_name_H-M   'P 1'
_cell_length_a   10.58311508
_cell_length_b   8.19940862
_cell_length_c   10.60182354
_cell_angle_alpha   78.77228202
_cell_angle_beta   69.45627716
_cell_angle_gamma   78.76750075
_symmetry_Int_Tables_number   1
_chemical_formula_structural   La10Bi8O27
_chemical_formula_sum   'La10 Bi8 O27'
_cell_volume   836.93467319
_cell_formula_units_Z   1
loop_
 _symmetry_equiv_pos_site_id
 _symmetry_equiv_pos_as_xyz
  1  'x, y, z'
loop_
 _atom_site_type_symbol
 _atom_site_label
 _atom_site_symmetry_multiplicity
 _atom_site_fract_x
 _atom_site_fract_y
 _atom_site_fract_z
 _atom_site_occupancy
  La  La0  1  0.33482923  0.16432601  0.00975183  1
  La  La1  1  0.98354811  0.83884514  0.66498938  1
  La  La2  1  0.32990816  0.66062676  0.02548775  1
  La  La3  1  0.98208420  0.33679072  0.66912071  1
  La  La4  1  0.99070337  0.99828708  0.01242627  1
  La  La5  1  0.99285387  0.50019649  0.00998220  1
  La  La6  1  0.02198689  0.16413279  0.33120953  1
  La  La7  1  0.98995695  0.66302807  0.34158933  1
  La  La8  1  0.66160403  0.33552330  0.00854674  1
  La  La9  1  0.66997797  0.83591674  0.97898382  1
  Bi  Bi10  1  0.68138310  0.49931700  0.31804881  1
  Bi  Bi11  1  0.68202590  0.00043953  0.31821497  1
  Bi  Bi12  1  0.32228759  0.83621736  0.32422814  1
  Bi  Bi13  1  0.32560201  0.33737936  0.32581540  1
  Bi  Bi14  1  0.67436328  0.65924220  0.67649937  1
  Bi  Bi15  1  0.67666111  0.16668874  0.67735512  1
  Bi  Bi16  1  0.32347026  0.49699346  0.68580545  1
  Bi  Bi17  1  0.32491757  0.99817827  0.68624247  1
  O  O18  1  0.89594709  0.98757161  0.27177232  1
  O  O19  1  0.73110021  0.57042934  0.10416194  1
  O  O20  1  0.73021378  0.01081886  0.10454965  1
  O  O21  1  0.89547063  0.42967947  0.27025926  1
  O  O22  1  0.41697939  0.87226059  0.10508269  1
  O  O23  1  0.89441049  0.62914063  0.59621114  1
  O  O24  1  0.89966032  0.12789470  0.58557538  1
  O  O25  1  0.40500581  0.36830278  0.10609686  1
  O  O26  1  0.60126321  0.28231340  0.27091052  1
  O  O27  1  0.72341120  0.71756034  0.40255236  1
  O  O28  1  0.09827482  0.20587328  0.08021962  1
  O  O29  1  0.27086344  0.11226761  0.26816663  1
  O  O30  1  0.27037103  0.61578233  0.27115930  1
  O  O31  1  0.92215837  0.79435165  0.90161309  1
  O  O32  1  0.07635684  0.70534898  0.10077761  1
  O  O33  1  0.90578048  0.29300988  0.92008082  1
  O  O34  1  0.73285848  0.38403125  0.73226261  1
  O  O35  1  0.73005492  0.88657732  0.72946362  1
  O  O36  1  0.38295286  0.23283638  0.68696385  1
  O  O37  1  0.10332992  0.86484811  0.41609414  1
  O  O38  1  0.58075385  0.62288936  0.90640643  1
  O  O39  1  0.09531115  0.37733076  0.41722524  1
  O  O40  1  0.58544978  0.13489708  0.89670033  1
  O  O41  1  0.11891889  0.53532605  0.70471984  1
  O  O42  1  0.12064443  0.05261743  0.70320520  1
  O  O43  1  0.28056018  0.93925860  0.89507405  1
  O  O44  1  0.27818584  0.47450119  0.89455022  1
