# generated using pymatgen
data_K2MgH8(CO5)2
_symmetry_space_group_name_H-M   'P 1'
_cell_length_a   11.43541559
_cell_length_b   6.26948416
_cell_length_c   6.94821850
_cell_angle_alpha   90.00000000
_cell_angle_beta   100.42919226
_cell_angle_gamma   90.00000000
_symmetry_Int_Tables_number   1
_chemical_formula_structural   K2MgH8(CO5)2
_chemical_formula_sum   'K4 Mg2 H16 C4 O20'
_cell_volume   489.91696964
_cell_formula_units_Z   2
loop_
 _symmetry_equiv_pos_site_id
 _symmetry_equiv_pos_as_xyz
  1  'x, y, z'
loop_
 _atom_site_type_symbol
 _atom_site_label
 _atom_site_symmetry_multiplicity
 _atom_site_fract_x
 _atom_site_fract_y
 _atom_site_fract_z
 _atom_site_occupancy
  K  K0  1  0.18259567  0.14872560  0.41602309  1
  K  K1  1  0.31740433  0.64872560  0.08397691  1
  K  K2  1  0.68259567  0.35127440  0.91602309  1
  K  K3  1  0.81740433  0.85127440  0.58397691  1
  Mg  Mg4  1  0.00000000  0.50000000  0.00000000  1
  Mg  Mg5  1  0.50000000  0.00000000  0.50000000  1
  H  H6  1  0.07687641  0.82379772  0.77449853  1
  H  H7  1  0.02157887  0.80056522  0.22996288  1
  H  H8  1  0.11340269  0.60438953  0.68942667  1
  H  H9  1  0.13783348  0.65841372  0.33388697  1
  H  H10  1  0.38659731  0.10438953  0.81057333  1
  H  H11  1  0.36216652  0.15841372  0.16611303  1
  H  H12  1  0.42312359  0.32379772  0.72550147  1
  H  H13  1  0.47842113  0.30056522  0.27003712  1
  H  H14  1  0.52157887  0.69943478  0.72996288  1
  H  H15  1  0.57687641  0.67620228  0.27449853  1
  H  H16  1  0.63783348  0.84158628  0.83388697  1
  H  H17  1  0.61340269  0.89561047  0.18942667  1
  H  H18  1  0.86216652  0.34158628  0.66611303  1
  H  H19  1  0.88659731  0.39561047  0.31057333  1
  H  H20  1  0.97842113  0.19943478  0.77003712  1
  H  H21  1  0.92312359  0.17620228  0.22550147  1
  C  C22  1  0.17591333  0.15050642  0.91927644  1
  C  C23  1  0.32408667  0.65050642  0.58072356  1
  C  C24  1  0.67591333  0.34949358  0.41927644  1
  C  C25  1  0.82408667  0.84949358  0.08072356  1
  O  O26  1  0.05652988  0.66677628  0.76659006  1
  O  O27  1  0.09990348  0.08075392  0.76874386  1
  O  O28  1  0.09426670  0.71675328  0.20516876  1
  O  O29  1  0.14761542  0.30576981  0.02565137  1
  O  O30  1  0.21939224  0.56277147  0.53703499  1
  O  O31  1  0.28060776  0.06277147  0.96296501  1
  O  O32  1  0.35238458  0.80576981  0.47434863  1
  O  O33  1  0.40009652  0.58075392  0.73125614  1
  O  O34  1  0.44347012  0.16677628  0.73340994  1
  O  O35  1  0.40573330  0.21675328  0.29483124  1
  O  O36  1  0.59426670  0.78324672  0.70516876  1
  O  O37  1  0.55652988  0.83322372  0.26659006  1
  O  O38  1  0.59990348  0.41924608  0.26874386  1
  O  O39  1  0.64761542  0.19423019  0.52565137  1
  O  O40  1  0.71939224  0.93722853  0.03703499  1
  O  O41  1  0.78060776  0.43722853  0.46296501  1
  O  O42  1  0.85238458  0.69423019  0.97434863  1
  O  O43  1  0.90573330  0.28324672  0.79483124  1
  O  O44  1  0.90009652  0.91924608  0.23125614  1
  O  O45  1  0.94347012  0.33322372  0.23340994  1
