# generated using pymatgen
data_LiFe(CO3)2
_symmetry_space_group_name_H-M   'P 1'
_cell_length_a   4.68078991
_cell_length_b   5.75303322
_cell_length_c   4.68078991
_cell_angle_alpha   65.99535912
_cell_angle_beta   120.00000122
_cell_angle_gamma   114.00464100
_symmetry_Int_Tables_number   1
_chemical_formula_structural   LiFe(CO3)2
_chemical_formula_sum   'Li1 Fe1 C2 O6'
_cell_volume   96.36721950
_cell_formula_units_Z   1
loop_
 _symmetry_equiv_pos_site_id
 _symmetry_equiv_pos_as_xyz
  1  'x, y, z'
loop_
 _atom_site_type_symbol
 _atom_site_label
 _atom_site_symmetry_multiplicity
 _atom_site_fract_x
 _atom_site_fract_y
 _atom_site_fract_z
 _atom_site_occupancy
  Li  Li0  1  0.00000000  0.00000000  0.00000000  1
  Fe  Fe1  1  0.50000000  0.50000000  0.50000000  1
  C  C2  1  0.24473553  0.73420658  0.75526447  1
  C  C3  1  0.75526447  0.26579342  0.24473553  1
  O  O4  1  0.03828932  0.26423324  0.25817837  1
  O  O5  1  0.51587770  0.73576676  0.03828932  1
  O  O6  1  0.25817837  0.73576676  0.48412230  1
  O  O7  1  0.74182163  0.26423324  0.51587770  1
  O  O8  1  0.48412230  0.26423324  0.96171068  1
  O  O9  1  0.96171068  0.73576676  0.74182163  1
