# generated using pymatgen
data_Na5TlO4
_symmetry_space_group_name_H-M   'P 1'
_cell_length_a   10.87054349
_cell_length_b   10.90769470
_cell_length_c   10.93947866
_cell_angle_alpha   90.00000000
_cell_angle_beta   90.00000000
_cell_angle_gamma   90.00000000
_symmetry_Int_Tables_number   1
_chemical_formula_structural   Na5TlO4
_chemical_formula_sum   'Na40 Tl8 O32'
_cell_volume   1297.12209493
_cell_formula_units_Z   8
loop_
 _symmetry_equiv_pos_site_id
 _symmetry_equiv_pos_as_xyz
  1  'x, y, z'
loop_
 _atom_site_type_symbol
 _atom_site_label
 _atom_site_symmetry_multiplicity
 _atom_site_fract_x
 _atom_site_fract_y
 _atom_site_fract_z
 _atom_site_occupancy
  O  O0  1  0.51830515  0.24928924  0.50643582  1
  O  O1  1  0.01830515  0.75071076  0.99356418  1
  O  O2  1  0.98169485  0.74928924  0.49356418  1
  O  O3  1  0.48169485  0.25071076  0.00643582  1
  O  O4  1  0.48169485  0.75071076  0.49356418  1
  O  O5  1  0.98169485  0.24928924  0.00643582  1
  O  O6  1  0.01830515  0.25071076  0.50643582  1
  O  O7  1  0.51830515  0.74928924  0.99356418  1
  O  O8  1  0.76112961  0.25214984  0.74518271  1
  O  O9  1  0.26112961  0.74785016  0.75481729  1
  O  O10  1  0.73887039  0.75214984  0.25481729  1
  O  O11  1  0.23887039  0.24785016  0.24518271  1
  O  O12  1  0.23887039  0.74785016  0.25481729  1
  O  O13  1  0.73887039  0.25214984  0.24518271  1
  O  O14  1  0.26112961  0.24785016  0.74518271  1
  O  O15  1  0.76112961  0.75214984  0.75481729  1
  O  O16  1  0.99955813  0.46017013  0.74507190  1
  O  O17  1  0.49955813  0.53982987  0.75492810  1
  O  O18  1  0.50044187  0.96017013  0.25492810  1
  O  O19  1  0.00044187  0.03982987  0.24507190  1
  O  O20  1  0.00044187  0.53982987  0.25492810  1
  O  O21  1  0.50044187  0.46017013  0.24507190  1
  O  O22  1  0.49955813  0.03982987  0.74507190  1
  O  O23  1  0.99955813  0.96017013  0.75492810  1
  O  O24  1  0.75601358  0.49087320  0.54104604  1
  O  O25  1  0.25601358  0.50912680  0.95895396  1
  O  O26  1  0.74398642  0.99087320  0.45895396  1
  O  O27  1  0.24398642  0.00912680  0.04104604  1
  O  O28  1  0.24398642  0.50912680  0.45895396  1
  O  O29  1  0.74398642  0.49087320  0.04104604  1
  O  O30  1  0.25601358  0.00912680  0.54104604  1
  O  O31  1  0.75601358  0.99087320  0.95895396  1
  Na  Na32  1  0.10474998  0.11846638  0.65996064  1
  Na  Na33  1  0.60474998  0.88153362  0.84003936  1
  Na  Na34  1  0.39525002  0.61846638  0.34003936  1
  Na  Na35  1  0.89525002  0.38153362  0.15996064  1
  Na  Na36  1  0.89525002  0.88153362  0.34003936  1
  Na  Na37  1  0.39525002  0.11846638  0.15996064  1
  Na  Na38  1  0.60474998  0.38153362  0.65996064  1
  Na  Na39  1  0.10474998  0.61846638  0.84003936  1
  Na  Na40  1  0.12641578  0.84960662  0.61848912  1
  Na  Na41  1  0.62641578  0.15039338  0.88151088  1
  Na  Na42  1  0.37358422  0.34960662  0.38151088  1
  Na  Na43  1  0.87358422  0.65039338  0.11848912  1
  Na  Na44  1  0.87358422  0.15039338  0.38151088  1
  Na  Na45  1  0.37358422  0.84960662  0.11848912  1
  Na  Na46  1  0.62641578  0.65039338  0.61848912  1
  Na  Na47  1  0.12641578  0.34960662  0.88151088  1
  Na  Na48  1  0.66194463  0.10778702  0.61689424  1
  Na  Na49  1  0.16194463  0.89221298  0.88310576  1
  Na  Na50  1  0.83805537  0.60778702  0.38310576  1
  Na  Na51  1  0.33805537  0.39221298  0.11689424  1
  Na  Na52  1  0.33805537  0.89221298  0.38310576  1
  Na  Na53  1  0.83805537  0.10778702  0.11689424  1
  Na  Na54  1  0.16194463  0.39221298  0.61689424  1
  Na  Na55  1  0.66194463  0.60778702  0.88310576  1
  Na  Na56  1  0.89838167  0.62299674  0.65049238  1
  Na  Na57  1  0.39838167  0.37700326  0.84950762  1
  Na  Na58  1  0.60161833  0.12299674  0.34950762  1
  Na  Na59  1  0.10161833  0.87700326  0.15049238  1
  Na  Na60  1  0.10161833  0.37700326  0.34950762  1
  Na  Na61  1  0.60161833  0.62299674  0.15049238  1
  Na  Na62  1  0.39838167  0.87700326  0.65049238  1
  Na  Na63  1  0.89838167  0.12299674  0.84950762  1
  Na  Na64  1  0.85412924  0.88918490  0.60860353  1
  Na  Na65  1  0.35412924  0.11081510  0.89139647  1
  Na  Na66  1  0.64587076  0.38918490  0.39139647  1
  Na  Na67  1  0.14587076  0.61081510  0.10860353  1
  Na  Na68  1  0.14587076  0.11081510  0.39139647  1
  Na  Na69  1  0.64587076  0.88918490  0.10860353  1
  Na  Na70  1  0.35412924  0.61081510  0.60860353  1
  Na  Na71  1  0.85412924  0.38918490  0.89139647  1
  Tl  Tl72  1  0.88321296  0.34988733  0.61515152  1
  Tl  Tl73  1  0.38321296  0.65011267  0.88484848  1
  Tl  Tl74  1  0.61678704  0.84988733  0.38484848  1
  Tl  Tl75  1  0.11678704  0.15011267  0.11515152  1
  Tl  Tl76  1  0.11678704  0.65011267  0.38484848  1
  Tl  Tl77  1  0.61678704  0.34988733  0.11515152  1
  Tl  Tl78  1  0.38321296  0.15011267  0.61515152  1
  Tl  Tl79  1  0.88321296  0.84988733  0.88484848  1
