# generated using pymatgen
data_Na5GaO4
_symmetry_space_group_name_H-M   'P 1'
_cell_length_a   6.00504900
_cell_length_b   10.45271357
_cell_length_c   18.17310963
_cell_angle_alpha   90.00000000
_cell_angle_beta   90.00000000
_cell_angle_gamma   90.00000000
_symmetry_Int_Tables_number   1
_chemical_formula_structural   Na5GaO4
_chemical_formula_sum   'Na40 Ga8 O32'
_cell_volume   1140.70895734
_cell_formula_units_Z   8
loop_
 _symmetry_equiv_pos_site_id
 _symmetry_equiv_pos_as_xyz
  1  'x, y, z'
loop_
 _atom_site_type_symbol
 _atom_site_label
 _atom_site_symmetry_multiplicity
 _atom_site_fract_x
 _atom_site_fract_y
 _atom_site_fract_z
 _atom_site_occupancy
  O  O0  1  0.86148711  0.04735308  0.12092017  1
  O  O1  1  0.36148711  0.95264692  0.37907983  1
  O  O2  1  0.63851289  0.54735308  0.87907983  1
  O  O3  1  0.13851289  0.45264692  0.62092017  1
  O  O4  1  0.13851289  0.95264692  0.87907983  1
  O  O5  1  0.63851289  0.04735308  0.62092017  1
  O  O6  1  0.36148711  0.45264692  0.12092017  1
  O  O7  1  0.86148711  0.54735308  0.37907983  1
  O  O8  1  0.80380403  0.36891700  0.04578119  1
  O  O9  1  0.30380403  0.63108300  0.45421881  1
  O  O10  1  0.69619597  0.86891700  0.95421881  1
  O  O11  1  0.19619597  0.13108300  0.54578119  1
  O  O12  1  0.19619597  0.63108300  0.95421881  1
  O  O13  1  0.69619597  0.36891700  0.54578119  1
  O  O14  1  0.30380403  0.13108300  0.04578119  1
  O  O15  1  0.80380403  0.86891700  0.45421881  1
  O  O16  1  0.73498451  0.37458119  0.71157937  1
  O  O17  1  0.23498451  0.62541881  0.78842063  1
  O  O18  1  0.76501549  0.87458119  0.28842063  1
  O  O19  1  0.26501549  0.12541881  0.21157937  1
  O  O20  1  0.26501549  0.62541881  0.28842063  1
  O  O21  1  0.76501549  0.37458119  0.21157937  1
  O  O22  1  0.23498451  0.12541881  0.71157937  1
  O  O23  1  0.73498451  0.87458119  0.78842063  1
  O  O24  1  0.73712848  0.13423418  0.87465604  1
  O  O25  1  0.23712848  0.86576582  0.62534396  1
  O  O26  1  0.76287152  0.63423418  0.12534396  1
  O  O27  1  0.26287152  0.36576582  0.37465604  1
  O  O28  1  0.26287152  0.86576582  0.12534396  1
  O  O29  1  0.76287152  0.13423418  0.37465604  1
  O  O30  1  0.23712848  0.36576582  0.87465604  1
  O  O31  1  0.73712848  0.63423418  0.62534396  1
  Na  Na32  1  0.92292009  0.19913793  0.64083163  1
  Na  Na33  1  0.42292009  0.80086207  0.85916837  1
  Na  Na34  1  0.57707991  0.69913793  0.35916837  1
  Na  Na35  1  0.07707991  0.30086207  0.14083163  1
  Na  Na36  1  0.07707991  0.80086207  0.35916837  1
  Na  Na37  1  0.57707991  0.19913793  0.14083163  1
  Na  Na38  1  0.42292009  0.30086207  0.64083163  1
  Na  Na39  1  0.92292009  0.69913793  0.85916837  1
  Na  Na40  1  0.91036294  0.16320399  0.00275838  1
  Na  Na41  1  0.41036294  0.83679601  0.49724162  1
  Na  Na42  1  0.58963706  0.66320399  0.99724162  1
  Na  Na43  1  0.08963706  0.33679601  0.50275838  1
  Na  Na44  1  0.08963706  0.83679601  0.99724162  1
  Na  Na45  1  0.58963706  0.16320399  0.50275838  1
  Na  Na46  1  0.41036294  0.33679601  0.00275838  1
  Na  Na47  1  0.91036294  0.66320399  0.49724162  1
  Na  Na48  1  0.89899261  0.07824601  0.25196302  1
  Na  Na49  1  0.39899261  0.92175399  0.24803698  1
  Na  Na50  1  0.60100739  0.57824601  0.74803698  1
  Na  Na51  1  0.10100739  0.42175399  0.75196302  1
  Na  Na52  1  0.10100739  0.92175399  0.74803698  1
  Na  Na53  1  0.60100739  0.07824601  0.75196302  1
  Na  Na54  1  0.39899261  0.42175399  0.25196302  1
  Na  Na55  1  0.89899261  0.57824601  0.24803698  1
  Na  Na56  1  0.91762231  0.44047723  0.93534134  1
  Na  Na57  1  0.41762231  0.55952277  0.56465866  1
  Na  Na58  1  0.58237769  0.94047723  0.06465866  1
  Na  Na59  1  0.08237769  0.05952277  0.43534134  1
  Na  Na60  1  0.08237769  0.55952277  0.06465866  1
  Na  Na61  1  0.58237769  0.44047723  0.43534134  1
  Na  Na62  1  0.41762231  0.05952277  0.93534134  1
  Na  Na63  1  0.91762231  0.94047723  0.56465866  1
  Na  Na64  1  0.89452555  0.32662199  0.32849949  1
  Na  Na65  1  0.39452555  0.67337801  0.17150051  1
  Na  Na66  1  0.60547445  0.82662199  0.67150051  1
  Na  Na67  1  0.10547445  0.17337801  0.82849949  1
  Na  Na68  1  0.10547445  0.67337801  0.67150051  1
  Na  Na69  1  0.60547445  0.32662199  0.82849949  1
  Na  Na70  1  0.39452555  0.17337801  0.32849949  1
  Na  Na71  1  0.89452555  0.82662199  0.17150051  1
  Ga  Ga72  1  0.82666938  0.45991533  0.62371614  1
  Ga  Ga73  1  0.32666938  0.54008467  0.87628386  1
  Ga  Ga74  1  0.67333062  0.95991533  0.37628386  1
  Ga  Ga75  1  0.17333062  0.04008467  0.12371614  1
  Ga  Ga76  1  0.17333062  0.54008467  0.37628386  1
  Ga  Ga77  1  0.67333062  0.45991533  0.12371614  1
  Ga  Ga78  1  0.32666938  0.04008467  0.62371614  1
  Ga  Ga79  1  0.82666938  0.95991533  0.87628386  1
