# generated using pymatgen
data_Sm3Ta17O47
_symmetry_space_group_name_H-M   'P 1'
_cell_length_a   12.80890083
_cell_length_b   3.91321737
_cell_length_c   19.39584756
_cell_angle_alpha   90.00000000
_cell_angle_beta   103.07805338
_cell_angle_gamma   90.00000000
_symmetry_Int_Tables_number   1
_chemical_formula_structural   Sm3Ta17O47
_chemical_formula_sum   'Sm3 Ta17 O47'
_cell_volume   946.98154811
_cell_formula_units_Z   1
loop_
 _symmetry_equiv_pos_site_id
 _symmetry_equiv_pos_as_xyz
  1  'x, y, z'
loop_
 _atom_site_type_symbol
 _atom_site_label
 _atom_site_symmetry_multiplicity
 _atom_site_fract_x
 _atom_site_fract_y
 _atom_site_fract_z
 _atom_site_occupancy
  Sm  Sm0  1  0.00000000  0.50000000  0.00000000  1
  Sm  Sm1  1  0.37572274  0.50000000  0.66884006  1
  Sm  Sm2  1  0.62427726  0.50000000  0.33115994  1
  Ta  Ta3  1  0.02397923  0.00000000  0.85327329  1
  Ta  Ta4  1  0.18963802  0.00000000  0.71670862  1
  Ta  Ta5  1  0.10805585  0.00000000  0.35267188  1
  Ta  Ta6  1  0.27923480  0.00000000  0.52936195  1
  Ta  Ta7  1  0.23768398  0.00000000  0.21673030  1
  Ta  Ta8  1  0.22793875  0.00000000  0.04227508  1
  Ta  Ta9  1  0.50832323  0.00000000  0.80888729  1
  Ta  Ta10  1  0.41346656  0.00000000  0.37539088  1
  Ta  Ta11  1  0.58653344  0.00000000  0.62460912  1
  Ta  Ta12  1  0.49167677  0.00000000  0.19111271  1
  Ta  Ta13  1  0.77206125  0.00000000  0.95772492  1
  Ta  Ta14  1  0.76231602  0.00000000  0.78326970  1
  Ta  Ta15  1  0.50000000  0.00000000  0.00000000  1
  Ta  Ta16  1  0.72076520  0.00000000  0.47063805  1
  Ta  Ta17  1  0.89194415  0.00000000  0.64732812  1
  Ta  Ta18  1  0.81036198  0.00000000  0.28329138  1
  Ta  Ta19  1  0.97602077  0.00000000  0.14672671  1
  O  O20  1  0.02480709  0.50000000  0.87159002  1
  O  O21  1  0.08723741  0.00000000  0.96373449  1
  O  O22  1  0.04683540  0.00000000  0.66491617  1
  O  O23  1  0.14166376  0.00000000  0.80710787  1
  O  O24  1  0.21755812  0.50000000  0.72019453  1
  O  O25  1  0.08186005  0.00000000  0.23749174  1
  O  O26  1  0.15351401  0.00000000  0.45604430  1
  O  O27  1  0.11152976  0.50000000  0.35233338  1
  O  O28  1  0.34023435  0.00000000  0.99653327  1
  O  O29  1  0.23272525  0.00000000  0.62206492  1
  O  O30  1  0.12431401  0.00000000  0.11625516  1
  O  O31  1  0.36463092  0.00000000  0.74484614  1
  O  O32  1  0.29165133  0.50000000  0.54410197  1
  O  O33  1  0.25383247  0.00000000  0.32755819  1
  O  O34  1  0.23575153  0.50000000  0.21551436  1
  O  O35  1  0.47045488  0.00000000  0.89560488  1
  O  O36  1  0.19838788  0.50000000  0.03844875  1
  O  O37  1  0.37583668  0.00000000  0.46480043  1
  O  O38  1  0.42773661  0.00000000  0.61134114  1
  O  O39  1  0.50016366  0.50000000  0.79045270  1
  O  O40  1  0.32827392  0.00000000  0.13738411  1
  O  O41  1  0.39981165  0.00000000  0.26688065  1
  O  O42  1  0.43382440  0.50000000  0.37201140  1
  O  O43  1  0.56617560  0.50000000  0.62798860  1
  O  O44  1  0.60018835  0.00000000  0.73311935  1
  O  O45  1  0.67172608  0.00000000  0.86261589  1
  O  O46  1  0.49983634  0.50000000  0.20954730  1
  O  O47  1  0.57226339  0.00000000  0.38865886  1
  O  O48  1  0.62416332  0.00000000  0.53519957  1
  O  O49  1  0.80161212  0.50000000  0.96155125  1
  O  O50  1  0.52954512  0.00000000  0.10439512  1
  O  O51  1  0.50000000  0.50000000  0.00000000  1
  O  O52  1  0.76424847  0.50000000  0.78448564  1
  O  O53  1  0.74616753  0.00000000  0.67244181  1
  O  O54  1  0.70834867  0.50000000  0.45589803  1
  O  O55  1  0.63536908  0.00000000  0.25515386  1
  O  O56  1  0.87568599  0.00000000  0.88374484  1
  O  O57  1  0.76727475  0.00000000  0.37793508  1
  O  O58  1  0.65976565  0.00000000  0.00346673  1
  O  O59  1  0.88847024  0.50000000  0.64766662  1
  O  O60  1  0.84648599  0.00000000  0.54395570  1
  O  O61  1  0.91813995  0.00000000  0.76250826  1
  O  O62  1  0.78244188  0.50000000  0.27980547  1
  O  O63  1  0.85833624  0.00000000  0.19289213  1
  O  O64  1  0.95316460  0.00000000  0.33508383  1
  O  O65  1  0.91276259  0.00000000  0.03626551  1
  O  O66  1  0.97519291  0.50000000  0.12840998  1
