# generated using pymatgen
data_K2S3
_symmetry_space_group_name_H-M   'P 1'
_cell_length_a   6.29597711
_cell_length_b   6.29597711
_cell_length_c   7.58762730
_cell_angle_alpha   90.00000000
_cell_angle_beta   90.00000000
_cell_angle_gamma   108.64218017
_symmetry_Int_Tables_number   1
_chemical_formula_structural   K2S3
_chemical_formula_sum   'K4 S6'
_cell_volume   284.98813000
_cell_formula_units_Z   2
loop_
 _symmetry_equiv_pos_site_id
 _symmetry_equiv_pos_as_xyz
  1  'x, y, z'
loop_
 _atom_site_type_symbol
 _atom_site_label
 _atom_site_symmetry_multiplicity
 _atom_site_fract_x
 _atom_site_fract_y
 _atom_site_fract_z
 _atom_site_occupancy
  S  S0  1  0.38710911  0.07263751  0.50038416  1
  S  S1  1  0.61289089  0.92736249  0.00038416  1
  S  S2  1  0.92736249  0.61289089  0.50038416  1
  S  S3  1  0.07263751  0.38710911  0.00038416  1
  S  S4  1  0.80019022  0.19980978  0.84596599  1
  S  S5  1  0.19980978  0.80019022  0.34596599  1
  K  K6  1  0.41748096  0.58251904  0.65702139  1
  K  K7  1  0.58251904  0.41748096  0.15702139  1
  K  K8  1  0.89431897  0.10568103  0.38694430  1
  K  K9  1  0.10568103  0.89431897  0.88694430  1
