# generated using pymatgen
data_CoP4O11
_symmetry_space_group_name_H-M   'P 1'
_cell_length_a   8.28816248
_cell_length_b   12.47192257
_cell_length_c   8.56229243
_cell_angle_alpha   90.00000000
_cell_angle_beta   96.05553486
_cell_angle_gamma   90.00000000
_symmetry_Int_Tables_number   1
_chemical_formula_structural   CoP4O11
_chemical_formula_sum   'Co4 P16 O44'
_cell_volume   880.13971354
_cell_formula_units_Z   4
loop_
 _symmetry_equiv_pos_site_id
 _symmetry_equiv_pos_as_xyz
  1  'x, y, z'
loop_
 _atom_site_type_symbol
 _atom_site_label
 _atom_site_symmetry_multiplicity
 _atom_site_fract_x
 _atom_site_fract_y
 _atom_site_fract_z
 _atom_site_occupancy
  Co  Co0  1  0.22755171  0.46761241  0.73434387  1
  Co  Co1  1  0.27244829  0.96761241  0.76565613  1
  Co  Co2  1  0.72755171  0.03238759  0.23434387  1
  Co  Co3  1  0.77244829  0.53238759  0.26565613  1
  P  P4  1  0.10447774  0.21153451  0.60280384  1
  P  P5  1  0.11535092  0.16513274  0.26548005  1
  P  P6  1  0.17990033  0.49618921  0.34063576  1
  P  P7  1  0.25021135  0.84755234  0.40143822  1
  P  P8  1  0.24978865  0.34755234  0.09856178  1
  P  P9  1  0.32009967  0.99618921  0.15936424  1
  P  P10  1  0.39552226  0.71153451  0.89719616  1
  P  P11  1  0.38464908  0.66513274  0.23451995  1
  P  P12  1  0.61535092  0.33486726  0.76548005  1
  P  P13  1  0.60447774  0.28846549  0.10280384  1
  P  P14  1  0.67990033  0.00381079  0.84063576  1
  P  P15  1  0.75021135  0.65244766  0.90143822  1
  P  P16  1  0.74978865  0.15244766  0.59856178  1
  P  P17  1  0.82009967  0.50381079  0.65936424  1
  P  P18  1  0.88464908  0.83486726  0.73451995  1
  P  P19  1  0.89552226  0.78846549  0.39719616  1
  O  O20  1  0.03323183  0.89886275  0.75530841  1
  O  O21  1  0.00637020  0.46949929  0.29619136  1
  O  O22  1  0.09477110  0.78090487  0.42675836  1
  O  O23  1  0.15465856  0.10196511  0.65382690  1
  O  O24  1  0.15787304  0.31014379  0.68885693  1
  O  O25  1  0.18575680  0.41750451  0.96884375  1
  O  O26  1  0.14437017  0.23293555  0.42125583  1
  O  O27  1  0.12183027  0.25505802  0.13205952  1
  O  O28  1  0.20736659  0.90546262  0.23761073  1
  O  O29  1  0.22025249  0.60077755  0.23437007  1
  O  O30  1  0.25493196  0.51266440  0.50437999  1
  O  O31  1  0.24506804  0.01266440  0.99562001  1
  O  O32  1  0.27974751  0.10077755  0.26562993  1
  O  O33  1  0.31424320  0.91750451  0.53115625  1
  O  O34  1  0.34212696  0.81014379  0.81114307  1
  O  O35  1  0.29263341  0.40546262  0.26238927  1
  O  O36  1  0.34534144  0.60196511  0.84617310  1
  O  O37  1  0.37816973  0.75505802  0.36794048  1
  O  O38  1  0.35562983  0.73293555  0.07874417  1
  O  O39  1  0.40522890  0.28090487  0.07324164  1
  O  O40  1  0.46676817  0.39886275  0.74469159  1
  O  O41  1  0.50637020  0.03050071  0.79619136  1
  O  O42  1  0.49362980  0.96949929  0.20380864  1
  O  O43  1  0.53323183  0.60113725  0.25530841  1
  O  O44  1  0.59477110  0.71909513  0.92675836  1
  O  O45  1  0.64437017  0.26706445  0.92125583  1
  O  O46  1  0.62183027  0.24494198  0.63205952  1
  O  O47  1  0.65465856  0.39803489  0.15382690  1
  O  O48  1  0.70736659  0.59453738  0.73761073  1
  O  O49  1  0.65787304  0.18985621  0.18885693  1
  O  O50  1  0.68575680  0.08249549  0.46884375  1
  O  O51  1  0.72025249  0.89922245  0.73437007  1
  O  O52  1  0.75493196  0.98733560  0.00437999  1
  O  O53  1  0.74506804  0.48733560  0.49562001  1
  O  O54  1  0.77974751  0.39922245  0.76562993  1
  O  O55  1  0.79263341  0.09453738  0.76238927  1
  O  O56  1  0.87816973  0.74494198  0.86794048  1
  O  O57  1  0.85562983  0.76706445  0.57874417  1
  O  O58  1  0.81424320  0.58249549  0.03115625  1
  O  O59  1  0.84212696  0.68985621  0.31114307  1
  O  O60  1  0.84534144  0.89803489  0.34617310  1
  O  O61  1  0.90522890  0.21909513  0.57324164  1
  O  O62  1  0.99362980  0.53050071  0.70380864  1
  O  O63  1  0.96676817  0.10113725  0.24469159  1
