# generated using pymatgen
data_Li9Mn2Co5O16
_symmetry_space_group_name_H-M   'P 1'
_cell_length_a   5.19266303
_cell_length_b   6.44136100
_cell_length_c   8.61937872
_cell_angle_alpha   82.86180811
_cell_angle_beta   94.31833428
_cell_angle_gamma   84.25705415
_symmetry_Int_Tables_number   1
_chemical_formula_structural   Li9Mn2Co5O16
_chemical_formula_sum   'Li9 Mn2 Co5 O16'
_cell_volume   283.50303778
_cell_formula_units_Z   1
loop_
 _symmetry_equiv_pos_site_id
 _symmetry_equiv_pos_as_xyz
  1  'x, y, z'
loop_
 _atom_site_type_symbol
 _atom_site_label
 _atom_site_symmetry_multiplicity
 _atom_site_fract_x
 _atom_site_fract_y
 _atom_site_fract_z
 _atom_site_occupancy
  Li  Li0  1  0.25340821  0.54998892  0.07024946  1
  Li  Li1  1  0.74585175  0.94173836  0.43584192  1
  Li  Li2  1  0.23918564  0.32444816  0.80827451  1
  Li  Li3  1  0.75218541  0.43542370  0.94148272  1
  Li  Li4  1  0.24569961  0.81219794  0.31455598  1
  Li  Li5  1  0.75445179  0.19132966  0.67756321  1
  Li  Li6  1  0.75184163  0.66921695  0.20002546  1
  Li  Li7  1  0.25355307  0.07436943  0.55101762  1
  Li  Li8  1  0.49928448  0.37225087  0.37350968  1
  Mn  Mn9  1  0.00033695  0.00139246  0.00240661  1
  Mn  Mn10  1  0.49968811  0.87231572  0.87201152  1
  Co  Co11  1  0.99988499  0.75058256  0.74867194  1
  Co  Co12  1  0.50019716  0.13024166  0.13085266  1
  Co  Co13  1  0.00050206  0.50105218  0.50087972  1
  Co  Co14  1  0.99718278  0.25210330  0.25363046  1
  Co  Co15  1  0.50013216  0.62437878  0.62209508  1
  O  O16  1  0.89621298  0.73005678  0.96293653  1
  O  O17  1  0.37650240  0.09684498  0.32644047  1
  O  O18  1  0.88925514  0.48597314  0.70928627  1
  O  O19  1  0.38601062  0.60491877  0.83193747  1
  O  O20  1  0.89204956  0.98026976  0.21115611  1
  O  O21  1  0.34801242  0.37438398  0.58540043  1
  O  O22  1  0.35465152  0.86746100  0.07870371  1
  O  O23  1  0.90003992  0.23540479  0.46442562  1
  O  O24  1  0.62436819  0.38714847  0.15528458  1
  O  O25  1  0.11050433  0.76709261  0.54133918  1
  O  O26  1  0.64627139  0.13020903  0.92226661  1
  O  O27  1  0.11024241  0.26865142  0.03374522  1
  O  O28  1  0.65500710  0.63594475  0.42791263  1
  O  O29  1  0.10408685  0.02088001  0.78951861  1
  O  O30  1  0.09954874  0.51727448  0.29469514  1
  O  O31  1  0.61385065  0.89445534  0.66188288  1
