# generated using pymatgen
data_Li2Fe(CO3)2
_symmetry_space_group_name_H-M   'P 1'
_cell_length_a   5.22272798
_cell_length_b   6.79741998
_cell_length_c   7.71090155
_cell_angle_alpha   90.01015520
_cell_angle_beta   89.98066041
_cell_angle_gamma   110.40346519
_symmetry_Int_Tables_number   1
_chemical_formula_structural   Li2Fe(CO3)2
_chemical_formula_sum   'Li4 Fe2 C4 O12'
_cell_volume   256.57075125
_cell_formula_units_Z   2
loop_
 _symmetry_equiv_pos_site_id
 _symmetry_equiv_pos_as_xyz
  1  'x, y, z'
loop_
 _atom_site_type_symbol
 _atom_site_label
 _atom_site_symmetry_multiplicity
 _atom_site_fract_x
 _atom_site_fract_y
 _atom_site_fract_z
 _atom_site_occupancy
  Li  Li0  1  0.63900772  0.23303111  0.08345522  1
  Li  Li1  1  0.86109470  0.26692050  0.58350990  1
  Li  Li2  1  0.13889937  0.73307399  0.41648789  1
  Li  Li3  1  0.36099170  0.76696757  0.91654295  1
  Fe  Fe4  1  -0.00000030  0.99999850  0.99999615  1
  Fe  Fe5  1  0.50000451  0.50000242  0.50000187  1
  C  C6  1  0.30248437  0.14251236  0.73152067  1
  C  C7  1  0.19757952  0.35753954  0.23167639  1
  C  C8  1  0.80241851  0.64245878  0.76832339  1
  C  C9  1  0.69750956  0.85748671  0.26847697  1
  O  O10  1  0.40089439  0.08648166  0.87185640  1
  O  O11  1  0.04373758  0.29417760  0.09600994  1
  O  O12  1  0.45629864  0.20578053  0.59603181  1
  O  O13  1  0.09908714  0.41355323  0.37183038  1
  O  O14  1  0.04948698  0.12875011  0.73348494  1
  O  O15  1  0.45050166  0.37116670  0.23352298  1
  O  O16  1  0.54949697  0.62883063  0.76647622  1
  O  O17  1  0.95051112  0.87124955  0.26651502  1
  O  O18  1  0.90091614  0.58645077  0.62816911  1
  O  O19  1  0.54369674  0.79421995  0.40396248  1
  O  O20  1  0.95626288  0.70581973  0.90399332  1
  O  O21  1  0.59910609  0.91351706  0.12813801  1
