# generated using pymatgen
data_LiTa3O8
_symmetry_space_group_name_H-M   'P 1'
_cell_length_a   5.10594858
_cell_length_b   7.55570711
_cell_length_c   7.55570711
_cell_angle_alpha   101.77980274
_cell_angle_beta   90.67119025
_cell_angle_gamma   90.67119016
_symmetry_Int_Tables_number   1
_chemical_formula_structural   LiTa3O8
_chemical_formula_sum   'Li2 Ta6 O16'
_cell_volume   285.30381958
_cell_formula_units_Z   2
loop_
 _symmetry_equiv_pos_site_id
 _symmetry_equiv_pos_as_xyz
  1  'x, y, z'
loop_
 _atom_site_type_symbol
 _atom_site_label
 _atom_site_symmetry_multiplicity
 _atom_site_fract_x
 _atom_site_fract_y
 _atom_site_fract_z
 _atom_site_occupancy
  Li  Li0  1  0.25000000  0.84475576  0.15524424  1
  Li  Li1  1  0.75000000  0.15524424  0.84475576  1
  O  O2  1  0.39143119  0.07942051  0.68652401  1
  O  O3  1  0.10856881  0.31347599  0.92057949  1
  O  O4  1  0.60856881  0.92057949  0.31347599  1
  O  O5  1  0.89143119  0.68652401  0.07942051  1
  O  O6  1  0.56141783  0.19557177  0.09893830  1
  O  O7  1  0.93858217  0.90106170  0.80442823  1
  O  O8  1  0.43858217  0.80442823  0.90106170  1
  O  O9  1  0.06141783  0.09893830  0.19557177  1
  O  O10  1  0.57511827  0.43961360  0.79247745  1
  O  O11  1  0.92488173  0.20752255  0.56038640  1
  O  O12  1  0.42488173  0.56038640  0.20752255  1
  O  O13  1  0.07511827  0.79247745  0.43961360  1
  O  O14  1  0.91707158  0.43231354  0.30257100  1
  O  O15  1  0.58292842  0.69742900  0.56768646  1
  O  O16  1  0.08292842  0.56768646  0.69742900  1
  O  O17  1  0.41707158  0.30257100  0.43231354  1
  Ta  Ta18  1  0.25000000  0.32994815  0.67005185  1
  Ta  Ta19  1  0.75000000  0.67005185  0.32994815  1
  Ta  Ta20  1  0.25540663  0.84440928  0.67216396  1
  Ta  Ta21  1  0.24459337  0.32783604  0.15559072  1
  Ta  Ta22  1  0.74459337  0.15559072  0.32783604  1
  Ta  Ta23  1  0.75540663  0.67216396  0.84440928  1
