# generated using pymatgen
data_LiVCrP2(HO5)2
_symmetry_space_group_name_H-M   'P 1'
_cell_length_a   5.31462852
_cell_length_b   7.36737963
_cell_length_c   5.20596810
_cell_angle_alpha   109.71857712
_cell_angle_beta   98.19618151
_cell_angle_gamma   106.02524031
_symmetry_Int_Tables_number   1
_chemical_formula_structural   LiVCrP2(HO5)2
_chemical_formula_sum   'Li1 V1 Cr1 P2 H2 O10'
_cell_volume   178.06130603
_cell_formula_units_Z   1
loop_
 _symmetry_equiv_pos_site_id
 _symmetry_equiv_pos_as_xyz
  1  'x, y, z'
loop_
 _atom_site_type_symbol
 _atom_site_label
 _atom_site_symmetry_multiplicity
 _atom_site_fract_x
 _atom_site_fract_y
 _atom_site_fract_z
 _atom_site_occupancy
  Li  Li0  1  0.58907530  0.15112317  0.22328399  1
  V  V1  1  0.00353953  0.50595850  0.00176092  1
  Cr  Cr2  1  0.99539663  0.99877516  0.00049163  1
  P  P3  1  0.35224174  0.22851501  0.68075352  1
  P  P4  1  0.64869569  0.77540945  0.32653996  1
  H  H5  1  0.05951593  0.34624017  0.35487022  1
  H  H6  1  0.96883098  0.66224698  0.64814552  1
  O  O7  1  0.02559932  0.71783800  0.85667362  1
  O  O8  1  0.19083504  0.38024850  0.72076362  1
  O  O9  1  0.34306204  0.65005490  0.27541913  1
  O  O10  1  0.25080067  0.07160503  0.37139414  1
  O  O11  1  0.33011856  0.12820398  0.89562855  1
  O  O12  1  0.67019051  0.88939372  0.12662401  1
  O  O13  1  0.75841190  0.93013616  0.63173812  1
  O  O14  1  0.65741526  0.34208013  0.71231068  1
  O  O15  1  0.80478461  0.61908975  0.27116753  1
  O  O16  1  0.95291229  0.28052538  0.15423586  1
