# generated using pymatgen
data_Li2VFeP2(O4F)2
_symmetry_space_group_name_H-M   'P 1'
_cell_length_a   5.24306160
_cell_length_b   10.77144224
_cell_length_c   7.42833034
_cell_angle_alpha   72.99842206
_cell_angle_beta   71.14987392
_cell_angle_gamma   97.67579071
_symmetry_Int_Tables_number   1
_chemical_formula_structural   Li2VFeP2(O4F)2
_chemical_formula_sum   'Li4 V2 Fe2 P4 O16 F4'
_cell_volume   367.41604629
_cell_formula_units_Z   2
loop_
 _symmetry_equiv_pos_site_id
 _symmetry_equiv_pos_as_xyz
  1  'x, y, z'
loop_
 _atom_site_type_symbol
 _atom_site_label
 _atom_site_symmetry_multiplicity
 _atom_site_fract_x
 _atom_site_fract_y
 _atom_site_fract_z
 _atom_site_occupancy
  Li  Li0  1  0.27257069  0.80885440  0.81101944  1
  Li  Li1  1  0.27219966  0.30779305  0.80827743  1
  Li  Li2  1  0.72780034  0.69220695  0.19172257  1
  Li  Li3  1  0.72742931  0.19114560  0.18898056  1
  V  V4  1  0.00000000  0.50000000  0.00000000  1
  V  V5  1  0.00000000  0.00000000  0.50000000  1
  Fe  Fe6  1  0.00000000  0.00000000  0.00000000  1
  Fe  Fe7  1  0.00000000  0.50000000  0.50000000  1
  P  P8  1  0.32280826  0.82072800  0.23669016  1
  P  P9  1  0.32323338  0.32107736  0.23809476  1
  P  P10  1  0.67676662  0.67892264  0.76190524  1
  P  P11  1  0.67719174  0.17927200  0.76330984  1
  O  O12  1  0.13041559  0.83406077  0.11094974  1
  O  O13  1  0.13430826  0.33490627  0.11011511  1
  O  O14  1  0.24892408  0.89311036  0.38936547  1
  O  O15  1  0.30537764  0.67070094  0.34120638  1
  O  O16  1  0.24842954  0.39364511  0.38982817  1
  O  O17  1  0.30619522  0.17096206  0.34314639  1
  O  O18  1  0.63333480  0.87748447  0.08818846  1
  O  O19  1  0.63319293  0.37541890  0.08945761  1
  O  O20  1  0.36680707  0.62458110  0.91054239  1
  O  O21  1  0.36666520  0.12251553  0.91181154  1
  O  O22  1  0.69380478  0.82903794  0.65685361  1
  O  O23  1  0.75157046  0.60635489  0.61017183  1
  O  O24  1  0.69462236  0.32929906  0.65879362  1
  O  O25  1  0.75107592  0.10688964  0.61063453  1
  O  O26  1  0.86569174  0.66509373  0.88988489  1
  O  O27  1  0.86958441  0.16593923  0.88905026  1
  F  F28  1  0.12695801  0.96306833  0.74041864  1
  F  F29  1  0.12733087  0.46303029  0.73434052  1
  F  F30  1  0.87266913  0.53696971  0.26565948  1
  F  F31  1  0.87304199  0.03693167  0.25958136  1
