# generated using pymatgen
data_LiBi3(BrO2)2
_symmetry_space_group_name_H-M   'P 1'
_cell_length_a   5.55648171
_cell_length_b   7.04609305
_cell_length_c   11.07732552
_cell_angle_alpha   90.00000000
_cell_angle_beta   90.00000000
_cell_angle_gamma   113.22202640
_symmetry_Int_Tables_number   1
_chemical_formula_structural   LiBi3(BrO2)2
_chemical_formula_sum   'Li2 Bi6 Br4 O8'
_cell_volume   398.55755895
_cell_formula_units_Z   2
loop_
 _symmetry_equiv_pos_site_id
 _symmetry_equiv_pos_as_xyz
  1  'x, y, z'
loop_
 _atom_site_type_symbol
 _atom_site_label
 _atom_site_symmetry_multiplicity
 _atom_site_fract_x
 _atom_site_fract_y
 _atom_site_fract_z
 _atom_site_occupancy
  Li  Li0  1  0.78683103  0.57366107  0.00000000  1
  Li  Li1  1  0.21316897  0.42633893  0.50000000  1
  Bi  Bi2  1  0.15182802  0.30365704  0.00000000  1
  Bi  Bi3  1  0.66144974  0.32289848  0.25571817  1
  Bi  Bi4  1  0.33855026  0.67710152  0.24428183  1
  Bi  Bi5  1  0.84817198  0.69634296  0.50000000  1
  Bi  Bi6  1  0.66144974  0.32289848  0.74428183  1
  Bi  Bi7  1  0.33855026  0.67710152  0.75571817  1
  Br  Br8  1  0.50948056  0.01896211  0.00000000  1
  Br  Br9  1  0.00000000  0.00000000  0.25000000  1
  Br  Br10  1  0.49051944  0.98103789  0.50000000  1
  Br  Br11  1  0.00000000  0.00000000  0.75000000  1
  O  O12  1  0.48934331  0.48585901  0.12647965  1
  O  O13  1  0.99651570  0.48585901  0.12647965  1
  O  O14  1  0.51065669  0.51414099  0.37352035  1
  O  O15  1  0.00348430  0.51414099  0.37352035  1
  O  O16  1  0.51065669  0.51414099  0.62647965  1
  O  O17  1  0.48934331  0.48585901  0.87352035  1
  O  O18  1  0.00348430  0.51414099  0.62647965  1
  O  O19  1  0.99651570  0.48585901  0.87352035  1
