# generated using pymatgen
data_Na3MgPCO7
_symmetry_space_group_name_H-M   'P 1'
_cell_length_a   5.23497312
_cell_length_b   6.68777940
_cell_length_c   8.90867173
_cell_angle_alpha   90.00000000
_cell_angle_beta   89.06478922
_cell_angle_gamma   90.00000000
_symmetry_Int_Tables_number   1
_chemical_formula_structural   Na3MgPCO7
_chemical_formula_sum   'Na6 Mg2 P2 C2 O14'
_cell_volume   311.85412681
_cell_formula_units_Z   2
loop_
 _symmetry_equiv_pos_site_id
 _symmetry_equiv_pos_as_xyz
  1  'x, y, z'
loop_
 _atom_site_type_symbol
 _atom_site_label
 _atom_site_symmetry_multiplicity
 _atom_site_fract_x
 _atom_site_fract_y
 _atom_site_fract_z
 _atom_site_occupancy
  Na  Na0  1  0.25569777  0.49454187  0.26491670  1
  Na  Na1  1  0.74430223  0.99454187  0.73508330  1
  Na  Na2  1  0.74430223  0.50545813  0.73508330  1
  Na  Na3  1  0.25569777  0.00545813  0.26491670  1
  Na  Na4  1  0.23620124  0.75000000  0.91626209  1
  Na  Na5  1  0.76379876  0.25000000  0.08373791  1
  Mg  Mg6  1  0.21447982  0.25000000  0.64465780  1
  Mg  Mg7  1  0.78552018  0.75000000  0.35534220  1
  P  P8  1  0.28759238  0.75000000  0.58233056  1
  P  P9  1  0.71240762  0.25000000  0.41766944  1
  C  C10  1  0.26762726  0.25000000  0.93535186  1
  C  C11  1  0.73237274  0.75000000  0.06464814  1
  O  O12  1  0.04301617  0.25000000  0.87474360  1
  O  O13  1  0.95698383  0.75000000  0.12525640  1
  O  O14  1  0.46832502  0.25000000  0.84651870  1
  O  O15  1  0.53167498  0.75000000  0.15348130  1
  O  O16  1  0.29191187  0.25000000  0.07959356  1
  O  O17  1  0.70808813  0.75000000  0.92040644  1
  O  O18  1  0.21294184  0.93688450  0.67764785  1
  O  O19  1  0.78705816  0.43688450  0.32235215  1
  O  O20  1  0.78705816  0.06311550  0.32235215  1
  O  O21  1  0.21294184  0.56311550  0.67764785  1
  O  O22  1  0.15130267  0.75000000  0.42942324  1
  O  O23  1  0.84869733  0.25000000  0.57057676  1
  O  O24  1  0.41758455  0.25000000  0.44742923  1
  O  O25  1  0.58241545  0.75000000  0.55257077  1
