# generated using pymatgen
data_Na2BiPCO7
_symmetry_space_group_name_H-M   'P 1'
_cell_length_a   9.42033950
_cell_length_b   6.99734826
_cell_length_c   5.30161853
_cell_angle_alpha   90.00000000
_cell_angle_beta   91.85852769
_cell_angle_gamma   90.00000000
_symmetry_Int_Tables_number   1
_chemical_formula_structural   Na2BiPCO7
_chemical_formula_sum   'Na4 Bi2 P2 C2 O14'
_cell_volume   349.28505196
_cell_formula_units_Z   2
loop_
 _symmetry_equiv_pos_site_id
 _symmetry_equiv_pos_as_xyz
  1  'x, y, z'
loop_
 _atom_site_type_symbol
 _atom_site_label
 _atom_site_symmetry_multiplicity
 _atom_site_fract_x
 _atom_site_fract_y
 _atom_site_fract_z
 _atom_site_occupancy
  Na  Na0  1  0.21323598  0.48978008  0.23320751  1
  Na  Na1  1  0.21323598  0.01021992  0.23320751  1
  Na  Na2  1  0.78676402  0.51021992  0.76679249  1
  Na  Na3  1  0.78676402  0.98978008  0.76679249  1
  Bi  Bi4  1  0.38058738  0.75000000  0.77603640  1
  Bi  Bi5  1  0.61941262  0.25000000  0.22396360  1
  P  P6  1  0.40258511  0.25000000  0.72340746  1
  P  P7  1  0.59741489  0.75000000  0.27659254  1
  C  C8  1  0.08538990  0.75000000  0.72901055  1
  C  C9  1  0.91461010  0.25000000  0.27098945  1
  O  O10  1  0.04736853  0.25000000  0.28487565  1
  O  O11  1  0.15787744  0.75000000  0.94821369  1
  O  O12  1  0.16596445  0.75000000  0.52827350  1
  O  O13  1  0.33941266  0.07218793  0.85623014  1
  O  O14  1  0.33941266  0.42781207  0.85623014  1
  O  O15  1  0.43018585  0.75000000  0.23287021  1
  O  O16  1  0.36994064  0.25000000  0.43641015  1
  O  O17  1  0.63005936  0.75000000  0.56358985  1
  O  O18  1  0.56981415  0.25000000  0.76712979  1
  O  O19  1  0.66058734  0.57218793  0.14376986  1
  O  O20  1  0.66058734  0.92781207  0.14376986  1
  O  O21  1  0.83403555  0.25000000  0.47172650  1
  O  O22  1  0.84212256  0.25000000  0.05178631  1
  O  O23  1  0.95263147  0.75000000  0.71512435  1
