# generated using pymatgen
data_Na2AlPCO7
_symmetry_space_group_name_H-M   'P 1'
_cell_length_a   8.88698462
_cell_length_b   6.40359332
_cell_length_c   5.17166713
_cell_angle_alpha   90.00000000
_cell_angle_beta   88.22095209
_cell_angle_gamma   90.00000000
_symmetry_Int_Tables_number   1
_chemical_formula_structural   Na2AlPCO7
_chemical_formula_sum   'Na4 Al2 P2 C2 O14'
_cell_volume   294.17065427
_cell_formula_units_Z   2
loop_
 _symmetry_equiv_pos_site_id
 _symmetry_equiv_pos_as_xyz
  1  'x, y, z'
loop_
 _atom_site_type_symbol
 _atom_site_label
 _atom_site_symmetry_multiplicity
 _atom_site_fract_x
 _atom_site_fract_y
 _atom_site_fract_z
 _atom_site_occupancy
  Na  Na0  1  0.22773636  0.49529494  0.23691561  1
  Na  Na1  1  0.22773636  0.00470506  0.23691561  1
  Na  Na2  1  0.77226364  0.50470506  0.76308439  1
  Na  Na3  1  0.77226364  0.99529494  0.76308439  1
  Al  Al4  1  0.34995562  0.75000000  0.78260724  1
  Al  Al5  1  0.65004438  0.25000000  0.21739276  1
  P  P6  1  0.43043684  0.25000000  0.72078220  1
  P  P7  1  0.56956316  0.75000000  0.27921780  1
  C  C8  1  0.08338226  0.75000000  0.72790395  1
  C  C9  1  0.91661774  0.25000000  0.27209605  1
  O  O10  1  0.05500658  0.25000000  0.30834948  1
  O  O11  1  0.14557268  0.75000000  0.95490145  1
  O  O12  1  0.18782267  0.75000000  0.53818168  1
  O  O13  1  0.33593647  0.05359478  0.78459790  1
  O  O14  1  0.33593647  0.44640522  0.78459790  1
  O  O15  1  0.42330657  0.75000000  0.12052698  1
  O  O16  1  0.47523049  0.25000000  0.42511217  1
  O  O17  1  0.52476951  0.75000000  0.57488783  1
  O  O18  1  0.57669343  0.25000000  0.87947302  1
  O  O19  1  0.66406353  0.55359478  0.21540210  1
  O  O20  1  0.66406353  0.94640522  0.21540210  1
  O  O21  1  0.81217733  0.25000000  0.46181832  1
  O  O22  1  0.85442732  0.25000000  0.04509855  1
  O  O23  1  0.94499342  0.75000000  0.69165052  1
