# generated using pymatgen
data_Be2GeO4
_symmetry_space_group_name_H-M   'P 1'
_cell_length_a   7.95781808
_cell_length_b   7.95781807
_cell_length_c   7.95781838
_cell_angle_alpha   107.99041895
_cell_angle_beta   107.99041891
_cell_angle_gamma   107.99042561
_symmetry_Int_Tables_number   1
_chemical_formula_structural   Be2GeO4
_chemical_formula_sum   'Be12 Ge6 O24'
_cell_volume   407.81917052
_cell_formula_units_Z   6
loop_
 _symmetry_equiv_pos_site_id
 _symmetry_equiv_pos_as_xyz
  1  'x, y, z'
loop_
 _atom_site_type_symbol
 _atom_site_label
 _atom_site_symmetry_multiplicity
 _atom_site_fract_x
 _atom_site_fract_y
 _atom_site_fract_z
 _atom_site_occupancy
  Be  Be0  1  0.11042176  0.92938256  0.70703111  1
  Be  Be1  1  0.29296889  0.88957824  0.07061744  1
  Be  Be2  1  0.37182044  0.77822550  0.60476506  1
  Be  Be3  1  0.07061744  0.29296889  0.88957824  1
  Be  Be4  1  0.39523494  0.62817956  0.22177450  1
  Be  Be5  1  0.22177450  0.39523494  0.62817956  1
  Be  Be6  1  0.77822550  0.60476506  0.37182044  1
  Be  Be7  1  0.60476506  0.37182044  0.77822550  1
  Be  Be8  1  0.92938256  0.70703111  0.11042176  1
  Be  Be9  1  0.62817956  0.22177450  0.39523494  1
  Be  Be10  1  0.70703111  0.11042176  0.92938256  1
  Be  Be11  1  0.88957824  0.07061744  0.29296889  1
  Ge  Ge12  1  0.03729092  0.44460661  0.26767520  1
  Ge  Ge13  1  0.73232480  0.96270908  0.55539339  1
  Ge  Ge14  1  0.55539339  0.73232480  0.96270908  1
  Ge  Ge15  1  0.44460661  0.26767520  0.03729092  1
  Ge  Ge16  1  0.26767520  0.03729092  0.44460661  1
  Ge  Ge17  1  0.96270908  0.55539339  0.73232480  1
  O  O18  1  0.16290900  0.86369244  0.19399946  1
  O  O19  1  0.24887728  0.91107931  0.59143405  1
  O  O20  1  0.13630756  0.80600054  0.83709100  1
  O  O21  1  0.08892069  0.40856595  0.75112272  1
  O  O22  1  0.21201598  0.54336821  0.51872479  1
  O  O23  1  0.54475572  0.87601955  0.83087297  1
  O  O24  1  0.16912703  0.45524428  0.12398045  1
  O  O25  1  0.40856595  0.75112272  0.08892069  1
  O  O26  1  0.48127521  0.78798402  0.45663179  1
  O  O27  1  0.45663179  0.48127521  0.78798402  1
  O  O28  1  0.80600054  0.83709100  0.13630756  1
  O  O29  1  0.12398045  0.16912703  0.45524428  1
  O  O30  1  0.87601955  0.83087297  0.54475572  1
  O  O31  1  0.19399946  0.16290900  0.86369244  1
  O  O32  1  0.54336821  0.51872479  0.21201598  1
  O  O33  1  0.51872479  0.21201598  0.54336821  1
  O  O34  1  0.59143405  0.24887728  0.91107931  1
  O  O35  1  0.83087297  0.54475572  0.87601955  1
  O  O36  1  0.45524428  0.12398045  0.16912703  1
  O  O37  1  0.78798402  0.45663179  0.48127521  1
  O  O38  1  0.91107931  0.59143405  0.24887728  1
  O  O39  1  0.86369244  0.19399946  0.16290900  1
  O  O40  1  0.75112272  0.08892069  0.40856595  1
  O  O41  1  0.83709100  0.13630756  0.80600054  1
