# generated using pymatgen
data_Dy2TeO6
_symmetry_space_group_name_H-M   'P 1'
_cell_length_a   5.32125730
_cell_length_b   9.13300869
_cell_length_c   10.02224517
_cell_angle_alpha   90.00000000
_cell_angle_beta   90.00000000
_cell_angle_gamma   90.00000000
_symmetry_Int_Tables_number   1
_chemical_formula_structural   Dy2TeO6
_chemical_formula_sum   'Dy8 Te4 O24'
_cell_volume   487.07198663
_cell_formula_units_Z   4
loop_
 _symmetry_equiv_pos_site_id
 _symmetry_equiv_pos_as_xyz
  1  'x, y, z'
loop_
 _atom_site_type_symbol
 _atom_site_label
 _atom_site_symmetry_multiplicity
 _atom_site_fract_x
 _atom_site_fract_y
 _atom_site_fract_z
 _atom_site_occupancy
  Dy  Dy0  1  0.02558597  0.39681574  0.03930308  1
  Dy  Dy1  1  0.03499153  0.28209335  0.63503707  1
  Dy  Dy2  1  0.46500847  0.71790665  0.13503707  1
  Dy  Dy3  1  0.47441403  0.60318426  0.53930308  1
  Dy  Dy4  1  0.52558597  0.10318426  0.96069692  1
  Dy  Dy5  1  0.53499153  0.21790665  0.36496293  1
  Dy  Dy6  1  0.96500847  0.78209335  0.86496293  1
  Dy  Dy7  1  0.97441403  0.89681574  0.46069692  1
  Te  Te8  1  0.04106928  0.00534356  0.14648779  1
  Te  Te9  1  0.45893072  0.99465644  0.64648779  1
  Te  Te10  1  0.54106928  0.49465644  0.85351221  1
  Te  Te11  1  0.95893072  0.50534356  0.35351221  1
  O  O12  1  0.07970897  0.65494873  0.47524164  1
  O  O13  1  0.17562200  0.54952548  0.20493942  1
  O  O14  1  0.18645838  0.85902412  0.26253269  1
  O  O15  1  0.18204523  0.85770474  0.67875699  1
  O  O16  1  0.22630117  0.38486837  0.43622259  1
  O  O17  1  0.24781427  0.08687132  0.50639466  1
  O  O18  1  0.25218573  0.91312868  0.00639466  1
  O  O19  1  0.27369883  0.61513163  0.93622259  1
  O  O20  1  0.31795477  0.14229526  0.17875699  1
  O  O21  1  0.31354162  0.14097588  0.76253269  1
  O  O22  1  0.32437800  0.45047452  0.70493942  1
  O  O23  1  0.42029103  0.34505127  0.97524164  1
  O  O24  1  0.57970897  0.84505127  0.52475836  1
  O  O25  1  0.67562200  0.95047452  0.79506058  1
  O  O26  1  0.68645838  0.64097588  0.73746731  1
  O  O27  1  0.68204523  0.64229526  0.32124301  1
  O  O28  1  0.72630117  0.11513163  0.56377741  1
  O  O29  1  0.74781427  0.41312868  0.49360534  1
  O  O30  1  0.75218573  0.58687132  0.99360534  1
  O  O31  1  0.77369883  0.88486837  0.06377741  1
  O  O32  1  0.81795477  0.35770474  0.82124301  1
  O  O33  1  0.81354162  0.35902412  0.23746731  1
  O  O34  1  0.82437800  0.04952548  0.29506058  1
  O  O35  1  0.92029103  0.15494873  0.02475836  1
