# generated using pymatgen
data_Na2GaPCO7
_symmetry_space_group_name_H-M   'P 1'
_cell_length_a   8.96434155
_cell_length_b   6.52562302
_cell_length_c   5.17517997
_cell_angle_alpha   90.00000000
_cell_angle_beta   89.53389570
_cell_angle_gamma   90.00000000
_symmetry_Int_Tables_number   1
_chemical_formula_structural   Na2GaPCO7
_chemical_formula_sum   'Na4 Ga2 P2 C2 O14'
_cell_volume   302.72721344
_cell_formula_units_Z   2
loop_
 _symmetry_equiv_pos_site_id
 _symmetry_equiv_pos_as_xyz
  1  'x, y, z'
loop_
 _atom_site_type_symbol
 _atom_site_label
 _atom_site_symmetry_multiplicity
 _atom_site_fract_x
 _atom_site_fract_y
 _atom_site_fract_z
 _atom_site_occupancy
  Na  Na0  1  0.22791292  0.49689452  0.23308414  1
  Na  Na1  1  0.22791292  0.00310548  0.23308414  1
  Na  Na2  1  0.77208708  0.50310548  0.76691586  1
  Na  Na3  1  0.77208708  0.99689452  0.76691586  1
  Ga  Ga4  1  0.35170238  0.75000000  0.77818966  1
  Ga  Ga5  1  0.64829762  0.25000000  0.22181034  1
  P  P6  1  0.42726702  0.25000000  0.71450333  1
  P  P7  1  0.57273298  0.75000000  0.28549667  1
  C  C8  1  0.07720350  0.75000000  0.73104553  1
  C  C9  1  0.92279650  0.25000000  0.26895447  1
  O  O10  1  0.06190149  0.25000000  0.30051517  1
  O  O11  1  0.14252469  0.75000000  0.95645032  1
  O  O12  1  0.17427508  0.75000000  0.53516327  1
  O  O13  1  0.33499706  0.05854814  0.78792820  1
  O  O14  1  0.33499706  0.44145186  0.78792820  1
  O  O15  1  0.41976976  0.75000000  0.14418573  1
  O  O16  1  0.45873969  0.25000000  0.41395791  1
  O  O17  1  0.54126031  0.75000000  0.58604209  1
  O  O18  1  0.58023024  0.25000000  0.85581427  1
  O  O19  1  0.66500294  0.55854814  0.21207180  1
  O  O20  1  0.66500294  0.94145186  0.21207180  1
  O  O21  1  0.82572492  0.25000000  0.46483673  1
  O  O22  1  0.85747531  0.25000000  0.04354968  1
  O  O23  1  0.93809851  0.75000000  0.69948483  1
