# generated using pymatgen
data_Ce2TiO5
_symmetry_space_group_name_H-M   'P 1'
_cell_length_a   10.77342725
_cell_length_b   11.54250755
_cell_length_c   3.84674357
_cell_angle_alpha   90.00000000
_cell_angle_beta   90.00000000
_cell_angle_gamma   90.00000000
_symmetry_Int_Tables_number   1
_chemical_formula_structural   Ce2TiO5
_chemical_formula_sum   'Ce8 Ti4 O20'
_cell_volume   478.35166191
_cell_formula_units_Z   4
loop_
 _symmetry_equiv_pos_site_id
 _symmetry_equiv_pos_as_xyz
  1  'x, y, z'
loop_
 _atom_site_type_symbol
 _atom_site_label
 _atom_site_symmetry_multiplicity
 _atom_site_fract_x
 _atom_site_fract_y
 _atom_site_fract_z
 _atom_site_occupancy
  Ce  Ce0  1  0.10782154  0.72193045  0.25000000  1
  Ce  Ce1  1  0.13756245  0.05761174  0.25000000  1
  Ce  Ce2  1  0.36243755  0.55761174  0.75000000  1
  Ce  Ce3  1  0.39217846  0.22193045  0.75000000  1
  Ce  Ce4  1  0.60782154  0.77806955  0.25000000  1
  Ce  Ce5  1  0.63756245  0.44238826  0.25000000  1
  Ce  Ce6  1  0.86243755  0.94238826  0.75000000  1
  Ce  Ce7  1  0.89217846  0.27806955  0.75000000  1
  Ti  Ti8  1  0.18135778  0.37840788  0.25000000  1
  Ti  Ti9  1  0.31864222  0.87840788  0.75000000  1
  Ti  Ti10  1  0.68135778  0.12159212  0.25000000  1
  Ti  Ti11  1  0.81864222  0.62159212  0.75000000  1
  O  O12  1  0.00840460  0.10254903  0.75000000  1
  O  O13  1  0.01734416  0.33879685  0.25000000  1
  O  O14  1  0.22389574  0.54241662  0.25000000  1
  O  O15  1  0.23554289  0.38241246  0.75000000  1
  O  O16  1  0.23693065  0.72820904  0.75000000  1
  O  O17  1  0.26306935  0.22820904  0.25000000  1
  O  O18  1  0.26445711  0.88241246  0.25000000  1
  O  O19  1  0.27610426  0.04241662  0.75000000  1
  O  O20  1  0.48265584  0.83879685  0.75000000  1
  O  O21  1  0.49159540  0.60254903  0.25000000  1
  O  O22  1  0.50840460  0.39745097  0.75000000  1
  O  O23  1  0.51734416  0.16120315  0.25000000  1
  O  O24  1  0.72389574  0.95758338  0.25000000  1
  O  O25  1  0.73554289  0.11758754  0.75000000  1
  O  O26  1  0.73693065  0.77179096  0.75000000  1
  O  O27  1  0.76306935  0.27179096  0.25000000  1
  O  O28  1  0.76445711  0.61758754  0.25000000  1
  O  O29  1  0.77610426  0.45758338  0.75000000  1
  O  O30  1  0.98265584  0.66120315  0.75000000  1
  O  O31  1  0.99159540  0.89745097  0.25000000  1
