# generated using pymatgen
data_Li9Mn2Co5O16
_symmetry_space_group_name_H-M   'P 1'
_cell_length_a   5.14441104
_cell_length_b   10.06751257
_cell_length_c   5.93830494
_cell_angle_alpha   87.80948345
_cell_angle_beta   71.11925776
_cell_angle_gamma   79.16834252
_symmetry_Int_Tables_number   1
_chemical_formula_structural   Li9Mn2Co5O16
_chemical_formula_sum   'Li9 Mn2 Co5 O16'
_cell_volume   285.73598237
_cell_formula_units_Z   1
loop_
 _symmetry_equiv_pos_site_id
 _symmetry_equiv_pos_as_xyz
  1  'x, y, z'
loop_
 _atom_site_type_symbol
 _atom_site_label
 _atom_site_symmetry_multiplicity
 _atom_site_fract_x
 _atom_site_fract_y
 _atom_site_fract_z
 _atom_site_occupancy
  Li  Li0  1  0.99828439  0.00290965  0.50046227  1
  Li  Li1  1  0.99710623  0.25869612  0.25468603  1
  Li  Li2  1  0.50949414  0.87240461  0.62586059  1
  Li  Li3  1  0.49212256  0.12466455  0.37850920  1
  Li  Li4  1  0.00333374  0.73969755  0.74496786  1
  Li  Li5  1  0.50065766  0.62163364  0.86203775  1
  Li  Li6  1  0.00324094  0.49763258  0.00191487  1
  Li  Li7  1  0.49720310  0.38104311  0.13295888  1
  Li  Li8  1  -0.00007136  0.50079828  0.49907283  1
  Mn  Mn9  1  0.99916064  0.00148848  0.00003732  1
  Mn  Mn10  1  0.00088659  0.74524643  0.25350947  1
  Co  Co11  1  0.00027248  0.25161564  0.74884160  1
  Co  Co12  1  0.49988186  0.87597359  0.12347031  1
  Co  Co13  1  0.49878663  0.12505276  0.87729989  1
  Co  Co14  1  0.50341156  0.37929592  0.62008081  1
  Co  Co15  1  0.49719597  0.62109422  0.37645127  1
  O  O16  1  0.77195823  0.93297834  0.29940570  1
  O  O17  1  0.77300839  0.18458661  0.04268746  1
  O  O18  1  0.25463106  0.80238749  0.40600466  1
  O  O19  1  0.28112361  0.05693007  0.17303932  1
  O  O20  1  0.76424684  0.69350746  0.54304567  1
  O  O21  1  0.27695302  0.56248358  0.66905499  1
  O  O22  1  0.75471050  0.41663990  0.80308049  1
  O  O23  1  0.24530705  0.29857772  0.91666187  1
  O  O24  1  0.22705618  0.07132073  0.70257719  1
  O  O25  1  0.24355713  0.30723517  0.47056098  1
  O  O26  1  0.71646031  0.94461412  0.83009265  1
  O  O27  1  0.75562845  0.19140486  0.59431316  1
  O  O28  1  0.22542269  0.81894744  0.95175016  1
  O  O29  1  0.74654485  0.69794621  0.09276846  1
  O  O30  1  0.24066822  0.57555597  0.18407066  1
  O  O31  1  0.72175636  0.44563719  0.32072563  1
