# generated using pymatgen
data_Dy(ClO4)3
_symmetry_space_group_name_H-M   'P 1'
_cell_length_a   9.49029582
_cell_length_b   9.49029582
_cell_length_c   9.49029625
_cell_angle_alpha   51.71795487
_cell_angle_beta   51.71795487
_cell_angle_gamma   51.71795198
_symmetry_Int_Tables_number   1
_chemical_formula_structural   Dy(ClO4)3
_chemical_formula_sum   'Dy2 Cl6 O24'
_cell_volume   486.61963468
_cell_formula_units_Z   2
loop_
 _symmetry_equiv_pos_site_id
 _symmetry_equiv_pos_as_xyz
  1  'x, y, z'
loop_
 _atom_site_type_symbol
 _atom_site_label
 _atom_site_symmetry_multiplicity
 _atom_site_fract_x
 _atom_site_fract_y
 _atom_site_fract_z
 _atom_site_occupancy
  Dy  Dy0  1  0.05827377  0.05827377  0.05827377  1
  Dy  Dy1  1  0.55827377  0.55827377  0.55827377  1
  Cl  Cl2  1  0.34494349  0.96604804  0.68975149  1
  Cl  Cl3  1  0.46604804  0.84494349  0.18975149  1
  Cl  Cl4  1  0.18975149  0.46604804  0.84494349  1
  Cl  Cl5  1  0.96604804  0.68975149  0.34494349  1
  Cl  Cl6  1  0.68975149  0.34494349  0.96604804  1
  Cl  Cl7  1  0.84494349  0.18975149  0.46604804  1
  O  O8  1  0.07600581  0.75275605  0.13162683  1
  O  O9  1  0.28240014  0.88539507  0.20234176  1
  O  O10  1  0.00021469  0.57395878  0.94763353  1
  O  O11  1  0.39254838  0.91840877  0.84020138  1
  O  O12  1  0.41840877  0.89254838  0.34020138  1
  O  O13  1  0.07395878  0.50021469  0.44763353  1
  O  O14  1  0.38539507  0.78240014  0.70234176  1
  O  O15  1  0.57395878  0.94763353  0.00021469  1
  O  O16  1  0.25275605  0.57600581  0.63162683  1
  O  O17  1  0.20234176  0.28240014  0.88539507  1
  O  O18  1  0.34020138  0.41840877  0.89254838  1
  O  O19  1  0.57600581  0.63162683  0.25275605  1
  O  O20  1  0.50021469  0.44763353  0.07395878  1
  O  O21  1  0.13162683  0.07600581  0.75275605  1
  O  O22  1  0.91840877  0.84020138  0.39254838  1
  O  O23  1  0.78240014  0.70234176  0.38539507  1
  O  O24  1  0.70234176  0.38539507  0.78240014  1
  O  O25  1  0.44763353  0.07395878  0.50021469  1
  O  O26  1  0.63162683  0.25275605  0.57600581  1
  O  O27  1  0.84020138  0.39254838  0.91840877  1
  O  O28  1  0.89254838  0.34020138  0.41840877  1
  O  O29  1  0.75275605  0.13162683  0.07600581  1
  O  O30  1  0.88539507  0.20234176  0.28240014  1
  O  O31  1  0.94763353  0.00021469  0.57395878  1
