# generated using pymatgen
data_Ho2(SeO3)3
_symmetry_space_group_name_H-M   'P 1'
_cell_length_a   7.08100322
_cell_length_b   8.11214740
_cell_length_c   9.06207519
_cell_angle_alpha   71.56958590
_cell_angle_beta   70.14575915
_cell_angle_gamma   65.93790202
_symmetry_Int_Tables_number   1
_chemical_formula_structural   Ho2(SeO3)3
_chemical_formula_sum   'Ho4 Se6 O18'
_cell_volume   437.38726996
_cell_formula_units_Z   2
loop_
 _symmetry_equiv_pos_site_id
 _symmetry_equiv_pos_as_xyz
  1  'x, y, z'
loop_
 _atom_site_type_symbol
 _atom_site_label
 _atom_site_symmetry_multiplicity
 _atom_site_fract_x
 _atom_site_fract_y
 _atom_site_fract_z
 _atom_site_occupancy
  Ho  Ho0  1  0.25827576  0.26493795  0.20194572  1
  Ho  Ho1  1  0.33372899  0.72853103  0.58968546  1
  Ho  Ho2  1  0.66627101  0.27146897  0.41031454  1
  Ho  Ho3  1  0.74172424  0.73506205  0.79805428  1
  Se  Se4  1  0.11261108  0.24278642  0.58632475  1
  Se  Se5  1  0.42780849  0.77546796  0.19754898  1
  Se  Se6  1  0.14580491  0.75277432  0.96515515  1
  Se  Se7  1  0.85419509  0.24722568  0.03484485  1
  Se  Se8  1  0.57219151  0.22453204  0.80245102  1
  Se  Se9  1  0.88738892  0.75721358  0.41367525  1
  O  O10  1  0.15737313  0.01403434  0.65553637  1
  O  O11  1  0.16648161  0.56772534  0.12052396  1
  O  O12  1  0.03484974  0.70369115  0.55413943  1
  O  O13  1  0.34379582  0.25380533  0.43646969  1
  O  O14  1  0.06629673  0.69532748  0.83149569  1
  O  O15  1  0.59274457  0.28670752  0.14984202  1
  O  O16  1  0.34815324  0.20809497  0.94805732  1
  O  O17  1  0.35870899  0.94383238  0.30620550  1
  O  O18  1  0.51675304  0.59306033  0.35118553  1
  O  O19  1  0.48324696  0.40693967  0.64881447  1
  O  O20  1  0.64129101  0.05616762  0.69379450  1
  O  O21  1  0.65184676  0.79190503  0.05194268  1
  O  O22  1  0.40725543  0.71329248  0.85015798  1
  O  O23  1  0.93370327  0.30467252  0.16850431  1
  O  O24  1  0.65620418  0.74619467  0.56353031  1
  O  O25  1  0.96515026  0.29630885  0.44586057  1
  O  O26  1  0.83351839  0.43227466  0.87947604  1
  O  O27  1  0.84262687  0.98596566  0.34446363  1
