# generated using pymatgen
data_LuNiSn2
_symmetry_space_group_name_H-M   'P 1'
_cell_length_a   4.40883197
_cell_length_b   14.42335740
_cell_length_c   16.08583539
_cell_angle_alpha   90.00000000
_cell_angle_beta   90.00000000
_cell_angle_gamma   90.00000000
_symmetry_Int_Tables_number   1
_chemical_formula_structural   LuNiSn2
_chemical_formula_sum   'Lu12 Ni12 Sn24'
_cell_volume   1022.90083363
_cell_formula_units_Z   12
loop_
 _symmetry_equiv_pos_site_id
 _symmetry_equiv_pos_as_xyz
  1  'x, y, z'
loop_
 _atom_site_type_symbol
 _atom_site_label
 _atom_site_symmetry_multiplicity
 _atom_site_fract_x
 _atom_site_fract_y
 _atom_site_fract_z
 _atom_site_occupancy
  Ni  Ni0  1  0.75000000  0.23898136  0.18856860  1
  Ni  Ni1  1  0.25000000  0.04992645  0.80028184  1
  Ni  Ni2  1  0.75000000  0.95007355  0.19971816  1
  Ni  Ni3  1  0.75000000  0.54992645  0.69971816  1
  Ni  Ni4  1  0.25000000  0.45007355  0.30028184  1
  Ni  Ni5  1  0.25000000  0.73898136  0.31143140  1
  Ni  Ni6  1  0.75000000  0.26101864  0.68856860  1
  Ni  Ni7  1  0.25000000  0.76101864  0.81143140  1
  Ni  Ni8  1  0.25000000  0.60701651  0.05381476  1
  Ni  Ni9  1  0.75000000  0.39298349  0.94618524  1
  Ni  Ni10  1  0.75000000  0.10701651  0.44618524  1
  Ni  Ni11  1  0.25000000  0.89298349  0.55381476  1
  Sn  Sn12  1  0.25000000  0.89929282  0.71505051  1
  Sn  Sn13  1  0.75000000  0.10070718  0.28494949  1
  Sn  Sn14  1  0.75000000  0.39929282  0.78494949  1
  Sn  Sn15  1  0.25000000  0.60070718  0.21505051  1
  Sn  Sn16  1  0.25000000  0.76687762  0.97242512  1
  Sn  Sn17  1  0.25000000  0.86367490  0.17636008  1
  Sn  Sn18  1  0.75000000  0.23312238  0.02757488  1
  Sn  Sn19  1  0.75000000  0.26687762  0.52757488  1
  Sn  Sn20  1  0.25000000  0.73312238  0.47242512  1
  Sn  Sn21  1  0.25000000  0.63632510  0.67636008  1
  Sn  Sn22  1  0.75000000  0.36367490  0.32363992  1
  Sn  Sn23  1  0.75000000  0.13632510  0.82363992  1
  Sn  Sn24  1  0.25000000  0.31958271  0.18211502  1
  Sn  Sn25  1  0.75000000  0.68041729  0.81788498  1
  Sn  Sn26  1  0.75000000  0.81958271  0.31788498  1
  Sn  Sn27  1  0.25000000  0.18041729  0.68211502  1
  Sn  Sn28  1  0.25000000  0.44349034  0.45852932  1
  Sn  Sn29  1  0.75000000  0.55650966  0.54147068  1
  Sn  Sn30  1  0.75000000  0.94349034  0.04147068  1
  Sn  Sn31  1  0.25000000  0.05650966  0.95852932  1
  Sn  Sn32  1  0.25000000  0.42172114  0.02029973  1
  Sn  Sn33  1  0.75000000  0.57827886  0.97970027  1
  Sn  Sn34  1  0.75000000  0.92172114  0.47970027  1
  Sn  Sn35  1  0.25000000  0.07827886  0.52029973  1
  Lu  Lu36  1  0.25000000  0.40142611  0.64841333  1
  Lu  Lu37  1  0.75000000  0.59857389  0.35158667  1
  Lu  Lu38  1  0.75000000  0.90142611  0.85158667  1
  Lu  Lu39  1  0.25000000  0.09857389  0.14841333  1
  Lu  Lu40  1  0.25000000  0.27815858  0.87090101  1
  Lu  Lu41  1  0.75000000  0.72184142  0.12909899  1
  Lu  Lu42  1  0.75000000  0.77815858  0.62909899  1
  Lu  Lu43  1  0.25000000  0.22184142  0.37090101  1
  Lu  Lu44  1  0.25000000  0.96961961  0.34931382  1
  Lu  Lu45  1  0.75000000  0.03038039  0.65068618  1
  Lu  Lu46  1  0.75000000  0.46961961  0.15068618  1
  Lu  Lu47  1  0.25000000  0.53038039  0.84931382  1
