# generated using pymatgen
data_K3CuB2P4H3O17
_symmetry_space_group_name_H-M   'P 1'
_cell_length_a   9.70173634
_cell_length_b   17.84098724
_cell_length_c   9.49098361
_cell_angle_alpha   90.00000000
_cell_angle_beta   112.05970985
_cell_angle_gamma   90.00000000
_symmetry_Int_Tables_number   1
_chemical_formula_structural   K3CuB2P4H3O17
_chemical_formula_sum   'K12 Cu4 B8 P16 H12 O68'
_cell_volume   1522.51752553
_cell_formula_units_Z   4
loop_
 _symmetry_equiv_pos_site_id
 _symmetry_equiv_pos_as_xyz
  1  'x, y, z'
loop_
 _atom_site_type_symbol
 _atom_site_label
 _atom_site_symmetry_multiplicity
 _atom_site_fract_x
 _atom_site_fract_y
 _atom_site_fract_z
 _atom_site_occupancy
  K  K0  1  0.01577403  0.13124794  0.94467960  1
  K  K1  1  0.01577403  0.36875206  0.44467960  1
  K  K2  1  0.37205990  0.86913712  0.53600559  1
  K  K3  1  0.54330099  0.11199351  0.90167480  1
  K  K4  1  0.45669901  0.61199351  0.59832520  1
  K  K5  1  0.62794010  0.36913712  0.96399441  1
  K  K6  1  0.37205990  0.63086288  0.03600559  1
  K  K7  1  0.54330099  0.38800649  0.40167480  1
  K  K8  1  0.45669901  0.88800649  0.09832520  1
  K  K9  1  0.62794010  0.13086288  0.46399441  1
  K  K10  1  0.98422597  0.63124794  0.55532040  1
  K  K11  1  0.98422597  0.86875206  0.05532040  1
  Cu  Cu12  1  0.02591850  0.16769815  0.56334024  1
  Cu  Cu13  1  0.02591850  0.33230185  0.06334024  1
  Cu  Cu14  1  0.97408150  0.66769815  0.93665976  1
  Cu  Cu15  1  0.97408150  0.83230185  0.43665976  1
  B  B16  1  0.01114236  0.41330810  0.79300682  1
  B  B17  1  0.01114236  0.08669190  0.29300682  1
  B  B18  1  0.27669776  0.09160861  0.50738462  1
  B  B19  1  0.27669776  0.40839139  0.00738462  1
  B  B20  1  0.72330224  0.59160861  0.99261538  1
  B  B21  1  0.72330224  0.90839139  0.49261538  1
  B  B22  1  0.98885764  0.91330810  0.70699318  1
  B  B23  1  0.98885764  0.58669190  0.20699318  1
  P  P24  1  0.14171467  0.78050516  0.77703830  1
  P  P25  1  0.20378376  0.02233204  0.73009012  1
  P  P26  1  0.24688154  0.48127590  0.74350139  1
  P  P27  1  0.14171467  0.71949484  0.27703930  1
  P  P28  1  0.20378376  0.47766796  0.23009012  1
  P  P29  1  0.34917204  0.24081622  0.60650171  1
  P  P30  1  0.24688154  0.01872410  0.24350139  1
  P  P31  1  0.34917204  0.25918378  0.10650171  1
  P  P32  1  0.65082796  0.74081622  0.89349829  1
  P  P33  1  0.75311846  0.98127590  0.75649861  1
  P  P34  1  0.65082796  0.75918378  0.39349829  1
  P  P35  1  0.79621624  0.52233204  0.76990988  1
  P  P36  1  0.85828533  0.28050516  0.72296170  1
  P  P37  1  0.75311846  0.51872410  0.25649861  1
  P  P38  1  0.79621624  0.97766796  0.26990988  1
  P  P39  1  0.85828533  0.21949484  0.22296070  1
  H  H40  1  0.27073278  0.24039149  0.84800515  1
  H  H41  1  0.39220312  0.77736108  0.83273833  1
  H  H42  1  0.29693936  0.46551908  0.52531850  1
  H  H43  1  0.27073278  0.25960851  0.34800515  1
  H  H44  1  0.39220312  0.72263892  0.33273833  1
  H  H45  1  0.29693936  0.03448092  0.02531850  1
  H  H46  1  0.70306064  0.96551908  0.97468150  1
  H  H47  1  0.60779688  0.27736108  0.66726167  1
  H  H48  1  0.72926722  0.74039149  0.65199485  1
  H  H49  1  0.70306064  0.53448092  0.47468150  1
  H  H50  1  0.60779688  0.22263892  0.16726167  1
  H  H51  1  0.72926722  0.75960851  0.15199485  1
  O  O52  1  0.06511047  0.85149349  0.81505638  1
  O  O53  1  0.12353838  0.38175763  0.93184349  1
  O  O54  1  0.07614274  0.70829334  0.81087427  1
  O  O55  1  0.07751318  0.46256696  0.70891400  1
  O  O56  1  0.11572929  0.09385870  0.72647733  1
  O  O57  1  0.09824314  0.95372344  0.66128220  1
  O  O58  1  0.12907558  0.78286915  0.61099625  1
  O  O59  1  0.06511047  0.64850651  0.31505638  1
  O  O60  1  0.12353838  0.11824237  0.43184349  1
  O  O61  1  0.07614274  0.79170666  0.31087427  1
  O  O62  1  0.32703358  0.21772963  0.95077320  1
  O  O63  1  0.21544920  0.25201549  0.65098360  1
  O  O64  1  0.31441820  0.00416003  0.89001388  1
  O  O65  1  0.31065487  0.78440619  0.88493338  1
  O  O66  1  0.27224539  0.56405780  0.74406515  1
  O  O67  1  0.07751318  0.03743304  0.20891400  1
  O  O68  1  0.33706640  0.43965386  0.89655839  1
  O  O69  1  0.11572929  0.40614130  0.22647733  1
  O  O70  1  0.09824314  0.54627656  0.16128220  1
  O  O71  1  0.29208445  0.43872787  0.62260020  1
  O  O72  1  0.29285450  0.03042197  0.62114796  1
  O  O73  1  0.12907558  0.71713085  0.11099625  1
  O  O74  1  0.32703358  0.28227037  0.45077320  1
  O  O75  1  0.21544920  0.24798451  0.15098360  1
  O  O76  1  0.37685926  0.15417310  0.58549959  1
  O  O77  1  0.31441820  0.49583997  0.39001388  1
  O  O78  1  0.31065487  0.71559381  0.38493338  1
  O  O79  1  0.27224539  0.93594220  0.24406515  1
  O  O80  1  0.33706640  0.06034614  0.39655839  1
  O  O81  1  0.50478296  0.77024522  0.77731334  1
  O  O82  1  0.49521704  0.27024522  0.72268666  1
  O  O83  1  0.29208445  0.06127213  0.12260020  1
  O  O84  1  0.29285450  0.46957803  0.12114796  1
  O  O85  1  0.62314074  0.65417310  0.91450041  1
  O  O86  1  0.37685926  0.34582690  0.08549959  1
  O  O87  1  0.70714550  0.53042197  0.87885204  1
  O  O88  1  0.70791555  0.93872787  0.87739980  1
  O  O89  1  0.50478296  0.72975478  0.27731334  1
  O  O90  1  0.49521704  0.22975478  0.22268666  1
  O  O91  1  0.66293360  0.93965386  0.60344161  1
  O  O92  1  0.72775461  0.06405780  0.75593485  1
  O  O93  1  0.68934513  0.28440619  0.61506662  1
  O  O94  1  0.68558180  0.50416003  0.60998612  1
  O  O95  1  0.62314074  0.84582690  0.41450041  1
  O  O96  1  0.78455080  0.75201549  0.84901640  1
  O  O97  1  0.67296642  0.71772963  0.54922680  1
  O  O98  1  0.87092442  0.28286915  0.88900375  1
  O  O99  1  0.70714550  0.96957803  0.37885204  1
  O  O100  1  0.70791555  0.56127213  0.37739980  1
  O  O101  1  0.90175686  0.45372344  0.83871780  1
  O  O102  1  0.88427071  0.59385870  0.77352267  1
  O  O103  1  0.66293360  0.56034614  0.10344161  1
  O  O104  1  0.92248682  0.96256696  0.79108600  1
  O  O105  1  0.72775461  0.43594220  0.25593485  1
  O  O106  1  0.68934513  0.21559381  0.11506662  1
  O  O107  1  0.68558180  0.99583997  0.10998612  1
  O  O108  1  0.78455080  0.74798451  0.34901640  1
  O  O109  1  0.67296642  0.78227037  0.04922680  1
  O  O110  1  0.92385726  0.20829334  0.68912573  1
  O  O111  1  0.87646162  0.88175763  0.56815651  1
  O  O112  1  0.93488953  0.35149349  0.68494362  1
  O  O113  1  0.87092442  0.21713085  0.38900375  1
  O  O114  1  0.90175686  0.04627656  0.33871780  1
  O  O115  1  0.88427071  0.90614130  0.27352267  1
  O  O116  1  0.92248682  0.53743304  0.29108600  1
  O  O117  1  0.92385726  0.29170666  0.18912573  1
  O  O118  1  0.87646162  0.61824237  0.06815651  1
  O  O119  1  0.93488953  0.14850651  0.18494362  1
