# generated using pymatgen
data_Sm(ClO4)3
_symmetry_space_group_name_H-M   'P 1'
_cell_length_a   8.39112030
_cell_length_b   9.64399709
_cell_length_c   8.39112034
_cell_angle_alpha   115.78807255
_cell_angle_beta   60.00000015
_cell_angle_gamma   115.78807443
_symmetry_Int_Tables_number   1
_chemical_formula_structural   Sm(ClO4)3
_chemical_formula_sum   'Sm2 Cl6 O24'
_cell_volume   508.48315797
_cell_formula_units_Z   2
loop_
 _symmetry_equiv_pos_site_id
 _symmetry_equiv_pos_as_xyz
  1  'x, y, z'
loop_
 _atom_site_type_symbol
 _atom_site_label
 _atom_site_symmetry_multiplicity
 _atom_site_fract_x
 _atom_site_fract_y
 _atom_site_fract_z
 _atom_site_occupancy
  Sm  Sm0  1  0.05831310  0.17494031  0.05831310  1
  Sm  Sm1  1  0.55831310  0.67494031  0.55831310  1
  Cl  Cl2  1  0.46699247  0.50072760  0.18883215  1
  Cl  Cl3  1  0.18883215  0.50072760  0.84490297  1
  Cl  Cl4  1  0.34490297  0.00072760  0.68883215  1
  Cl  Cl5  1  0.84490297  0.50072760  0.46699247  1
  Cl  Cl6  1  0.96699247  0.00072760  0.34490297  1
  Cl  Cl7  1  0.68883215  0.00072760  0.96699247  1
  O  O8  1  0.07607844  0.96041497  0.13492943  1
  O  O9  1  0.13492943  0.96041497  0.74940710  1
  O  O10  1  0.28545868  0.37267268  0.20248047  1
  O  O11  1  0.00181425  0.52130355  0.94708106  1
  O  O12  1  0.42009126  0.64907809  0.33661884  1
  O  O13  1  0.07240825  0.02130355  0.44708106  1
  O  O14  1  0.38473253  0.87267268  0.70248047  1
  O  O15  1  0.74940710  0.96041497  0.07607844  1
  O  O16  1  0.57240825  0.52130355  0.00181425  1
  O  O17  1  0.24940710  0.46041497  0.63492943  1
  O  O18  1  0.20248047  0.37267268  0.88473253  1
  O  O19  1  0.33661884  0.64907809  0.89236799  1
  O  O20  1  0.57607844  0.46041497  0.24940710  1
  O  O21  1  0.50181425  0.02130355  0.07240825  1
  O  O22  1  0.78545868  0.87267268  0.38473253  1
  O  O23  1  0.70248047  0.87267268  0.78545868  1
  O  O24  1  0.44708106  0.02130355  0.50181425  1
  O  O25  1  0.63492943  0.46041497  0.57607844  1
  O  O26  1  0.39236799  0.14907809  0.83661884  1
  O  O27  1  0.89236799  0.64907809  0.42009126  1
  O  O28  1  0.88473253  0.37267268  0.28545868  1
  O  O29  1  0.94708106  0.52130355  0.57240825  1
  O  O30  1  0.92009126  0.14907809  0.39236799  1
  O  O31  1  0.83661884  0.14907809  0.92009126  1
