# generated using pymatgen
data_Li9Mn2Co5O16
_symmetry_space_group_name_H-M   'P 1'
_cell_length_a   2.91892365
_cell_length_b   12.90237817
_cell_length_c   7.78583985
_cell_angle_alpha   87.70856141
_cell_angle_beta   79.19594878
_cell_angle_gamma   89.99999849
_symmetry_Int_Tables_number   1
_chemical_formula_structural   Li9Mn2Co5O16
_chemical_formula_sum   'Li9 Mn2 Co5 O16'
_cell_volume   287.78658469
_cell_formula_units_Z   1
loop_
 _symmetry_equiv_pos_site_id
 _symmetry_equiv_pos_as_xyz
  1  'x, y, z'
loop_
 _atom_site_type_symbol
 _atom_site_label
 _atom_site_symmetry_multiplicity
 _atom_site_fract_x
 _atom_site_fract_y
 _atom_site_fract_z
 _atom_site_occupancy
  Li  Li0  1  0.56318982  0.18592827  0.87362035  1
  Li  Li1  1  0.68681018  0.56407173  0.62637965  1
  Li  Li2  1  0.80656304  0.93419469  0.38687392  1
  Li  Li3  1  0.93761754  0.31273996  0.12476492  1
  Li  Li4  1  0.06155965  0.69621543  0.87688069  1
  Li  Li5  1  0.18844035  0.05378457  0.62311931  1
  Li  Li6  1  0.31238246  0.43726004  0.37523508  1
  Li  Li7  1  0.44343696  0.81580531  0.11312608  1
  Li  Li8  1  0.62500000  0.87500000  0.75000000  1
  Mn  Mn9  1  0.00393952  0.99382563  0.99212096  1
  Mn  Mn10  1  0.24606048  0.75617437  0.50787904  1
  Co  Co11  1  0.12500000  0.37500000  0.75000000  1
  Co  Co12  1  0.37539956  0.12421651  0.24920088  1
  Co  Co13  1  0.49990289  0.50084915  0.00019422  1
  Co  Co14  1  0.75009711  0.24915085  0.49980578  1
  Co  Co15  1  0.87460044  0.62578349  0.25079912  1
  O  O16  1  0.58406952  0.02899840  0.83186095  1
  O  O17  1  0.71300163  0.40216619  0.57399673  1
  O  O18  1  0.83279136  0.77540442  0.33441727  1
  O  O19  1  0.96394713  0.14598982  0.07210573  1
  O  O20  1  0.08704187  0.52684586  0.82591627  1
  O  O21  1  0.22295294  0.89421852  0.55409413  1
  O  O22  1  0.33894976  0.27549663  0.32210047  1
  O  O23  1  0.46244882  0.65296496  0.07510237  1
  O  O24  1  0.53699837  0.34783381  0.92600327  1
  O  O25  1  0.66593048  0.72100160  0.66813905  1
  O  O26  1  0.78755118  0.09703504  0.42489763  1
  O  O27  1  0.91105024  0.47450337  0.17789953  1
  O  O28  1  0.02704706  0.85578148  0.94590587  1
  O  O29  1  0.16295813  0.22315414  0.67408373  1
  O  O30  1  0.28605287  0.60401018  0.42789427  1
  O  O31  1  0.41720864  0.97459558  0.16558273  1
