# generated using pymatgen
data_Cu2(SO4)3
_symmetry_space_group_name_H-M   'P 1'
_cell_length_a   8.18585314
_cell_length_b   8.82181690
_cell_length_c   8.18585386
_cell_angle_alpha   117.64261943
_cell_angle_beta   59.99999894
_cell_angle_gamma   117.64261977
_symmetry_Int_Tables_number   1
_chemical_formula_structural   Cu2(SO4)3
_chemical_formula_sum   'Cu4 S6 O24'
_cell_volume   432.27448689
_cell_formula_units_Z   2
loop_
 _symmetry_equiv_pos_site_id
 _symmetry_equiv_pos_as_xyz
  1  'x, y, z'
loop_
 _atom_site_type_symbol
 _atom_site_label
 _atom_site_symmetry_multiplicity
 _atom_site_fract_x
 _atom_site_fract_y
 _atom_site_fract_z
 _atom_site_occupancy
  Cu  Cu0  1  0.14594848  0.43784445  0.14594848  1
  Cu  Cu1  1  0.34631077  0.03893230  0.34631077  1
  Cu  Cu2  1  0.65368923  0.96106770  0.65368923  1
  Cu  Cu3  1  0.85405152  0.56215555  0.85405152  1
  S  S4  1  0.03988873  0.24678736  0.45816710  1
  S  S5  1  0.54183290  0.75321264  0.25126747  1
  S  S6  1  0.25126747  0.75321264  0.96011127  1
  S  S7  1  0.74873253  0.24678736  0.03988873  1
  S  S8  1  0.45816710  0.24678736  0.74873253  1
  S  S9  1  0.96011127  0.75321264  0.54183290  1
  O  O10  1  0.20753072  0.89583385  0.15514137  1
  O  O11  1  0.15514137  0.89583385  0.53316176  1
  O  O12  1  0.01790888  0.42132049  0.60626426  1
  O  O13  1  0.13426146  0.26585913  0.25673348  1
  O  O14  1  0.53316176  0.89583385  0.20753072  1
  O  O15  1  0.12513581  0.73414087  0.86573854  1
  O  O16  1  0.39373574  0.57867951  0.20285265  1
  O  O17  1  0.16993496  0.20017589  0.49288887  1
  O  O18  1  0.50711113  0.79982411  0.46264794  1
  O  O19  1  0.20285265  0.57867951  0.98209112  1
  O  O20  1  0.74326652  0.73414087  0.12513581  1
  O  O21  1  0.46264794  0.79982411  0.83006504  1
  O  O22  1  0.53735206  0.20017589  0.16993496  1
  O  O23  1  0.25673348  0.26585913  0.87486419  1
  O  O24  1  0.79714735  0.42132049  0.01790888  1
  O  O25  1  0.49288887  0.20017589  0.53735206  1
  O  O26  1  0.83006504  0.79982411  0.50711113  1
  O  O27  1  0.60626426  0.42132049  0.79714735  1
  O  O28  1  0.87486419  0.26585913  0.13426146  1
  O  O29  1  0.46683824  0.10416615  0.79246928  1
  O  O30  1  0.86573854  0.73414087  0.74326652  1
  O  O31  1  0.98209112  0.57867951  0.39373574  1
  O  O32  1  0.84485863  0.10416615  0.46683824  1
  O  O33  1  0.79246928  0.10416615  0.84485863  1
