# generated using pymatgen
data_Ba6Ta9Ti7O42
_symmetry_space_group_name_H-M   'P 1'
_cell_length_a   9.16454751
_cell_length_b   9.17733350
_cell_length_c   11.96307741
_cell_angle_alpha   90.00034311
_cell_angle_beta   89.99978762
_cell_angle_gamma   120.04612659
_symmetry_Int_Tables_number   1
_chemical_formula_structural   Ba6Ta9Ti7O42
_chemical_formula_sum   'Ba6 Ta9 Ti7 O42'
_cell_volume   870.96165854
_cell_formula_units_Z   1
loop_
 _symmetry_equiv_pos_site_id
 _symmetry_equiv_pos_as_xyz
  1  'x, y, z'
loop_
 _atom_site_type_symbol
 _atom_site_label
 _atom_site_symmetry_multiplicity
 _atom_site_fract_x
 _atom_site_fract_y
 _atom_site_fract_z
 _atom_site_occupancy
  Ba  Ba0  1  0.00000588  0.59558035  0.24383005  1
  Ba  Ba1  1  0.99999607  0.41142590  0.74985581  1
  Ba  Ba2  1  0.40740657  0.40679813  0.24364323  1
  Ba  Ba3  1  0.59961861  0.59476352  0.74942488  1
  Ba  Ba4  1  0.40039106  0.99515290  0.74942039  1
  Ba  Ba5  1  0.59259244  0.99939302  0.24364768  1
  Ta  Ta6  1  0.99999670  0.24568678  0.40800208  1
  Ta  Ta7  1  0.33129746  0.66546238  0.00368067  1
  Ta  Ta8  1  0.33305375  0.66675728  0.50628760  1
  Ta  Ta9  1  0.24445393  0.24189204  0.90854581  1
  Ta  Ta10  1  0.24383176  0.99880961  0.40617123  1
  Ta  Ta11  1  0.75616224  0.75497282  0.40617361  1
  Ta  Ta12  1  0.66871572  0.33417334  0.00367558  1
  Ta  Ta13  1  0.66694601  0.33370401  0.50628570  1
  Ta  Ta14  1  0.75554293  0.99743588  0.90854460  1
  Ti  Ti15  1  0.00001338  0.74979952  0.90950908  1
  Ti  Ti16  1  0.99999533  0.75866986  0.60124014  1
  Ti  Ti17  1  0.00000231  0.24486456  0.09525642  1
  Ti  Ti18  1  0.24471052  0.24464668  0.59581681  1
  Ti  Ti19  1  0.24174588  0.99523696  0.09126085  1
  Ti  Ti20  1  0.75826720  0.75349318  0.09125582  1
  Ti  Ti21  1  0.75529088  0.99993411  0.59582210  1
  O  O22  1  0.99999845  0.79962622  0.07342258  1
  O  O23  1  0.99999715  0.80012670  0.42265608  1
  O  O24  1  0.99999812  0.78621374  0.75148227  1
  O  O25  1  0.16831818  0.68694514  0.90207921  1
  O  O26  1  0.16819029  0.68726954  0.59945607  1
  O  O27  1  0.99999513  0.20994415  0.24899757  1
  O  O28  1  0.99999966  0.20296361  0.57455686  1
  O  O29  1  0.99999908  0.20154362  0.92357929  1
  O  O30  1  0.31284603  0.83159908  0.10054814  1
  O  O31  1  0.31467483  0.83081923  0.40061039  1
  O  O32  1  0.16768438  0.48100009  0.09963505  1
  O  O33  1  0.16912461  0.48387618  0.40057479  1
  O  O34  1  0.31341375  0.48061613  0.59888877  1
  O  O35  1  0.31401438  0.48287614  0.90101213  1
  O  O36  1  0.51951143  0.83263562  0.59933471  1
  O  O37  1  0.51561415  0.83180576  0.89930272  1
  O  O38  1  0.20162102  0.20373486  0.07481211  1
  O  O39  1  0.20118184  0.20121430  0.42389374  1
  O  O40  1  0.20934806  0.20934352  0.74886249  1
  O  O41  1  0.52044465  0.68808104  0.09652738  1
  O  O42  1  0.51643523  0.68546599  0.40111405  1
  O  O43  1  0.20085684  0.99975848  0.57469432  1
  O  O44  1  0.20250788  0.00164896  0.92468977  1
  O  O45  1  0.21041614  0.99992712  0.24793857  1
  O  O46  1  0.48048828  0.31312548  0.59933526  1
  O  O47  1  0.48438537  0.31618687  0.89930181  1
  O  O48  1  0.78958304  0.78951584  0.24793952  1
  O  O49  1  0.79914290  0.79890035  0.57469493  1
  O  O50  1  0.79748738  0.79913849  0.92469087  1
  O  O51  1  0.47955425  0.16763301  0.09652609  1
  O  O52  1  0.48356162  0.16903061  0.40111345  1
  O  O53  1  0.68532439  0.51614579  0.40060792  1
  O  O54  1  0.68714784  0.51875307  0.10054753  1
  O  O55  1  0.83180568  0.51908028  0.59945410  1
  O  O56  1  0.83168686  0.51863199  0.90208404  1
  O  O57  1  0.68658445  0.16720298  0.59888895  1
  O  O58  1  0.68598319  0.16886136  0.90100627  1
  O  O59  1  0.83087439  0.31475058  0.40057403  1
  O  O60  1  0.83231191  0.31331106  0.09963215  1
  O  O61  1  0.79065854  -0.00000239  0.74886732  1
  O  O62  1  0.79881385  0.00003043  0.42389555  1
  O  O63  1  0.79837912  0.00211214  0.07481703  1
