# generated using pymatgen
data_Sr(IO3)2
_symmetry_space_group_name_H-M   'P 1'
_cell_length_a   7.53115624
_cell_length_b   11.83106844
_cell_length_c   7.61287486
_cell_angle_alpha   90.00000000
_cell_angle_beta   105.99742455
_cell_angle_gamma   90.00000000
_symmetry_Int_Tables_number   1
_chemical_formula_structural   Sr(IO3)2
_chemical_formula_sum   'Sr4 I8 O24'
_cell_volume   652.05097670
_cell_formula_units_Z   4
loop_
 _symmetry_equiv_pos_site_id
 _symmetry_equiv_pos_as_xyz
  1  'x, y, z'
loop_
 _atom_site_type_symbol
 _atom_site_label
 _atom_site_symmetry_multiplicity
 _atom_site_fract_x
 _atom_site_fract_y
 _atom_site_fract_z
 _atom_site_occupancy
  Sr  Sr0  1  0.22712370  0.90136857  0.99283856  1
  Sr  Sr1  1  0.27287630  0.40136857  0.50716144  1
  Sr  Sr2  1  0.72712370  0.59863143  0.49283856  1
  Sr  Sr3  1  0.77287630  0.09863143  0.00716144  1
  I  I4  1  0.25921585  0.21394021  0.94202735  1
  I  I5  1  0.24078415  0.71394021  0.55797265  1
  I  I6  1  0.22703856  0.07469762  0.46310470  1
  I  I7  1  0.27296144  0.57469762  0.03689530  1
  I  I8  1  0.72703856  0.42530238  0.96310470  1
  I  I9  1  0.77296144  0.92530238  0.53689530  1
  I  I10  1  0.75921585  0.28605979  0.44202735  1
  I  I11  1  0.74078415  0.78605979  0.05797265  1
  O  O12  1  0.09536383  0.10787136  0.97510147  1
  O  O13  1  0.02265397  0.90795281  0.64874539  1
  O  O14  1  0.07561663  0.61017067  0.59557373  1
  O  O15  1  0.15219503  0.25376031  0.70396071  1
  O  O16  1  0.34780497  0.75376031  0.79603929  1
  O  O17  1  0.18160277  0.70065899  0.12135398  1
  O  O18  1  0.19870118  0.46221914  0.16577214  1
  O  O19  1  0.42438337  0.11017067  0.90442627  1
  O  O20  1  0.30129882  0.96221914  0.33422786  1
  O  O21  1  0.31839723  0.20065899  0.37864602  1
  O  O22  1  0.47734603  0.40795281  0.85125461  1
  O  O23  1  0.40463617  0.60787136  0.52489853  1
  O  O24  1  0.59536383  0.39212864  0.47510147  1
  O  O25  1  0.52265397  0.59204719  0.14874539  1
  O  O26  1  0.68160277  0.79934101  0.62135398  1
  O  O27  1  0.69870118  0.03778086  0.66577214  1
  O  O28  1  0.57561663  0.88982933  0.09557373  1
  O  O29  1  0.80129882  0.53778086  0.83422786  1
  O  O30  1  0.81839723  0.29934101  0.87864602  1
  O  O31  1  0.65219503  0.24623969  0.20396071  1
  O  O32  1  0.84780497  0.74623969  0.29603929  1
  O  O33  1  0.92438337  0.38982933  0.40442627  1
  O  O34  1  0.97734603  0.09204719  0.35125461  1
  O  O35  1  0.90463617  0.89212864  0.02489853  1
