# generated using pymatgen
data_Lu2(SO4)3
_symmetry_space_group_name_H-M   'P 1'
_cell_length_a   9.08325015
_cell_length_b   9.39057203
_cell_length_c   9.08333497
_cell_angle_alpha   118.92212464
_cell_angle_beta   59.99902590
_cell_angle_gamma   118.92232398
_symmetry_Int_Tables_number   1
_chemical_formula_structural   Lu2(SO4)3
_chemical_formula_sum   'Lu4 S6 O24'
_cell_volume   556.60412643
_cell_formula_units_Z   2
loop_
 _symmetry_equiv_pos_site_id
 _symmetry_equiv_pos_as_xyz
  1  'x, y, z'
loop_
 _atom_site_type_symbol
 _atom_site_label
 _atom_site_symmetry_multiplicity
 _atom_site_fract_x
 _atom_site_fract_y
 _atom_site_fract_z
 _atom_site_occupancy
  Lu  Lu0  1  0.14402672  0.43211762  0.14404457  1
  Lu  Lu1  1  0.64404948  0.93219227  0.64406256  1
  Lu  Lu2  1  0.35593271  0.06781213  0.35594237  1
  Lu  Lu3  1  0.85597037  0.56788461  0.85595749  1
  S  S4  1  0.03748072  0.25009623  0.46260371  1
  S  S5  1  0.53735838  0.74990616  0.24999962  1
  S  S6  1  0.24998283  0.74989710  0.96255431  1
  S  S7  1  0.75001755  0.25009916  0.03744451  1
  S  S8  1  0.46263199  0.25009190  0.74999945  1
  S  S9  1  0.96251065  0.74990259  0.53739670  1
  O  O10  1  0.27304306  0.90347050  0.12107307  1
  O  O11  1  0.12098517  0.90350646  0.50937427  1
  O  O12  1  0.06391638  0.27446331  0.30092214  1
  O  O13  1  0.00954695  0.40360982  0.62092564  1
  O  O14  1  0.50941111  0.90349972  0.27302442  1
  O  O15  1  0.37898300  0.59642587  0.22694815  1
  O  O16  1  0.09036946  0.72547992  0.93608106  1
  O  O17  1  0.19906826  0.22548642  0.43636638  1
  O  O18  1  0.56358574  0.77457993  0.40998463  1
  O  O19  1  0.69903642  0.72544987  0.09042348  1
  O  O20  1  0.40993434  0.77458390  0.80098330  1
  O  O21  1  0.22694330  0.59640945  0.99045855  1
  O  O22  1  0.77305587  0.40359362  0.00953954  1
  O  O23  1  0.59006502  0.22541412  0.19901649  1
  O  O24  1  0.30095905  0.27455238  0.90957427  1
  O  O25  1  0.43640535  0.22542099  0.59001283  1
  O  O26  1  0.80093156  0.77452607  0.56364116  1
  O  O27  1  0.90963257  0.27451535  0.06390993  1
  O  O28  1  0.62101456  0.40357075  0.77305043  1
  O  O29  1  0.49057917  0.09649395  0.72697307  1
  O  O30  1  0.99043808  0.59638800  0.37907731  1
  O  O31  1  0.93607251  0.72553987  0.69907914  1
  O  O32  1  0.87900724  0.09648744  0.49062765  1
  O  O33  1  0.72695140  0.09653352  0.87892882  1
