# generated using pymatgen
data_Ho2Ti2O7
_symmetry_space_group_name_H-M   'P 1'
_cell_length_a   7.53884836
_cell_length_b   13.14851034
_cell_length_c   5.34150861
_cell_angle_alpha   90.00000000
_cell_angle_beta   90.00000000
_cell_angle_gamma   98.34879219
_symmetry_Int_Tables_number   1
_chemical_formula_structural   Ho2Ti2O7
_chemical_formula_sum   'Ho8 Ti8 O28'
_cell_volume   523.86392847
_cell_formula_units_Z   4
loop_
 _symmetry_equiv_pos_site_id
 _symmetry_equiv_pos_as_xyz
  1  'x, y, z'
loop_
 _atom_site_type_symbol
 _atom_site_label
 _atom_site_symmetry_multiplicity
 _atom_site_fract_x
 _atom_site_fract_y
 _atom_site_fract_z
 _atom_site_occupancy
  Ho  Ho0  1  0.23304370  0.92122736  0.77255147  1
  Ho  Ho1  1  0.14247135  0.56367227  0.35932751  1
  Ho  Ho2  1  0.28533860  0.13318296  0.24812122  1
  Ho  Ho3  1  0.35442978  0.38647812  0.77935667  1
  Ho  Ho4  1  0.64557022  0.61352188  0.27935667  1
  Ho  Ho5  1  0.71466140  0.86681704  0.74812122  1
  Ho  Ho6  1  0.85752865  0.43632773  0.85932751  1
  Ho  Ho7  1  0.76695630  0.07877264  0.27255147  1
  Ti  Ti8  1  0.07032182  0.32104958  0.28420036  1
  Ti  Ti9  1  0.03085573  0.12077239  0.77049718  1
  Ti  Ti10  1  0.41028562  0.67232812  0.79597151  1
  Ti  Ti11  1  0.47083032  0.87599794  0.26921683  1
  Ti  Ti12  1  0.52916968  0.12400206  0.76921683  1
  Ti  Ti13  1  0.58971438  0.32767188  0.29597151  1
  Ti  Ti14  1  0.96914427  0.87922761  0.27049718  1
  Ti  Ti15  1  0.92967818  0.67895042  0.78420036  1
  O  O16  1  0.01189547  0.17895748  0.43382558  1
  O  O17  1  0.07443558  0.40844087  0.56325490  1
  O  O18  1  0.17265082  0.68678477  0.67366946  1
  O  O19  1  0.22105510  0.88361163  0.34975391  1
  O  O20  1  0.13721108  0.43171270  0.06639072  1
  O  O21  1  0.06106327  0.02478068  0.04305340  1
  O  O22  1  0.12976403  0.23231103  0.95260815  1
  O  O23  1  0.36640770  0.61497074  0.09504237  1
  O  O24  1  0.42474104  0.82225918  0.93210830  1
  O  O25  1  0.32712523  0.30613509  0.37864677  1
  O  O26  1  0.27143613  0.08729669  0.65131676  1
  O  O27  1  0.41098369  0.55296977  0.58686826  1
  O  O28  1  0.54783004  0.97400715  0.54076304  1
  O  O29  1  0.51519859  0.76523165  0.45179865  1
  O  O30  1  0.48480141  0.23476835  0.95179865  1
  O  O31  1  0.45216996  0.02599285  0.04076304  1
  O  O32  1  0.58901631  0.44703023  0.08686826  1
  O  O33  1  0.72856387  0.91270331  0.15131676  1
  O  O34  1  0.67287477  0.69386491  0.87864677  1
  O  O35  1  0.57525896  0.17774082  0.43210830  1
  O  O36  1  0.63359230  0.38502926  0.59504237  1
  O  O37  1  0.87023597  0.76768897  0.45260815  1
  O  O38  1  0.93893673  0.97521932  0.54305340  1
  O  O39  1  0.86278892  0.56828730  0.56639072  1
  O  O40  1  0.77894490  0.11638837  0.84975391  1
  O  O41  1  0.82734918  0.31321523  0.17366946  1
  O  O42  1  0.92556442  0.59155913  0.06325490  1
  O  O43  1  0.98810453  0.82104252  0.93382558  1
