# generated using pymatgen
data_Li9Mn2Co5O16
_symmetry_space_group_name_H-M   'P 1'
_cell_length_a   2.90675316
_cell_length_b   15.63731876
_cell_length_c   6.58816614
_cell_angle_alpha   89.56260003
_cell_angle_beta   77.34053055
_cell_angle_gamma   80.02618154
_symmetry_Int_Tables_number   1
_chemical_formula_structural   Li9Mn2Co5O16
_chemical_formula_sum   'Li9 Mn2 Co5 O16'
_cell_volume   287.61850525
_cell_formula_units_Z   1
loop_
 _symmetry_equiv_pos_site_id
 _symmetry_equiv_pos_as_xyz
  1  'x, y, z'
loop_
 _atom_site_type_symbol
 _atom_site_label
 _atom_site_symmetry_multiplicity
 _atom_site_fract_x
 _atom_site_fract_y
 _atom_site_fract_z
 _atom_site_occupancy
  Li  Li0  1  0.77063147  0.18373259  0.11080163  1
  Li  Li1  1  0.74446508  0.43561379  0.62453428  1
  Li  Li2  1  0.75394912  0.68874580  0.12656056  1
  Li  Li3  1  0.26566276  0.30890162  0.86941634  1
  Li  Li4  1  0.24763577  0.56625476  0.37677382  1
  Li  Li5  1  0.26669703  0.81109901  0.87513278  1
  Li  Li6  1  0.72890595  0.94368953  0.62919712  1
  Li  Li7  1  0.23738535  0.06556900  0.38765433  1
  Li  Li8  1  0.50500414  0.12273758  0.74549372  1
  Mn  Mn9  1  0.99003967  0.00312908  0.98793598  1
  Mn  Mn10  1  0.50260775  0.37303564  0.24902420  1
  Co  Co11  1  0.99747742  0.24106972  0.52601965  1
  Co  Co12  1  0.99566202  0.50173730  0.99639327  1
  Co  Co13  1  0.01177179  0.74993153  0.50352769  1
  Co  Co14  1  0.50233880  0.62513900  0.75350364  1
  Co  Co15  1  0.49147132  0.87634664  0.25345525  1
  O  O16  1  0.38262493  0.08208983  0.05523704  1
  O  O17  1  0.39675349  0.34008857  0.53290536  1
  O  O18  1  0.37419153  0.59053949  0.05603248  1
  O  O19  1  0.88273280  0.22266148  0.79888352  1
  O  O20  1  0.89411614  0.45735513  0.30306775  1
  O  O21  1  0.90843174  0.71362883  0.80828945  1
  O  O22  1  0.37431447  0.83693035  0.55440195  1
  O  O23  1  0.85809179  0.96427682  0.29409068  1
  O  O24  1  0.10696141  0.29317068  0.19154098  1
  O  O25  1  0.10294441  0.53576748  0.69397089  1
  O  O26  1  0.13184898  0.78818847  0.19747571  1
  O  O27  1  0.61124355  0.40970183  0.95799899  1
  O  O28  1  0.64724254  0.66075896  0.44875387  1
  O  O29  1  0.59127557  0.91625320  0.94938971  1
  O  O30  1  0.10809618  0.02748478  0.71132229  1
  O  O31  1  0.61742503  0.16437453  0.43121506  1
