# generated using pymatgen
data_BaSiO3
_symmetry_space_group_name_H-M   'P 1'
_cell_length_a   7.57376225
_cell_length_b   7.57376225
_cell_length_c   11.47001830
_cell_angle_alpha   71.29285807
_cell_angle_beta   108.70714193
_cell_angle_gamma   119.86404470
_symmetry_Int_Tables_number   1
_chemical_formula_structural   BaSiO3
_chemical_formula_sum   'Ba6 Si6 O18'
_cell_volume   529.94365803
_cell_formula_units_Z   6
loop_
 _symmetry_equiv_pos_site_id
 _symmetry_equiv_pos_as_xyz
  1  'x, y, z'
loop_
 _atom_site_type_symbol
 _atom_site_label
 _atom_site_symmetry_multiplicity
 _atom_site_fract_x
 _atom_site_fract_y
 _atom_site_fract_z
 _atom_site_occupancy
  Ba  Ba0  1  0.00000000  0.50000000  0.50000000  1
  Ba  Ba1  1  0.67411034  0.84958664  0.50096210  1
  Ba  Ba2  1  0.84958664  0.67411034  0.99903790  1
  Ba  Ba3  1  0.15041336  0.32588966  0.00096210  1
  Ba  Ba4  1  0.32588966  0.15041336  0.49903790  1
  Ba  Ba5  1  0.50000000  0.00000000  0.00000000  1
  Si  Si6  1  0.41830664  0.65606841  0.75378113  1
  Si  Si7  1  0.17890756  0.17890756  0.75000000  1
  Si  Si8  1  0.34393159  0.58169336  0.25378113  1
  Si  Si9  1  0.65606841  0.41830664  0.74621887  1
  Si  Si10  1  0.82109244  0.82109244  0.25000000  1
  Si  Si11  1  0.58169336  0.34393159  0.24621887  1
  O  O12  1  0.37400447  0.80392876  0.62215760  1
  O  O13  1  0.46262169  0.71248869  0.88729392  1
  O  O14  1  0.21444723  0.41721734  0.75157161  1
  O  O15  1  0.19607124  0.62599553  0.12215760  1
  O  O16  1  0.28751131  0.53737831  0.38729392  1
  O  O17  1  0.03124329  0.12013336  0.61777520  1
  O  O18  1  0.62052775  0.62052775  0.75000000  1
  O  O19  1  0.12013336  0.03124329  0.88222480  1
  O  O20  1  0.58278266  0.78555277  0.25157161  1
  O  O21  1  0.41721734  0.21444723  0.74842839  1
  O  O22  1  0.87986664  0.96875671  0.11777520  1
  O  O23  1  0.37947225  0.37947225  0.25000000  1
  O  O24  1  0.96875671  0.87986664  0.38222480  1
  O  O25  1  0.71248869  0.46262169  0.61270608  1
  O  O26  1  0.80392876  0.37400447  0.87784240  1
  O  O27  1  0.78555277  0.58278266  0.24842839  1
  O  O28  1  0.53737831  0.28751131  0.11270608  1
  O  O29  1  0.62599553  0.19607124  0.37784240  1
