# generated using pymatgen
data_Li(NiP)2
_symmetry_space_group_name_H-M   'P 1'
_cell_length_a   3.77032955
_cell_length_b   3.77032954
_cell_length_c   5.29320298
_cell_angle_alpha   110.86383198
_cell_angle_beta   110.86383201
_cell_angle_gamma   90.00000001
_symmetry_Int_Tables_number   1
_chemical_formula_structural   Li(NiP)2
_chemical_formula_sum   'Li1 Ni2 P2'
_cell_volume   65.00380973
_cell_formula_units_Z   1
loop_
 _symmetry_equiv_pos_site_id
 _symmetry_equiv_pos_as_xyz
  1  'x, y, z'
loop_
 _atom_site_type_symbol
 _atom_site_label
 _atom_site_symmetry_multiplicity
 _atom_site_fract_x
 _atom_site_fract_y
 _atom_site_fract_z
 _atom_site_occupancy
  Li  Li0  1  0.00000000  0.00000000  0.00000000  1
  P  P1  1  0.38165486  0.38165486  0.76330971  1
  P  P2  1  0.61834514  0.61834514  0.23669029  1
  Ni  Ni3  1  0.25000000  0.75000000  0.50000000  1
  Ni  Ni4  1  0.75000000  0.25000000  0.50000000  1
