# generated using pymatgen
data_Rb3Cu5O4
_symmetry_space_group_name_H-M   'P 1'
_cell_length_a   7.47645328
_cell_length_b   9.95958332
_cell_length_c   14.48867203
_cell_angle_alpha   106.54919329
_cell_angle_beta   90.00000000
_cell_angle_gamma   90.00000000
_symmetry_Int_Tables_number   1
_chemical_formula_structural   Rb3Cu5O4
_chemical_formula_sum   'Rb12 Cu20 O16'
_cell_volume   1034.16947070
_cell_formula_units_Z   4
loop_
 _symmetry_equiv_pos_site_id
 _symmetry_equiv_pos_as_xyz
  1  'x, y, z'
loop_
 _atom_site_type_symbol
 _atom_site_label
 _atom_site_symmetry_multiplicity
 _atom_site_fract_x
 _atom_site_fract_y
 _atom_site_fract_z
 _atom_site_occupancy
  O  O0  1  0.80986004  0.50389364  0.88881347  1
  O  O1  1  0.30986004  0.49610636  0.61118653  1
  O  O2  1  0.19013996  0.49610636  0.11118653  1
  O  O3  1  0.69013996  0.50389364  0.38881347  1
  O  O4  1  0.53195308  0.97230786  0.86551493  1
  O  O5  1  0.03195308  0.02769214  0.63448507  1
  O  O6  1  0.46804692  0.02769214  0.13448507  1
  O  O7  1  0.96804692  0.97230786  0.36551493  1
  O  O8  1  0.65035860  0.36892622  0.12417934  1
  O  O9  1  0.15035860  0.63107378  0.37582066  1
  O  O10  1  0.34964140  0.63107378  0.87582066  1
  O  O11  1  0.84964140  0.36892622  0.62417934  1
  O  O12  1  0.93143045  0.89292791  0.10188898  1
  O  O13  1  0.43143045  0.10707209  0.39811102  1
  O  O14  1  0.06856955  0.10707209  0.89811102  1
  O  O15  1  0.56856955  0.89292791  0.60188898  1
  Cu  Cu16  1  0.58274491  0.56461287  0.87761397  1
  Cu  Cu17  1  0.20223470  0.03918496  0.37875305  1
  Cu  Cu18  1  0.79776530  0.96081504  0.62124695  1
  Cu  Cu19  1  0.29776530  0.03918496  0.87875305  1
  Cu  Cu20  1  0.05848017  0.79893408  0.36393910  1
  Cu  Cu21  1  0.55848017  0.20106592  0.13606090  1
  Cu  Cu22  1  0.94151983  0.20106592  0.63606090  1
  Cu  Cu23  1  0.44151983  0.79893408  0.86393910  1
  Cu  Cu24  1  0.17009660  0.56281973  0.24211070  1
  Cu  Cu25  1  0.67009660  0.43718027  0.25788930  1
  Cu  Cu26  1  0.82990340  0.43718027  0.75788930  1
  Cu  Cu27  1  0.32990340  0.56281973  0.74211070  1
  Cu  Cu28  1  0.95429814  0.93205436  0.23310446  1
  Cu  Cu29  1  0.45429814  0.06794564  0.26689554  1
  Cu  Cu30  1  0.04570186  0.06794564  0.76689554  1
  Cu  Cu31  1  0.54570186  0.93205436  0.73310446  1
  Cu  Cu32  1  0.41725509  0.43538713  0.12238603  1
  Cu  Cu33  1  0.91725509  0.56461287  0.37761397  1
  Cu  Cu34  1  0.70223470  0.96081504  0.12124695  1
  Cu  Cu35  1  0.08274491  0.43538713  0.62238603  1
  Rb  Rb36  1  0.83394804  0.60157361  0.09285556  1
  Rb  Rb37  1  0.33394804  0.39842639  0.40714444  1
  Rb  Rb38  1  0.16605196  0.39842639  0.90714444  1
  Rb  Rb39  1  0.66605196  0.60157361  0.59285556  1
  Rb  Rb40  1  0.21232989  0.77222512  0.58239641  1
  Rb  Rb41  1  0.71232989  0.22777488  0.91760359  1
  Rb  Rb42  1  0.78767011  0.22777488  0.41760359  1
  Rb  Rb43  1  0.28767011  0.77222512  0.08239641  1
  Rb  Rb44  1  0.91243331  0.82458497  0.89370739  1
  Rb  Rb45  1  0.41243331  0.17541503  0.60629261  1
  Rb  Rb46  1  0.08756669  0.17541503  0.10629261  1
  Rb  Rb47  1  0.58756669  0.82458497  0.39370739  1
