# generated using pymatgen
data_Gd2CF2
_symmetry_space_group_name_H-M   'P 1'
_cell_length_a   3.72552895
_cell_length_b   3.72552895
_cell_length_c   6.58230244
_cell_angle_alpha   90.00000000
_cell_angle_beta   90.00000000
_cell_angle_gamma   120.00000009
_symmetry_Int_Tables_number   1
_chemical_formula_structural   Gd2CF2
_chemical_formula_sum   'Gd2 C1 F2'
_cell_volume   79.11964855
_cell_formula_units_Z   1
loop_
 _symmetry_equiv_pos_site_id
 _symmetry_equiv_pos_as_xyz
  1  'x, y, z'
loop_
 _atom_site_type_symbol
 _atom_site_label
 _atom_site_symmetry_multiplicity
 _atom_site_fract_x
 _atom_site_fract_y
 _atom_site_fract_z
 _atom_site_occupancy
  C  C0  1  0.00000000  0.00000000  0.00000000  1
  F  F1  1  0.33333333  0.66666667  0.61800751  1
  F  F2  1  0.66666667  0.33333333  0.38199249  1
  Gd  Gd3  1  0.33333333  0.66666667  0.21068306  1
  Gd  Gd4  1  0.66666667  0.33333333  0.78931694  1
