# generated using pymatgen
data_Rb2CoO3
_symmetry_space_group_name_H-M   'P 1'
_cell_length_a   6.72103455
_cell_length_b   6.72103455
_cell_length_c   13.34539633
_cell_angle_alpha   90.00000000
_cell_angle_beta   90.00000000
_cell_angle_gamma   52.49899173
_symmetry_Int_Tables_number   1
_chemical_formula_structural   Rb2CoO3
_chemical_formula_sum   'Rb8 Co4 O12'
_cell_volume   478.26050950
_cell_formula_units_Z   4
loop_
 _symmetry_equiv_pos_site_id
 _symmetry_equiv_pos_as_xyz
  1  'x, y, z'
loop_
 _atom_site_type_symbol
 _atom_site_label
 _atom_site_symmetry_multiplicity
 _atom_site_fract_x
 _atom_site_fract_y
 _atom_site_fract_z
 _atom_site_occupancy
  Rb  Rb0  1  0.05901763  0.05901763  0.14044950  1
  Rb  Rb1  1  0.13654628  0.13654628  0.57630626  1
  Rb  Rb2  1  0.36345372  0.36345372  0.07630626  1
  Rb  Rb3  1  0.55901763  0.55901763  0.35955050  1
  Rb  Rb4  1  0.94098237  0.94098237  0.85955050  1
  Rb  Rb5  1  0.44098237  0.44098237  0.64044950  1
  Rb  Rb6  1  0.63654628  0.63654628  0.92369374  1
  Rb  Rb7  1  0.86345372  0.86345372  0.42369374  1
  Co  Co8  1  0.24343840  0.24343840  0.32930973  1
  Co  Co9  1  0.74343840  0.74343840  0.17069027  1
  Co  Co10  1  0.25656160  0.25656160  0.82930973  1
  Co  Co11  1  0.75656160  0.75656160  0.67069027  1
  O  O12  1  0.02892218  0.52892218  0.25000000  1
  O  O13  1  0.47107782  0.97107782  0.75000000  1
  O  O14  1  0.10066719  0.10066719  0.35988106  1
  O  O15  1  0.33161558  0.33161558  0.43592100  1
  O  O16  1  0.66838442  0.66838442  0.56407900  1
  O  O17  1  0.83161558  0.83161558  0.06407900  1
  O  O18  1  0.16838442  0.16838442  0.93592100  1
  O  O19  1  0.60066719  0.60066719  0.14011894  1
  O  O20  1  0.39933281  0.39933281  0.85988106  1
  O  O21  1  0.89933281  0.89933281  0.64011894  1
  O  O22  1  0.52892218  0.02892218  0.25000000  1
  O  O23  1  0.97107782  0.47107782  0.75000000  1
