# generated using pymatgen
data_K3NdSi2O7
_symmetry_space_group_name_H-M   'P 1'
_cell_length_a   10.16324225
_cell_length_b   10.16324224
_cell_length_c   14.73957753
_cell_angle_alpha   90.00000000
_cell_angle_beta   90.00000000
_cell_angle_gamma   119.99999998
_symmetry_Int_Tables_number   1
_chemical_formula_structural   K3NdSi2O7
_chemical_formula_sum   'K18 Nd6 Si12 O42'
_cell_volume   1318.50026787
_cell_formula_units_Z   6
loop_
 _symmetry_equiv_pos_site_id
 _symmetry_equiv_pos_as_xyz
  1  'x, y, z'
loop_
 _atom_site_type_symbol
 _atom_site_label
 _atom_site_symmetry_multiplicity
 _atom_site_fract_x
 _atom_site_fract_y
 _atom_site_fract_z
 _atom_site_occupancy
  O  O0  1  0.32157735  0.47431884  0.09429327  1
  O  O1  1  0.52568116  0.84725852  0.09429327  1
  O  O2  1  0.15274148  0.67842265  0.09429327  1
  O  O3  1  0.84725852  0.32157735  0.59429327  1
  O  O4  1  0.67842265  0.15274148  0.40570673  1
  O  O5  1  0.67842265  0.52568116  0.59429327  1
  O  O6  1  0.47431884  0.15274148  0.59429327  1
  O  O7  1  0.52568116  0.67842265  0.90570673  1
  O  O8  1  0.15274148  0.47431884  0.90570673  1
  O  O9  1  0.84725852  0.52568116  0.40570673  1
  O  O10  1  0.47431884  0.32157735  0.40570673  1
  O  O11  1  0.32157735  0.84725852  0.90570673  1
  O  O12  1  0.67842265  0.52568116  0.90570673  1
  O  O13  1  0.47431884  0.15274148  0.90570673  1
  O  O14  1  0.84725852  0.32157735  0.90570673  1
  O  O15  1  0.15274148  0.67842265  0.40570673  1
  O  O16  1  0.32157735  0.84725852  0.59429327  1
  O  O17  1  0.32157735  0.47431884  0.40570673  1
  O  O18  1  0.52568116  0.84725852  0.40570673  1
  O  O19  1  0.47431884  0.32157735  0.09429327  1
  O  O20  1  0.84725852  0.52568116  0.09429327  1
  O  O21  1  0.15274148  0.47431884  0.59429327  1
  O  O22  1  0.52568116  0.67842265  0.59429327  1
  O  O23  1  0.67842265  0.15274148  0.09429327  1
  O  O24  1  0.40107749  0.40107749  0.25000000  1
  O  O25  1  0.00000000  0.40107749  0.75000000  1
  O  O26  1  0.40107749  0.00000000  0.75000000  1
  O  O27  1  0.59892251  0.00000000  0.25000000  1
  O  O28  1  0.00000000  0.59892251  0.25000000  1
  O  O29  1  0.59892251  0.59892251  0.75000000  1
  O  O30  1  0.17877899  0.00000000  0.85507756  1
  O  O31  1  0.00000000  0.17877899  0.85507756  1
  O  O32  1  0.82122101  0.82122101  0.85507756  1
  O  O33  1  0.17877899  0.17877899  0.35507756  1
  O  O34  1  0.82122101  0.82122101  0.64492244  1
  O  O35  1  0.82122101  0.00000000  0.35507756  1
  O  O36  1  0.17877899  0.17877899  0.14492244  1
  O  O37  1  0.00000000  0.17877899  0.64492244  1
  O  O38  1  0.17877899  0.00000000  0.64492244  1
  O  O39  1  0.82122101  0.00000000  0.14492244  1
  O  O40  1  0.00000000  0.82122101  0.14492244  1
  O  O41  1  0.00000000  0.82122101  0.35507756  1
  Si  Si42  1  0.66000285  0.00000000  0.35628583  1
  Si  Si43  1  0.00000000  0.66000285  0.35628583  1
  Si  Si44  1  0.33999715  0.33999715  0.35628583  1
  Si  Si45  1  0.66000285  0.66000285  0.85628583  1
  Si  Si46  1  0.33999715  0.33999715  0.14371417  1
  Si  Si47  1  0.33999715  0.00000000  0.85628583  1
  Si  Si48  1  0.00000000  0.33999715  0.85628583  1
  Si  Si49  1  0.00000000  0.33999715  0.64371417  1
  Si  Si50  1  0.33999715  0.00000000  0.64371417  1
  Si  Si51  1  0.66000285  0.00000000  0.14371417  1
  Si  Si52  1  0.00000000  0.66000285  0.14371417  1
  Si  Si53  1  0.66000285  0.66000285  0.64371417  1
  K  K54  1  0.33062605  0.00000000  0.41055932  1
  K  K55  1  0.00000000  0.33062605  0.41055932  1
  K  K56  1  0.66937395  0.66937395  0.41055932  1
  K  K57  1  0.33062605  0.33062605  0.91055932  1
  K  K58  1  0.66937395  0.66937395  0.08944068  1
  K  K59  1  0.66937395  0.00000000  0.91055932  1
  K  K60  1  0.00000000  0.66937395  0.91055932  1
  K  K61  1  0.00000000  0.66937395  0.58944068  1
  K  K62  1  0.66937395  0.00000000  0.58944068  1
  K  K63  1  0.33062605  0.00000000  0.08944068  1
  K  K64  1  0.00000000  0.33062605  0.08944068  1
  K  K65  1  0.33062605  0.33062605  0.58944068  1
  K  K66  1  0.00000000  0.00000000  0.50000000  1
  K  K67  1  0.00000000  0.00000000  0.00000000  1
  K  K68  1  0.66666667  0.33333333  0.75000000  1
  K  K69  1  0.33333333  0.66666667  0.25000000  1
  K  K70  1  0.33333333  0.66666667  0.75000000  1
  K  K71  1  0.66666667  0.33333333  0.25000000  1
  Nd  Nd72  1  0.66666667  0.33333333  0.50000000  1
  Nd  Nd73  1  0.33333333  0.66666667  0.00000000  1
  Nd  Nd74  1  0.33333333  0.66666667  0.50000000  1
  Nd  Nd75  1  0.66666667  0.33333333  0.00000000  1
  Nd  Nd76  1  0.00000000  0.00000000  0.75000000  1
  Nd  Nd77  1  0.00000000  0.00000000  0.25000000  1
