# generated using pymatgen
data_RbNaSnF6
_symmetry_space_group_name_H-M   'P 1'
_cell_length_a   8.33737745
_cell_length_b   11.17223788
_cell_length_c   13.38458990
_cell_angle_alpha   90.00000000
_cell_angle_beta   90.00000000
_cell_angle_gamma   90.00000000
_symmetry_Int_Tables_number   1
_chemical_formula_structural   RbNaSnF6
_chemical_formula_sum   'Rb8 Na8 Sn8 F48'
_cell_volume   1246.73659272
_cell_formula_units_Z   8
loop_
 _symmetry_equiv_pos_site_id
 _symmetry_equiv_pos_as_xyz
  1  'x, y, z'
loop_
 _atom_site_type_symbol
 _atom_site_label
 _atom_site_symmetry_multiplicity
 _atom_site_fract_x
 _atom_site_fract_y
 _atom_site_fract_z
 _atom_site_occupancy
  F  F0  1  0.71046382  0.87643854  0.27767511  1
  F  F1  1  0.21046382  0.12356146  0.22232489  1
  F  F2  1  0.78953618  0.37643854  0.22232489  1
  F  F3  1  0.28953618  0.62356146  0.27767511  1
  F  F4  1  0.28953618  0.12356146  0.72232489  1
  F  F5  1  0.78953618  0.87643854  0.77767511  1
  F  F6  1  0.21046382  0.62356146  0.77767511  1
  F  F7  1  0.71046382  0.37643854  0.72232489  1
  F  F8  1  0.81139826  0.97843387  0.99765446  1
  F  F9  1  0.31139826  0.02156613  0.50234554  1
  F  F10  1  0.68860174  0.47843387  0.50234554  1
  F  F11  1  0.18860174  0.52156613  0.99765446  1
  F  F12  1  0.18860174  0.02156613  0.00234554  1
  F  F13  1  0.68860174  0.97843387  0.49765446  1
  F  F14  1  0.31139826  0.52156613  0.49765446  1
  F  F15  1  0.81139826  0.47843387  0.00234554  1
  F  F16  1  0.98110070  0.88351410  0.16024017  1
  F  F17  1  0.52139093  0.97046103  0.11605454  1
  F  F18  1  0.48110070  0.11648590  0.33975983  1
  F  F19  1  0.01889930  0.61648590  0.16024017  1
  F  F20  1  0.01889930  0.11648590  0.83975983  1
  F  F21  1  0.51889930  0.88351410  0.66024017  1
  F  F22  1  0.48110070  0.61648590  0.66024017  1
  F  F23  1  0.98110070  0.38351410  0.83975983  1
  F  F24  1  0.78821844  0.76224780  0.57627653  1
  F  F25  1  0.28821844  0.23775220  0.92372347  1
  F  F26  1  0.71178156  0.26224780  0.92372347  1
  F  F27  1  0.21178156  0.73775220  0.57627653  1
  F  F28  1  0.21178156  0.23775220  0.42372347  1
  F  F29  1  0.71178156  0.76224780  0.07627653  1
  F  F30  1  0.28821844  0.73775220  0.07627653  1
  F  F31  1  0.78821844  0.26224780  0.42372347  1
  F  F32  1  0.78529219  0.59492488  0.81556810  1
  F  F33  1  0.28529219  0.40507512  0.68443190  1
  F  F34  1  0.71470781  0.09492488  0.68443190  1
  F  F35  1  0.21470781  0.90507512  0.81556810  1
  F  F36  1  0.21470781  0.40507512  0.18443190  1
  F  F37  1  0.71470781  0.59492488  0.31556810  1
  F  F38  1  0.28529219  0.90507512  0.31556810  1
  F  F39  1  0.78529219  0.09492488  0.18443190  1
  F  F40  1  0.52139093  0.47046103  0.88394546  1
  F  F41  1  0.02139093  0.52953897  0.61605454  1
  F  F42  1  0.97860907  0.97046103  0.61605454  1
  F  F43  1  0.47860907  0.02953897  0.88394546  1
  F  F44  1  0.47860907  0.52953897  0.11605454  1
  F  F45  1  0.97860907  0.47046103  0.38394546  1
  F  F46  1  0.02139093  0.02953897  0.38394546  1
  F  F47  1  0.51889930  0.38351410  0.33975983  1
  Na  Na48  1  0.75497524  0.07507681  0.35746124  1
  Na  Na49  1  0.25497524  0.92492319  0.14253876  1
  Na  Na50  1  0.74502476  0.57507681  0.14253876  1
  Na  Na51  1  0.24502476  0.42492319  0.35746124  1
  Na  Na52  1  0.24502476  0.92492319  0.64253876  1
  Na  Na53  1  0.74502476  0.07507681  0.85746124  1
  Na  Na54  1  0.25497524  0.42492319  0.85746124  1
  Na  Na55  1  0.75497524  0.57507681  0.64253876  1
  Rb  Rb56  1  0.50000000  0.75000000  0.42496470  1
  Rb  Rb57  1  0.00000000  0.25000000  0.07503530  1
  Rb  Rb58  1  0.50000000  0.25000000  0.57503530  1
  Rb  Rb59  1  0.00000000  0.75000000  0.92496470  1
  Rb  Rb60  1  0.00000000  0.75000000  0.36851690  1
  Rb  Rb61  1  0.50000000  0.25000000  0.13148310  1
  Rb  Rb62  1  0.00000000  0.25000000  0.63148310  1
  Rb  Rb63  1  0.50000000  0.75000000  0.86851690  1
  Sn  Sn64  1  0.75104966  0.42541006  0.86486446  1
  Sn  Sn65  1  0.25104966  0.57458994  0.63513554  1
  Sn  Sn66  1  0.74895034  0.92541006  0.63513554  1
  Sn  Sn67  1  0.24895034  0.07458994  0.86486446  1
  Sn  Sn68  1  0.24895034  0.57458994  0.13513554  1
  Sn  Sn69  1  0.74895034  0.42541006  0.36486446  1
  Sn  Sn70  1  0.25104966  0.07458994  0.36486446  1
  Sn  Sn71  1  0.75104966  0.92541006  0.13513554  1
