# generated using pymatgen
data_Pd(AuF4)2
_symmetry_space_group_name_H-M   'P 1'
_cell_length_a   5.51018881
_cell_length_b   5.67301412
_cell_length_c   11.15189091
_cell_angle_alpha   90.00000000
_cell_angle_beta   90.00000000
_cell_angle_gamma   92.29578985
_symmetry_Int_Tables_number   1
_chemical_formula_structural   Pd(AuF4)2
_chemical_formula_sum   'Pd2 Au4 F16'
_cell_volume   348.32137590
_cell_formula_units_Z   2
loop_
 _symmetry_equiv_pos_site_id
 _symmetry_equiv_pos_as_xyz
  1  'x, y, z'
loop_
 _atom_site_type_symbol
 _atom_site_label
 _atom_site_symmetry_multiplicity
 _atom_site_fract_x
 _atom_site_fract_y
 _atom_site_fract_z
 _atom_site_occupancy
  F  F0  1  0.22254181  0.19549577  0.53028235  1
  F  F1  1  0.27745819  0.30450423  0.03028235  1
  F  F2  1  0.77745819  0.80450423  0.46971765  1
  F  F3  1  0.72254181  0.69549577  0.96971765  1
  F  F4  1  0.24101620  0.77940851  0.09966092  1
  F  F5  1  0.25898380  0.72059149  0.59966092  1
  F  F6  1  0.70411662  0.13262805  0.15621647  1
  F  F7  1  0.79588338  0.36737195  0.65621647  1
  F  F8  1  0.29588338  0.86737195  0.84378353  1
  F  F9  1  0.20411662  0.63262805  0.34378353  1
  F  F10  1  0.77492510  0.82970358  0.72803175  1
  F  F11  1  0.72507490  0.67029642  0.22803175  1
  F  F12  1  0.22507490  0.17029642  0.27196825  1
  F  F13  1  0.27492510  0.32970358  0.77196825  1
  F  F14  1  0.74101620  0.27940851  0.40033908  1
  F  F15  1  0.75898380  0.22059149  0.90033908  1
  Pd  Pd16  1  0.00000000  0.50000000  0.50000000  1
  Pd  Pd17  1  0.50000000  0.00000000  0.00000000  1
  Au  Au18  1  0.74047467  0.97001002  0.31375962  1
  Au  Au19  1  0.75952533  0.52998998  0.81375962  1
  Au  Au20  1  0.24047467  0.47001002  0.18624038  1
  Au  Au21  1  0.25952533  0.02998998  0.68624038  1
