# generated using pymatgen
data_Mn9Zn6Si4(SbO14)2
_symmetry_space_group_name_H-M   'P 1'
_cell_length_a   5.60933260
_cell_length_b   11.84834605
_cell_length_c   9.28901781
_cell_angle_alpha   92.00069404
_cell_angle_beta   101.01336610
_cell_angle_gamma   76.30644130
_symmetry_Int_Tables_number   1
_chemical_formula_structural   Mn9Zn6Si4(SbO14)2
_chemical_formula_sum   'Mn9 Zn6 Si4 Sb2 O28'
_cell_volume   588.73093633
_cell_formula_units_Z   1
loop_
 _symmetry_equiv_pos_site_id
 _symmetry_equiv_pos_as_xyz
  1  'x, y, z'
loop_
 _atom_site_type_symbol
 _atom_site_label
 _atom_site_symmetry_multiplicity
 _atom_site_fract_x
 _atom_site_fract_y
 _atom_site_fract_z
 _atom_site_occupancy
  Mn  Mn0  1  0.07057646  0.29137845  0.65100941  1
  Mn  Mn1  1  0.00000000  0.00000000  0.00000000  1
  Mn  Mn2  1  0.36126853  0.71634118  0.64179414  1
  Mn  Mn3  1  0.29539491  0.42515594  0.00119551  1
  Mn  Mn4  1  0.42967434  0.14387571  0.00625206  1
  Mn  Mn5  1  0.57032566  0.85612429  0.99374794  1
  Mn  Mn6  1  0.70460509  0.57484406  0.99880449  1
  Mn  Mn7  1  0.63873147  0.28365882  0.35820586  1
  Mn  Mn8  1  0.92942354  0.70862155  0.34899059  1
  Zn  Zn9  1  0.20594544  0.13800446  0.34453935  1
  Zn  Zn10  1  0.51664117  0.42781646  0.67164319  1
  Zn  Zn11  1  0.65699691  0.13890982  0.66285890  1
  Zn  Zn12  1  0.34300309  0.86109018  0.33714110  1
  Zn  Zn13  1  0.48335883  0.57218354  0.32835681  1
  Zn  Zn14  1  0.79405456  0.86199554  0.65546065  1
  Si  Si15  1  0.23747992  0.00331274  0.69009031  1
  Si  Si16  1  0.05692625  0.42411522  0.31463658  1
  Si  Si17  1  0.94307375  0.57588478  0.68536342  1
  Si  Si18  1  0.76252008  0.99668726  0.30990969  1
  Sb  Sb19  1  0.14093679  0.71972245  0.99787429  1
  Sb  Sb20  1  0.85906321  0.28027755  0.00212571  1
  O  O21  1  0.12317871  0.29061823  0.88781970  1
  O  O22  1  0.00256989  0.58839442  0.86998565  1
  O  O23  1  0.30553040  0.00479861  0.87134412  1
  O  O24  1  0.02693858  0.30422056  0.39023300  1
  O  O25  1  0.14641298  0.45931308  0.64955418  1
  O  O26  1  0.11673904  0.15265493  0.11981752  1
  O  O27  1  0.29453337  0.12125304  0.62239858  1
  O  O28  1  0.06168390  0.00016527  0.35563234  1
  O  O29  1  0.34631307  0.43636786  0.36197759  1
  O  O30  1  0.40257248  0.71351945  0.87532458  1
  O  O31  1  0.30387975  0.71437015  0.40764037  1
  O  O32  1  0.72750474  0.15384900  0.88615513  1
  O  O33  1  0.57935580  0.11249836  0.37031853  1
  O  O34  1  0.61389251  0.41743435  0.89377626  1
  O  O35  1  0.38610749  0.58256565  0.10622374  1
  O  O36  1  0.42064420  0.88750164  0.62968147  1
  O  O37  1  0.27249526  0.84615100  0.11384487  1
  O  O38  1  0.69612025  0.28562985  0.59235963  1
  O  O39  1  0.59742752  0.28648055  0.12467542  1
  O  O40  1  0.65368693  0.56363214  0.63802241  1
  O  O41  1  0.93831610  0.99983473  0.64436766  1
  O  O42  1  0.70546663  0.87874696  0.37760142  1
  O  O43  1  0.88326096  0.84734507  0.88018248  1
  O  O44  1  0.85358702  0.54068692  0.35044582  1
  O  O45  1  0.97306142  0.69577944  0.60976700  1
  O  O46  1  0.69446960  0.99520139  0.12865588  1
  O  O47  1  0.99743011  0.41160558  0.13001435  1
  O  O48  1  0.87682129  0.70938177  0.11218030  1
