# generated using pymatgen
data_Ag7PSe6
_symmetry_space_group_name_H-M   'P 1'
_cell_length_a   10.96378268
_cell_length_b   10.96378268
_cell_length_c   10.96378268
_cell_angle_alpha   90.00000000
_cell_angle_beta   90.00000000
_cell_angle_gamma   90.00000000
_symmetry_Int_Tables_number   1
_chemical_formula_structural   Ag7PSe6
_chemical_formula_sum   'Ag28 P4 Se24'
_cell_volume   1317.89635124
_cell_formula_units_Z   4
loop_
 _symmetry_equiv_pos_site_id
 _symmetry_equiv_pos_as_xyz
  1  'x, y, z'
loop_
 _atom_site_type_symbol
 _atom_site_label
 _atom_site_symmetry_multiplicity
 _atom_site_fract_x
 _atom_site_fract_y
 _atom_site_fract_z
 _atom_site_occupancy
  P  P0  1  0.74542325  0.74542325  0.74542325  1
  P  P1  1  0.75457675  0.25457675  0.24542325  1
  P  P2  1  0.24542325  0.75457675  0.25457675  1
  P  P3  1  0.25457675  0.24542325  0.75457675  1
  Se  Se4  1  0.86536250  0.86536250  0.86536250  1
  Se  Se5  1  0.63463750  0.13463750  0.36536250  1
  Se  Se6  1  0.36536250  0.63463750  0.13463750  1
  Se  Se7  1  0.13463750  0.36536250  0.63463750  1
  Se  Se8  1  0.36080108  0.36765593  0.88005173  1
  Se  Se9  1  0.88005173  0.36080108  0.36765593  1
  Se  Se10  1  0.36765593  0.88005173  0.36080108  1
  Se  Se11  1  0.13234407  0.11994827  0.86080108  1
  Se  Se12  1  0.38005173  0.13919892  0.63234407  1
  Se  Se13  1  0.63234407  0.38005173  0.13919892  1
  Se  Se14  1  0.61994827  0.63919892  0.86765593  1
  Se  Se15  1  0.11994827  0.86080108  0.13234407  1
  Se  Se16  1  0.86765593  0.61994827  0.63919892  1
  Se  Se17  1  0.86080108  0.13234407  0.11994827  1
  Se  Se18  1  0.63919892  0.86765593  0.61994827  1
  Se  Se19  1  0.13919892  0.63234407  0.38005173  1
  Se  Se20  1  0.21173045  0.21173045  0.21173045  1
  Se  Se21  1  0.28826955  0.78826955  0.71173045  1
  Se  Se22  1  0.71173045  0.28826955  0.78826955  1
  Se  Se23  1  0.78826955  0.71173045  0.28826955  1
  Se  Se24  1  0.47930642  0.47930642  0.47930642  1
  Se  Se25  1  0.02069358  0.52069358  0.97930642  1
  Se  Se26  1  0.97930642  0.02069358  0.52069358  1
  Se  Se27  1  0.52069358  0.97930642  0.02069358  1
  Ag  Ag28  1  0.07007323  0.89296618  0.72779440  1
  Ag  Ag29  1  0.72779440  0.07007323  0.89296618  1
  Ag  Ag30  1  0.89296618  0.72779440  0.07007323  1
  Ag  Ag31  1  0.60703382  0.27220560  0.57007323  1
  Ag  Ag32  1  0.22779440  0.42992677  0.10703382  1
  Ag  Ag33  1  0.10703382  0.22779440  0.42992677  1
  Ag  Ag34  1  0.77220560  0.92992677  0.39296618  1
  Ag  Ag35  1  0.27220560  0.57007323  0.60703382  1
  Ag  Ag36  1  0.39296618  0.77220560  0.92992677  1
  Ag  Ag37  1  0.57007323  0.60703382  0.27220560  1
  Ag  Ag38  1  0.92992677  0.39296618  0.77220560  1
  Ag  Ag39  1  0.42992677  0.10703382  0.22779440  1
  Ag  Ag40  1  0.01040724  0.01841537  0.27897313  1
  Ag  Ag41  1  0.27897313  0.01040724  0.01841537  1
  Ag  Ag42  1  0.01841537  0.27897313  0.01040724  1
  Ag  Ag43  1  0.48158463  0.72102687  0.51040724  1
  Ag  Ag44  1  0.77897313  0.48959276  0.98158463  1
  Ag  Ag45  1  0.98158463  0.77897313  0.48959276  1
  Ag  Ag46  1  0.22102687  0.98959276  0.51841537  1
  Ag  Ag47  1  0.72102687  0.51040724  0.48158463  1
  Ag  Ag48  1  0.51841537  0.22102687  0.98959276  1
  Ag  Ag49  1  0.51040724  0.48158463  0.72102687  1
  Ag  Ag50  1  0.98959276  0.51841537  0.22102687  1
  Ag  Ag51  1  0.48959276  0.98158463  0.77897313  1
  Ag  Ag52  1  0.34474955  0.34474955  0.34474955  1
  Ag  Ag53  1  0.15525045  0.65525045  0.84474955  1
  Ag  Ag54  1  0.84474955  0.15525045  0.65525045  1
  Ag  Ag55  1  0.65525045  0.84474955  0.15525045  1
