# generated using pymatgen
data_Li9Mn2Co5O16
_symmetry_space_group_name_H-M   'P 1'
_cell_length_a   2.94333691
_cell_length_b   10.16174474
_cell_length_c   10.04864020
_cell_angle_alpha   72.18135396
_cell_angle_beta   88.58551099
_cell_angle_gamma   90.88685645
_symmetry_Int_Tables_number   1
_chemical_formula_structural   Li9Mn2Co5O16
_chemical_formula_sum   'Li9 Mn2 Co5 O16'
_cell_volume   285.96083838
_cell_formula_units_Z   1
loop_
 _symmetry_equiv_pos_site_id
 _symmetry_equiv_pos_as_xyz
  1  'x, y, z'
loop_
 _atom_site_type_symbol
 _atom_site_label
 _atom_site_symmetry_multiplicity
 _atom_site_fract_x
 _atom_site_fract_y
 _atom_site_fract_z
 _atom_site_occupancy
  Li  Li0  1  0.99635796  0.25176809  0.74140280  1
  Li  Li1  1  0.49350419  0.75524561  0.49618049  1
  Li  Li2  1  0.99451702  0.25069931  0.25561008  1
  Li  Li3  1  0.50183318  0.24751367  0.50069736  1
  Li  Li4  1  0.00379125  0.74265892  0.25632377  1
  Li  Li5  1  0.50576327  0.26016960  0.00678914  1
  Li  Li6  1  0.50075677  0.73871170  0.99294966  1
  Li  Li7  1  0.01359810  0.74636895  0.75384430  1
  Li  Li8  1  0.98747641  0.51050795  0.99479318  1
  Mn  Mn9  1  0.98503364  0.00330198  0.00034458  1
  Mn  Mn10  1  0.51288866  0.49970064  0.75525958  1
  Co  Co11  1  0.01461386  0.99781989  0.50716179  1
  Co  Co12  1  0.48929361  0.49923635  0.24047926  1
  Co  Co13  1  0.01223660  0.49591597  0.49962278  1
  Co  Co14  1  0.50499936  0.00220175  0.25209651  1
  Co  Co15  1  0.49171674  0.99646652  0.74527528  1
  O  O16  1  0.49907829  0.11231355  0.89291542  1
  O  O17  1  0.02474548  0.60244815  0.63126416  1
  O  O18  1  0.51693192  0.11186711  0.37425909  1
  O  O19  1  0.99700024  0.12057101  0.62055139  1
  O  O20  1  0.47229951  0.60817155  0.37502976  1
  O  O21  1  0.96550875  0.11750776  0.12566007  1
  O  O22  1  0.95076431  0.61752207  0.13707234  1
  O  O23  1  0.50289985  0.61726272  0.86203192  1
  O  O24  1  0.54230401  0.38549984  0.62308389  1
  O  O25  1  0.03835968  0.88488653  0.36745828  1
  O  O26  1  0.49217275  0.38560084  0.14072201  1
  O  O27  1  0.02594860  0.38978547  0.37285110  1
  O  O28  1  0.47480012  0.89790018  0.11656464  1
  O  O29  1  0.00070834  0.38887204  0.85964644  1
  O  O30  1  0.98971298  0.88577948  0.88494146  1
  O  O31  1  0.49838459  0.87572482  0.61711747  1
