# generated using pymatgen
data_PaGaFe2
_symmetry_space_group_name_H-M   'P 1'
_cell_length_a   4.42522568
_cell_length_b   4.42481099
_cell_length_c   4.42441743
_cell_angle_alpha   60.00426971
_cell_angle_beta   60.00390903
_cell_angle_gamma   59.99507068
_symmetry_Int_Tables_number   1
_chemical_formula_structural   PaGaFe2
_chemical_formula_sum   'Pa1 Ga1 Fe2'
_cell_volume   61.26069255
_cell_formula_units_Z   1
loop_
 _symmetry_equiv_pos_site_id
 _symmetry_equiv_pos_as_xyz
  1  'x, y, z'
loop_
 _atom_site_type_symbol
 _atom_site_label
 _atom_site_symmetry_multiplicity
 _atom_site_fract_x
 _atom_site_fract_y
 _atom_site_fract_z
 _atom_site_occupancy
  Pa  Pa0  1  0.74999833  0.74999406  0.75000147  1
  Ga  Ga1  1  0.25001175  0.24999249  0.24999810  1
  Fe  Fe2  1  0.99996643  0.99997663  0.00000625  1
  Fe  Fe3  1  0.50002349  0.50003682  0.49999418  1
