# generated using pymatgen
data_Pu2BiAu
_symmetry_space_group_name_H-M   'P 1'
_cell_length_a   5.34950816
_cell_length_b   5.34948950
_cell_length_c   5.35033294
_cell_angle_alpha   60.00081304
_cell_angle_beta   59.99757432
_cell_angle_gamma   59.99411357
_symmetry_Int_Tables_number   1
_chemical_formula_structural   Pu2BiAu
_chemical_formula_sum   'Pu2 Bi1 Au1'
_cell_volume   108.25984131
_cell_formula_units_Z   1
loop_
 _symmetry_equiv_pos_site_id
 _symmetry_equiv_pos_as_xyz
  1  'x, y, z'
loop_
 _atom_site_type_symbol
 _atom_site_label
 _atom_site_symmetry_multiplicity
 _atom_site_fract_x
 _atom_site_fract_y
 _atom_site_fract_z
 _atom_site_occupancy
  Pu  Pu0  1  -0.00000075  -0.00000014  0.00000132  1
  Pu  Pu1  1  0.50000062  0.50000084  0.49999837  1
  Bi  Bi2  1  0.75000077  0.75000088  0.75000169  1
  Au  Au3  1  0.25000136  0.25000042  0.25000062  1
