# generated using pymatgen
data_Li9Mn2Co5O16
_symmetry_space_group_name_H-M   'P 1'
_cell_length_a   5.79878090
_cell_length_b   10.25043805
_cell_length_c   5.88581521
_cell_angle_alpha   90.28612170
_cell_angle_beta   119.51204137
_cell_angle_gamma   73.56930923
_symmetry_Int_Tables_number   1
_chemical_formula_structural   Li9Mn2Co5O16
_chemical_formula_sum   'Li9 Mn2 Co5 O16'
_cell_volume   288.22004077
_cell_formula_units_Z   1
loop_
 _symmetry_equiv_pos_site_id
 _symmetry_equiv_pos_as_xyz
  1  'x, y, z'
loop_
 _atom_site_type_symbol
 _atom_site_label
 _atom_site_symmetry_multiplicity
 _atom_site_fract_x
 _atom_site_fract_y
 _atom_site_fract_z
 _atom_site_occupancy
  Li  Li0  1  0.01470297  0.24114546  0.76140424  1
  Li  Li1  1  0.49444419  0.75885454  0.23859576  1
  Li  Li2  1  0.00845858  0.23902360  0.25594076  1
  Li  Li3  1  0.49711346  0.76467120  0.75889811  1
  Li  Li4  1  0.50288654  0.23532880  0.24110189  1
  Li  Li5  1  0.99154142  0.76097640  0.74405924  1
  Li  Li6  1  0.50555581  0.24114546  0.76140424  1
  Li  Li7  1  0.98529703  0.75885454  0.23859576  1
  Li  Li8  1  0.50000000  -0.00000000  -0.00000000  1
  Mn  Mn9  1  -0.00000000  -0.00000000  -0.00000000  1
  Mn  Mn10  1  0.50000000  0.50000000  0.50000000  1
  Co  Co11  1  -0.00000000  -0.00000000  0.50000000  1
  Co  Co12  1  0.50000000  0.50000000  -0.00000000  1
  Co  Co13  1  0.50000000  -0.00000000  0.50000000  1
  Co  Co14  1  -0.00000000  0.50000000  -0.00000000  1
  Co  Co15  1  -0.00000000  0.50000000  0.50000000  1
  O  O16  1  0.24267670  0.11441406  0.12854947  1
  O  O17  1  0.74834954  0.61160891  0.61979475  1
  O  O18  1  0.24897490  0.11146424  0.60941403  1
  O  O19  1  0.74425998  0.61572945  0.10424941  1
  O  O20  1  0.76686187  0.11550270  0.64922644  1
  O  O21  1  0.26906721  0.61124740  0.14938181  1
  O  O22  1  0.77145871  0.11441406  0.12854947  1
  O  O23  1  0.25983630  0.61160891  0.61979475  1
  O  O24  1  0.74016370  0.38839109  0.38020525  1
  O  O25  1  0.22854129  0.88558594  0.87145053  1
  O  O26  1  0.73093279  0.38875260  0.85061819  1
  O  O27  1  0.23313813  0.88449730  0.35077356  1
  O  O28  1  0.25574002  0.38427055  0.89575059  1
  O  O29  1  0.75102510  0.88853576  0.39058597  1
  O  O30  1  0.25165046  0.38839109  0.38020525  1
  O  O31  1  0.75732330  0.88558594  0.87145053  1
