# generated using pymatgen
data_Li9Mn2Co5O16
_symmetry_space_group_name_H-M   'P 1'
_cell_length_a   2.87834590
_cell_length_b   5.10326251
_cell_length_c   20.61418107
_cell_angle_alpha   98.49314281
_cell_angle_beta   89.99999951
_cell_angle_gamma   73.61978005
_symmetry_Int_Tables_number   1
_chemical_formula_structural   Li9Mn2Co5O16
_chemical_formula_sum   'Li9 Mn2 Co5 O16'
_cell_volume   287.04771663
_cell_formula_units_Z   1
loop_
 _symmetry_equiv_pos_site_id
 _symmetry_equiv_pos_as_xyz
  1  'x, y, z'
loop_
 _atom_site_type_symbol
 _atom_site_label
 _atom_site_symmetry_multiplicity
 _atom_site_fract_x
 _atom_site_fract_y
 _atom_site_fract_z
 _atom_site_occupancy
  Li  Li0  1  0.24859243  0.50281514  0.06721843  1
  Li  Li1  1  0.75140757  0.49718486  0.18278157  1
  Li  Li2  1  0.25453842  0.49092316  0.31137447  1
  Li  Li3  1  0.74716893  0.50566214  0.43608312  1
  Li  Li4  1  0.25197372  0.49605256  0.56475946  1
  Li  Li5  1  0.74802628  0.50394744  0.68524054  1
  Li  Li6  1  0.25283107  0.49433786  0.81391688  1
  Li  Li7  1  0.74546158  0.50907684  0.93862553  1
  Li  Li8  1  0.50000000  -0.00000000  0.12500000  1
  Mn  Mn9  1  0.99430187  0.01139627  0.00488737  1
  Mn  Mn10  1  0.00569813  0.98860373  0.24511263  1
  Co  Co11  1  0.50322468  0.99355063  0.37381466  1
  Co  Co12  1  0.99936559  0.00126881  0.50028454  1
  Co  Co13  1  0.50000000  -0.00000000  0.62500000  1
  Co  Co14  1  0.00063441  0.99873119  0.74971546  1
  Co  Co15  1  0.49677532  0.00644937  0.87618534  1
  O  O16  1  0.38794243  0.22411514  0.97049268  1
  O  O17  1  0.88235637  0.23528726  0.08449678  1
  O  O18  1  0.39024135  0.21951731  0.22288847  1
  O  O19  1  0.89165471  0.21669058  0.34104740  1
  O  O20  1  0.39116919  0.21766161  0.46934306  1
  O  O21  1  0.88100229  0.23799541  0.59557840  1
  O  O22  1  0.39162990  0.21674020  0.72097987  1
  O  O23  1  0.88074294  0.23851411  0.84692732  1
  O  O24  1  0.11764363  0.76471274  0.16550322  1
  O  O25  1  0.61205757  0.77588486  0.27950732  1
  O  O26  1  0.11925706  0.76148589  0.40307268  1
  O  O27  1  0.60837010  0.78325980  0.52902013  1
  O  O28  1  0.11899771  0.76200459  0.65442160  1
  O  O29  1  0.60883081  0.78233839  0.78065694  1
  O  O30  1  0.10834529  0.78330942  0.90895260  1
  O  O31  1  0.60975865  0.78048269  0.02711153  1
