# generated using pymatgen
data_Li9Mn2Co5O16
_symmetry_space_group_name_H-M   'P 1'
_cell_length_a   5.84010441
_cell_length_b   10.27884583
_cell_length_c   5.85769465
_cell_angle_alpha   90.07815294
_cell_angle_beta   119.90071559
_cell_angle_gamma   73.49591702
_symmetry_Int_Tables_number   1
_chemical_formula_structural   Li9Mn2Co5O16
_chemical_formula_sum   'Li9 Mn2 Co5 O16'
_cell_volume   288.07875704
_cell_formula_units_Z   1
loop_
 _symmetry_equiv_pos_site_id
 _symmetry_equiv_pos_as_xyz
  1  'x, y, z'
loop_
 _atom_site_type_symbol
 _atom_site_label
 _atom_site_symmetry_multiplicity
 _atom_site_fract_x
 _atom_site_fract_y
 _atom_site_fract_z
 _atom_site_occupancy
  Li  Li0  1  0.98676894  0.25775475  0.74018909  1
  Li  Li1  1  0.50433461  0.74224525  0.25981091  1
  Li  Li2  1  0.99545347  0.25762393  0.24853087  1
  Li  Li3  1  0.50540847  0.73497445  0.74579138  1
  Li  Li4  1  0.49459153  0.26502555  0.25420862  1
  Li  Li5  1  0.00454653  0.74237607  0.75146913  1
  Li  Li6  1  0.49566539  0.25775475  0.74018909  1
  Li  Li7  1  0.01323106  0.74224525  0.25981091  1
  Li  Li8  1  0.50000000  0.50000000  0.50000000  1
  Mn  Mn9  1  0.00000000  -0.00000000  0.00000000  1
  Mn  Mn10  1  0.00000000  0.50000000  0.50000000  1
  Co  Co11  1  0.00000000  -0.00000000  0.50000000  1
  Co  Co12  1  0.50000000  0.50000000  0.00000000  1
  Co  Co13  1  0.50000000  -0.00000000  0.50000000  1
  Co  Co14  1  0.00000000  0.50000000  0.00000000  1
  Co  Co15  1  0.50000000  -0.00000000  0.00000000  1
  O  O16  1  0.24307513  0.11282851  0.12190856  1
  O  O17  1  0.77175319  0.61346201  0.62724672  1
  O  O18  1  0.25221191  0.11157814  0.61600196  1
  O  O19  1  0.76388223  0.61736583  0.14513029  1
  O  O20  1  0.76503209  0.11589135  0.64595554  1
  O  O21  1  0.25040269  0.60824099  0.10904637  1
  O  O22  1  0.76600491  0.11282851  0.12190856  1
  O  O23  1  0.24203151  0.61346201  0.62724672  1
  O  O24  1  0.75796849  0.38653799  0.37275328  1
  O  O25  1  0.23399509  0.88717149  0.87809144  1
  O  O26  1  0.74959731  0.39175901  0.89095363  1
  O  O27  1  0.23496791  0.88410865  0.35404446  1
  O  O28  1  0.23611777  0.38263417  0.85486971  1
  O  O29  1  0.74778809  0.88842186  0.38399804  1
  O  O30  1  0.22824681  0.38653799  0.37275328  1
  O  O31  1  0.75692487  0.88717149  0.87809144  1
