# generated using pymatgen
data_Li9Mn2Co5O16
_symmetry_space_group_name_H-M   'P 1'
_cell_length_a   2.90922003
_cell_length_b   19.43215150
_cell_length_c   5.14111435
_cell_angle_alpha   94.76454609
_cell_angle_beta   90.65495545
_cell_angle_gamma   83.09385237
_symmetry_Int_Tables_number   1
_chemical_formula_structural   Li9Mn2Co5O16
_chemical_formula_sum   'Li9 Mn2 Co5 O16'
_cell_volume   287.53346485
_cell_formula_units_Z   1
loop_
 _symmetry_equiv_pos_site_id
 _symmetry_equiv_pos_as_xyz
  1  'x, y, z'
loop_
 _atom_site_type_symbol
 _atom_site_label
 _atom_site_symmetry_multiplicity
 _atom_site_fract_x
 _atom_site_fract_y
 _atom_site_fract_z
 _atom_site_occupancy
  Li  Li0  1  0.85892980  0.12783731  0.37861735  1
  Li  Li1  1  0.26928713  0.24324440  0.25109113  1
  Li  Li2  1  0.63707751  0.37281470  0.12252188  1
  Li  Li3  1  0.01413584  0.50392944  0.00178121  1
  Li  Li4  1  0.37749610  0.62614286  0.87209195  1
  Li  Li5  1  0.74568395  0.75042506  0.75279065  1
  Li  Li6  1  0.12073968  0.87460720  0.62251812  1
  Li  Li7  1  0.48273697  0.00434564  0.50530630  1
  Li  Li8  1  0.37751143  0.12294094  0.86701238  1
  Mn  Mn9  1  0.98626028  0.00318607  0.98839030  1
  Mn  Mn10  1  0.13330443  0.37471170  0.62591343  1
  Co  Co11  1  0.75975430  0.24046023  0.77145344  1
  Co  Co12  1  0.51687711  0.50224575  0.49171928  1
  Co  Co13  1  0.88211549  0.62545848  0.37376271  1
  Co  Co14  1  0.24209086  0.74944019  0.25909930  1
  Co  Co15  1  0.61186704  0.87461308  0.12725600  1
  O  O16  1  0.44785301  0.05390657  0.16465030  1
  O  O17  1  0.80546927  0.19337084  0.05376865  1
  O  O18  1  0.19009700  0.31469049  0.90156549  1
  O  O19  1  0.58768157  0.43240721  0.79040248  1
  O  O20  1  0.95253031  0.56372338  0.65886842  1
  O  O21  1  0.28098018  0.68507699  0.54911365  1
  O  O22  1  0.66954406  0.80991855  0.42732502  1
  O  O23  1  0.03496964  0.93481030  0.28212183  1
  O  O24  1  0.29983283  0.19280250  0.57160093  1
  O  O25  1  0.67398562  0.32133804  0.46216379  1
  O  O26  1  0.08091078  0.43668678  0.33807419  1
  O  O27  1  0.48571733  0.56470014  0.19538481  1
  O  O28  1  0.81177663  0.68833497  0.09133745  1
  O  O29  1  0.18916159  0.81372718  0.95715652  1
  O  O30  1  0.53435959  0.94208581  0.83447956  1
  O  O31  1  0.93925469  0.05601921  0.71065648  1
