# generated using pymatgen
data_Mn6OF11
_symmetry_space_group_name_H-M   'P 1'
_cell_length_a   5.23403714
_cell_length_b   5.23403714
_cell_length_c   15.71340545
_cell_angle_alpha   90.00000000
_cell_angle_beta   90.00000000
_cell_angle_gamma   91.34333141
_symmetry_Int_Tables_number   1
_chemical_formula_structural   Mn6OF11
_chemical_formula_sum   'Mn12 O2 F22'
_cell_volume   430.35270838
_cell_formula_units_Z   2
loop_
 _symmetry_equiv_pos_site_id
 _symmetry_equiv_pos_as_xyz
  1  'x, y, z'
loop_
 _atom_site_type_symbol
 _atom_site_label
 _atom_site_symmetry_multiplicity
 _atom_site_fract_x
 _atom_site_fract_y
 _atom_site_fract_z
 _atom_site_occupancy
  Mn  Mn0  1  -0.00000000  -0.00000000  0.00328738  1
  Mn  Mn1  1  -0.00000000  0.50000000  0.17364055  1
  Mn  Mn2  1  -0.00000000  -0.00000000  0.33801989  1
  Mn  Mn3  1  0.00000000  0.50000000  0.49952320  1
  Mn  Mn4  1  -0.00000000  -0.00000000  0.66757758  1
  Mn  Mn5  1  0.00000000  0.50000000  0.83508292  1
  Mn  Mn6  1  0.50000000  -0.00000000  0.17364055  1
  Mn  Mn7  1  0.50000000  0.50000000  0.00240369  1
  Mn  Mn8  1  0.50000000  0.50000000  0.66639943  1
  Mn  Mn9  1  0.50000000  -0.00000000  0.49952320  1
  Mn  Mn10  1  0.50000000  0.50000000  0.32239817  1
  Mn  Mn11  1  0.50000000  0.00000000  0.83508292  1
  O  O12  1  0.30457211  0.69542789  0.24746806  1
  O  O13  1  0.69542789  0.30457211  0.24746806  1
  F  F14  1  0.19968479  0.19968479  0.24417492  1
  F  F15  1  0.23093954  0.76906046  0.08783918  1
  F  F16  1  0.23625639  0.23625639  0.57872159  1
  F  F17  1  0.23463228  0.76536772  0.41874655  1
  F  F18  1  0.23591843  0.23591843  0.91559885  1
  F  F19  1  0.23759569  0.76240431  0.75178252  1
  F  F20  1  0.26676326  0.26676326  0.08429011  1
  F  F21  1  0.26255814  0.73744186  0.58440853  1
  F  F22  1  0.26342547  0.73657453  0.91929644  1
  F  F23  1  0.26164287  0.26164287  0.74831818  1
  F  F24  1  0.27186915  0.27186915  0.41106433  1
  F  F25  1  0.73657453  0.26342547  0.91929644  1
  F  F26  1  0.73744186  0.26255814  0.58440853  1
  F  F27  1  0.73323674  0.73323674  0.08429011  1
  F  F28  1  0.72813085  0.72813085  0.41106433  1
  F  F29  1  0.73835713  0.73835713  0.74831818  1
  F  F30  1  0.76536772  0.23463228  0.41874655  1
  F  F31  1  0.76906046  0.23093954  0.08783918  1
  F  F32  1  0.76240431  0.23759569  0.75178252  1
  F  F33  1  0.76374361  0.76374361  0.57872159  1
  F  F34  1  0.76408157  0.76408157  0.91559885  1
  F  F35  1  0.80031521  0.80031521  0.24417492  1
