# generated using pymatgen
data_Re3Os
_symmetry_space_group_name_H-M   'P 1'
_cell_length_a   5.56494144
_cell_length_b   5.56494079
_cell_length_c   4.43810308
_cell_angle_alpha   90.00000000
_cell_angle_beta   90.00000000
_cell_angle_gamma   119.99999161
_symmetry_Int_Tables_number   1
_chemical_formula_structural   Re3Os
_chemical_formula_sum   'Re6 Os2'
_cell_volume   119.02801750
_cell_formula_units_Z   2
loop_
 _symmetry_equiv_pos_site_id
 _symmetry_equiv_pos_as_xyz
  1  'x, y, z'
loop_
 _atom_site_type_symbol
 _atom_site_label
 _atom_site_symmetry_multiplicity
 _atom_site_fract_x
 _atom_site_fract_y
 _atom_site_fract_z
 _atom_site_occupancy
  Re  Re0  1  0.83443728  0.16556672  0.75000100  1
  Re  Re1  1  0.33112944  0.16556672  0.75000100  1
  Re  Re2  1  0.83443628  0.66886956  0.75000100  1
  Re  Re3  1  0.16556572  0.83443628  0.25000000  1
  Re  Re4  1  0.66887056  0.83443628  0.25000000  1
  Re  Re5  1  0.16556472  0.33112944  0.25000000  1
  Os  Os6  1  0.66666800  0.33333300  0.25000000  1
  Os  Os7  1  0.33333400  0.66666800  0.75000100  1
