# generated using pymatgen
data_Ba8(Bi2O7)3
_symmetry_space_group_name_H-M   'P 1'
_cell_length_a   14.10079254
_cell_length_b   8.88862264
_cell_length_c   10.80962936
_cell_angle_alpha   113.46421800
_cell_angle_beta   96.97688550
_cell_angle_gamma   90.52091735
_symmetry_Int_Tables_number   1
_chemical_formula_structural   Ba8(Bi2O7)3
_chemical_formula_sum   'Ba16 Bi12 O42'
_cell_volume   1231.14768834
_cell_formula_units_Z   2
loop_
 _symmetry_equiv_pos_site_id
 _symmetry_equiv_pos_as_xyz
  1  'x, y, z'
loop_
 _atom_site_type_symbol
 _atom_site_label
 _atom_site_symmetry_multiplicity
 _atom_site_fract_x
 _atom_site_fract_y
 _atom_site_fract_z
 _atom_site_occupancy
  Ba  Ba0  1  0.78661114  0.17670871  0.85168153  1
  Ba  Ba1  1  0.78843434  0.67417802  0.85827822  1
  Ba  Ba2  1  0.06698545  0.10563018  0.71388758  1
  Ba  Ba3  1  0.35896078  0.03511091  0.56561968  1
  Ba  Ba4  1  0.50185114  0.74525299  0.00119988  1
  Ba  Ba5  1  0.92802441  0.39475405  0.28606216  1
  Ba  Ba6  1  0.35903256  0.53302164  0.57201542  1
  Ba  Ba7  1  0.71182021  0.07018688  0.14219535  1
  Ba  Ba8  1  0.28817979  0.92981312  0.85780465  1
  Ba  Ba9  1  0.64096744  0.46697836  0.42798458  1
  Ba  Ba10  1  0.07197559  0.60524595  0.71393784  1
  Ba  Ba11  1  0.64103922  0.96488909  0.43438032  1
  Ba  Ba12  1  0.49814886  0.25474701  0.99880012  1
  Ba  Ba13  1  0.93301455  0.89436982  0.28611242  1
  Ba  Ba14  1  0.21156566  0.32582198  0.14172178  1
  Ba  Ba15  1  0.21338886  0.82329129  0.14831847  1
  Bi  Bi16  1  0.85814508  0.29108279  0.57678106  1
  Bi  Bi17  1  0.57241666  0.35716854  0.71543454  1
  Bi  Bi18  1  0.28538866  0.42892569  0.85640513  1
  Bi  Bi19  1  0.85735230  0.78471466  0.57096755  1
  Bi  Bi20  1  0.57599226  0.85424492  0.70766066  1
  Bi  Bi21  1  0.42400774  0.14575508  0.29233934  1
  Bi  Bi22  1  0.14264770  0.21528534  0.42903245  1
  Bi  Bi23  1  0.71461134  0.57107431  0.14359487  1
  Bi  Bi24  1  0.42758334  0.64283146  0.28456546  1
  Bi  Bi25  1  0.14185492  0.70891721  0.42321894  1
  Bi  Bi26  1  0.00000000  0.00000000  0.00000000  1
  Bi  Bi27  1  0.00000000  0.50000000  0.00000000  1
  O  O28  1  0.60564109  0.10283505  0.71556099  1
  O  O29  1  0.94507105  0.36083714  0.77686199  1
  O  O30  1  0.62808520  0.50765981  0.94194911  1
  O  O31  1  0.83634417  0.03680193  0.56150216  1
  O  O32  1  0.97091350  0.75071098  0.99210723  1
  O  O33  1  0.25043076  0.19420363  0.84026859  1
  O  O34  1  0.99139786  0.21582680  0.48584441  1
  O  O35  1  0.41950131  0.34382190  0.76748248  1
  O  O36  1  0.73042310  0.36129394  0.67720356  1
  O  O37  1  0.15408344  0.51670345  0.95075200  1
  O  O38  1  0.88483914  0.54904861  0.60331177  1
  O  O39  1  0.32172063  0.66238775  0.87332131  1
  O  O40  1  0.50944160  0.21029546  0.49230854  1
  O  O41  1  0.66540838  0.90913700  0.88990245  1
  O  O42  1  0.77735752  0.23631312  0.38894172  1
  O  O43  1  0.90932575  0.93150725  0.79930524  1
  O  O44  1  0.20091678  0.36635683  0.65417580  1
  O  O45  1  0.54933902  0.59689951  0.68152614  1
  O  O46  1  0.70190543  0.77768982  0.59871297  1
  O  O47  1  0.54376028  0.06248506  0.19542933  1
  O  O48  1  0.88323436  0.08308205  0.10202785  1
  O  O49  1  0.11676564  0.91691795  0.89797215  1
  O  O50  1  0.45623972  0.93751494  0.80457067  1
  O  O51  1  0.29809457  0.22231018  0.40128703  1
  O  O52  1  0.45066098  0.40310049  0.31847386  1
  O  O53  1  0.79908322  0.63364317  0.34582420  1
  O  O54  1  0.09067425  0.06849275  0.20069476  1
  O  O55  1  0.22264248  0.76368688  0.61105828  1
  O  O56  1  0.49055840  0.78970454  0.50769146  1
  O  O57  1  0.33459162  0.09086300  0.11009755  1
  O  O58  1  0.67827937  0.33761225  0.12667869  1
  O  O59  1  0.11516086  0.45095139  0.39668823  1
  O  O60  1  0.84591656  0.48329655  0.04924800  1
  O  O61  1  0.26957690  0.63870606  0.32279644  1
  O  O62  1  0.58049869  0.65617810  0.23251752  1
  O  O63  1  0.00860214  0.78417320  0.51415559  1
  O  O64  1  0.74956924  0.80579637  0.15973141  1
  O  O65  1  0.02908650  0.24928902  0.00789277  1
  O  O66  1  0.16365583  0.96319807  0.43849784  1
  O  O67  1  0.37191480  0.49234019  0.05805089  1
  O  O68  1  0.05492895  0.63916286  0.22313801  1
  O  O69  1  0.39435891  0.89716495  0.28443901  1
