# generated using pymatgen
data_Sm2Co12P7
_symmetry_space_group_name_H-M   'P 1'
_cell_length_a   9.07571462
_cell_length_b   9.07308952
_cell_length_c   3.62334107
_cell_angle_alpha   90.00000000
_cell_angle_beta   90.00000000
_cell_angle_gamma   119.97334692
_symmetry_Int_Tables_number   1
_chemical_formula_structural   Sm2Co12P7
_chemical_formula_sum   'Sm2 Co12 P7'
_cell_volume   258.45947232
_cell_formula_units_Z   1
loop_
 _symmetry_equiv_pos_site_id
 _symmetry_equiv_pos_as_xyz
  1  'x, y, z'
loop_
 _atom_site_type_symbol
 _atom_site_label
 _atom_site_symmetry_multiplicity
 _atom_site_fract_x
 _atom_site_fract_y
 _atom_site_fract_z
 _atom_site_occupancy
  Sm  Sm0  1  0.66672980  0.33350486  0.50000100  1
  Sm  Sm1  1  0.33330441  0.66655069  0.00000000  1
  Co  Co2  1  0.43284226  0.05874697  0.00000000  1
  Co  Co3  1  0.94119235  0.37415593  0.00000000  1
  Co  Co4  1  0.62574887  0.56701185  0.00000000  1
  Co  Co5  1  0.38187901  0.43326780  0.50000100  1
  Co  Co6  1  0.56662303  0.94853449  0.50000100  1
  Co  Co7  1  0.05138067  0.61811018  0.50000100  1
  Co  Co8  1  0.15164681  0.27109814  0.00000000  1
  Co  Co9  1  0.72890754  0.88039774  0.00000000  1
  Co  Co10  1  0.11955671  0.84850002  0.00000000  1
  Co  Co11  1  0.23228694  0.10297067  0.50000100  1
  Co  Co12  1  0.89699186  0.12921117  0.50000100  1
  Co  Co13  1  0.87086829  0.76786484  0.50000100  1
  P  P14  1  0.10773149  0.39929388  0.50000100  1
  P  P15  1  0.60074231  0.70841917  0.50000100  1
  P  P16  1  0.29148484  0.89228230  0.50000100  1
  P  P17  1  0.00002806  0.99991678  0.00000000  1
  P  P18  1  0.40339769  0.29401153  0.00000000  1
  P  P19  1  0.70606616  0.10955549  0.00000000  1
  P  P20  1  0.89058893  0.59659350  0.00000000  1
