# generated using pymatgen
data_Tm3Ni7B2
_symmetry_space_group_name_H-M   'P 1'
_cell_length_a   5.02816616
_cell_length_b   5.02837584
_cell_length_c   14.23462913
_cell_angle_alpha   89.99821934
_cell_angle_beta   90.00150709
_cell_angle_gamma   120.01090029
_symmetry_Int_Tables_number   1
_chemical_formula_structural   Tm3Ni7B2
_chemical_formula_sum   'Tm6 Ni14 B4'
_cell_volume   311.64949444
_cell_formula_units_Z   2
loop_
 _symmetry_equiv_pos_site_id
 _symmetry_equiv_pos_as_xyz
  1  'x, y, z'
loop_
 _atom_site_type_symbol
 _atom_site_label
 _atom_site_symmetry_multiplicity
 _atom_site_fract_x
 _atom_site_fract_y
 _atom_site_fract_z
 _atom_site_occupancy
  Tm  Tm0  1  0.33333776  0.66665785  0.53241845  1
  Tm  Tm1  1  0.66666360  0.33333563  0.03229137  1
  Tm  Tm2  1  0.66666781  0.33332494  0.46773920  1
  Tm  Tm3  1  0.33333696  0.66665814  0.96758539  1
  Tm  Tm4  1  0.33332612  0.66666928  0.74997328  1
  Tm  Tm5  1  0.66666185  0.33333072  0.25001896  1
  Ni  Ni6  1  0.99999599  -0.00000062  -0.00010462  1
  Ni  Ni7  1  -0.00000318  0.99999788  0.50009681  1
  Ni  Ni8  1  0.16581849  0.33162373  0.14809852  1
  Ni  Ni9  1  0.83418708  0.66839524  0.64815158  1
  Ni  Ni10  1  0.66837863  0.83419103  0.14809449  1
  Ni  Ni11  1  0.16581341  0.83417237  0.14811340  1
  Ni  Ni12  1  0.83418959  0.16579830  0.64815085  1
  Ni  Ni13  1  0.33160293  0.16581208  0.64814705  1
  Ni  Ni14  1  0.83417986  0.66835996  0.85184166  1
  Ni  Ni15  1  0.83416862  0.16582901  0.85184858  1
  Ni  Ni16  1  0.33162928  0.16583352  0.85185198  1
  Ni  Ni17  1  0.66841330  0.83421183  0.35190247  1
  Ni  Ni18  1  0.16577556  0.83421246  0.35188224  1
  Ni  Ni19  1  0.16578489  0.33157448  0.35189794  1
  B  B20  1  0.33333069  0.66666788  0.25001856  1
  B  B21  1  0.66665478  0.33333573  0.74998035  1
  B  B22  1  0.00000673  0.99998493  0.25000105  1
  B  B23  1  0.99997724  0.00001963  0.75000044  1
