# generated using pymatgen
data_Zr9CoMo4
_symmetry_space_group_name_H-M   'P 1'
_cell_length_a   8.80690162
_cell_length_b   8.80690302
_cell_length_c   8.44427869
_cell_angle_alpha   90.00000000
_cell_angle_beta   90.00000000
_cell_angle_gamma   119.99014750
_symmetry_Int_Tables_number   1
_chemical_formula_structural   Zr9CoMo4
_chemical_formula_sum   'Zr18 Co2 Mo8'
_cell_volume   567.26064882
_cell_formula_units_Z   2
loop_
 _symmetry_equiv_pos_site_id
 _symmetry_equiv_pos_as_xyz
  1  'x, y, z'
loop_
 _atom_site_type_symbol
 _atom_site_label
 _atom_site_symmetry_multiplicity
 _atom_site_fract_x
 _atom_site_fract_y
 _atom_site_fract_z
 _atom_site_occupancy
  Zr  Zr0  1  0.54252777  0.08501411  0.25000000  1
  Zr  Zr1  1  0.45747023  0.91498489  0.75000000  1
  Zr  Zr2  1  0.91498589  0.45747223  0.25000000  1
  Zr  Zr3  1  0.54250894  0.45748906  0.25000000  1
  Zr  Zr4  1  0.45749006  0.54250894  0.75000000  1
  Zr  Zr5  1  0.08501411  0.54252877  0.75000000  1
  Zr  Zr6  1  0.20098121  0.40197977  0.05777656  1
  Zr  Zr7  1  0.79901879  0.59801823  0.55777656  1
  Zr  Zr8  1  0.59801923  0.79901979  0.05777656  1
  Zr  Zr9  1  0.20097938  0.79902062  0.05771496  1
  Zr  Zr10  1  0.79902162  0.20097938  0.55771496  1
  Zr  Zr11  1  0.40198077  0.20098121  0.55777656  1
  Zr  Zr12  1  0.79901879  0.59801823  0.94222344  1
  Zr  Zr13  1  0.79902162  0.20097938  0.94228504  1
  Zr  Zr14  1  0.40198077  0.20098121  0.94222344  1
  Zr  Zr15  1  0.59801923  0.79901979  0.44222344  1
  Zr  Zr16  1  0.20097938  0.79902062  0.44228604  1
  Zr  Zr17  1  0.20098121  0.40197977  0.44222344  1
  Co  Co18  1  0.33329921  0.66669979  0.25000000  1
  Co  Co19  1  0.66669979  0.33329921  0.75000000  1
  Mo  Mo20  1  -0.00000000  -0.00000000  -0.00000000  1
  Mo  Mo21  1  -0.00000000  -0.00000000  0.50000000  1
  Mo  Mo22  1  0.88954928  0.77914506  0.25000000  1
  Mo  Mo23  1  0.11045072  0.22085494  0.75000000  1
  Mo  Mo24  1  0.22085594  0.11045072  0.25000000  1
  Mo  Mo25  1  0.88955525  0.11044575  0.25000000  1
  Mo  Mo26  1  0.11044575  0.88955425  0.75000000  1
  Mo  Mo27  1  0.77914506  0.88954828  0.75000000  1
