# generated using pymatgen
data_KH8N3
_symmetry_space_group_name_H-M   'P 1'
_cell_length_a   5.98727921
_cell_length_b   5.98727921
_cell_length_c   6.59160090
_cell_angle_alpha   90.00000000
_cell_angle_beta   90.00000000
_cell_angle_gamma   70.50843905
_symmetry_Int_Tables_number   1
_chemical_formula_structural   KH8N3
_chemical_formula_sum   'K2 H16 N6'
_cell_volume   222.75072454
_cell_formula_units_Z   2
loop_
 _symmetry_equiv_pos_site_id
 _symmetry_equiv_pos_as_xyz
  1  'x, y, z'
loop_
 _atom_site_type_symbol
 _atom_site_label
 _atom_site_symmetry_multiplicity
 _atom_site_fract_x
 _atom_site_fract_y
 _atom_site_fract_z
 _atom_site_occupancy
  K  K0  1  0.06352145  0.06352145  0.25000000  1
  K  K1  1  0.93647855  0.93647855  0.75000000  1
  H  H2  1  0.21203835  0.48112204  0.02346795  1
  H  H3  1  0.92762270  0.50501909  0.05277563  1
  H  H4  1  0.58917291  0.41919245  0.12156559  1
  H  H5  1  0.07803256  0.59286695  0.23357832  1
  H  H6  1  0.59286695  0.07803256  0.26642168  1
  H  H7  1  0.41919245  0.58917291  0.37843441  1
  H  H8  1  0.50501909  0.92762270  0.44722437  1
  H  H9  1  0.48112204  0.21203835  0.47653205  1
  H  H10  1  0.78796065  0.51887796  0.52346695  1
  H  H11  1  0.07237730  0.49498191  0.55277563  1
  H  H12  1  0.41082709  0.58080855  0.62156459  1
  H  H13  1  0.92196744  0.40713405  0.73357732  1
  H  H14  1  0.40713405  0.92196744  0.76642168  1
  H  H15  1  0.58080855  0.41082709  0.87843441  1
  H  H16  1  0.49498191  0.07237730  0.94722537  1
  H  H17  1  0.51887796  0.78796065  0.97653205  1
  N  N18  1  0.67884277  0.32115623  0.00000000  1
  N  N19  1  0.05234196  0.58863148  0.08045882  1
  N  N20  1  0.58863148  0.05234196  0.41954018  1
  N  N21  1  0.32115623  0.67884277  0.49999900  1
  N  N22  1  0.94765904  0.41136852  0.58045982  1
  N  N23  1  0.41136852  0.94765904  0.91954118  1
