# generated using pymatgen
data_Sm2Mn12P7
_symmetry_space_group_name_H-M   'P 1'
_cell_length_a   9.32846112
_cell_length_b   9.32018703
_cell_length_c   3.62999897
_cell_angle_alpha   90.00000000
_cell_angle_beta   90.00000000
_cell_angle_gamma   119.97901736
_symmetry_Int_Tables_number   1
_chemical_formula_structural   Sm2Mn12P7
_chemical_formula_sum   'Sm2 Mn12 P7'
_cell_volume   273.37799428
_cell_formula_units_Z   1
loop_
 _symmetry_equiv_pos_site_id
 _symmetry_equiv_pos_as_xyz
  1  'x, y, z'
loop_
 _atom_site_type_symbol
 _atom_site_label
 _atom_site_symmetry_multiplicity
 _atom_site_fract_x
 _atom_site_fract_y
 _atom_site_fract_z
 _atom_site_occupancy
  Sm  Sm0  1  0.66692963  0.33377784  0.49999900  1
  Sm  Sm1  1  0.33323254  0.66606247  0.00000000  1
  Mn  Mn2  1  0.42574128  0.04791003  0.00000000  1
  Mn  Mn3  1  0.95233989  0.37827187  0.00000000  1
  Mn  Mn4  1  0.62230489  0.57450902  0.00000000  1
  Mn  Mn5  1  0.15461584  0.27418542  0.00000000  1
  Mn  Mn6  1  0.72466958  0.87972631  0.00000000  1
  Mn  Mn7  1  0.12086933  0.84610740  0.00000000  1
  Mn  Mn8  1  0.39053617  0.43512626  0.49999900  1
  Mn  Mn9  1  0.56459421  0.95533615  0.49999900  1
  Mn  Mn10  1  0.04537405  0.60966269  0.49999900  1
  Mn  Mn11  1  0.22212600  0.10129095  0.49999900  1
  Mn  Mn12  1  0.89756249  0.12128042  0.49999900  1
  Mn  Mn13  1  0.87885668  0.77694104  0.49999900  1
  P  P14  1  0.12269453  0.40455290  0.49999900  1
  P  P15  1  0.59482191  0.71787859  0.49999900  1
  P  P16  1  0.28292012  0.87706757  0.49999900  1
  P  P17  1  0.99923775  -0.00044038  0.00000000  1
  P  P18  1  0.40691564  0.28887936  0.00000000  1
  P  P19  1  0.71094483  0.11813423  0.00000000  1
  P  P20  1  0.88270663  0.59373586  0.00000000  1
