# generated using pymatgen
data_Mn3NiSn2(PO4)6
_symmetry_space_group_name_H-M   'P 1'
_cell_length_a   8.57090108
_cell_length_b   8.57090085
_cell_length_c   8.57090040
_cell_angle_alpha   61.50476173
_cell_angle_beta   61.50476212
_cell_angle_gamma   61.50476440
_symmetry_Int_Tables_number   1
_chemical_formula_structural   Mn3NiSn2(PO4)6
_chemical_formula_sum   'Mn3 Ni1 Sn2 P6 O24'
_cell_volume   460.24729337
_cell_formula_units_Z   1
loop_
 _symmetry_equiv_pos_site_id
 _symmetry_equiv_pos_as_xyz
  1  'x, y, z'
loop_
 _atom_site_type_symbol
 _atom_site_label
 _atom_site_symmetry_multiplicity
 _atom_site_fract_x
 _atom_site_fract_y
 _atom_site_fract_z
 _atom_site_occupancy
  Mn  Mn0  1  0.14949178  0.14949178  0.14949178  1
  Mn  Mn1  1  0.34920931  0.34920931  0.34920931  1
  Mn  Mn2  1  0.65063693  0.65063693  0.65063693  1
  Ni  Ni3  1  0.85233212  0.85233212  0.85233212  1
  Sn  Sn4  1  0.99887982  0.99887982  0.99887982  1
  Sn  Sn5  1  0.49937505  0.49937505  0.49937505  1
  P  P6  1  0.75196999  0.45312491  0.04833920  1
  P  P7  1  0.24931278  0.55150418  0.94873378  1
  P  P8  1  0.55150418  0.94873378  0.24931278  1
  P  P9  1  0.94873378  0.24931278  0.55150418  1
  P  P10  1  0.04833920  0.75196999  0.45312491  1
  P  P11  1  0.45312491  0.04833920  0.75196999  1
  O  O12  1  0.09557010  0.32359467  0.51418890  1
  O  O13  1  0.32359467  0.51418890  0.09557010  1
  O  O14  1  0.06715996  0.90441385  0.24757618  1
  O  O15  1  0.51418890  0.09557010  0.32359467  1
  O  O16  1  0.00826648  0.82375422  0.60116048  1
  O  O17  1  0.25192539  0.59793775  0.43327965  1
  O  O18  1  0.24757618  0.06715996  0.90441385  1
  O  O19  1  0.43327965  0.25192539  0.59793775  1
  O  O20  1  0.18057527  0.39983418  0.98564274  1
  O  O21  1  0.59793775  0.43327965  0.25192539  1
  O  O22  1  0.09571202  0.75306637  0.93047132  1
  O  O23  1  0.39983418  0.98564274  0.18057527  1
  O  O24  1  0.60116048  0.00826648  0.82375422  1
  O  O25  1  0.90441385  0.24757618  0.06715996  1
  O  O26  1  0.40316442  0.56910051  0.74559670  1
  O  O27  1  0.82375422  0.60116048  0.00826648  1
  O  O28  1  0.56910051  0.74559670  0.40316442  1
  O  O29  1  0.75306637  0.93047132  0.09571202  1
  O  O30  1  0.74559670  0.40316442  0.56910051  1
  O  O31  1  0.98564274  0.18057527  0.39983418  1
  O  O32  1  0.48450609  0.90116183  0.67943009  1
  O  O33  1  0.93047132  0.09571202  0.75306637  1
  O  O34  1  0.67943009  0.48450609  0.90116183  1
  O  O35  1  0.90116183  0.67943009  0.48450609  1
