# generated using pymatgen
data_Zn2ReN3
_symmetry_space_group_name_H-M   'P 1'
_cell_length_a   5.60189890
_cell_length_b   10.03565776
_cell_length_c   5.29981950
_cell_angle_alpha   90.00000000
_cell_angle_beta   90.00000000
_cell_angle_gamma   90.00000000
_symmetry_Int_Tables_number   1
_chemical_formula_structural   Zn2ReN3
_chemical_formula_sum   'Zn8 Re4 N12'
_cell_volume   297.94917540
_cell_formula_units_Z   4
loop_
 _symmetry_equiv_pos_site_id
 _symmetry_equiv_pos_as_xyz
  1  'x, y, z'
loop_
 _atom_site_type_symbol
 _atom_site_label
 _atom_site_symmetry_multiplicity
 _atom_site_fract_x
 _atom_site_fract_y
 _atom_site_fract_z
 _atom_site_occupancy
  Zn  Zn0  1  0.36033512  0.83351275  0.47938038  1
  Zn  Zn1  1  0.86033512  0.66648725  0.47938038  1
  Zn  Zn2  1  0.13966488  0.66648725  0.97938038  1
  Zn  Zn3  1  0.63966488  0.83351275  0.97938038  1
  Zn  Zn4  1  0.86033512  0.33351275  0.47938038  1
  Zn  Zn5  1  0.36033512  0.16648725  0.47938038  1
  Zn  Zn6  1  0.63966488  0.16648725  0.97938038  1
  Zn  Zn7  1  0.13966488  0.33351275  0.97938038  1
  Re  Re8  1  0.62990850  0.50000000  0.94412928  1
  Re  Re9  1  0.87009150  0.00000000  0.44412928  1
  Re  Re10  1  0.12990850  0.00000000  0.94412928  1
  Re  Re11  1  0.37009150  0.50000000  0.44412928  1
  N  N12  1  0.28992241  0.84067438  0.86268885  1
  N  N13  1  0.78992241  0.65932562  0.86268885  1
  N  N14  1  0.21007759  0.65932562  0.36268885  1
  N  N15  1  0.71007759  0.84067438  0.36268885  1
  N  N16  1  0.19821990  0.00000000  0.31611226  1
  N  N17  1  0.30178010  0.50000000  0.81611226  1
  N  N18  1  0.78992241  0.34067438  0.86268885  1
  N  N19  1  0.28992241  0.15932562  0.86268885  1
  N  N20  1  0.71007759  0.15932562  0.36268885  1
  N  N21  1  0.21007759  0.34067438  0.36268885  1
  N  N22  1  0.69821990  0.50000000  0.31611226  1
  N  N23  1  0.80178010  0.00000000  0.81611226  1
