# generated using pymatgen
data_BPt2
_symmetry_space_group_name_H-M   'P 1'
_cell_length_a   2.95119741
_cell_length_b   2.95119741
_cell_length_c   10.39090302
_cell_angle_alpha   90.00000000
_cell_angle_beta   90.00000000
_cell_angle_gamma   119.97763817
_symmetry_Int_Tables_number   1
_chemical_formula_structural   BPt2
_chemical_formula_sum   'B2 Pt4'
_cell_volume   78.39317665
_cell_formula_units_Z   2
loop_
 _symmetry_equiv_pos_site_id
 _symmetry_equiv_pos_as_xyz
  1  'x, y, z'
loop_
 _atom_site_type_symbol
 _atom_site_label
 _atom_site_symmetry_multiplicity
 _atom_site_fract_x
 _atom_site_fract_y
 _atom_site_fract_z
 _atom_site_occupancy
  B  B0  1  0.66670445  0.33329555  0.75000000  1
  B  B1  1  0.33329555  0.66670445  0.25000000  1
  Pt  Pt2  1  0.66669898  0.33330102  0.11620880  1
  Pt  Pt3  1  0.33330102  0.66669898  0.88379120  1
  Pt  Pt4  1  0.33330102  0.66669898  0.61620880  1
  Pt  Pt5  1  0.66669898  0.33330102  0.38379120  1
