# generated using pymatgen
data_LaTeAs
_symmetry_space_group_name_H-M   'P 1'
_cell_length_a   4.20633672
_cell_length_b   7.89170098
_cell_length_c   10.42277044
_cell_angle_alpha   90.00000000
_cell_angle_beta   90.00000000
_cell_angle_gamma   90.00000000
_symmetry_Int_Tables_number   1
_chemical_formula_structural   LaTeAs
_chemical_formula_sum   'La4 Te4 As4'
_cell_volume   345.98544501
_cell_formula_units_Z   4
loop_
 _symmetry_equiv_pos_site_id
 _symmetry_equiv_pos_as_xyz
  1  'x, y, z'
loop_
 _atom_site_type_symbol
 _atom_site_label
 _atom_site_symmetry_multiplicity
 _atom_site_fract_x
 _atom_site_fract_y
 _atom_site_fract_z
 _atom_site_occupancy
  As  As0  1  0.75000000  0.40987751  0.53867585  1
  As  As1  1  0.25000000  0.09012249  0.03867585  1
  As  As2  1  0.75000000  0.90987751  0.96132415  1
  As  As3  1  0.25000000  0.59012249  0.46132415  1
  Te  Te4  1  0.25000000  0.09371961  0.65074093  1
  Te  Te5  1  0.75000000  0.40628039  0.15074093  1
  Te  Te6  1  0.25000000  0.59371961  0.84925907  1
  Te  Te7  1  0.75000000  0.90628039  0.34925907  1
  La  La8  1  0.25000000  0.72357427  0.15569076  1
  La  La9  1  0.75000000  0.27642573  0.84430924  1
  La  La10  1  0.25000000  0.22357427  0.34430924  1
  La  La11  1  0.75000000  0.77642573  0.65569076  1
