# generated using pymatgen
data_Ce2C2Cl
_symmetry_space_group_name_H-M   'P 1'
_cell_length_a   4.16129620
_cell_length_b   6.56050291
_cell_length_c   7.42023433
_cell_angle_alpha   100.38977943
_cell_angle_beta   106.28419937
_cell_angle_gamma   90.00000000
_symmetry_Int_Tables_number   1
_chemical_formula_structural   Ce2C2Cl
_chemical_formula_sum   'Ce4 C4 Cl2'
_cell_volume   190.98437281
_cell_formula_units_Z   2
loop_
 _symmetry_equiv_pos_site_id
 _symmetry_equiv_pos_as_xyz
  1  'x, y, z'
loop_
 _atom_site_type_symbol
 _atom_site_label
 _atom_site_symmetry_multiplicity
 _atom_site_fract_x
 _atom_site_fract_y
 _atom_site_fract_z
 _atom_site_occupancy
  Ce  Ce0  1  0.15894460  0.85244535  0.69761919  1
  Ce  Ce1  1  0.46132541  0.64755465  0.30238081  1
  Ce  Ce2  1  0.84105540  0.14755465  0.30238081  1
  Ce  Ce3  1  0.53867459  0.35244535  0.69761919  1
  C  C4  1  0.64938558  0.97282940  0.55884878  1
  C  C5  1  0.09053680  0.52717060  0.44115122  1
  C  C6  1  0.35061442  0.02717060  0.44115122  1
  C  C7  1  0.90946320  0.47282940  0.55884878  1
  Cl  Cl8  1  0.78940176  0.75000000  1.00000000  1
  Cl  Cl9  1  0.21059824  0.25000000  0.00000000  1
