# generated using pymatgen
data_LiMn(PO3)4
_symmetry_space_group_name_H-M   'P 1'
_cell_length_a   13.33333962
_cell_length_b   8.34865175
_cell_length_c   9.53604047
_cell_angle_alpha   90.00000000
_cell_angle_beta   90.00000000
_cell_angle_gamma   90.00000000
_symmetry_Int_Tables_number   1
_chemical_formula_structural   LiMn(PO3)4
_chemical_formula_sum   'Li4 Mn4 P16 O48'
_cell_volume   1061.50824661
_cell_formula_units_Z   4
loop_
 _symmetry_equiv_pos_site_id
 _symmetry_equiv_pos_as_xyz
  1  'x, y, z'
loop_
 _atom_site_type_symbol
 _atom_site_label
 _atom_site_symmetry_multiplicity
 _atom_site_fract_x
 _atom_site_fract_y
 _atom_site_fract_z
 _atom_site_occupancy
  Li  Li0  1  -0.00000000  0.61008692  0.25000000  1
  Li  Li1  1  -0.00000000  0.38991308  0.75000000  1
  Li  Li2  1  0.50000000  0.11008692  0.25000000  1
  Li  Li3  1  0.50000000  0.88991308  0.75000000  1
  Mn  Mn4  1  -0.00000000  0.00621325  0.75000000  1
  Mn  Mn5  1  -0.00000000  0.99378675  0.25000000  1
  Mn  Mn6  1  0.50000000  0.49378675  0.25000000  1
  Mn  Mn7  1  0.50000000  0.50621325  0.75000000  1
  P  P8  1  0.14034057  0.17758145  0.50497525  1
  P  P9  1  0.14034057  0.82241855  0.00497525  1
  P  P10  1  0.15238657  0.46285946  0.00978523  1
  P  P11  1  0.15238657  0.53714054  0.50978523  1
  P  P12  1  0.34761343  0.03714054  0.50978523  1
  P  P13  1  0.34761343  0.96285946  0.00978523  1
  P  P14  1  0.35965943  0.32241855  0.00497525  1
  P  P15  1  0.35965943  0.67758145  0.50497525  1
  P  P16  1  0.64034057  0.32241855  0.49502475  1
  P  P17  1  0.64034057  0.67758145  0.99502475  1
  P  P18  1  0.65238657  0.03714054  0.99021477  1
  P  P19  1  0.65238657  0.96285946  0.49021477  1
  P  P20  1  0.84761343  0.46285946  0.49021477  1
  P  P21  1  0.84761343  0.53714054  0.99021477  1
  P  P22  1  0.85965943  0.17758145  0.99502475  1
  P  P23  1  0.85965943  0.82241855  0.49502475  1
  O  O24  1  0.06673904  0.17973898  0.62469061  1
  O  O25  1  0.06673904  0.82026102  0.12469061  1
  O  O26  1  0.07976229  0.54631569  0.62982374  1
  O  O27  1  0.07976229  0.45368431  0.12982374  1
  O  O28  1  0.10858163  0.09823310  0.37074167  1
  O  O29  1  0.10858163  0.90176690  0.87074167  1
  O  O30  1  0.12343602  0.62839715  0.37994395  1
  O  O31  1  0.12343602  0.37160285  0.87994395  1
  O  O32  1  0.17846240  0.35445293  0.46907829  1
  O  O33  1  0.17846240  0.64554707  0.96907829  1
  O  O34  1  0.23970121  0.09504030  0.56657396  1
  O  O35  1  0.23970121  0.90495970  0.06657396  1
  O  O36  1  0.26029879  0.40495970  0.06657396  1
  O  O37  1  0.26029879  0.59504030  0.56657396  1
  O  O38  1  0.32153760  0.14554707  0.96907829  1
  O  O39  1  0.32153760  0.85445293  0.46907829  1
  O  O40  1  0.37656398  0.12839715  0.37994395  1
  O  O41  1  0.37656398  0.87160285  0.87994395  1
  O  O42  1  0.39141837  0.59823310  0.37074167  1
  O  O43  1  0.39141837  0.40176690  0.87074167  1
  O  O44  1  0.42023771  0.04631569  0.62982374  1
  O  O45  1  0.42023771  0.95368431  0.12982374  1
  O  O46  1  0.43326096  0.67973898  0.62469061  1
  O  O47  1  0.43326096  0.32026102  0.12469061  1
  O  O48  1  0.56673904  0.32026102  0.37530939  1
  O  O49  1  0.56673904  0.67973898  0.87530939  1
  O  O50  1  0.57976229  0.04631569  0.87017626  1
  O  O51  1  0.57976229  0.95368431  0.37017626  1
  O  O52  1  0.60858163  0.40176690  0.62925833  1
  O  O53  1  0.60858163  0.59823310  0.12925833  1
  O  O54  1  0.62343602  0.12839715  0.12005605  1
  O  O55  1  0.62343602  0.87160285  0.62005605  1
  O  O56  1  0.67846240  0.14554707  0.53092171  1
  O  O57  1  0.67846240  0.85445293  0.03092171  1
  O  O58  1  0.73970121  0.40495970  0.43342604  1
  O  O59  1  0.73970121  0.59504030  0.93342604  1
  O  O60  1  0.76029879  0.09504030  0.93342604  1
  O  O61  1  0.76029879  0.90495970  0.43342604  1
  O  O62  1  0.82153760  0.35445293  0.03092171  1
  O  O63  1  0.82153760  0.64554707  0.53092171  1
  O  O64  1  0.87656398  0.37160285  0.62005605  1
  O  O65  1  0.87656398  0.62839715  0.12005605  1
  O  O66  1  0.89141837  0.09823310  0.12925833  1
  O  O67  1  0.89141837  0.90176690  0.62925833  1
  O  O68  1  0.92023771  0.45368431  0.37017626  1
  O  O69  1  0.92023771  0.54631569  0.87017626  1
  O  O70  1  0.93326096  0.17973898  0.87530939  1
  O  O71  1  0.93326096  0.82026102  0.37530939  1
