# generated using pymatgen
data_LiCu2PO4
_symmetry_space_group_name_H-M   'P 1'
_cell_length_a   6.25955999
_cell_length_b   5.58182183
_cell_length_c   10.20990803
_cell_angle_alpha   89.99848534
_cell_angle_beta   90.51582555
_cell_angle_gamma   87.01253137
_symmetry_Int_Tables_number   1
_chemical_formula_structural   LiCu2PO4
_chemical_formula_sum   'Li4 Cu8 P4 O16'
_cell_volume   356.23232516
_cell_formula_units_Z   4
loop_
 _symmetry_equiv_pos_site_id
 _symmetry_equiv_pos_as_xyz
  1  'x, y, z'
loop_
 _atom_site_type_symbol
 _atom_site_label
 _atom_site_symmetry_multiplicity
 _atom_site_fract_x
 _atom_site_fract_y
 _atom_site_fract_z
 _atom_site_occupancy
  Li  Li0  1  0.00622432  0.14185507  0.74807314  1
  Li  Li1  1  0.24585561  0.33040782  0.50060116  1
  Li  Li2  1  0.24704794  0.31968939  0.99961878  1
  Li  Li3  1  0.24543430  0.68564127  0.24794371  1
  Cu  Cu4  1  0.98669757  0.25042059  0.23811694  1
  Cu  Cu5  1  0.29631104  0.66155398  0.74726016  1
  Cu  Cu6  1  0.51570666  0.74510222  0.97737942  1
  Cu  Cu7  1  0.50520579  0.74995577  0.48679411  1
  Cu  Cu8  1  0.69638253  0.63938234  0.72693615  1
  Cu  Cu9  1  0.75509189  0.64210910  0.23504011  1
  Cu  Cu10  1  0.72931577  0.36737337  0.48683068  1
  Cu  Cu11  1  0.74468616  0.35594895  0.00032100  1
  P  P12  1  0.01135264  0.83860205  0.00334968  1
  P  P13  1  0.01186678  0.84716078  0.50492140  1
  P  P14  1  0.48039607  0.16447243  0.25534874  1
  P  P15  1  0.50037758  0.18189060  0.75360173  1
  O  O16  1  0.01078224  0.82810790  0.65648763  1
  O  O17  1  0.01287414  0.11303886  0.46064257  1
  O  O18  1  0.99539976  0.84410974  0.15504428  1
  O  O19  1  0.01794128  0.09476887  0.94493026  1
  O  O20  1  0.20667329  0.69348486  0.44648468  1
  O  O21  1  0.21503692  0.67923462  0.96308226  1
  O  O22  1  0.28258530  0.32082895  0.20057749  1
  O  O23  1  0.29022999  0.31038549  0.69777860  1
  O  O24  1  0.49703397  0.17847218  0.90515762  1
  O  O25  1  0.50318971  0.92427721  0.69579259  1
  O  O26  1  0.48835822  0.17816310  0.40686825  1
  O  O27  1  0.47738978  0.90318186  0.20643348  1
  O  O28  1  0.71321517  0.29111273  0.70472029  1
  O  O29  1  0.68069821  0.28739402  0.19871469  1
  O  O30  1  0.81094951  0.72625269  0.44596867  1
  O  O31  1  0.81969087  0.70561819  0.94177270  1
