# generated using pymatgen
data_GdSi2Ni
_symmetry_space_group_name_H-M   'P 1'
_cell_length_a   3.96139003
_cell_length_b   3.98472650
_cell_length_c   8.24808192
_cell_angle_alpha   103.97832339
_cell_angle_beta   90.00000000
_cell_angle_gamma   90.00000000
_symmetry_Int_Tables_number   1
_chemical_formula_structural   GdSi2Ni
_chemical_formula_sum   'Gd2 Si4 Ni2'
_cell_volume   126.34095036
_cell_formula_units_Z   2
loop_
 _symmetry_equiv_pos_site_id
 _symmetry_equiv_pos_as_xyz
  1  'x, y, z'
loop_
 _atom_site_type_symbol
 _atom_site_label
 _atom_site_symmetry_multiplicity
 _atom_site_fract_x
 _atom_site_fract_y
 _atom_site_fract_z
 _atom_site_occupancy
  Gd  Gd0  1  0.75000000  0.10624422  0.21248845  1
  Gd  Gd1  1  0.25000000  0.89375578  0.78751155  1
  Si  Si2  1  0.75000000  0.46027315  0.92054629  1
  Si  Si3  1  0.25000000  0.53972685  0.07945371  1
  Si  Si4  1  0.75000000  0.75028168  0.50056336  1
  Si  Si5  1  0.25000000  0.24971832  0.49943664  1
  Ni  Ni6  1  0.75000000  0.32073763  0.64147526  1
  Ni  Ni7  1  0.25000000  0.67926237  0.35852474  1
