# generated using pymatgen
data_Eu2ZnGe3
_symmetry_space_group_name_H-M   'P 1'
_cell_length_a   4.29063687
_cell_length_b   4.29063687
_cell_length_c   17.72033162
_cell_angle_alpha   90.00000000
_cell_angle_beta   90.00000000
_cell_angle_gamma   120.06879283
_symmetry_Int_Tables_number   1
_chemical_formula_structural   Eu2ZnGe3
_chemical_formula_sum   'Eu4 Zn2 Ge6'
_cell_volume   282.32187284
_cell_formula_units_Z   2
loop_
 _symmetry_equiv_pos_site_id
 _symmetry_equiv_pos_as_xyz
  1  'x, y, z'
loop_
 _atom_site_type_symbol
 _atom_site_label
 _atom_site_symmetry_multiplicity
 _atom_site_fract_x
 _atom_site_fract_y
 _atom_site_fract_z
 _atom_site_occupancy
  Eu  Eu0  1  0.00002031  0.99997969  0.62863506  1
  Eu  Eu1  1  0.99997969  0.00002031  0.37136494  1
  Eu  Eu2  1  0.99997969  0.00002031  0.12863506  1
  Eu  Eu3  1  0.00002031  0.99997969  0.87136494  1
  Zn  Zn4  1  0.66645471  0.33354529  0.75000000  1
  Zn  Zn5  1  0.33354529  0.66645471  0.25000000  1
  Ge  Ge6  1  0.66642714  0.33357286  0.25000000  1
  Ge  Ge7  1  0.33357286  0.66642714  0.75000000  1
  Ge  Ge8  1  0.66666452  0.33333548  0.52492913  1
  Ge  Ge9  1  0.33333548  0.66666452  0.47507087  1
  Ge  Ge10  1  0.33333548  0.66666452  0.02492913  1
  Ge  Ge11  1  0.66666452  0.33333548  0.97507087  1
