# generated using pymatgen
data_Na5LuH4(C2O7)2
_symmetry_space_group_name_H-M   'P 1'
_cell_length_a   7.64563440
_cell_length_b   7.64563440
_cell_length_c   11.67003262
_cell_angle_alpha   90.00000000
_cell_angle_beta   90.00000000
_cell_angle_gamma   90.00000000
_symmetry_Int_Tables_number   1
_chemical_formula_structural   Na5LuH4(C2O7)2
_chemical_formula_sum   'Na10 Lu2 H8 C8 O28'
_cell_volume   682.18022199
_cell_formula_units_Z   2
loop_
 _symmetry_equiv_pos_site_id
 _symmetry_equiv_pos_as_xyz
  1  'x, y, z'
loop_
 _atom_site_type_symbol
 _atom_site_label
 _atom_site_symmetry_multiplicity
 _atom_site_fract_x
 _atom_site_fract_y
 _atom_site_fract_z
 _atom_site_occupancy
  Na  Na0  1  -0.00000000  -0.00000000  0.50000000  1
  Na  Na1  1  0.50000000  0.50000000  -0.00000000  1
  Na  Na2  1  0.31866006  0.82380665  0.70775837  1
  Na  Na3  1  0.81866006  0.67619335  0.79224163  1
  Na  Na4  1  0.68133994  0.17619335  0.70775837  1
  Na  Na5  1  0.18133994  0.32380665  0.79224163  1
  Na  Na6  1  0.82380665  0.68133994  0.29224163  1
  Na  Na7  1  0.67619335  0.18133994  0.20775837  1
  Na  Na8  1  0.17619335  0.31866006  0.29224163  1
  Na  Na9  1  0.32380665  0.81866006  0.20775837  1
  Lu  Lu10  1  0.50000000  0.50000000  0.50000000  1
  Lu  Lu11  1  -0.00000000  -0.00000000  -0.00000000  1
  H  H12  1  0.57900744  0.93484535  0.88297122  1
  H  H13  1  0.07900744  0.56515465  0.61702878  1
  H  H14  1  0.42099256  0.06515465  0.88297122  1
  H  H15  1  0.92099256  0.43484535  0.61702878  1
  H  H16  1  0.93484535  0.42099256  0.11702878  1
  H  H17  1  0.56515465  0.92099256  0.38297122  1
  H  H18  1  0.06515465  0.57900744  0.11702878  1
  H  H19  1  0.43484535  0.07900744  0.38297122  1
  C  C20  1  0.31991045  0.21575409  0.57807225  1
  C  C21  1  0.81991045  0.28424591  0.92192775  1
  C  C22  1  0.68008955  0.78424591  0.57807225  1
  C  C23  1  0.18008955  0.71575409  0.92192775  1
  C  C24  1  0.21575409  0.68008955  0.42192775  1
  C  C25  1  0.28424591  0.18008955  0.07807225  1
  C  C26  1  0.78424591  0.31991045  0.42192775  1
  C  C27  1  0.71575409  0.81991045  0.07807225  1
  O  O28  1  0.50000000  -0.00000000  0.83080034  1
  O  O29  1  -0.00000000  0.50000000  0.66919966  1
  O  O30  1  -0.00000000  0.50000000  0.16919966  1
  O  O31  1  0.50000000  -0.00000000  0.33080034  1
  O  O32  1  0.24885764  0.66441667  0.53286827  1
  O  O33  1  0.74885764  0.83558333  0.96713173  1
  O  O34  1  0.75114236  0.33558333  0.53286827  1
  O  O35  1  0.25114236  0.16441667  0.96713173  1
  O  O36  1  0.66441667  0.75114236  0.46713173  1
  O  O37  1  0.83558333  0.25114236  0.03286827  1
  O  O38  1  0.33558333  0.24885764  0.46713173  1
  O  O39  1  0.16441667  0.74885764  0.03286827  1
  O  O40  1  0.40650286  0.32345057  0.64572725  1
  O  O41  1  0.90650286  0.17654943  0.85427275  1
  O  O42  1  0.59349714  0.67654943  0.64572725  1
  O  O43  1  0.09349714  0.82345057  0.85427275  1
  O  O44  1  0.32345057  0.59349714  0.35427275  1
  O  O45  1  0.17654943  0.09349714  0.14572725  1
  O  O46  1  0.67654943  0.40650286  0.35427275  1
  O  O47  1  0.82345057  0.90650286  0.14572725  1
  O  O48  1  0.22734563  0.09224132  0.61764882  1
  O  O49  1  0.72734563  0.40775868  0.88235118  1
  O  O50  1  0.77265437  0.90775868  0.61764882  1
  O  O51  1  0.27265437  0.59224132  0.88235118  1
  O  O52  1  0.09224132  0.77265437  0.38235118  1
  O  O53  1  0.40775868  0.27265437  0.11764882  1
  O  O54  1  0.90775868  0.22734563  0.38235118  1
  O  O55  1  0.59224132  0.72734563  0.11764882  1
