# generated using pymatgen
data_LaB5H5NO14
_symmetry_space_group_name_H-M   'P 1'
_cell_length_a   6.57336150
_cell_length_b   10.64215167
_cell_length_c   15.66309843
_cell_angle_alpha   90.00000000
_cell_angle_beta   90.00000000
_cell_angle_gamma   90.56411900
_symmetry_Int_Tables_number   1
_chemical_formula_structural   LaB5H5NO14
_chemical_formula_sum   'La4 B20 H20 N4 O56'
_cell_volume   1095.65440211
_cell_formula_units_Z   4
loop_
 _symmetry_equiv_pos_site_id
 _symmetry_equiv_pos_as_xyz
  1  'x, y, z'
loop_
 _atom_site_type_symbol
 _atom_site_label
 _atom_site_symmetry_multiplicity
 _atom_site_fract_x
 _atom_site_fract_y
 _atom_site_fract_z
 _atom_site_occupancy
  La  La0  1  0.84845758  0.66909884  0.30270648  1
  La  La1  1  0.34845758  0.16909884  0.19729352  1
  La  La2  1  0.15154242  0.33090116  0.69729352  1
  La  La3  1  0.65154242  0.83090116  0.80270648  1
  B  B4  1  0.73875211  0.91077537  0.03522720  1
  B  B5  1  0.23875211  0.41077537  0.46477280  1
  B  B6  1  0.26124789  0.08922463  0.96477280  1
  B  B7  1  0.76124789  0.58922463  0.53522720  1
  B  B8  1  0.50967902  0.88432393  0.15860910  1
  B  B9  1  0.00967902  0.38432393  0.34139090  1
  B  B10  1  0.49032098  0.11567607  0.84139090  1
  B  B11  1  0.99032098  0.61567607  0.65860910  1
  B  B12  1  0.84498674  0.98648982  0.17609439  1
  B  B13  1  0.34498674  0.48648982  0.32390561  1
  B  B14  1  0.15501326  0.01351018  0.82390561  1
  B  B15  1  0.65501326  0.51351018  0.67609439  1
  B  B16  1  0.14548855  0.84534101  0.20184888  1
  B  B17  1  0.64548855  0.34534101  0.29815112  1
  B  B18  1  0.85451145  0.15465899  0.79815112  1
  B  B19  1  0.35451145  0.65465899  0.70184888  1
  B  B20  1  0.39864913  0.69383382  0.24237609  1
  B  B21  1  0.89864913  0.19383382  0.25762391  1
  B  B22  1  0.60135087  0.30616618  0.75762391  1
  B  B23  1  0.10135087  0.80616618  0.74237609  1
  H  H24  1  0.92197442  0.93419209  0.93923190  1
  H  H25  1  0.42197442  0.43419209  0.56076810  1
  H  H26  1  0.07802558  0.06580791  0.06076810  1
  H  H27  1  0.57802558  0.56580791  0.43923190  1
  H  H28  1  0.62830329  0.92668262  0.32955396  1
  H  H29  1  0.12830329  0.42668262  0.17044604  1
  H  H30  1  0.37169671  0.07331738  0.67044604  1
  H  H31  1  0.87169671  0.57331738  0.82955396  1
  H  H32  1  0.69406439  0.89720703  0.42572412  1
  H  H33  1  0.19406439  0.39720703  0.07427588  1
  H  H34  1  0.30593561  0.10279297  0.57427588  1
  H  H35  1  0.80593561  0.60279297  0.92572412  1
  H  H36  1  0.06456456  0.72177296  0.47732241  1
  H  H37  1  0.56456456  0.22177296  0.02267759  1
  H  H38  1  0.93543544  0.27822704  0.52267759  1
  H  H39  1  0.43543544  0.77822704  0.97732241  1
  H  H40  1  0.15178813  0.83913512  0.42647618  1
  H  H41  1  0.65178813  0.33913512  0.07352382  1
  H  H42  1  0.84821187  0.16086488  0.57352382  1
  H  H43  1  0.34821187  0.66086488  0.92647618  1
  N  N44  1  0.82775570  0.57388267  0.08788973  1
  N  N45  1  0.32775570  0.07388267  0.41211027  1
  N  N46  1  0.17224430  0.42611733  0.91211027  1
  N  N47  1  0.67224430  0.92611733  0.58788973  1
  O  O48  1  0.78811176  0.89000763  0.95042736  1
  O  O49  1  0.28811176  0.39000763  0.54957264  1
  O  O50  1  0.21188824  0.10999237  0.04957264  1
  O  O51  1  0.71188824  0.60999237  0.45042736  1
  O  O52  1  0.55786196  0.86636148  0.06742493  1
  O  O53  1  0.05786196  0.36636148  0.43257507  1
  O  O54  1  0.44213804  0.13363852  0.93257507  1
  O  O55  1  0.94213804  0.63363852  0.56742493  1
  O  O56  1  0.87453915  0.98015825  0.08335061  1
  O  O57  1  0.37453915  0.48015825  0.41664939  1
  O  O58  1  0.12546085  0.01984175  0.91664939  1
  O  O59  1  0.62546085  0.51984175  0.58335061  1
  O  O60  1  0.62912982  0.98709607  0.19714819  1
  O  O61  1  0.12912982  0.48709607  0.30285181  1
  O  O62  1  0.37087018  0.01290393  0.80285181  1
  O  O63  1  0.87087018  0.51290393  0.69714819  1
  O  O64  1  0.54879814  0.76446656  0.20556931  1
  O  O65  1  0.04879814  0.26446656  0.29443069  1
  O  O66  1  0.45120186  0.23553344  0.79443069  1
  O  O67  1  0.95120186  0.73553344  0.70556931  1
  O  O68  1  0.94633823  0.87307906  0.21525826  1
  O  O69  1  0.44633823  0.37307906  0.28474174  1
  O  O70  1  0.05366177  0.12692094  0.78474174  1
  O  O71  1  0.55366177  0.62692094  0.71525826  1
  O  O72  1  0.29239694  0.92157025  0.16844565  1
  O  O73  1  0.79239694  0.42157025  0.33155435  1
  O  O74  1  0.70760306  0.07842975  0.83155435  1
  O  O75  1  0.20760306  0.57842975  0.66844565  1
  O  O76  1  0.19523297  0.72478811  0.23215851  1
  O  O77  1  0.69523297  0.22478811  0.26784149  1
  O  O78  1  0.80476703  0.27521189  0.76784149  1
  O  O79  1  0.30476703  0.77521189  0.73215851  1
  O  O80  1  0.45977220  0.59660557  0.29192059  1
  O  O81  1  0.95977220  0.09660557  0.20807941  1
  O  O82  1  0.54022780  0.40339443  0.70807941  1
  O  O83  1  0.04022780  0.90339443  0.79192059  1
  O  O84  1  0.80907770  0.53228897  0.16511819  1
  O  O85  1  0.30907770  0.03228897  0.33488181  1
  O  O86  1  0.19092230  0.46771103  0.83488181  1
  O  O87  1  0.69092230  0.96771103  0.66511819  1
  O  O88  1  0.91915003  0.67447910  0.07347985  1
  O  O89  1  0.41915003  0.17447910  0.42652015  1
  O  O90  1  0.08084997  0.32552090  0.92652015  1
  O  O91  1  0.58084997  0.82552090  0.57347985  1
  O  O92  1  0.75185607  0.50782962  0.02787701  1
  O  O93  1  0.25185607  0.00782962  0.47212299  1
  O  O94  1  0.24814393  0.49217038  0.97212299  1
  O  O95  1  0.74814393  0.99217038  0.52787701  1
  O  O96  1  0.09118365  0.75471973  0.41910174  1
  O  O97  1  0.59118365  0.25471973  0.08089826  1
  O  O98  1  0.90881635  0.24528027  0.58089826  1
  O  O99  1  0.40881635  0.74528027  0.91910174  1
  O  O100  1  0.67648165  0.86070025  0.36803615  1
  O  O101  1  0.17648165  0.36070025  0.13196385  1
  O  O102  1  0.32351835  0.13929975  0.63196385  1
  O  O103  1  0.82351835  0.63929975  0.86803615  1
