# generated using pymatgen
data_Ce4SiI5
_symmetry_space_group_name_H-M   'P 1'
_cell_length_a   4.33887022
_cell_length_b   9.14727033
_cell_length_c   10.31949637
_cell_angle_alpha   102.19468196
_cell_angle_beta   102.13564596
_cell_angle_gamma   90.00000000
_symmetry_Int_Tables_number   1
_chemical_formula_structural   Ce4SiI5
_chemical_formula_sum   'Ce4 Si1 I5'
_cell_volume   390.95783415
_cell_formula_units_Z   1
loop_
 _symmetry_equiv_pos_site_id
 _symmetry_equiv_pos_as_xyz
  1  'x, y, z'
loop_
 _atom_site_type_symbol
 _atom_site_label
 _atom_site_symmetry_multiplicity
 _atom_site_fract_x
 _atom_site_fract_y
 _atom_site_fract_z
 _atom_site_occupancy
  Ce  Ce0  1  0.14430205  0.07245850  0.28860410  1
  Ce  Ce1  1  0.85569795  0.92754150  0.71139590  1
  Ce  Ce2  1  0.49793054  0.21262327  0.99586108  1
  Ce  Ce3  1  0.50206946  0.78737673  0.00413892  1
  Si  Si4  1  0.00000000  0.00000000  0.00000000  1
  I  I5  1  0.33108978  0.17192816  0.66217956  1
  I  I6  1  0.66891022  0.82807184  0.33782044  1
  I  I7  1  0.33897979  0.66572126  0.67795958  1
  I  I8  1  0.66102021  0.33427874  0.32204042  1
  I  I9  1  0.00000000  0.50000000  0.00000000  1
