# generated using pymatgen
data_Rb2LaCl5
_symmetry_space_group_name_H-M   'P 1'
_cell_length_a   8.41417007
_cell_length_b   9.02051295
_cell_length_c   13.69701621
_cell_angle_alpha   90.00000000
_cell_angle_beta   90.00000000
_cell_angle_gamma   90.00000000
_symmetry_Int_Tables_number   1
_chemical_formula_structural   Rb2LaCl5
_chemical_formula_sum   'Rb8 La4 Cl20'
_cell_volume   1039.60531205
_cell_formula_units_Z   4
loop_
 _symmetry_equiv_pos_site_id
 _symmetry_equiv_pos_as_xyz
  1  'x, y, z'
loop_
 _atom_site_type_symbol
 _atom_site_label
 _atom_site_symmetry_multiplicity
 _atom_site_fract_x
 _atom_site_fract_y
 _atom_site_fract_z
 _atom_site_occupancy
  Rb  Rb0  1  0.96699004  0.00030374  0.67388600  1
  Rb  Rb1  1  0.03300996  0.99969626  0.32611400  1
  Rb  Rb2  1  0.46699004  0.99969626  0.82611400  1
  Rb  Rb3  1  0.03300996  0.50030374  0.32611400  1
  Rb  Rb4  1  0.53300996  0.00030374  0.17388600  1
  Rb  Rb5  1  0.96699004  0.49969626  0.67388600  1
  Rb  Rb6  1  0.53300996  0.49969626  0.17388600  1
  Rb  Rb7  1  0.46699004  0.50030374  0.82611400  1
  La  La8  1  0.92861306  0.75000000  0.99773322  1
  La  La9  1  0.07138694  0.25000000  0.00226678  1
  La  La10  1  0.42861306  0.25000000  0.50226678  1
  La  La11  1  0.57138694  0.75000000  0.49773322  1
  Cl  Cl12  1  0.66943089  0.75000000  0.69591582  1
  Cl  Cl13  1  0.33056911  0.25000000  0.30408418  1
  Cl  Cl14  1  0.16943089  0.25000000  0.80408418  1
  Cl  Cl15  1  0.83056911  0.75000000  0.19591582  1
  Cl  Cl16  1  0.13565991  0.75000000  0.83510979  1
  Cl  Cl17  1  0.86434009  0.25000000  0.16489021  1
  Cl  Cl18  1  0.63565991  0.25000000  0.66489021  1
  Cl  Cl19  1  0.36434009  0.75000000  0.33510979  1
  Cl  Cl20  1  0.59089299  0.75000000  0.98800900  1
  Cl  Cl21  1  0.40910701  0.25000000  0.01199100  1
  Cl  Cl22  1  0.09089299  0.25000000  0.51199100  1
  Cl  Cl23  1  0.90910701  0.75000000  0.48800900  1
  Cl  Cl24  1  0.84741235  0.46133429  0.91833619  1
  Cl  Cl25  1  0.15258765  0.53866571  0.08166381  1
  Cl  Cl26  1  0.34741235  0.53866571  0.58166381  1
  Cl  Cl27  1  0.15258765  0.96133429  0.08166381  1
  Cl  Cl28  1  0.65258765  0.46133429  0.41833619  1
  Cl  Cl29  1  0.84741235  0.03866571  0.91833619  1
  Cl  Cl30  1  0.65258765  0.03866571  0.41833619  1
  Cl  Cl31  1  0.34741235  0.96133429  0.58166381  1
