# generated using pymatgen
data_Li7MnCo3(PO4)6
_symmetry_space_group_name_H-M   'P 1'
_cell_length_a   8.86371309
_cell_length_b   8.86371351
_cell_length_c   8.68949447
_cell_angle_alpha   90.00000132
_cell_angle_beta   59.33452668
_cell_angle_gamma   120.00000011
_symmetry_Int_Tables_number   1
_chemical_formula_structural   Li7MnCo3(PO4)6
_chemical_formula_sum   'Li7 Mn1 Co3 P6 O24'
_cell_volume   477.82457224
_cell_formula_units_Z   1
loop_
 _symmetry_equiv_pos_site_id
 _symmetry_equiv_pos_as_xyz
  1  'x, y, z'
loop_
 _atom_site_type_symbol
 _atom_site_label
 _atom_site_symmetry_multiplicity
 _atom_site_fract_x
 _atom_site_fract_y
 _atom_site_fract_z
 _atom_site_occupancy
  Li  Li0  1  0.05400039  0.30719543  0.82128043  1
  Li  Li1  1  0.87152414  0.74680496  0.82128043  1
  Li  Li2  1  0.53080517  0.85348595  0.19854747  1
  Li  Li3  1  0.43191561  0.12471918  0.82128043  1
  Li  Li4  1  0.12413331  0.27064736  0.19854747  1
  Li  Li5  1  0.96613822  0.48306961  0.55079517  1
  Li  Li6  1  0.94796658  0.67731922  0.19854747  1
  Mn  Mn7  1  0.71284249  0.85642074  0.43073677  1
  Co  Co8  1  0.70072218  0.35036159  0.94891623  1
  Co  Co9  1  0.29024830  0.14512415  0.56462755  1
  Co  Co10  1  0.29663448  0.64831724  0.05504828  1
  P  P11  1  0.20471280  0.75042474  0.74640448  1
  P  P12  1  0.21176016  0.95634974  0.25256698  1
  P  P13  1  0.50317078  0.45428806  0.74640448  1
  P  P14  1  0.49202260  0.53567286  0.25256698  1
  P  P15  1  0.79930746  0.04888272  0.74640448  1
  P  P16  1  0.79108328  0.25541042  0.25256698  1
  O  O17  1  0.19101826  0.71549078  0.93148523  1
  O  O18  1  0.17231067  0.90763276  0.74904502  1
  O  O19  1  0.01380210  0.57943473  0.75611786  1
  O  O20  1  0.59298729  0.87749651  0.93148523  1
  O  O21  1  0.19231527  0.99441573  0.43083525  1
  O  O22  1  0.02814236  0.92035638  0.24399991  1
  O  O23  1  0.35302499  0.47552848  0.93148523  1
  O  O24  1  0.41014789  0.79419007  0.56822703  1
  O  O25  1  0.21301508  0.78072839  0.24882646  1
  O  O26  1  0.34332223  0.26467791  0.74904502  1
  O  O27  1  0.66444741  0.43436737  0.75611786  1
  O  O28  1  0.63758290  0.61595782  0.56822703  1
  O  O29  1  0.37126521  0.37684948  0.43083525  1
  O  O30  1  0.31888685  0.53815847  0.24882646  1
  O  O31  1  0.64821411  0.72785873  0.24399991  1
  O  O32  1  0.80951478  0.23008104  0.75611786  1
  O  O33  1  0.57474902  0.19790054  0.43083525  1
  O  O34  1  0.64115399  0.51654078  0.06533923  1
  O  O35  1  0.98627707  0.07864431  0.74904502  1
  O  O36  1  0.81581515  0.02162508  0.56822703  1
  O  O37  1  0.41812099  0.12461421  0.06533923  1
  O  O38  1  0.97044615  0.43228669  0.24882646  1
  O  O39  1  0.81004657  0.29350678  0.06533923  1
  O  O40  1  0.83564471  0.10778598  0.24399991  1
