# generated using pymatgen
data_Sr4TiAs4
_symmetry_space_group_name_H-M   'P 1'
_cell_length_a   12.98476366
_cell_length_b   12.98476366
_cell_length_c   12.98476366
_cell_angle_alpha   90.00000000
_cell_angle_beta   90.00000000
_cell_angle_gamma   90.00000000
_symmetry_Int_Tables_number   1
_chemical_formula_structural   Sr4TiAs4
_chemical_formula_sum   'Sr32 Ti8 As32'
_cell_volume   2189.28422578
_cell_formula_units_Z   8
loop_
 _symmetry_equiv_pos_site_id
 _symmetry_equiv_pos_as_xyz
  1  'x, y, z'
loop_
 _atom_site_type_symbol
 _atom_site_label
 _atom_site_symmetry_multiplicity
 _atom_site_fract_x
 _atom_site_fract_y
 _atom_site_fract_z
 _atom_site_occupancy
  Ti  Ti0  1  0.00000000  0.00000000  0.00000000  1
  Ti  Ti1  1  0.75000000  0.00000000  0.50000000  1
  Ti  Ti2  1  0.50000000  0.75000000  0.00000000  1
  Ti  Ti3  1  0.50000000  0.25000000  0.00000000  1
  Ti  Ti4  1  0.00000000  0.50000000  0.25000000  1
  Ti  Ti5  1  0.00000000  0.50000000  0.75000000  1
  Ti  Ti6  1  0.25000000  0.00000000  0.50000000  1
  Ti  Ti7  1  0.50000000  0.50000000  0.50000000  1
  As  As8  1  0.60853965  0.85554784  0.11547454  1
  As  As9  1  0.64445216  0.10853965  0.38452546  1
  As  As10  1  0.89146035  0.61547454  0.64445216  1
  As  As11  1  0.10853965  0.61547454  0.35554784  1
  As  As12  1  0.61547454  0.64445216  0.89146035  1
  As  As13  1  0.38452546  0.35554784  0.89146035  1
  As  As14  1  0.85554784  0.88452546  0.39146035  1
  As  As15  1  0.85554784  0.11547454  0.60853965  1
  As  As16  1  0.14445216  0.88452546  0.60853965  1
  As  As17  1  0.39025710  0.39025710  0.39025710  1
  As  As18  1  0.60853965  0.14445216  0.88452546  1
  As  As19  1  0.64445216  0.89146035  0.61547454  1
  As  As20  1  0.88452546  0.39146035  0.85554784  1
  As  As21  1  0.39146035  0.85554784  0.88452546  1
  As  As22  1  0.88452546  0.60853965  0.14445216  1
  As  As23  1  0.11547454  0.39146035  0.14445216  1
  As  As24  1  0.39146035  0.14445216  0.11547454  1
  As  As25  1  0.38452546  0.64445216  0.10853965  1
  As  As26  1  0.61547454  0.35554784  0.10853965  1
  As  As27  1  0.89146035  0.38452546  0.35554784  1
  As  As28  1  0.10853965  0.38452546  0.64445216  1
  As  As29  1  0.35554784  0.10853965  0.61547454  1
  As  As30  1  0.35554784  0.89146035  0.38452546  1
  As  As31  1  0.14445216  0.11547454  0.39146035  1
  As  As32  1  0.10974290  0.89025710  0.10974290  1
  As  As33  1  0.10974290  0.10974290  0.89025710  1
  As  As34  1  0.89025710  0.10974290  0.10974290  1
  As  As35  1  0.60974290  0.60974290  0.39025710  1
  As  As36  1  0.39025710  0.60974290  0.60974290  1
  As  As37  1  0.60974290  0.39025710  0.60974290  1
  As  As38  1  0.89025710  0.89025710  0.89025710  1
  As  As39  1  0.11547454  0.60853965  0.85554784  1
  Sr  Sr40  1  0.14741447  0.14741447  0.14741447  1
  Sr  Sr41  1  0.35258553  0.64741447  0.35258553  1
  Sr  Sr42  1  0.64741447  0.35258553  0.35258553  1
  Sr  Sr43  1  0.35258553  0.35258553  0.64741447  1
  Sr  Sr44  1  0.14741447  0.85258553  0.85258553  1
  Sr  Sr45  1  0.85258553  0.85258553  0.14741447  1
  Sr  Sr46  1  0.85258553  0.14741447  0.85258553  1
  Sr  Sr47  1  0.64741447  0.64741447  0.64741447  1
  Sr  Sr48  1  0.90477228  0.86261943  0.64722457  1
  Sr  Sr49  1  0.90477228  0.13738057  0.35277543  1
  Sr  Sr50  1  0.86261943  0.64722457  0.90477228  1
  Sr  Sr51  1  0.13738057  0.64722457  0.09522772  1
  Sr  Sr52  1  0.64722457  0.90477228  0.86261943  1
  Sr  Sr53  1  0.35277543  0.09522772  0.86261943  1
  Sr  Sr54  1  0.59522772  0.85277543  0.36261943  1
  Sr  Sr55  1  0.59522772  0.14722457  0.63738057  1
  Sr  Sr56  1  0.40477228  0.85277543  0.63738057  1
  Sr  Sr57  1  0.14722457  0.63738057  0.59522772  1
  Sr  Sr58  1  0.63738057  0.40477228  0.85277543  1
  Sr  Sr59  1  0.63738057  0.59522772  0.14722457  1
  Sr  Sr60  1  0.85277543  0.36261943  0.59522772  1
  Sr  Sr61  1  0.36261943  0.59522772  0.85277543  1
  Sr  Sr62  1  0.85277543  0.63738057  0.40477228  1
  Sr  Sr63  1  0.14722457  0.36261943  0.40477228  1
  Sr  Sr64  1  0.36261943  0.40477228  0.14722457  1
  Sr  Sr65  1  0.35277543  0.90477228  0.13738057  1
  Sr  Sr66  1  0.64722457  0.09522772  0.13738057  1
  Sr  Sr67  1  0.86261943  0.35277543  0.09522772  1
  Sr  Sr68  1  0.13738057  0.35277543  0.90477228  1
  Sr  Sr69  1  0.09522772  0.13738057  0.64722457  1
  Sr  Sr70  1  0.09522772  0.86261943  0.35277543  1
  Sr  Sr71  1  0.40477228  0.14722457  0.36261943  1
