# generated using pymatgen
data_Li7V4(CO3)10
_symmetry_space_group_name_H-M   'P 1'
_cell_length_a   6.36293666
_cell_length_b   10.87516095
_cell_length_c   17.54134401
_cell_angle_alpha   84.33824499
_cell_angle_beta   90.00060906
_cell_angle_gamma   89.99318446
_symmetry_Int_Tables_number   1
_chemical_formula_structural   Li7V4(CO3)10
_chemical_formula_sum   'Li14 V8 C20 O60'
_cell_volume   1207.90374615
_cell_formula_units_Z   2
loop_
 _symmetry_equiv_pos_site_id
 _symmetry_equiv_pos_as_xyz
  1  'x, y, z'
loop_
 _atom_site_type_symbol
 _atom_site_label
 _atom_site_symmetry_multiplicity
 _atom_site_fract_x
 _atom_site_fract_y
 _atom_site_fract_z
 _atom_site_occupancy
  Li  Li0  1  0.78069304  0.67372727  0.99890053  1
  Li  Li1  1  0.19083100  0.03804331  0.00479438  1
  Li  Li2  1  0.15328095  0.29619407  0.79239168  1
  Li  Li3  1  0.66735081  0.35794945  0.72371052  1
  Li  Li4  1  0.28407575  0.83596825  0.77318668  1
  Li  Li5  1  0.70928300  0.69664161  0.72275037  1
  Li  Li6  1  0.72630537  0.53037295  0.55794291  1
  Li  Li7  1  0.22624438  0.46961865  0.44203225  1
  Li  Li8  1  0.20926859  0.30332363  0.27721366  1
  Li  Li9  1  0.78396204  0.16405837  0.22682962  1
  Li  Li10  1  0.16724796  0.64205004  0.27629525  1
  Li  Li11  1  0.65321090  0.70378231  0.20762693  1
  Li  Li12  1  0.69079393  0.96199592  0.99523246  1
  Li  Li13  1  0.28074967  0.32630082  0.00111663  1
  V  V14  1  0.59022839  0.18906737  0.91572378  1
  V  V15  1  0.06804234  0.57439334  0.86925081  1
  V  V16  1  0.45470695  0.00428957  0.64440755  1
  V  V17  1  0.99263558  0.73765734  0.57850979  1
  V  V18  1  0.49244721  0.26225763  0.42151120  1
  V  V19  1  0.95462229  0.99570169  0.35559026  1
  V  V20  1  0.56836377  0.42557485  0.13091699  1
  V  V21  1  0.09026119  0.81094204  0.08432876  1
  C  C22  1  0.67894014  0.44860919  0.95921503  1
  C  C23  1  0.98411930  0.19680471  0.91617947  1
  C  C24  1  0.02181155  0.83658185  0.91065253  1
  C  C25  1  0.51967089  0.05255051  0.81604264  1
  C  C26  1  0.39906940  0.54091975  0.80106250  1
  C  C27  1  0.97778940  0.51521455  0.70319658  1
  C  C28  1  0.95157964  0.95072865  0.67648435  1
  C  C29  1  0.45855798  0.72963323  0.61621207  1
  C  C30  1  0.49679533  0.30098546  0.58869112  1
  C  C31  1  0.13678976  0.99786480  0.51213768  1
  C  C32  1  0.63671907  0.00218406  0.48784845  1
  C  C33  1  0.99670781  0.69900036  0.41127493  1
  C  C34  1  0.95845832  0.27038609  0.38381239  1
  C  C35  1  0.45149527  0.04926185  0.32351181  1
  C  C36  1  0.47775938  0.48473098  0.29683417  1
  C  C37  1  0.89912609  0.45919991  0.19893236  1
  C  C38  1  0.01966390  0.94747879  0.18397341  1
  C  C39  1  0.52167989  0.16342511  0.08939083  1
  C  C40  1  0.48411238  0.80322778  0.08383587  1
  C  C41  1  0.17901753  0.55139236  0.04081978  1
  O  O42  1  0.97882048  0.88510380  0.97615651  1
  O  O43  1  0.86865968  0.14390621  0.97192030  1
  O  O44  1  0.17757791  0.49759603  0.97731752  1
  O  O45  1  0.55899722  0.35315578  0.95530664  1
  O  O46  1  0.18334187  0.20746942  0.92426123  1
  O  O47  1  0.79111405  0.48832709  0.90195075  1
  O  O48  1  0.92535871  0.73093702  0.90066134  1
  O  O49  1  0.58409387  0.01146463  0.88434978  1
  O  O50  1  0.88246624  0.23825710  0.85510977  1
  O  O51  1  0.14303088  0.88980801  0.86247895  1
  O  O52  1  0.34465685  0.64776177  0.82665471  1
  O  O53  1  0.27712979  0.44891547  0.82791689  1
  O  O54  1  0.48542228  0.17325782  0.80696561  1
  O  O55  1  0.49408849  0.98121733  0.76385299  1
  O  O56  1  0.54717823  0.53030884  0.75461858  1
  O  O57  1  0.96966703  0.59184682  0.75640204  1
  O  O58  1  0.12926982  0.97953964  0.70305378  1
  O  O59  1  0.97889625  0.39895399  0.71691535  1
  O  O60  1  0.79637619  0.02273162  0.66602779  1
  O  O61  1  0.44990393  0.80282294  0.67068169  1
  O  O62  1  0.92786181  0.82855916  0.66291513  1
  O  O63  1  0.47258190  0.19994314  0.63008811  1
  O  O64  1  0.97263568  0.56432484  0.63124515  1
  O  O65  1  0.59323303  0.39214181  0.61299066  1
  O  O66  1  0.63371325  0.68329167  0.59659571  1
  O  O67  1  0.28848042  0.69321612  0.58380060  1
  O  O68  1  0.58988600  0.93953682  0.55136677  1
  O  O69  1  0.22936054  0.04989295  0.56397856  1
  O  O70  1  0.41499269  0.32387393  0.51650300  1
  O  O71  1  0.08826680  0.88031150  0.51929091  1
  O  O72  1  0.58818337  0.11960809  0.48066556  1
  O  O73  1  0.91493979  0.67613360  0.48349391  1
  O  O74  1  0.72934830  0.95006735  0.43600823  1
  O  O75  1  0.08982723  0.06047589  0.44863323  1
  O  O76  1  0.78840166  0.30674627  0.41618596  1
  O  O77  1  0.13358961  0.31667077  0.40342361  1
  O  O78  1  0.09310908  0.60782312  0.38699103  1
  O  O79  1  0.47256360  0.43566282  0.36869898  1
  O  O80  1  0.97247833  0.80002283  0.36987955  1
  O  O81  1  0.42777301  0.17140619  0.33704731  1
  O  O82  1  0.94986423  0.19718589  0.32929646  1
  O  O83  1  0.29632809  0.97724160  0.33398277  1
  O  O84  1  0.47878017  0.60106751  0.28307285  1
  O  O85  1  0.62922991  0.02043184  0.29694730  1
  O  O86  1  0.46950890  0.40820137  0.24354128  1
  O  O87  1  0.04715829  0.46961558  0.24538528  1
  O  O88  1  0.99404854  0.01879472  0.23615433  1
  O  O89  1  0.98548364  0.82675026  0.19304834  1
  O  O90  1  0.77741967  0.55125723  0.17204518  1
  O  O91  1  0.84434896  0.35230530  0.17333438  1
  O  O92  1  0.64302822  0.11017426  0.13754530  1
  O  O93  1  0.38250126  0.76175684  0.14489954  1
  O  O94  1  0.08408118  0.98853278  0.11566264  1
  O  O95  1  0.42517998  0.26901318  0.09917880  1
  O  O96  1  0.29123421  0.51160634  0.09801021  1
  O  O97  1  0.68336384  0.79257572  0.07574048  1
  O  O98  1  0.05894884  0.64688278  0.04471542  1
  O  O99  1  0.67745952  0.50243041  0.02271249  1
  O  O100  1  0.36861824  0.85612589  0.02810130  1
  O  O101  1  0.47887230  0.11484881  0.02383446  1
