# generated using pymatgen
data_Mn3Mo3C
_symmetry_space_group_name_H-M   'P 1'
_cell_length_a   7.86572141
_cell_length_b   7.86572140
_cell_length_c   7.86572141
_cell_angle_alpha   60.00000001
_cell_angle_beta   60.00000003
_cell_angle_gamma   59.99999997
_symmetry_Int_Tables_number   1
_chemical_formula_structural   Mn3Mo3C
_chemical_formula_sum   'Mn12 Mo12 C4'
_cell_volume   344.11268544
_cell_formula_units_Z   4
loop_
 _symmetry_equiv_pos_site_id
 _symmetry_equiv_pos_as_xyz
  1  'x, y, z'
loop_
 _atom_site_type_symbol
 _atom_site_label
 _atom_site_symmetry_multiplicity
 _atom_site_fract_x
 _atom_site_fract_y
 _atom_site_fract_z
 _atom_site_occupancy
  C  C0  1  0.00000000  0.50000000  0.00000000  1
  C  C1  1  0.00000000  0.00000000  0.50000000  1
  C  C2  1  0.50000000  0.00000000  0.00000000  1
  C  C3  1  0.00000000  0.00000000  0.00000000  1
  Mn  Mn4  1  0.50000000  0.00000000  0.50000000  1
  Mn  Mn5  1  0.29669896  0.29669896  0.60990313  1
  Mn  Mn6  1  0.60990313  0.29669896  0.29669896  1
  Mn  Mn7  1  0.70330104  0.70330104  0.70330104  1
  Mn  Mn8  1  0.39009687  0.70330104  0.70330104  1
  Mn  Mn9  1  0.70330104  0.39009687  0.70330104  1
  Mn  Mn10  1  0.70330104  0.70330104  0.39009687  1
  Mn  Mn11  1  0.29669896  0.29669896  0.29669896  1
  Mn  Mn12  1  0.00000000  0.50000000  0.50000000  1
  Mn  Mn13  1  0.50000000  0.50000000  0.00000000  1
  Mn  Mn14  1  0.50000000  0.50000000  0.50000000  1
  Mn  Mn15  1  0.29669896  0.60990313  0.29669896  1
  Mo  Mo16  1  0.92734960  0.32265040  0.92734960  1
  Mo  Mo17  1  0.32265040  0.92734960  0.32265040  1
  Mo  Mo18  1  0.07265040  0.67734960  0.07265040  1
  Mo  Mo19  1  0.07265040  0.07265040  0.67734960  1
  Mo  Mo20  1  0.67734960  0.67734960  0.07265040  1
  Mo  Mo21  1  0.67734960  0.07265040  0.67734960  1
  Mo  Mo22  1  0.32265040  0.92734960  0.92734960  1
  Mo  Mo23  1  0.07265040  0.67734960  0.67734960  1
  Mo  Mo24  1  0.92734960  0.32265040  0.32265040  1
  Mo  Mo25  1  0.92734960  0.92734960  0.32265040  1
  Mo  Mo26  1  0.67734960  0.07265040  0.07265040  1
  Mo  Mo27  1  0.32265040  0.32265040  0.92734960  1
