# generated using pymatgen
data_NpF3
_symmetry_space_group_name_H-M   'P 1'
_cell_length_a   4.15148537
_cell_length_b   4.15148537
_cell_length_c   7.28234944
_cell_angle_alpha   90.00000000
_cell_angle_beta   90.00000000
_cell_angle_gamma   120.00000009
_symmetry_Int_Tables_number   1
_chemical_formula_structural   NpF3
_chemical_formula_sum   'Np2 F6'
_cell_volume   108.69490050
_cell_formula_units_Z   2
loop_
 _symmetry_equiv_pos_site_id
 _symmetry_equiv_pos_as_xyz
  1  'x, y, z'
loop_
 _atom_site_type_symbol
 _atom_site_label
 _atom_site_symmetry_multiplicity
 _atom_site_fract_x
 _atom_site_fract_y
 _atom_site_fract_z
 _atom_site_occupancy
  F  F0  1  0.66666667  0.33333333  0.42100971  1
  F  F1  1  0.66666667  0.33333333  0.07899029  1
  F  F2  1  0.00000000  0.00000000  0.25000000  1
  F  F3  1  0.00000000  0.00000000  0.75000000  1
  F  F4  1  0.33333333  0.66666667  0.92100971  1
  F  F5  1  0.33333333  0.66666667  0.57899029  1
  Np  Np6  1  0.66666667  0.33333333  0.75000000  1
  Np  Np7  1  0.33333333  0.66666667  0.25000000  1
