# generated using pymatgen
data_NaCr3O8
_symmetry_space_group_name_H-M   'P 1'
_cell_length_a   5.16313241
_cell_length_b   5.16313240
_cell_length_c   7.02568525
_cell_angle_alpha   90.08412293
_cell_angle_beta   90.08412293
_cell_angle_gamma   64.98686031
_symmetry_Int_Tables_number   1
_chemical_formula_structural   NaCr3O8
_chemical_formula_sum   'Na1 Cr3 O8'
_cell_volume   169.72421591
_cell_formula_units_Z   1
loop_
 _symmetry_equiv_pos_site_id
 _symmetry_equiv_pos_as_xyz
  1  'x, y, z'
loop_
 _atom_site_type_symbol
 _atom_site_label
 _atom_site_symmetry_multiplicity
 _atom_site_fract_x
 _atom_site_fract_y
 _atom_site_fract_z
 _atom_site_occupancy
  O  O0  1  0.78494170  0.28025080  0.70445246  1
  O  O1  1  0.71974920  0.21505830  0.29554754  1
  O  O2  1  0.21505830  0.71974920  0.29554754  1
  O  O3  1  0.28025080  0.78494170  0.70445246  1
  O  O4  1  0.22365673  0.22365673  0.44372400  1
  O  O5  1  0.77634327  0.77634327  0.55627600  1
  O  O6  1  0.72168694  0.72168694  0.93231116  1
  O  O7  1  0.27831306  0.27831306  0.06768884  1
  Na  Na8  1  0.00000000  0.00000000  0.00000000  1
  Cr  Cr9  1  0.64273641  0.64273641  0.72428425  1
  Cr  Cr10  1  0.00000000  0.00000000  0.50000000  1
  Cr  Cr11  1  0.35726359  0.35726359  0.27571575  1
