# generated using pymatgen
data_LiFeAs2O7
_symmetry_space_group_name_H-M   'P 1'
_cell_length_a   4.82213664
_cell_length_b   5.41649638
_cell_length_c   5.41649637
_cell_angle_alpha   102.09911242
_cell_angle_beta   98.91319064
_cell_angle_gamma   98.91319057
_symmetry_Int_Tables_number   1
_chemical_formula_structural   LiFeAs2O7
_chemical_formula_sum   'Li1 Fe1 As2 O7'
_cell_volume   134.06411885
_cell_formula_units_Z   1
loop_
 _symmetry_equiv_pos_site_id
 _symmetry_equiv_pos_as_xyz
  1  'x, y, z'
loop_
 _atom_site_type_symbol
 _atom_site_label
 _atom_site_symmetry_multiplicity
 _atom_site_fract_x
 _atom_site_fract_y
 _atom_site_fract_z
 _atom_site_occupancy
  Li  Li0  1  0.00000031  0.25343359  0.74656633  1
  O  O1  1  0.49999919  0.45172250  0.54827732  1
  O  O2  1  0.27525087  0.16461553  0.04854053  1
  O  O3  1  0.16755225  0.64374009  0.85105212  1
  O  O4  1  0.83244783  0.14894776  0.35625947  1
  O  O5  1  0.72474973  0.95146005  0.83538448  1
  O  O6  1  0.73702268  0.55823474  0.11756499  1
  O  O7  1  0.26297795  0.88243524  0.44176588  1
  Fe  Fe8  1  0.00000088  0.87602335  0.12397626  1
  As  As9  1  0.59263676  0.32318250  0.24767658  1
  As  As10  1  0.40736141  0.75232282  0.67681655  1
