# generated using pymatgen
data_Y2Mn2O7
_symmetry_space_group_name_H-M   'P 1'
_cell_length_a   7.11169514
_cell_length_b   7.11169513
_cell_length_c   7.11169513
_cell_angle_alpha   59.99999997
_cell_angle_beta   59.99999998
_cell_angle_gamma   59.99999998
_symmetry_Int_Tables_number   1
_chemical_formula_structural   Y2Mn2O7
_chemical_formula_sum   'Y4 Mn4 O14'
_cell_volume   254.33398414
_cell_formula_units_Z   2
loop_
 _symmetry_equiv_pos_site_id
 _symmetry_equiv_pos_as_xyz
  1  'x, y, z'
loop_
 _atom_site_type_symbol
 _atom_site_label
 _atom_site_symmetry_multiplicity
 _atom_site_fract_x
 _atom_site_fract_y
 _atom_site_fract_z
 _atom_site_occupancy
  O  O0  1  0.62500000  0.62500000  0.62500000  1
  O  O1  1  0.37500000  0.37500000  0.37500000  1
  O  O2  1  0.32993421  0.92006579  0.92006579  1
  O  O3  1  0.07993421  0.67006579  0.67006579  1
  O  O4  1  0.92006579  0.32993421  0.92006579  1
  O  O5  1  0.92006579  0.92006579  0.32993421  1
  O  O6  1  0.32993421  0.32993421  0.92006579  1
  O  O7  1  0.32993421  0.92006579  0.32993421  1
  O  O8  1  0.92006579  0.32993421  0.32993421  1
  O  O9  1  0.67006579  0.67006579  0.07993421  1
  O  O10  1  0.07993421  0.07993421  0.67006579  1
  O  O11  1  0.67006579  0.07993421  0.07993421  1
  O  O12  1  0.67006579  0.07993421  0.67006579  1
  O  O13  1  0.07993421  0.67006579  0.07993421  1
  Mn  Mn14  1  0.00000000  0.50000000  0.00000000  1
  Mn  Mn15  1  0.50000000  0.00000000  0.00000000  1
  Mn  Mn16  1  0.00000000  0.00000000  0.50000000  1
  Mn  Mn17  1  0.00000000  0.00000000  0.00000000  1
  Y  Y18  1  0.50000000  0.00000000  0.50000000  1
  Y  Y19  1  0.00000000  0.50000000  0.50000000  1
  Y  Y20  1  0.50000000  0.50000000  0.00000000  1
  Y  Y21  1  0.50000000  0.50000000  0.50000000  1
