# generated using pymatgen
data_Mn4Be3Si3SO12
_symmetry_space_group_name_H-M   'P 1'
_cell_length_a   8.38665806
_cell_length_b   8.38665806
_cell_length_c   8.38665806
_cell_angle_alpha   90.00000000
_cell_angle_beta   90.00000000
_cell_angle_gamma   90.00000000
_symmetry_Int_Tables_number   1
_chemical_formula_structural   Mn4Be3Si3SO12
_chemical_formula_sum   'Mn8 Be6 Si6 S2 O24'
_cell_volume   589.88426155
_cell_formula_units_Z   2
loop_
 _symmetry_equiv_pos_site_id
 _symmetry_equiv_pos_as_xyz
  1  'x, y, z'
loop_
 _atom_site_type_symbol
 _atom_site_label
 _atom_site_symmetry_multiplicity
 _atom_site_fract_x
 _atom_site_fract_y
 _atom_site_fract_z
 _atom_site_occupancy
  Be  Be0  1  0.50000000  0.75000000  0.00000000  1
  Be  Be1  1  0.50000000  0.25000000  0.00000000  1
  Be  Be2  1  0.00000000  0.50000000  0.25000000  1
  Be  Be3  1  0.00000000  0.50000000  0.75000000  1
  Be  Be4  1  0.25000000  0.00000000  0.50000000  1
  Be  Be5  1  0.75000000  0.00000000  0.50000000  1
  O  O6  1  0.35839407  0.64166978  0.08176406  1
  O  O7  1  0.14166978  0.85839407  0.58176406  1
  O  O8  1  0.14166978  0.14160593  0.41823594  1
  O  O9  1  0.35833022  0.91823594  0.35839407  1
  O  O10  1  0.35833022  0.08176406  0.64160593  1
  O  O11  1  0.08176406  0.35839407  0.64166978  1
  O  O12  1  0.91823594  0.35839407  0.35833022  1
  O  O13  1  0.64160593  0.35833022  0.08176406  1
  O  O14  1  0.41823594  0.85833022  0.85839407  1
  O  O15  1  0.41823594  0.14166978  0.14160593  1
  O  O16  1  0.14160593  0.41823594  0.14166978  1
  O  O17  1  0.85839407  0.58176406  0.14166978  1
  O  O18  1  0.64166978  0.91823594  0.64160593  1
  O  O19  1  0.85839407  0.41823594  0.85833022  1
  O  O20  1  0.58176406  0.85833022  0.14160593  1
  O  O21  1  0.58176406  0.14166978  0.85839407  1
  O  O22  1  0.91823594  0.64160593  0.64166978  1
  O  O23  1  0.14160593  0.58176406  0.85833022  1
  O  O24  1  0.85833022  0.14160593  0.58176406  1
  O  O25  1  0.85833022  0.85839407  0.41823594  1
  O  O26  1  0.35839407  0.35833022  0.91823594  1
  O  O27  1  0.64160593  0.64166978  0.91823594  1
  O  O28  1  0.08176406  0.64160593  0.35833022  1
  O  O29  1  0.64166978  0.08176406  0.35839407  1
  Si  Si30  1  0.50000000  0.00000000  0.25000000  1
  Si  Si31  1  0.50000000  0.00000000  0.75000000  1
  Si  Si32  1  0.00000000  0.25000000  0.50000000  1
  Si  Si33  1  0.25000000  0.50000000  0.00000000  1
  Si  Si34  1  0.00000000  0.75000000  0.50000000  1
  Si  Si35  1  0.75000000  0.50000000  0.00000000  1
  S  S36  1  0.00000000  0.00000000  0.00000000  1
  S  S37  1  0.50000000  0.50000000  0.50000000  1
  Mn  Mn38  1  0.67127043  0.67127043  0.67127043  1
  Mn  Mn39  1  0.82872957  0.17127043  0.82872957  1
  Mn  Mn40  1  0.17127043  0.82872957  0.82872957  1
  Mn  Mn41  1  0.82872957  0.82872957  0.17127043  1
  Mn  Mn42  1  0.67127043  0.32872957  0.32872957  1
  Mn  Mn43  1  0.32872957  0.32872957  0.67127043  1
  Mn  Mn44  1  0.32872957  0.67127043  0.32872957  1
  Mn  Mn45  1  0.17127043  0.17127043  0.17127043  1
