# generated using pymatgen
data_HoAgS2
_symmetry_space_group_name_H-M   'P 1'
_cell_length_a   7.61692472
_cell_length_b   7.61772324
_cell_length_c   12.64545387
_cell_angle_alpha   90.00000000
_cell_angle_beta   90.01685978
_cell_angle_gamma   90.00000000
_symmetry_Int_Tables_number   1
_chemical_formula_structural   HoAgS2
_chemical_formula_sum   'Ho8 Ag8 S16'
_cell_volume   733.73503415
_cell_formula_units_Z   8
loop_
 _symmetry_equiv_pos_site_id
 _symmetry_equiv_pos_as_xyz
  1  'x, y, z'
loop_
 _atom_site_type_symbol
 _atom_site_label
 _atom_site_symmetry_multiplicity
 _atom_site_fract_x
 _atom_site_fract_y
 _atom_site_fract_z
 _atom_site_occupancy
  S  S0  1  0.47575413  0.72757623  0.96465358  1
  S  S1  1  0.52424587  0.22757623  0.03534642  1
  S  S2  1  0.01969685  0.27225534  0.97066393  1
  S  S3  1  0.98030315  0.77225534  0.02933607  1
  S  S4  1  0.22477357  0.52717562  0.71480136  1
  S  S5  1  0.77522643  0.02717562  0.28519864  1
  S  S6  1  0.76978574  0.98312191  0.72051734  1
  S  S7  1  0.23021426  0.48312191  0.27948266  1
  S  S8  1  0.72537795  0.47849229  0.78552596  1
  S  S9  1  0.27462205  0.97849229  0.21447404  1
  S  S10  1  0.72986465  0.52253722  0.22074661  1
  S  S11  1  0.97530784  0.27781252  0.53526618  1
  S  S12  1  0.48010746  0.23238184  0.47055236  1
  S  S13  1  0.51989254  0.73238184  0.52944764  1
  S  S14  1  0.02469216  0.77781252  0.46473382  1
  S  S15  1  0.27013535  0.02253722  0.77925339  1
  Ag  Ag16  1  0.73420157  0.49340763  0.56922048  1
  Ag  Ag17  1  0.50978637  0.23694028  0.81876009  1
  Ag  Ag18  1  0.98488364  0.27474029  0.31804468  1
  Ag  Ag19  1  0.01511636  0.77474029  0.68195532  1
  Ag  Ag20  1  0.22931214  0.51671430  0.93194550  1
  Ag  Ag21  1  0.77068786  0.01671430  0.06805450  1
  Ag  Ag22  1  0.26579843  0.99340763  0.43077952  1
  Ag  Ag23  1  0.49021363  0.73694028  0.18123991  1
  Ho  Ho24  1  0.25144986  0.00171905  0.99687288  1
  Ho  Ho25  1  0.74855014  0.50171905  0.00312712  1
  Ho  Ho26  1  0.00070268  0.75373266  0.24694804  1
  Ho  Ho27  1  0.99929732  0.25373266  0.75305196  1
  Ho  Ho28  1  0.50030309  0.25099789  0.25315149  1
  Ho  Ho29  1  0.49969691  0.75099789  0.74684851  1
  Ho  Ho30  1  0.24883977  0.50279493  0.49689216  1
  Ho  Ho31  1  0.75116023  0.00279493  0.50310784  1
