# generated using pymatgen
data_Ho2SiO5
_symmetry_space_group_name_H-M   'P 1'
_cell_length_a   6.72373245
_cell_length_b   6.84756506
_cell_length_c   9.12353353
_cell_angle_alpha   90.00000000
_cell_angle_beta   105.23494245
_cell_angle_gamma   90.00000000
_symmetry_Int_Tables_number   1
_chemical_formula_structural   Ho2SiO5
_chemical_formula_sum   'Ho8 Si4 O20'
_cell_volume   405.29603321
_cell_formula_units_Z   4
loop_
 _symmetry_equiv_pos_site_id
 _symmetry_equiv_pos_as_xyz
  1  'x, y, z'
loop_
 _atom_site_type_symbol
 _atom_site_label
 _atom_site_symmetry_multiplicity
 _atom_site_fract_x
 _atom_site_fract_y
 _atom_site_fract_z
 _atom_site_occupancy
  O  O0  1  0.43707948  0.88062791  0.61245515  1
  O  O1  1  0.06292052  0.38062791  0.38754485  1
  O  O2  1  0.56292052  0.11937209  0.38754485  1
  O  O3  1  0.93707948  0.61937209  0.61245515  1
  O  O4  1  0.01627153  0.28634506  0.89632935  1
  O  O5  1  0.48372847  0.78634506  0.10367065  1
  O  O6  1  0.98372847  0.71365494  0.10367065  1
  O  O7  1  0.51627153  0.21365494  0.89632935  1
  O  O8  1  0.98686608  0.13750387  0.61463677  1
  O  O9  1  0.51313392  0.63750387  0.38536323  1
  O  O10  1  0.01313392  0.86249613  0.38536323  1
  O  O11  1  0.48686608  0.36249613  0.61463677  1
  O  O12  1  0.33154196  0.57003917  0.79070685  1
  O  O13  1  0.16845804  0.07003917  0.20929315  1
  O  O14  1  0.66845804  0.42996083  0.20929315  1
  O  O15  1  0.83154196  0.92996083  0.79070685  1
  O  O16  1  0.71806666  0.55362098  0.87072975  1
  O  O17  1  0.78193334  0.05362098  0.12927025  1
  O  O18  1  0.28193334  0.44637902  0.12927025  1
  O  O19  1  0.21806666  0.94637902  0.87072975  1
  Si  Si20  1  0.02178546  0.09064389  0.79920131  1
  Si  Si21  1  0.47821454  0.59064389  0.20079869  1
  Si  Si22  1  0.97821454  0.90935611  0.20079869  1
  Si  Si23  1  0.52178546  0.40935611  0.79920131  1
  Ho  Ho24  1  0.26861381  0.12375721  0.47063564  1
  Ho  Ho25  1  0.23138619  0.62375721  0.52936436  1
  Ho  Ho26  1  0.73138619  0.87624279  0.52936436  1
  Ho  Ho27  1  0.76861381  0.37624279  0.47063564  1
  Ho  Ho28  1  0.04880329  0.63928129  0.86984460  1
  Ho  Ho29  1  0.45119671  0.13928129  0.13015540  1
  Ho  Ho30  1  0.95119671  0.36071871  0.13015540  1
  Ho  Ho31  1  0.54880329  0.86071871  0.86984460  1
