# generated using pymatgen
data_La2Pd2Pb
_symmetry_space_group_name_H-M   'P 1'
_cell_length_a   3.96991872
_cell_length_b   8.04261458
_cell_length_c   8.04261458
_cell_angle_alpha   90.00000000
_cell_angle_beta   90.00000000
_cell_angle_gamma   90.00000000
_symmetry_Int_Tables_number   1
_chemical_formula_structural   La2Pd2Pb
_chemical_formula_sum   'La4 Pd4 Pb2'
_cell_volume   256.78883016
_cell_formula_units_Z   2
loop_
 _symmetry_equiv_pos_site_id
 _symmetry_equiv_pos_as_xyz
  1  'x, y, z'
loop_
 _atom_site_type_symbol
 _atom_site_label
 _atom_site_symmetry_multiplicity
 _atom_site_fract_x
 _atom_site_fract_y
 _atom_site_fract_z
 _atom_site_occupancy
  Pd  Pd0  1  0.00000000  0.12396599  0.37603401  1
  Pd  Pd1  1  0.00000000  0.62396599  0.12396599  1
  Pd  Pd2  1  0.00000000  0.87603401  0.62396599  1
  Pd  Pd3  1  0.00000000  0.37603401  0.87603401  1
  La  La4  1  0.50000000  0.17796896  0.67796896  1
  La  La5  1  0.50000000  0.32203104  0.17796896  1
  La  La6  1  0.50000000  0.67796896  0.82203104  1
  La  La7  1  0.50000000  0.82203104  0.32203104  1
  Pb  Pb8  1  0.00000000  0.00000000  0.00000000  1
  Pb  Pb9  1  0.00000000  0.50000000  0.50000000  1
