# generated using pymatgen
data_Li4Nb3Cr3(NiO8)2
_symmetry_space_group_name_H-M   'P 1'
_cell_length_a   6.05340638
_cell_length_b   6.11006509
_cell_length_c   9.81569700
_cell_angle_alpha   90.00006930
_cell_angle_beta   89.88927766
_cell_angle_gamma   120.31049293
_symmetry_Int_Tables_number   1
_chemical_formula_structural   Li4Nb3Cr3(NiO8)2
_chemical_formula_sum   'Li4 Nb3 Cr3 Ni2 O16'
_cell_volume   313.42168628
_cell_formula_units_Z   1
loop_
 _symmetry_equiv_pos_site_id
 _symmetry_equiv_pos_as_xyz
  1  'x, y, z'
loop_
 _atom_site_type_symbol
 _atom_site_label
 _atom_site_symmetry_multiplicity
 _atom_site_fract_x
 _atom_site_fract_y
 _atom_site_fract_z
 _atom_site_occupancy
  Li  Li0  1  0.33506924  0.66754333  0.90105180  1
  Li  Li1  1  0.01522353  0.00762171  0.00571982  1
  Li  Li2  1  0.02168292  0.01083752  0.49139285  1
  Li  Li3  1  0.67133056  0.33567517  0.37269539  1
  Nb  Nb4  1  0.65697388  0.82849874  0.21510843  1
  Nb  Nb5  1  0.82754651  0.66108555  0.71528398  1
  Nb  Nb6  1  0.82750424  0.16643996  0.71524916  1
  Cr  Cr7  1  0.16813342  0.83043442  0.21477449  1
  Cr  Cr8  1  0.16810200  0.33775244  0.21480118  1
  Cr  Cr9  1  0.33587290  0.16794232  0.71524629  1
  Ni  Ni10  1  0.31726897  0.65863557  0.47587044  1
  Ni  Ni11  1  0.65475702  0.32737843  0.01438544  1
  O  O12  1  0.15234182  0.83873846  0.60627450  1
  O  O13  1  0.03601618  0.51802801  0.33251237  1
  O  O14  1  0.33519475  0.66760900  0.10225734  1
  O  O15  1  0.00035448  0.00018624  0.31151031  1
  O  O16  1  0.99939205  0.99971195  0.81901591  1
  O  O17  1  0.15233921  0.31361999  0.60627206  1
  O  O18  1  0.48726228  0.96530497  0.33701642  1
  O  O19  1  0.48726055  0.52197322  0.33702250  1
  O  O20  1  0.31753840  0.15878661  0.10546622  1
  O  O21  1  0.68327191  0.84164520  0.60384168  1
  O  O22  1  0.52013220  0.48789833  0.83038312  1
  O  O23  1  0.52014150  0.03227115  0.83038531  1
  O  O24  1  0.67011904  0.33507514  0.60256969  1
  O  O25  1  0.83322667  0.67934242  0.10194960  1
  O  O26  1  0.97271259  0.48636309  0.82783154  1
  O  O27  1  0.83323119  0.15390105  0.10195417  1
