# generated using pymatgen
data_La(CuGe)2
_symmetry_space_group_name_H-M   'P 1'
_cell_length_a   4.23492131
_cell_length_b   4.23492170
_cell_length_c   5.92126469
_cell_angle_alpha   110.95304694
_cell_angle_beta   110.95304898
_cell_angle_gamma   89.99999745
_symmetry_Int_Tables_number   1
_chemical_formula_structural   La(CuGe)2
_chemical_formula_sum   'La1 Cu2 Ge2'
_cell_volume   91.61400197
_cell_formula_units_Z   1
loop_
 _symmetry_equiv_pos_site_id
 _symmetry_equiv_pos_as_xyz
  1  'x, y, z'
loop_
 _atom_site_type_symbol
 _atom_site_label
 _atom_site_symmetry_multiplicity
 _atom_site_fract_x
 _atom_site_fract_y
 _atom_site_fract_z
 _atom_site_occupancy
  La  La0  1  0.00000000  0.00000000  0.00000000  1
  Cu  Cu1  1  0.75000000  0.25000000  0.50000000  1
  Cu  Cu2  1  0.25000000  0.75000000  0.50000000  1
  Ge  Ge3  1  0.37522501  0.37522501  0.75045002  1
  Ge  Ge4  1  0.62477499  0.62477499  0.24954998  1
