# generated using pymatgen
data_La2InGe2
_symmetry_space_group_name_H-M   'P 1'
_cell_length_a   4.45995385
_cell_length_b   7.72629610
_cell_length_c   7.72629610
_cell_angle_alpha   90.00000000
_cell_angle_beta   90.00000000
_cell_angle_gamma   90.00000000
_symmetry_Int_Tables_number   1
_chemical_formula_structural   La2InGe2
_chemical_formula_sum   'La4 In2 Ge4'
_cell_volume   266.23985040
_cell_formula_units_Z   2
loop_
 _symmetry_equiv_pos_site_id
 _symmetry_equiv_pos_as_xyz
  1  'x, y, z'
loop_
 _atom_site_type_symbol
 _atom_site_label
 _atom_site_symmetry_multiplicity
 _atom_site_fract_x
 _atom_site_fract_y
 _atom_site_fract_z
 _atom_site_occupancy
  Ge  Ge0  1  0.00000000  0.11717263  0.38282737  1
  Ge  Ge1  1  0.00000000  0.38282737  0.88282737  1
  Ge  Ge2  1  0.00000000  0.61717263  0.11717263  1
  Ge  Ge3  1  0.00000000  0.88282737  0.61717263  1
  In  In4  1  0.00000000  0.00000000  0.00000000  1
  In  In5  1  0.00000000  0.50000000  0.50000000  1
  La  La6  1  0.50000000  0.81995337  0.31995337  1
  La  La7  1  0.50000000  0.68004663  0.81995337  1
  La  La8  1  0.50000000  0.31995337  0.18004663  1
  La  La9  1  0.50000000  0.18004663  0.68004663  1
