# generated using pymatgen
data_Eu3RuO7
_symmetry_space_group_name_H-M   'P 1'
_cell_length_a   6.57640430
_cell_length_b   6.57640430
_cell_length_c   7.57134445
_cell_angle_alpha   90.00000000
_cell_angle_beta   90.00000000
_cell_angle_gamma   111.20347948
_symmetry_Int_Tables_number   1
_chemical_formula_structural   Eu3RuO7
_chemical_formula_sum   'Eu6 Ru2 O14'
_cell_volume   305.28576464
_cell_formula_units_Z   2
loop_
 _symmetry_equiv_pos_site_id
 _symmetry_equiv_pos_as_xyz
  1  'x, y, z'
loop_
 _atom_site_type_symbol
 _atom_site_label
 _atom_site_symmetry_multiplicity
 _atom_site_fract_x
 _atom_site_fract_y
 _atom_site_fract_z
 _atom_site_occupancy
  O  O0  1  0.58233877  0.58233877  0.75000000  1
  O  O1  1  0.41766123  0.41766123  0.25000000  1
  O  O2  1  0.10664777  0.84155359  0.75000000  1
  O  O3  1  0.89335223  0.15844641  0.25000000  1
  O  O4  1  0.84155359  0.10664777  0.75000000  1
  O  O5  1  0.15844641  0.89335223  0.25000000  1
  O  O6  1  0.19247291  0.44223941  0.96051926  1
  O  O7  1  0.80752709  0.55776059  0.46051926  1
  O  O8  1  0.44223941  0.19247291  0.96051926  1
  O  O9  1  0.55776059  0.80752709  0.46051926  1
  O  O10  1  0.19247291  0.44223941  0.53948074  1
  O  O11  1  0.80752709  0.55776059  0.03948074  1
  O  O12  1  0.55776059  0.80752709  0.03948074  1
  O  O13  1  0.44223941  0.19247291  0.53948074  1
  Ru  Ru14  1  0.50000000  0.50000000  0.50000000  1
  Ru  Ru15  1  0.50000000  0.50000000  0.00000000  1
  Eu  Eu16  1  0.93004939  0.47593670  0.75000000  1
  Eu  Eu17  1  0.06995061  0.52406330  0.25000000  1
  Eu  Eu18  1  0.47593670  0.93004939  0.75000000  1
  Eu  Eu19  1  0.52406330  0.06995061  0.25000000  1
  Eu  Eu20  1  0.00000000  0.00000000  0.50000000  1
  Eu  Eu21  1  0.00000000  0.00000000  0.00000000  1
