# generated using pymatgen
data_Mn6Si7Ni16
_symmetry_space_group_name_H-M   'P 1'
_cell_length_a   7.83434720
_cell_length_b   7.83434721
_cell_length_c   7.83434720
_cell_angle_alpha   60.00000002
_cell_angle_beta   60.00000001
_cell_angle_gamma   60.00000004
_symmetry_Int_Tables_number   1
_chemical_formula_structural   Mn6Si7Ni16
_chemical_formula_sum   'Mn6 Si7 Ni16'
_cell_volume   340.01137501
_cell_formula_units_Z   1
loop_
 _symmetry_equiv_pos_site_id
 _symmetry_equiv_pos_as_xyz
  1  'x, y, z'
loop_
 _atom_site_type_symbol
 _atom_site_label
 _atom_site_symmetry_multiplicity
 _atom_site_fract_x
 _atom_site_fract_y
 _atom_site_fract_z
 _atom_site_occupancy
  Si  Si0  1  0.00000000  0.00000000  0.00000000  1
  Si  Si1  1  0.50000000  0.00000000  0.00000000  1
  Si  Si2  1  0.00000000  0.00000000  0.50000000  1
  Si  Si3  1  0.50000000  0.50000000  0.00000000  1
  Si  Si4  1  0.00000000  0.50000000  0.50000000  1
  Si  Si5  1  0.00000000  0.50000000  0.00000000  1
  Si  Si6  1  0.50000000  0.00000000  0.50000000  1
  Mn  Mn7  1  0.69399440  0.30600560  0.30600560  1
  Mn  Mn8  1  0.69399440  0.69399440  0.30600560  1
  Mn  Mn9  1  0.30600560  0.30600560  0.69399440  1
  Mn  Mn10  1  0.69399440  0.30600560  0.69399440  1
  Mn  Mn11  1  0.30600560  0.69399440  0.30600560  1
  Mn  Mn12  1  0.30600560  0.69399440  0.69399440  1
  Ni  Ni13  1  0.33455996  0.33455996  0.33455996  1
  Ni  Ni14  1  0.66544004  0.66544004  0.00367989  1
  Ni  Ni15  1  0.00367989  0.66544004  0.66544004  1
  Ni  Ni16  1  0.66544004  0.00367989  0.66544004  1
  Ni  Ni17  1  0.99632011  0.33455996  0.33455996  1
  Ni  Ni18  1  0.33455996  0.99632011  0.33455996  1
  Ni  Ni19  1  0.33455996  0.33455996  0.99632011  1
  Ni  Ni20  1  0.66544004  0.66544004  0.66544004  1
  Ni  Ni21  1  0.11760774  0.11760774  0.11760774  1
  Ni  Ni22  1  0.88239226  0.88239226  0.35282322  1
  Ni  Ni23  1  0.35282322  0.88239226  0.88239226  1
  Ni  Ni24  1  0.88239226  0.35282322  0.88239226  1
  Ni  Ni25  1  0.64717678  0.11760774  0.11760774  1
  Ni  Ni26  1  0.11760774  0.64717678  0.11760774  1
  Ni  Ni27  1  0.11760774  0.11760774  0.64717678  1
  Ni  Ni28  1  0.88239226  0.88239226  0.88239226  1
