# generated using pymatgen
data_K4Al3Si3ClO12
_symmetry_space_group_name_H-M   'P 1'
_cell_length_a   9.36999180
_cell_length_b   9.36999180
_cell_length_c   9.36999180
_cell_angle_alpha   90.00000000
_cell_angle_beta   90.00000000
_cell_angle_gamma   90.00000000
_symmetry_Int_Tables_number   1
_chemical_formula_structural   K4Al3Si3ClO12
_chemical_formula_sum   'K8 Al6 Si6 Cl2 O24'
_cell_volume   822.65479320
_cell_formula_units_Z   2
loop_
 _symmetry_equiv_pos_site_id
 _symmetry_equiv_pos_as_xyz
  1  'x, y, z'
loop_
 _atom_site_type_symbol
 _atom_site_label
 _atom_site_symmetry_multiplicity
 _atom_site_fract_x
 _atom_site_fract_y
 _atom_site_fract_z
 _atom_site_occupancy
  O  O0  1  0.65357243  0.97883186  0.64426221  1
  O  O1  1  0.65357243  0.02116814  0.35573779  1
  O  O2  1  0.97883186  0.64426221  0.65357243  1
  O  O3  1  0.02116814  0.64426221  0.34642757  1
  O  O4  1  0.64426221  0.65357243  0.97883186  1
  O  O5  1  0.35573779  0.34642757  0.97883186  1
  O  O6  1  0.84642757  0.85573779  0.47883186  1
  O  O7  1  0.84642757  0.14426221  0.52116814  1
  O  O8  1  0.15357243  0.85573779  0.52116814  1
  O  O9  1  0.14426221  0.52116814  0.84642757  1
  O  O10  1  0.52116814  0.15357243  0.85573779  1
  O  O11  1  0.52116814  0.84642757  0.14426221  1
  O  O12  1  0.85573779  0.47883186  0.84642757  1
  O  O13  1  0.47883186  0.84642757  0.85573779  1
  O  O14  1  0.85573779  0.52116814  0.15357243  1
  O  O15  1  0.14426221  0.47883186  0.15357243  1
  O  O16  1  0.47883186  0.15357243  0.14426221  1
  O  O17  1  0.35573779  0.65357243  0.02116814  1
  O  O18  1  0.64426221  0.34642757  0.02116814  1
  O  O19  1  0.97883186  0.35573779  0.34642757  1
  O  O20  1  0.02116814  0.35573779  0.65357243  1
  O  O21  1  0.34642757  0.02116814  0.64426221  1
  O  O22  1  0.15357243  0.14426221  0.47883186  1
  O  O23  1  0.34642757  0.97883186  0.35573779  1
  Al  Al24  1  0.25000000  0.50000000  0.00000000  1
  Al  Al25  1  0.50000000  0.00000000  0.75000000  1
  Al  Al26  1  0.50000000  0.00000000  0.25000000  1
  Al  Al27  1  0.00000000  0.25000000  0.50000000  1
  Al  Al28  1  0.00000000  0.75000000  0.50000000  1
  Al  Al29  1  0.75000000  0.50000000  0.00000000  1
  Si  Si30  1  0.75000000  0.00000000  0.50000000  1
  Si  Si31  1  0.00000000  0.50000000  0.75000000  1
  Si  Si32  1  0.00000000  0.50000000  0.25000000  1
  Si  Si33  1  0.50000000  0.25000000  0.00000000  1
  Si  Si34  1  0.25000000  0.00000000  0.50000000  1
  Si  Si35  1  0.50000000  0.75000000  0.00000000  1
  Cl  Cl36  1  0.50000000  0.50000000  0.50000000  1
  Cl  Cl37  1  0.00000000  0.00000000  0.00000000  1
  K  K38  1  0.31364654  0.31364654  0.68635346  1
  K  K39  1  0.81364654  0.81364654  0.18635346  1
  K  K40  1  0.68635346  0.31364654  0.31364654  1
  K  K41  1  0.81364654  0.18635346  0.81364654  1
  K  K42  1  0.31364654  0.68635346  0.31364654  1
  K  K43  1  0.18635346  0.18635346  0.18635346  1
  K  K44  1  0.68635346  0.68635346  0.68635346  1
  K  K45  1  0.18635346  0.81364654  0.81364654  1
