# generated using pymatgen
data_Li4V3CoO8
_symmetry_space_group_name_H-M   'P 1'
_cell_length_a   10.31663602
_cell_length_b   10.30526513
_cell_length_c   14.60829590
_cell_angle_alpha   19.23452040
_cell_angle_beta   19.22232369
_cell_angle_gamma   33.13450663
_symmetry_Int_Tables_number   1
_chemical_formula_structural   Li4V3CoO8
_chemical_formula_sum   'Li4 V3 Co1 O8'
_cell_volume   145.95607301
_cell_formula_units_Z   1
loop_
 _symmetry_equiv_pos_site_id
 _symmetry_equiv_pos_as_xyz
  1  'x, y, z'
loop_
 _atom_site_type_symbol
 _atom_site_label
 _atom_site_symmetry_multiplicity
 _atom_site_fract_x
 _atom_site_fract_y
 _atom_site_fract_z
 _atom_site_occupancy
  Li  Li0  1  0.00000023  0.00000080  0.49999914  1
  Li  Li1  1  0.99999956  0.50000027  0.50000014  1
  Li  Li2  1  0.49999928  0.99999942  0.50000073  1
  Li  Li3  1  0.50000050  0.50000019  0.49999936  1
  V  V4  1  0.00000021  0.50000103  0.99999892  1
  V  V5  1  0.50000015  0.99999955  0.00000010  1
  V  V6  1  0.50000046  0.49999922  0.00000034  1
  Co  Co7  1  0.00000021  0.99999965  0.99999998  1
  O  O8  1  -0.00041043  0.99795620  0.25835715  1
  O  O9  1  0.00716892  0.51721990  0.24135259  1
  O  O10  1  0.51441559  0.00026754  0.24755969  1
  O  O11  1  0.00040982  0.00204333  0.74164342  1
  O  O12  1  0.48908508  0.49132316  0.27158926  1
  O  O13  1  0.99283083  0.48277919  0.75864813  1
  O  O14  1  0.48558523  -0.00026709  0.75243914  1
  O  O15  1  0.51091436  0.50867662  0.72841092  1
