# generated using pymatgen
data_Sr4Cl6O
_symmetry_space_group_name_H-M   'P 1'
_cell_length_a   9.57617638
_cell_length_b   9.57617638
_cell_length_c   7.30659379
_cell_angle_alpha   90.00000000
_cell_angle_beta   90.00000000
_cell_angle_gamma   119.99999999
_symmetry_Int_Tables_number   1
_chemical_formula_structural   Sr4Cl6O
_chemical_formula_sum   'Sr8 Cl12 O2'
_cell_volume   580.26966648
_cell_formula_units_Z   2
loop_
 _symmetry_equiv_pos_site_id
 _symmetry_equiv_pos_as_xyz
  1  'x, y, z'
loop_
 _atom_site_type_symbol
 _atom_site_label
 _atom_site_symmetry_multiplicity
 _atom_site_fract_x
 _atom_site_fract_y
 _atom_site_fract_z
 _atom_site_occupancy
  O  O0  1  0.66666667  0.33333333  0.50128244  1
  O  O1  1  0.33333333  0.66666667  0.00128244  1
  Cl  Cl2  1  0.85861682  0.71723365  0.78413045  1
  Cl  Cl3  1  0.14138318  0.28276635  0.28413045  1
  Cl  Cl4  1  0.71723365  0.85861682  0.28413045  1
  Cl  Cl5  1  0.85861682  0.14138318  0.78413045  1
  Cl  Cl6  1  0.53480401  0.46519599  0.10810726  1
  Cl  Cl7  1  0.06960801  0.53480401  0.60810726  1
  Cl  Cl8  1  0.46519599  0.93039199  0.60810726  1
  Cl  Cl9  1  0.53480401  0.06960801  0.10810726  1
  Cl  Cl10  1  0.93039199  0.46519599  0.10810726  1
  Cl  Cl11  1  0.46519599  0.53480401  0.60810726  1
  Cl  Cl12  1  0.14138318  0.85861682  0.28413045  1
  Cl  Cl13  1  0.28276635  0.14138318  0.78413045  1
  Sr  Sr14  1  0.19703805  0.39407610  0.89570919  1
  Sr  Sr15  1  0.80296195  0.60592390  0.39570919  1
  Sr  Sr16  1  0.39407610  0.19703805  0.39570919  1
  Sr  Sr17  1  0.19703805  0.80296195  0.89570919  1
  Sr  Sr18  1  0.60592390  0.80296195  0.89570919  1
  Sr  Sr19  1  0.80296195  0.19703805  0.39570919  1
  Sr  Sr20  1  0.33333333  0.66666667  0.32632684  1
  Sr  Sr21  1  0.66666667  0.33333333  0.82632684  1
