# generated using pymatgen
data_KSiH3
_symmetry_space_group_name_H-M   'P 1'
_cell_length_a   5.42133477
_cell_length_b   6.89965663
_cell_length_c   8.89004387
_cell_angle_alpha   90.00000000
_cell_angle_beta   90.00000000
_cell_angle_gamma   90.00000000
_symmetry_Int_Tables_number   1
_chemical_formula_structural   KSiH3
_chemical_formula_sum   'K4 Si4 H12'
_cell_volume   332.53518815
_cell_formula_units_Z   4
loop_
 _symmetry_equiv_pos_site_id
 _symmetry_equiv_pos_as_xyz
  1  'x, y, z'
loop_
 _atom_site_type_symbol
 _atom_site_label
 _atom_site_symmetry_multiplicity
 _atom_site_fract_x
 _atom_site_fract_y
 _atom_site_fract_z
 _atom_site_occupancy
  H  H0  1  0.95695953  0.30016643  0.41850538  1
  H  H1  1  0.45695953  0.69983357  0.58149462  1
  H  H2  1  0.04304047  0.80016643  0.08149462  1
  H  H3  1  0.54304047  0.19983357  0.91850538  1
  H  H4  1  0.04304047  0.69983357  0.58149462  1
  H  H5  1  0.54304047  0.30016643  0.41850538  1
  H  H6  1  0.95695953  0.19983357  0.91850538  1
  H  H7  1  0.45695953  0.80016643  0.08149462  1
  H  H8  1  0.25000000  0.69273241  0.87819281  1
  H  H9  1  0.75000000  0.30726759  0.12180719  1
  H  H10  1  0.75000000  0.19273241  0.62180719  1
  H  H11  1  0.25000000  0.80726759  0.37819281  1
  Si  Si12  1  0.25000000  0.85020417  0.54851212  1
  Si  Si13  1  0.75000000  0.14979583  0.45148788  1
  Si  Si14  1  0.75000000  0.35020417  0.95148788  1
  Si  Si15  1  0.25000000  0.64979583  0.04851212  1
  K  K16  1  0.25000000  0.34442413  0.68452709  1
  K  K17  1  0.75000000  0.65557587  0.31547291  1
  K  K18  1  0.75000000  0.84442413  0.81547291  1
  K  K19  1  0.25000000  0.15557587  0.18452709  1
