# generated using pymatgen
data_Co2SiO4
_symmetry_space_group_name_H-M   'P 1'
_cell_length_a   4.83325721
_cell_length_b   6.06399034
_cell_length_c   10.36997825
_cell_angle_alpha   90.00000000
_cell_angle_beta   90.00000000
_cell_angle_gamma   90.00000000
_symmetry_Int_Tables_number   1
_chemical_formula_structural   Co2SiO4
_chemical_formula_sum   'Co8 Si4 O16'
_cell_volume   303.93187812
_cell_formula_units_Z   4
loop_
 _symmetry_equiv_pos_site_id
 _symmetry_equiv_pos_as_xyz
  1  'x, y, z'
loop_
 _atom_site_type_symbol
 _atom_site_label
 _atom_site_symmetry_multiplicity
 _atom_site_fract_x
 _atom_site_fract_y
 _atom_site_fract_z
 _atom_site_occupancy
  O  O0  1  0.22086245  0.46756695  0.66156137  1
  O  O1  1  0.72086251  0.53243319  0.83843775  1
  O  O2  1  0.77913768  0.96756702  0.33843837  1
  O  O3  1  0.27913762  0.03243312  0.16156199  1
  O  O4  1  0.77913768  0.53243319  0.33843837  1
  O  O5  1  0.27913762  0.46756695  0.16156199  1
  O  O6  1  0.22086245  0.03243312  0.66156137  1
  O  O7  1  0.72086251  0.96756702  0.83843775  1
  O  O8  1  0.71425418  0.74999926  0.05431436  1
  O  O9  1  0.21425411  0.24999919  0.44568600  1
  O  O10  1  0.28574595  0.24999919  0.94568538  1
  O  O11  1  0.78574602  0.74999926  0.55431472  1
  O  O12  1  0.23317363  0.74999926  0.90717157  1
  O  O13  1  0.73317369  0.24999919  0.59282754  1
  O  O14  1  0.26682644  0.74999926  0.40717219  1
  O  O15  1  0.76682650  0.24999919  0.09282816  1
  Si  Si16  1  0.92671748  0.74999926  0.40681378  1
  Si  Si17  1  0.42671742  0.24999919  0.09318657  1
  Si  Si18  1  0.07328265  0.24999919  0.59318693  1
  Si  Si19  1  0.57328271  0.74999926  0.90681316  1
  Co  Co20  1  0.50174525  0.24999919  0.77314249  1
  Co  Co21  1  0.99825495  0.24999919  0.27314312  1
  Co  Co22  1  0.49825488  0.74999926  0.22685724  1
  Co  Co23  1  0.00174518  0.74999926  0.72685760  1
  Co  Co24  1  0.50000006  0.50000007  0.50000036  1
  Co  Co25  1  0.00000000  0.50000007  0.00000000  1
  Co  Co26  1  0.50000006  0.00000000  0.50000036  1
  Co  Co27  1  0.00000000  0.00000000  0.00000000  1
