# generated using pymatgen
data_Li4Ti4Cr4NiO18
_symmetry_space_group_name_H-M   'P 1'
_cell_length_a   9.26891729
_cell_length_b   24.17762696
_cell_length_c   2.93211415
_cell_angle_alpha   90.00000000
_cell_angle_beta   90.00000000
_cell_angle_gamma   90.00000000
_symmetry_Int_Tables_number   1
_chemical_formula_structural   Li4Ti4Cr4NiO18
_chemical_formula_sum   'Li8 Ti8 Cr8 Ni2 O36'
_cell_volume   657.08802588
_cell_formula_units_Z   2
loop_
 _symmetry_equiv_pos_site_id
 _symmetry_equiv_pos_as_xyz
  1  'x, y, z'
loop_
 _atom_site_type_symbol
 _atom_site_label
 _atom_site_symmetry_multiplicity
 _atom_site_fract_x
 _atom_site_fract_y
 _atom_site_fract_z
 _atom_site_occupancy
  Li  Li0  1  0.20106359  0.98942841  -0.00000000  1
  Li  Li1  1  0.16801048  0.19138574  -0.00000000  1
  Li  Li2  1  0.33198952  0.69138574  0.00000000  1
  Li  Li3  1  0.29893641  0.48942841  0.00000000  1
  Li  Li4  1  0.70106359  0.51057159  0.00000000  1
  Li  Li5  1  0.66801048  0.30861426  -0.00000000  1
  Li  Li6  1  0.83198952  0.80861426  0.00000000  1
  Li  Li7  1  0.79893641  0.01057159  0.00000000  1
  Ti  Ti8  1  0.98180508  0.09839825  0.00000000  1
  Ti  Ti9  1  0.18982839  0.80914843  0.50000000  1
  Ti  Ti10  1  0.31017161  0.30914843  0.50000000  1
  Ti  Ti11  1  0.51819492  0.59839825  0.00000000  1
  Ti  Ti12  1  0.48180508  0.40160175  -0.00000000  1
  Ti  Ti13  1  0.68982839  0.69085157  0.50000000  1
  Ti  Ti14  1  0.81017161  0.19085157  0.50000000  1
  Ti  Ti15  1  0.01819492  0.90160175  0.00000000  1
  Cr  Cr16  1  0.96547719  0.31670508  0.00000000  1
  Cr  Cr17  1  0.17006855  0.58630639  0.50000000  1
  Cr  Cr18  1  0.32993145  0.08630639  0.50000000  1
  Cr  Cr19  1  0.53452281  0.81670508  -0.00000000  1
  Cr  Cr20  1  0.46547719  0.18329492  -0.00000000  1
  Cr  Cr21  1  0.67006855  0.91369361  0.50000000  1
  Cr  Cr22  1  0.82993145  0.41369361  0.50000000  1
  Cr  Cr23  1  0.03452281  0.68329492  -0.00000000  1
  Ni  Ni24  1  0.00000000  0.50000000  0.00000000  1
  Ni  Ni25  1  0.50000000  0.00000000  0.00000000  1
  O  O26  1  0.96867242  0.40550792  0.00000000  1
  O  O27  1  0.03132758  0.59449208  -0.00000000  1
  O  O28  1  0.07802559  0.94761482  0.50000000  1
  O  O29  1  0.02151941  0.15567120  0.50000000  1
  O  O30  1  0.17487450  0.66622740  0.50000000  1
  O  O31  1  0.13514298  0.75828218  0.00000000  1
  O  O32  1  0.13436073  0.50391587  0.50000000  1
  O  O33  1  0.10559378  0.29760927  0.50000000  1
  O  O34  1  0.20677243  0.86199177  -0.00000000  1
  O  O35  1  0.18529389  0.07621063  -0.00000000  1
  O  O36  1  0.31470611  0.57621063  0.00000000  1
  O  O37  1  0.29322757  0.36199177  -0.00000000  1
  O  O38  1  0.39440622  0.79760927  0.50000000  1
  O  O39  1  0.36563927  0.00391587  0.50000000  1
  O  O40  1  0.36485702  0.25828218  -0.00000000  1
  O  O41  1  0.32512550  0.16622740  0.50000000  1
  O  O42  1  0.47848059  0.65567120  0.50000000  1
  O  O43  1  0.42197441  0.44761482  0.50000000  1
  O  O44  1  0.46867242  0.09449208  -0.00000000  1
  O  O45  1  0.53132758  0.90550792  -0.00000000  1
  O  O46  1  0.57802559  0.55238518  0.50000000  1
  O  O47  1  0.52151941  0.34432880  0.50000000  1
  O  O48  1  0.67487450  0.83377260  0.50000000  1
  O  O49  1  0.63514298  0.74171782  -0.00000000  1
  O  O50  1  0.63436073  0.99608413  0.50000000  1
  O  O51  1  0.60559378  0.20239073  0.50000000  1
  O  O52  1  0.70677243  0.63800823  -0.00000000  1
  O  O53  1  0.68529389  0.42378937  0.00000000  1
  O  O54  1  0.81470611  0.92378937  -0.00000000  1
  O  O55  1  0.79322757  0.13800823  -0.00000000  1
  O  O56  1  0.89440622  0.70239073  0.50000000  1
  O  O57  1  0.86563927  0.49608413  0.50000000  1
  O  O58  1  0.86485702  0.24171782  0.00000000  1
  O  O59  1  0.82512550  0.33377260  0.50000000  1
  O  O60  1  0.97848059  0.84432880  0.50000000  1
  O  O61  1  0.92197441  0.05238518  0.50000000  1
