# generated using pymatgen
data_Ca3(AlN2)2
_symmetry_space_group_name_H-M   'P 1'
_cell_length_a   5.85633578
_cell_length_b   10.75185615
_cell_length_c   15.91666785
_cell_angle_alpha   90.00000000
_cell_angle_beta   90.00000000
_cell_angle_gamma   90.00000000
_symmetry_Int_Tables_number   1
_chemical_formula_structural   Ca3(AlN2)2
_chemical_formula_sum   'Ca24 Al16 N32'
_cell_volume   1002.21654582
_cell_formula_units_Z   8
loop_
 _symmetry_equiv_pos_site_id
 _symmetry_equiv_pos_as_xyz
  1  'x, y, z'
loop_
 _atom_site_type_symbol
 _atom_site_label
 _atom_site_symmetry_multiplicity
 _atom_site_fract_x
 _atom_site_fract_y
 _atom_site_fract_z
 _atom_site_occupancy
  N  N0  1  0.88124460  0.86487153  0.82787152  1
  N  N1  1  0.38124460  0.63512847  0.17212848  1
  N  N2  1  0.11875540  0.36487153  0.67212848  1
  N  N3  1  0.61875540  0.13512847  0.32787152  1
  N  N4  1  0.97694209  0.70755264  0.67188911  1
  N  N5  1  0.47694209  0.79244736  0.32811089  1
  N  N6  1  0.02305791  0.20755264  0.82811089  1
  N  N7  1  0.52305791  0.29244736  0.17188911  1
  N  N8  1  0.12893573  0.88745258  0.19091522  1
  N  N9  1  0.62893573  0.61254742  0.80908478  1
  N  N10  1  0.87106427  0.38745258  0.30908478  1
  N  N11  1  0.37106427  0.11254742  0.69091522  1
  N  N12  1  0.21846107  0.52640197  0.91114290  1
  N  N13  1  0.71846107  0.97359803  0.08885710  1
  N  N14  1  0.78153893  0.02640197  0.58885710  1
  N  N15  1  0.28153893  0.47359803  0.41114290  1
  N  N16  1  0.27408777  0.90441061  0.55538895  1
  N  N17  1  0.77408777  0.59558939  0.44461105  1
  N  N18  1  0.72591223  0.40441061  0.94461105  1
  N  N19  1  0.22591223  0.09558939  0.05538895  1
  N  N20  1  0.37040201  0.87329934  0.94225088  1
  N  N21  1  0.87040201  0.62670066  0.05774912  1
  N  N22  1  0.62959799  0.37329934  0.55774912  1
  N  N23  1  0.12959799  0.12670066  0.44225088  1
  N  N24  1  0.38006024  0.62706715  0.56566311  1
  N  N25  1  0.88006024  0.87293285  0.43433689  1
  N  N26  1  0.61993976  0.12706715  0.93433689  1
  N  N27  1  0.11993976  0.37293285  0.06566311  1
  N  N28  1  0.48032068  0.83340970  0.70368336  1
  N  N29  1  0.98032068  0.66659030  0.29631664  1
  N  N30  1  0.51967932  0.33340970  0.79631664  1
  N  N31  1  0.01967932  0.16659030  0.20368336  1
  Al  Al32  1  0.01353249  0.99116306  0.50704078  1
  Al  Al33  1  0.51353249  0.50883694  0.49295922  1
  Al  Al34  1  0.98646751  0.49116306  0.99295922  1
  Al  Al35  1  0.48646751  0.00883694  0.00704078  1
  Al  Al36  1  0.25541102  0.24953479  0.74858827  1
  Al  Al37  1  0.75541102  0.25046521  0.25141173  1
  Al  Al38  1  0.74458898  0.74953479  0.75141173  1
  Al  Al39  1  0.24458898  0.75046521  0.24858827  1
  Al  Al40  1  0.26275175  0.75616090  0.62849464  1
  Al  Al41  1  0.76275175  0.74383910  0.37150536  1
  Al  Al42  1  0.73724825  0.25616090  0.87150536  1
  Al  Al43  1  0.23724825  0.24383910  0.12849464  1
  Al  Al44  1  0.49258445  0.98158837  0.63101588  1
  Al  Al45  1  0.99258445  0.51841163  0.36898412  1
  Al  Al46  1  0.50741555  0.48158837  0.86898412  1
  Al  Al47  1  0.00741555  0.01841163  0.13101588  1
  Ca  Ca48  1  0.72254706  0.76677949  0.55886095  1
  Ca  Ca49  1  0.22254706  0.73322051  0.44113905  1
  Ca  Ca50  1  0.27745294  0.26677949  0.94113905  1
  Ca  Ca51  1  0.77745294  0.23322051  0.05886095  1
  Ca  Ca52  1  0.99846530  0.50981007  0.57325522  1
  Ca  Ca53  1  0.49846530  0.99018993  0.42674478  1
  Ca  Ca54  1  0.00153470  0.00981007  0.92674478  1
  Ca  Ca55  1  0.50153470  0.49018993  0.07325522  1
  Ca  Ca56  1  0.03606385  0.97217621  0.70377928  1
  Ca  Ca57  1  0.53606385  0.52782379  0.29622072  1
  Ca  Ca58  1  0.96393615  0.47217621  0.79622072  1
  Ca  Ca59  1  0.46393615  0.02782379  0.20377928  1
  Ca  Ca60  1  0.20671379  0.75862169  0.06181220  1
  Ca  Ca61  1  0.70671379  0.74137831  0.93818780  1
  Ca  Ca62  1  0.79328621  0.25862169  0.43818780  1
  Ca  Ca63  1  0.29328621  0.24137831  0.56181220  1
  Ca  Ca64  1  0.23892993  0.73629190  0.83343613  1
  Ca  Ca65  1  0.73892993  0.76370810  0.16656387  1
  Ca  Ca66  1  0.76107007  0.23629190  0.66656387  1
  Ca  Ca67  1  0.26107007  0.26370810  0.33343613  1
  Ca  Ca68  1  0.46740380  0.49050672  0.67969407  1
  Ca  Ca69  1  0.96740380  0.00949328  0.32030593  1
  Ca  Ca70  1  0.53259620  0.99050672  0.82030593  1
  Ca  Ca71  1  0.03259620  0.50949328  0.17969407  1
