# generated using pymatgen
data_NbBr5
_symmetry_space_group_name_H-M   'P 1'
_cell_length_a   6.73069249
_cell_length_b   14.16060997
_cell_length_c   19.60445904
_cell_angle_alpha   90.00000000
_cell_angle_beta   90.00000000
_cell_angle_gamma   90.00000000
_symmetry_Int_Tables_number   1
_chemical_formula_structural   NbBr5
_chemical_formula_sum   'Nb8 Br40'
_cell_volume   1868.51493338
_cell_formula_units_Z   8
loop_
 _symmetry_equiv_pos_site_id
 _symmetry_equiv_pos_as_xyz
  1  'x, y, z'
loop_
 _atom_site_type_symbol
 _atom_site_label
 _atom_site_symmetry_multiplicity
 _atom_site_fract_x
 _atom_site_fract_y
 _atom_site_fract_z
 _atom_site_occupancy
  Br  Br0  1  0.27308743  0.70387172  0.06449067  1
  Br  Br1  1  0.77308743  0.79612828  0.93550933  1
  Br  Br2  1  0.22691257  0.20387172  0.43550933  1
  Br  Br3  1  0.72691257  0.29612828  0.56449067  1
  Br  Br4  1  0.72691257  0.29612828  0.93550933  1
  Br  Br5  1  0.22691257  0.20387172  0.06449067  1
  Br  Br6  1  0.77308743  0.79612828  0.56449067  1
  Br  Br7  1  0.27308743  0.70387172  0.43550933  1
  Br  Br8  1  0.20271535  0.19529867  0.25000000  1
  Br  Br9  1  0.70271535  0.30470133  0.75000000  1
  Br  Br10  1  0.29728465  0.69529867  0.25000000  1
  Br  Br11  1  0.79728465  0.80470133  0.75000000  1
  Br  Br12  1  0.78561421  0.05293442  0.25000000  1
  Br  Br13  1  0.28561421  0.44706558  0.75000000  1
  Br  Br14  1  0.71438579  0.55293442  0.25000000  1
  Br  Br15  1  0.21438579  0.94706558  0.75000000  1
  Br  Br16  1  0.20853218  0.98143189  0.34800541  1
  Br  Br17  1  0.70853218  0.51856811  0.65199459  1
  Br  Br18  1  0.29146782  0.48143189  0.15199459  1
  Br  Br19  1  0.79146782  0.01856811  0.84800541  1
  Br  Br20  1  0.79146782  0.01856811  0.65199459  1
  Br  Br21  1  0.29146782  0.48143189  0.34800541  1
  Br  Br22  1  0.70853218  0.51856811  0.84800541  1
  Br  Br23  1  0.20853218  0.98143189  0.15199459  1
  Br  Br24  1  0.27844807  0.23243882  0.65270217  1
  Br  Br25  1  0.77844807  0.26756118  0.34729783  1
  Br  Br26  1  0.22155193  0.73243882  0.84729783  1
  Br  Br27  1  0.72155193  0.76756118  0.15270217  1
  Br  Br28  1  0.72155193  0.76756118  0.34729783  1
  Br  Br29  1  0.22155193  0.73243882  0.65270217  1
  Br  Br30  1  0.77844807  0.26756118  0.15270217  1
  Br  Br31  1  0.27844807  0.23243882  0.84729783  1
  Br  Br32  1  0.75958351  0.04567489  0.43557586  1
  Br  Br33  1  0.25958351  0.45432511  0.56442414  1
  Br  Br34  1  0.74041649  0.54567489  0.06442414  1
  Br  Br35  1  0.24041649  0.95432511  0.93557586  1
  Br  Br36  1  0.24041649  0.95432511  0.56442414  1
  Br  Br37  1  0.74041649  0.54567489  0.43557586  1
  Br  Br38  1  0.25958351  0.45432511  0.93557586  1
  Br  Br39  1  0.75958351  0.04567489  0.06442414  1
  Nb  Nb40  1  0.99343297  0.12453730  0.14124329  1
  Nb  Nb41  1  0.49343297  0.37546270  0.85875671  1
  Nb  Nb42  1  0.50656703  0.62453730  0.35875671  1
  Nb  Nb43  1  0.00656703  0.87546270  0.64124329  1
  Nb  Nb44  1  0.00656703  0.87546270  0.85875671  1
  Nb  Nb45  1  0.50656703  0.62453730  0.14124329  1
  Nb  Nb46  1  0.49343297  0.37546270  0.64124329  1
  Nb  Nb47  1  0.99343297  0.12453730  0.35875671  1
