# generated using pymatgen
data_K2ReF8
_symmetry_space_group_name_H-M   'P 1'
_cell_length_a   6.00233728
_cell_length_b   8.87033543
_cell_length_c   12.75719660
_cell_angle_alpha   90.00000000
_cell_angle_beta   90.00000000
_cell_angle_gamma   90.00000000
_symmetry_Int_Tables_number   1
_chemical_formula_structural   K2ReF8
_chemical_formula_sum   'K8 Re4 F32'
_cell_volume   679.22816597
_cell_formula_units_Z   4
loop_
 _symmetry_equiv_pos_site_id
 _symmetry_equiv_pos_as_xyz
  1  'x, y, z'
loop_
 _atom_site_type_symbol
 _atom_site_label
 _atom_site_symmetry_multiplicity
 _atom_site_fract_x
 _atom_site_fract_y
 _atom_site_fract_z
 _atom_site_occupancy
  F  F0  1  0.25000000  0.26923800  0.97173730  1
  F  F1  1  0.75000000  0.73076200  0.02826270  1
  F  F2  1  0.25000000  0.76923800  0.52826270  1
  F  F3  1  0.75000000  0.23076200  0.47173730  1
  F  F4  1  0.25000000  0.50410279  0.34028495  1
  F  F5  1  0.75000000  0.49589721  0.65971505  1
  F  F6  1  0.25000000  1.00410279  0.15971505  1
  F  F7  1  0.75000000  -0.00410279  0.84028495  1
  F  F8  1  0.47589533  0.36476119  0.56570554  1
  F  F9  1  0.97589533  0.63523881  0.43429446  1
  F  F10  1  0.02410467  0.86476119  0.93429446  1
  F  F11  1  0.52410467  0.13523881  0.06570554  1
  F  F12  1  0.94881168  0.60314828  0.88525127  1
  F  F13  1  0.44881168  0.39685172  0.11474873  1
  F  F14  1  0.55118832  0.10314828  0.61474873  1
  F  F15  1  0.05118832  0.89685172  0.38525127  1
  F  F16  1  0.05118832  0.39685172  0.11474873  1
  F  F17  1  0.55118832  0.60314828  0.88525127  1
  F  F18  1  0.44881168  0.89685172  0.38525127  1
  F  F19  1  0.94881168  0.10314828  0.61474873  1
  F  F20  1  0.94929426  0.79063997  0.75264012  1
  F  F21  1  0.44929426  0.20936003  0.24735988  1
  F  F22  1  0.55070574  0.29063997  0.74735988  1
  F  F23  1  0.05070574  0.70936003  0.25264012  1
  F  F24  1  0.05070574  0.20936003  0.24735988  1
  F  F25  1  0.55070574  0.79063997  0.75264012  1
  F  F26  1  0.44929426  0.70936003  0.25264012  1
  F  F27  1  0.94929426  0.29063997  0.74735988  1
  F  F28  1  0.47589533  0.86476119  0.93429446  1
  F  F29  1  0.97589533  0.13523881  0.06570554  1
  F  F30  1  0.02410467  0.36476119  0.56570554  1
  F  F31  1  0.52410467  0.63523881  0.43429446  1
  K  K32  1  0.25000000  0.54865994  0.70970294  1
  K  K33  1  0.75000000  0.45134006  0.29029706  1
  K  K34  1  0.25000000  0.04865994  0.79029706  1
  K  K35  1  0.75000000  0.95134006  0.20970294  1
  K  K36  1  0.25000000  0.66962683  0.05964883  1
  K  K37  1  0.75000000  0.33037317  0.94035117  1
  K  K38  1  0.25000000  0.16962683  0.44035117  1
  K  K39  1  0.75000000  0.83037317  0.55964883  1
  Re  Re40  1  0.25000000  0.71843526  0.37687523  1
  Re  Re41  1  0.75000000  0.28156474  0.62312477  1
  Re  Re42  1  0.25000000  0.21843526  0.12312477  1
  Re  Re43  1  0.75000000  0.78156474  0.87687523  1
