# generated using pymatgen
data_NaMoPO6
_symmetry_space_group_name_H-M   'P 1'
_cell_length_a   6.45592116
_cell_length_b   12.22118961
_cell_length_c   12.27456302
_cell_angle_alpha   90.00000000
_cell_angle_beta   91.22181056
_cell_angle_gamma   90.00000000
_symmetry_Int_Tables_number   1
_chemical_formula_structural   NaMoPO6
_chemical_formula_sum   'Na8 Mo8 P8 O48'
_cell_volume   968.23100972
_cell_formula_units_Z   8
loop_
 _symmetry_equiv_pos_site_id
 _symmetry_equiv_pos_as_xyz
  1  'x, y, z'
loop_
 _atom_site_type_symbol
 _atom_site_label
 _atom_site_symmetry_multiplicity
 _atom_site_fract_x
 _atom_site_fract_y
 _atom_site_fract_z
 _atom_site_occupancy
  O  O0  1  0.74186809  0.83147729  0.25931650  1
  O  O1  1  0.75813191  0.33147729  0.24068350  1
  O  O2  1  0.25813191  0.16852271  0.74068350  1
  O  O3  1  0.24186809  0.66852271  0.75931650  1
  O  O4  1  0.73698670  0.53415915  0.14281646  1
  O  O5  1  0.76301330  0.03415915  0.35718354  1
  O  O6  1  0.26301330  0.46584085  0.85718354  1
  O  O7  1  0.23698670  0.96584085  0.64281646  1
  O  O8  1  0.24402062  0.70423521  0.26779833  1
  O  O9  1  0.25597938  0.20423521  0.23220167  1
  O  O10  1  0.75597938  0.29576479  0.73220167  1
  O  O11  1  0.74402062  0.79576479  0.76779833  1
  O  O12  1  0.26964258  0.67674171  0.49217271  1
  O  O13  1  0.23035742  0.17674171  0.00782729  1
  O  O14  1  0.73035742  0.32325829  0.50782729  1
  O  O15  1  0.76964258  0.82325829  0.99217271  1
  O  O16  1  0.26637495  0.56906272  0.06250043  1
  O  O17  1  0.75903729  0.73645636  0.47050617  1
  O  O18  1  0.23362505  0.06906272  0.43749957  1
  O  O19  1  0.76637495  0.93093728  0.56250043  1
  O  O20  1  0.23368997  0.97501957  0.25321914  1
  O  O21  1  0.26631003  0.47501957  0.24678086  1
  O  O22  1  0.76631003  0.02498043  0.74678086  1
  O  O23  1  0.73368997  0.52498043  0.75321914  1
  O  O24  1  0.94697124  0.58221016  0.37126587  1
  O  O25  1  0.55302876  0.08221016  0.12873413  1
  O  O26  1  0.05302876  0.41778984  0.62873413  1
  O  O27  1  0.44697124  0.91778984  0.87126587  1
  O  O28  1  0.56530763  0.58750473  0.36047468  1
  O  O29  1  0.93469237  0.08750473  0.13952532  1
  O  O30  1  0.43469237  0.41249527  0.63952532  1
  O  O31  1  0.06530763  0.91249527  0.86047468  1
  O  O32  1  0.94137415  0.60620622  0.91119596  1
  O  O33  1  0.55862585  0.10620622  0.58880404  1
  O  O34  1  0.05862585  0.39379378  0.08880404  1
  O  O35  1  0.44137415  0.89379378  0.41119596  1
  O  O36  1  0.55929100  0.61723145  0.91151156  1
  O  O37  1  0.94070900  0.11723145  0.58848844  1
  O  O38  1  0.44070900  0.38276855  0.08848844  1
  O  O39  1  0.05929100  0.88276855  0.41151156  1
  O  O40  1  0.73752010  0.54973722  0.54363051  1
  O  O41  1  0.76247990  0.04973722  0.95636949  1
  O  O42  1  0.26247990  0.45026278  0.45636949  1
  O  O43  1  0.23752010  0.95026278  0.04363051  1
  O  O44  1  0.25903729  0.76354364  0.97050617  1
  O  O45  1  0.24096271  0.26354364  0.52949383  1
  O  O46  1  0.74096271  0.23645636  0.02949383  1
  O  O47  1  0.73362505  0.43093728  0.93749957  1
  Na  Na48  1  0.04770730  0.82541782  0.15345082  1
  Na  Na49  1  0.45229270  0.32541782  0.34654918  1
  Na  Na50  1  0.95229270  0.17458218  0.84654918  1
  Na  Na51  1  0.54770730  0.67458218  0.65345082  1
  Na  Na52  1  0.54387906  0.70200699  0.11027997  1
  Na  Na53  1  0.95612094  0.20200699  0.38972003  1
  Na  Na54  1  0.45612094  0.29799301  0.88972003  1
  Na  Na55  1  0.04387906  0.79799301  0.61027997  1
  P  P56  1  0.24136476  0.95895015  0.37720538  1
  P  P57  1  0.25863524  0.45895015  0.12279462  1
  P  P58  1  0.75863524  0.04104985  0.62279462  1
  P  P59  1  0.74136476  0.54104985  0.87720538  1
  P  P60  1  0.75365003  0.61427374  0.43717520  1
  P  P61  1  0.74634997  0.11427374  0.06282480  1
  P  P62  1  0.24634997  0.38572626  0.56282480  1
  P  P63  1  0.25365003  0.88572626  0.93717520  1
  Mo  Mo64  1  0.74353990  0.89606923  0.38724287  1
  Mo  Mo65  1  0.75646010  0.39606923  0.11275713  1
  Mo  Mo66  1  0.25646010  0.10393077  0.61275713  1
  Mo  Mo67  1  0.24353990  0.60393077  0.88724287  1
  Mo  Mo68  1  0.25425858  0.60425539  0.36951227  1
  Mo  Mo69  1  0.24574142  0.10425539  0.13048773  1
  Mo  Mo70  1  0.74574142  0.39574461  0.63048773  1
  Mo  Mo71  1  0.75425858  0.89574461  0.86951227  1
