# generated using pymatgen
data_K2Mo2O7
_symmetry_space_group_name_H-M   'P 1'
_cell_length_a   7.11075899
_cell_length_b   7.42397499
_cell_length_c   7.74443459
_cell_angle_alpha   81.66315450
_cell_angle_beta   68.97003463
_cell_angle_gamma   85.90673477
_symmetry_Int_Tables_number   1
_chemical_formula_structural   K2Mo2O7
_chemical_formula_sum   'K4 Mo4 O14'
_cell_volume   377.48317873
_cell_formula_units_Z   2
loop_
 _symmetry_equiv_pos_site_id
 _symmetry_equiv_pos_as_xyz
  1  'x, y, z'
loop_
 _atom_site_type_symbol
 _atom_site_label
 _atom_site_symmetry_multiplicity
 _atom_site_fract_x
 _atom_site_fract_y
 _atom_site_fract_z
 _atom_site_occupancy
  O  O0  1  0.50311068  0.09431218  0.65579357  1
  O  O1  1  0.49688932  0.90568782  0.34420643  1
  O  O2  1  0.94009129  0.53536117  0.86054034  1
  O  O3  1  0.05990871  0.46463883  0.13945966  1
  O  O4  1  0.11747195  0.18763696  0.91044732  1
  O  O5  1  0.88252805  0.81236304  0.08955268  1
  O  O6  1  0.82610094  0.77037506  0.47828435  1
  O  O7  1  0.17389906  0.22962494  0.52171565  1
  O  O8  1  0.85145746  0.14661033  0.26525010  1
  O  O9  1  0.14854254  0.85338967  0.73474990  1
  O  O10  1  0.28809906  0.78517484  0.04772489  1
  O  O11  1  0.71190094  0.21482516  0.95227511  1
  O  O12  1  0.62298201  0.45735197  0.21062050  1
  O  O13  1  0.37701799  0.54264803  0.78937950  1
  K  K14  1  0.69425305  0.83711760  0.84053177  1
  K  K15  1  0.30574695  0.16288240  0.15946823  1
  K  K16  1  0.75437984  0.37942768  0.56500593  1
  K  K17  1  0.24562016  0.62057232  0.43499407  1
  Mo  Mo18  1  0.24088837  0.09069469  0.69868675  1
  Mo  Mo19  1  0.75911163  0.90930531  0.30131325  1
  Mo  Mo20  1  0.17018312  0.65005240  0.94595036  1
  Mo  Mo21  1  0.82981688  0.34994760  0.05404964  1
