# generated using pymatgen
data_Li4Fe2Ni3Te(PO4)6
_symmetry_space_group_name_H-M   'P 1'
_cell_length_a   8.42461564
_cell_length_b   8.54233838
_cell_length_c   8.55595224
_cell_angle_alpha   63.27581934
_cell_angle_beta   63.91565612
_cell_angle_gamma   63.75143550
_symmetry_Int_Tables_number   1
_chemical_formula_structural   Li4Fe2Ni3Te(PO4)6
_chemical_formula_sum   'Li4 Fe2 Ni3 Te1 P6 O24'
_cell_volume   470.44108163
_cell_formula_units_Z   1
loop_
 _symmetry_equiv_pos_site_id
 _symmetry_equiv_pos_as_xyz
  1  'x, y, z'
loop_
 _atom_site_type_symbol
 _atom_site_label
 _atom_site_symmetry_multiplicity
 _atom_site_fract_x
 _atom_site_fract_y
 _atom_site_fract_z
 _atom_site_occupancy
  Li  Li0  1  0.74042298  0.14688279  0.35730606  1
  Li  Li1  1  0.29696046  0.83982537  0.63671218  1
  Li  Li2  1  0.63384073  0.30103576  0.84411512  1
  Li  Li3  1  0.84610500  0.63204230  0.30610787  1
  Fe  Fe4  1  0.01271083  0.00260203  0.00032082  1
  Fe  Fe5  1  0.48457116  0.50197592  0.49857370  1
  Ni  Ni6  1  0.14104199  0.14733455  0.14525065  1
  Ni  Ni7  1  0.35426616  0.35144187  0.34903189  1
  Ni  Ni8  1  0.64881207  0.65151010  0.65320696  1
  Te  Te9  1  0.84938387  0.84236516  0.84785059  1
  P  P10  1  0.06650644  0.74558988  0.43623816  1
  P  P11  1  0.43390924  0.06356547  0.74909061  1
  P  P12  1  0.25187890  0.53998628  0.95110360  1
  P  P13  1  0.55166412  0.95273942  0.25206026  1
  P  P14  1  0.94062145  0.24776328  0.54031666  1
  P  P15  1  0.74702558  0.43710050  0.06264915  1
  O  O16  1  0.11028823  0.29761110  0.49069853  1
  O  O17  1  0.31318810  0.51327987  0.10406674  1
  O  O18  1  0.06481630  0.90626566  0.25295852  1
  O  O19  1  0.55224007  0.09883963  0.30711253  1
  O  O20  1  0.05832396  0.80991651  0.58635719  1
  O  O21  1  0.25107133  0.58837598  0.42013249  1
  O  O22  1  0.24267561  0.08232794  0.89663078  1
  O  O23  1  0.43858849  0.24196965  0.58278292  1
  O  O24  1  0.17405221  0.39663828  0.98343542  1
  O  O25  1  0.59479717  0.42006138  0.25106857  1
  O  O26  1  0.10218289  0.75039585  0.91468833  1
  O  O27  1  0.39183247  0.00670289  0.18555947  1
  O  O28  1  0.58355279  0.04486717  0.82419182  1
  O  O29  1  0.89425675  0.24325480  0.08327013  1
  O  O30  1  0.40946707  0.56046609  0.75884841  1
  O  O31  1  0.81678894  0.58657184  0.04894357  1
  O  O32  1  0.56242188  0.76049395  0.40968239  1
  O  O33  1  0.75819035  0.90971780  0.09886534  1
  O  O34  1  0.75266552  0.41160423  0.56449554  1
  O  O35  1  0.94444966  0.17633912  0.40420549  1
  O  O36  1  0.48059969  0.89632247  0.69317930  1
  O  O37  1  0.91662797  0.09930399  0.74796843  1
  O  O38  1  0.69056891  0.48494982  0.89584475  1
  O  O39  1  0.89663166  0.68696031  0.48807606  1
