# generated using pymatgen
data_Bi2(MoO4)3
_symmetry_space_group_name_H-M   'P 1'
_cell_length_a   7.83609426
_cell_length_b   11.45331711
_cell_length_c   11.63430603
_cell_angle_alpha   90.00000000
_cell_angle_beta   90.00000000
_cell_angle_gamma   105.54537795
_symmetry_Int_Tables_number   1
_chemical_formula_structural   Bi2(MoO4)3
_chemical_formula_sum   'Bi8 Mo12 O48'
_cell_volume   1005.97317770
_cell_formula_units_Z   4
loop_
 _symmetry_equiv_pos_site_id
 _symmetry_equiv_pos_as_xyz
  1  'x, y, z'
loop_
 _atom_site_type_symbol
 _atom_site_label
 _atom_site_symmetry_multiplicity
 _atom_site_fract_x
 _atom_site_fract_y
 _atom_site_fract_z
 _atom_site_occupancy
  O  O0  1  0.90995766  0.59617348  0.02862769  1
  O  O1  1  0.59004234  0.90382652  0.52862769  1
  O  O2  1  0.09004234  0.40382652  0.97137231  1
  O  O3  1  0.40995766  0.09617348  0.47137231  1
  O  O4  1  0.00316194  0.84525938  0.06442729  1
  O  O5  1  0.49683806  0.65474062  0.56442729  1
  O  O6  1  0.99683806  0.15474062  0.93557271  1
  O  O7  1  0.50316194  0.34525938  0.43557271  1
  O  O8  1  0.43283958  0.57459914  0.04698993  1
  O  O9  1  0.06716042  0.92540086  0.54698993  1
  O  O10  1  0.56716042  0.42540086  0.95301007  1
  O  O11  1  0.93283958  0.07459914  0.45301007  1
  O  O12  1  0.67402308  0.97676825  0.06209901  1
  O  O13  1  0.82597692  0.52323175  0.56209901  1
  O  O14  1  0.32597692  0.02323175  0.93790099  1
  O  O15  1  0.17402308  0.47676825  0.43790099  1
  O  O16  1  0.74451216  0.69624108  0.20763036  1
  O  O17  1  0.20091602  0.71080205  0.19202070  1
  O  O18  1  0.79908398  0.28919795  0.80797930  1
  O  O19  1  0.70091602  0.21080205  0.30797930  1
  O  O20  1  0.68087200  0.21807557  0.04401350  1
  O  O21  1  0.81912800  0.28192443  0.54401350  1
  O  O22  1  0.31912800  0.78192443  0.95598650  1
  O  O23  1  0.18087200  0.71807557  0.45598650  1
  O  O24  1  0.32116363  0.26025465  0.05161184  1
  O  O25  1  0.17883637  0.23974535  0.55161184  1
  O  O26  1  0.67883637  0.73974535  0.94838816  1
  O  O27  1  0.82116363  0.76025465  0.44838816  1
  O  O28  1  0.92972555  0.14606712  0.19417778  1
  O  O29  1  0.57027445  0.35393288  0.69417778  1
  O  O30  1  0.07027445  0.85393288  0.80582222  1
  O  O31  1  0.42972555  0.64606712  0.30582222  1
  O  O32  1  0.54990290  0.42712286  0.21079415  1
  O  O33  1  0.95009710  0.07287714  0.71079415  1
  O  O34  1  0.45009710  0.57287714  0.78920585  1
  O  O35  1  0.04990290  0.92712286  0.28920585  1
  O  O36  1  0.19513097  0.42301589  0.20457430  1
  O  O37  1  0.30486903  0.07698411  0.70457430  1
  O  O38  1  0.80486903  0.57698411  0.79542570  1
  O  O39  1  0.69513097  0.92301589  0.29542570  1
  O  O40  1  0.44799646  0.07549653  0.20797951  1
  O  O41  1  0.05200354  0.42450347  0.70797951  1
  O  O42  1  0.55200354  0.92450347  0.79202049  1
  O  O43  1  0.94799646  0.57549653  0.29202049  1
  O  O44  1  0.24451216  0.19624108  0.29236964  1
  O  O45  1  0.25548784  0.30375892  0.79236964  1
  O  O46  1  0.75548784  0.80375892  0.70763036  1
  O  O47  1  0.29908398  0.78919795  0.69202070  1
  Mo  Mo48  1  0.96823841  0.70321539  0.13608481  1
  Mo  Mo49  1  0.53176159  0.79678461  0.63608481  1
  Mo  Mo50  1  0.03176159  0.29678461  0.86391519  1
  Mo  Mo51  1  0.46823841  0.20321539  0.36391519  1
  Mo  Mo52  1  0.18486704  0.60909753  0.35201845  1
  Mo  Mo53  1  0.31513296  0.89090247  0.85201845  1
  Mo  Mo54  1  0.81513296  0.39090247  0.64798155  1
  Mo  Mo55  1  0.68486704  0.10909753  0.14798155  1
  Mo  Mo56  1  0.87315542  0.91805707  0.38656582  1
  Mo  Mo57  1  0.62684458  0.58194293  0.88656582  1
  Mo  Mo58  1  0.12684458  0.08194293  0.61343418  1
  Mo  Mo59  1  0.37315542  0.41805707  0.11343418  1
  Bi  Bi60  1  0.67149118  0.57945401  0.36802359  1
  Bi  Bi61  1  0.82850882  0.92054599  0.86802359  1
  Bi  Bi62  1  0.32850882  0.42054599  0.63197641  1
  Bi  Bi63  1  0.17149118  0.07945401  0.13197641  1
  Bi  Bi64  1  0.50134003  0.75481104  0.13302962  1
  Bi  Bi65  1  0.99865997  0.74518896  0.63302962  1
  Bi  Bi66  1  0.49865997  0.24518896  0.86697038  1
  Bi  Bi67  1  0.00134003  0.25481104  0.36697038  1
