# generated using pymatgen
data_Mn(SeO3)2
_symmetry_space_group_name_H-M   'P 1'
_cell_length_a   5.17110637
_cell_length_b   6.89054824
_cell_length_c   7.43976338
_cell_angle_alpha   90.00000000
_cell_angle_beta   90.71674680
_cell_angle_gamma   90.00000000
_symmetry_Int_Tables_number   1
_chemical_formula_structural   Mn(SeO3)2
_chemical_formula_sum   'Mn2 Se4 O12'
_cell_volume   265.07110570
_cell_formula_units_Z   2
loop_
 _symmetry_equiv_pos_site_id
 _symmetry_equiv_pos_as_xyz
  1  'x, y, z'
loop_
 _atom_site_type_symbol
 _atom_site_label
 _atom_site_symmetry_multiplicity
 _atom_site_fract_x
 _atom_site_fract_y
 _atom_site_fract_z
 _atom_site_occupancy
  O  O0  1  0.55065336  0.58377158  0.74638280  1
  O  O1  1  0.94934664  0.08377158  0.75361720  1
  O  O2  1  0.44934664  0.41622842  0.25361720  1
  O  O3  1  0.05065336  0.91622842  0.24638280  1
  O  O4  1  0.20252914  0.78000549  0.91636470  1
  O  O5  1  0.29747086  0.28000549  0.58363530  1
  O  O6  1  0.19672448  0.66329750  0.48989199  1
  O  O7  1  0.30327552  0.16329750  0.01010801  1
  O  O8  1  0.80327552  0.33670250  0.51010801  1
  O  O9  1  0.69672448  0.83670250  0.98989199  1
  O  O10  1  0.70252914  0.71999451  0.41636470  1
  O  O11  1  0.79747086  0.21999451  0.08363530  1
  Mn  Mn12  1  0.50000000  0.50000000  0.50000000  1
  Mn  Mn13  1  0.00000000  0.00000000  0.00000000  1
  Se  Se14  1  0.51240757  0.17481518  0.19815031  1
  Se  Se15  1  0.98759243  0.67481518  0.30184969  1
  Se  Se16  1  0.01240757  0.32518482  0.69815031  1
  Se  Se17  1  0.48759243  0.82518482  0.80184969  1
