# generated using pymatgen
data_Ta2Mn4O9
_symmetry_space_group_name_H-M   'P 1'
_cell_length_a   5.39707697
_cell_length_b   5.39707698
_cell_length_c   14.50952205
_cell_angle_alpha   90.00000000
_cell_angle_beta   90.00000000
_cell_angle_gamma   120.00000000
_symmetry_Int_Tables_number   1
_chemical_formula_structural   Ta2Mn4O9
_chemical_formula_sum   'Ta4 Mn8 O18'
_cell_volume   366.01675197
_cell_formula_units_Z   2
loop_
 _symmetry_equiv_pos_site_id
 _symmetry_equiv_pos_as_xyz
  1  'x, y, z'
loop_
 _atom_site_type_symbol
 _atom_site_label
 _atom_site_symmetry_multiplicity
 _atom_site_fract_x
 _atom_site_fract_y
 _atom_site_fract_z
 _atom_site_occupancy
  O  O0  1  0.69439679  0.66579138  0.58604765  1
  O  O1  1  0.33420862  0.02860541  0.58604765  1
  O  O2  1  0.97139459  0.30560321  0.58604765  1
  O  O3  1  0.02860541  0.33420862  0.91395235  1
  O  O4  1  0.30560321  0.97139459  0.91395235  1
  O  O5  1  0.66579138  0.69439679  0.91395235  1
  O  O6  1  0.30560321  0.33420862  0.41395235  1
  O  O7  1  0.66579138  0.97139459  0.41395235  1
  O  O8  1  0.02860541  0.69439679  0.41395235  1
  O  O9  1  0.97139459  0.66579138  0.08604765  1
  O  O10  1  0.69439679  0.02860541  0.08604765  1
  O  O11  1  0.33420862  0.30560321  0.08604765  1
  O  O12  1  0.27590004  0.00000000  0.25000000  1
  O  O13  1  0.00000000  0.27590004  0.25000000  1
  O  O14  1  0.72409996  0.72409996  0.25000000  1
  O  O15  1  0.72409996  0.00000000  0.75000000  1
  O  O16  1  0.00000000  0.72409996  0.75000000  1
  O  O17  1  0.27590004  0.27590004  0.75000000  1
  Mn  Mn18  1  0.33333333  0.66666667  0.01913542  1
  Mn  Mn19  1  0.66666667  0.33333333  0.48086458  1
  Mn  Mn20  1  0.66666667  0.33333333  0.98086458  1
  Mn  Mn21  1  0.33333333  0.66666667  0.51913542  1
  Mn  Mn22  1  0.33333333  0.66666667  0.80527576  1
  Mn  Mn23  1  0.66666667  0.33333333  0.69472424  1
  Mn  Mn24  1  0.66666667  0.33333333  0.19472424  1
  Mn  Mn25  1  0.33333333  0.66666667  0.30527576  1
  Ta  Ta26  1  0.00000000  0.00000000  0.35634405  1
  Ta  Ta27  1  0.00000000  0.00000000  0.14365595  1
  Ta  Ta28  1  0.00000000  0.00000000  0.64365595  1
  Ta  Ta29  1  0.00000000  0.00000000  0.85634405  1
