# generated using pymatgen
data_LiMn(PO3)3
_symmetry_space_group_name_H-M   'P 1'
_cell_length_a   9.89548746
_cell_length_b   9.62269417
_cell_length_c   9.51684295
_cell_angle_alpha   108.30128383
_cell_angle_beta   104.47509302
_cell_angle_gamma   109.69681252
_symmetry_Int_Tables_number   1
_chemical_formula_structural   LiMn(PO3)3
_chemical_formula_sum   'Li4 Mn4 P12 O36'
_cell_volume   743.09336275
_cell_formula_units_Z   4
loop_
 _symmetry_equiv_pos_site_id
 _symmetry_equiv_pos_as_xyz
  1  'x, y, z'
loop_
 _atom_site_type_symbol
 _atom_site_label
 _atom_site_symmetry_multiplicity
 _atom_site_fract_x
 _atom_site_fract_y
 _atom_site_fract_z
 _atom_site_occupancy
  Li  Li0  1  0.50198153  0.93019667  0.34515192  1
  Li  Li1  1  0.33593935  0.14350497  0.35236964  1
  Li  Li2  1  0.66406020  0.85649514  0.64763104  1
  Li  Li3  1  0.49801803  0.06980344  0.65484771  1
  O  O4  1  0.29876791  0.92238460  0.21109535  1
  O  O5  1  0.82288472  0.15492497  0.08780228  1
  O  O6  1  0.79938693  0.36726484  0.00429721  1
  O  O7  1  0.96198139  0.82452502  0.37626009  1
  O  O8  1  0.08119436  0.81620797  0.64020473  1
  O  O9  1  0.99646614  0.27226832  0.95497284  1
  O  O10  1  0.17711484  0.84507514  0.91219735  1
  O  O11  1  0.20061263  0.63273526  0.99570347  1
  O  O12  1  0.00353342  0.72773180  0.04502679  1
  O  O13  1  0.03801923  0.17547510  0.62373982  1
  O  O14  1  0.14680146  0.70257760  0.40926895  1
  O  O15  1  0.18584101  0.09587382  0.87871924  1
  O  O16  1  0.32144985  0.43978445  0.96871211  1
  O  O17  1  0.37956672  0.65098057  0.85422731  1
  O  O18  1  0.29434403  0.61104977  0.57653806  1
  O  O19  1  0.91880572  0.18379091  0.35979569  1
  O  O20  1  0.08272808  0.14195788  0.19787175  1
  O  O21  1  0.26296567  0.53129709  0.28391864  1
  O  O22  1  0.44614406  0.82853494  0.50072824  1
  O  O23  1  0.36067030  0.39772309  0.63909792  1
  O  O24  1  0.25487609  0.01334109  0.55924057  1
  O  O25  1  0.57935464  0.68881137  0.73067846  1
  O  O26  1  0.50667933  0.25092936  0.84517281  1
  O  O27  1  0.49332023  0.74907075  0.15482682  1
  O  O28  1  0.85319810  0.29742252  0.59073068  1
  O  O29  1  0.74512347  0.98665901  0.44076011  1
  O  O30  1  0.63933031  0.60227702  0.36090303  1
  O  O31  1  0.55385497  0.17146395  0.49927085  1
  O  O32  1  0.73703494  0.46870302  0.71608126  1
  O  O33  1  0.91727148  0.85804223  0.80212788  1
  O  O34  1  0.70123165  0.07761551  0.78890532  1
  O  O35  1  0.70565605  0.38894912  0.42346131  1
  O  O36  1  0.62043389  0.34901954  0.14577364  1
  O  O37  1  0.67854919  0.56021443  0.03128698  1
  O  O38  1  0.81415855  0.90412630  0.12128039  1
  O  O39  1  0.42064492  0.31118875  0.26932117  1
  P  P40  1  0.91741314  0.08668970  0.18766279  1
  P  P41  1  0.88965736  0.14880691  0.50782853  1
  P  P42  1  0.64347972  0.38426438  0.99743639  1
  P  P43  1  0.83340256  0.20995387  0.94496855  1
  P  P44  1  0.08258589  0.91330919  0.81233630  1
  P  P45  1  0.11034326  0.85119321  0.49217137  1
  P  P46  1  0.35652036  0.61573451  0.00256298  1
  P  P47  1  0.16659805  0.79004625  0.05503135  1
  P  P48  1  0.70151845  0.33005162  0.56472188  1
  P  P49  1  0.41242180  0.57838274  0.69640238  1
  P  P50  1  0.58757880  0.42161737  0.30359858  1
  P  P51  1  0.29848216  0.66994850  0.43527802  1
  Mn  Mn52  1  0.27346473  0.23488809  0.74319541  1
  Mn  Mn53  1  0.21055383  0.30153969  0.10280992  1
  Mn  Mn54  1  0.78944678  0.69846043  0.89718998  1
  Mn  Mn55  1  0.72653483  0.76511201  0.25680527  1
