# generated using pymatgen
data_Mn3B7IO13
_symmetry_space_group_name_H-M   'P 1'
_cell_length_a   8.80037888
_cell_length_b   8.86348104
_cell_length_c   12.49874634
_cell_angle_alpha   90.00000000
_cell_angle_beta   90.00000000
_cell_angle_gamma   90.00000000
_symmetry_Int_Tables_number   1
_chemical_formula_structural   Mn3B7IO13
_chemical_formula_sum   'Mn12 B28 I4 O52'
_cell_volume   974.92710387
_cell_formula_units_Z   4
loop_
 _symmetry_equiv_pos_site_id
 _symmetry_equiv_pos_as_xyz
  1  'x, y, z'
loop_
 _atom_site_type_symbol
 _atom_site_label
 _atom_site_symmetry_multiplicity
 _atom_site_fract_x
 _atom_site_fract_y
 _atom_site_fract_z
 _atom_site_occupancy
  B  B0  1  0.50347589  0.99871950  0.24225321  1
  B  B1  1  0.09712393  0.25762672  0.82037210  1
  B  B2  1  0.90287607  0.74237328  0.32037210  1
  B  B3  1  0.90287607  0.75762672  0.82037210  1
  B  B4  1  0.09712393  0.24237328  0.32037210  1
  B  B5  1  0.25006452  0.40641643  0.66942764  1
  B  B6  1  0.74993548  0.59358357  0.16942764  1
  B  B7  1  0.74993548  0.90641643  0.66942764  1
  B  B8  1  0.25006452  0.09358357  0.16942764  1
  B  B9  1  0.59906635  0.74271351  0.32098224  1
  B  B10  1  0.40093365  0.25728649  0.82098224  1
  B  B11  1  0.40093365  0.24271351  0.32098224  1
  B  B12  1  0.59906635  0.75728649  0.82098224  1
  B  B13  1  0.75049732  0.94988560  0.14214906  1
  B  B14  1  0.24950268  0.05011440  0.64214906  1
  B  B15  1  0.24950268  0.44988560  0.14214906  1
  B  B16  1  0.50347589  0.50128050  0.74225321  1
  B  B17  1  0.49652411  0.49871950  0.24225321  1
  B  B18  1  0.49652411  0.00128050  0.74225321  1
  B  B19  1  0.75049732  0.55011440  0.64214906  1
  B  B20  1  0.75332963  0.74296795  0.49382953  1
  B  B21  1  0.24667037  0.25703205  0.99382953  1
  B  B22  1  0.24667037  0.24296795  0.49382953  1
  B  B23  1  0.75332963  0.75703205  0.99382953  1
  B  B24  1  0.00283517  0.00157008  0.74020866  1
  B  B25  1  0.99716483  0.99842992  0.24020866  1
  B  B26  1  0.99716483  0.50157008  0.74020866  1
  B  B27  1  0.00283517  0.49842992  0.24020866  1
  O  O28  1  0.05507430  0.09736893  0.83007335  1
  O  O29  1  0.40642272  0.04377129  0.15168421  1
  O  O30  1  0.59357728  0.95622871  0.65168421  1
  O  O31  1  0.59357728  0.54377129  0.15168421  1
  O  O32  1  0.40642272  0.45622871  0.65168421  1
  O  O33  1  0.09296101  0.46206052  0.14117017  1
  O  O34  1  0.90703899  0.53793948  0.64117017  1
  O  O35  1  0.90703899  0.96206052  0.14117017  1
  O  O36  1  0.09296101  0.03793948  0.64117017  1
  O  O37  1  0.46290261  0.08952916  0.33679802  1
  O  O38  1  0.53709739  0.91047084  0.83679802  1
  O  O39  1  0.53709739  0.58952916  0.33679802  1
  O  O40  1  0.46290261  0.41047084  0.83679802  1
  O  O41  1  0.05507430  0.40263107  0.33007335  1
  O  O42  1  0.94492570  0.59736893  0.83007335  1
  O  O43  1  0.94492570  0.90263107  0.33007335  1
  O  O44  1  0.75031759  0.77486066  0.75383221  1
  O  O45  1  0.24968241  0.22513934  0.25383221  1
  O  O46  1  0.24968241  0.27486066  0.75383221  1
  O  O47  1  0.75031759  0.72513934  0.25383221  1
  O  O48  1  0.66680793  0.46627579  0.71476371  1
  O  O49  1  0.33319207  0.53372421  0.21476371  1
  O  O50  1  0.33319207  0.96627579  0.71476371  1
  O  O51  1  0.66680793  0.03372421  0.21476371  1
  O  O52  1  0.67726392  0.62039557  0.55780224  1
  O  O53  1  0.32273608  0.37960443  0.05780224  1
  O  O54  1  0.32273608  0.12039557  0.55780224  1
  O  O55  1  0.67726392  0.87960443  0.05780224  1
  O  O56  1  0.84154323  0.02993172  0.71539779  1
  O  O57  1  0.15845677  0.97006828  0.21539779  1
  O  O58  1  0.15845677  0.52993172  0.71539779  1
  O  O59  1  0.84154323  0.47006828  0.21539779  1
  O  O60  1  0.63787831  0.68778222  0.92368778  1
  O  O61  1  0.36212169  0.31221778  0.42368778  1
  O  O62  1  0.36212169  0.18778222  0.92368778  1
  O  O63  1  0.63787831  0.81221778  0.42368778  1
  O  O64  1  0.02379280  0.84088590  0.76644954  1
  O  O65  1  0.97620720  0.15911410  0.26644954  1
  O  O66  1  0.97620720  0.34088590  0.76644954  1
  O  O67  1  0.02379280  0.65911410  0.26644954  1
  O  O68  1  0.81688043  0.85812421  0.56704280  1
  O  O69  1  0.18311957  0.14187579  0.06704280  1
  O  O70  1  0.18311957  0.35812421  0.56704280  1
  O  O71  1  0.81688043  0.64187579  0.06704280  1
  O  O72  1  0.87484789  0.67818801  0.42729906  1
  O  O73  1  0.51276207  0.33595877  0.26397868  1
  O  O74  1  0.51276207  0.16404123  0.76397868  1
  O  O75  1  0.48723793  0.83595877  0.26397868  1
  O  O76  1  0.87484789  0.82181199  0.92729906  1
  O  O77  1  0.12515211  0.17818801  0.42729906  1
  O  O78  1  0.12515211  0.32181199  0.92729906  1
  O  O79  1  0.48723793  0.66404123  0.76397868  1
  Mn  Mn80  1  0.74792744  0.24202786  0.75484782  1
  Mn  Mn81  1  0.25207256  0.75797214  0.25484782  1
  Mn  Mn82  1  0.25207256  0.74202786  0.75484782  1
  Mn  Mn83  1  0.74792744  0.25797214  0.25484782  1
  Mn  Mn84  1  0.97946618  0.49898665  0.98627517  1
  Mn  Mn85  1  0.02053382  0.50101335  0.48627517  1
  Mn  Mn86  1  0.02053382  0.99898665  0.98627517  1
  Mn  Mn87  1  0.97946618  0.00101335  0.48627517  1
  Mn  Mn88  1  0.47963443  0.50179587  0.49042827  1
  Mn  Mn89  1  0.52036557  0.00179587  0.49042827  1
  Mn  Mn90  1  0.52036557  0.49820413  0.99042827  1
  Mn  Mn91  1  0.47963443  0.99820413  0.99042827  1
  I  I92  1  0.74925976  0.24886441  0.49024674  1
  I  I93  1  0.25074024  0.75113559  0.99024674  1
  I  I94  1  0.25074024  0.74886441  0.49024674  1
  I  I95  1  0.74925976  0.25113559  0.99024674  1
