# generated using pymatgen
data_Ba3Ta2NiO9
_symmetry_space_group_name_H-M   'P 1'
_cell_length_a   5.82541583
_cell_length_b   5.82541582
_cell_length_c   7.16392543
_cell_angle_alpha   90.00000000
_cell_angle_beta   90.00000000
_cell_angle_gamma   119.99999999
_symmetry_Int_Tables_number   1
_chemical_formula_structural   Ba3Ta2NiO9
_chemical_formula_sum   'Ba3 Ta2 Ni1 O9'
_cell_volume   210.54045201
_cell_formula_units_Z   1
loop_
 _symmetry_equiv_pos_site_id
 _symmetry_equiv_pos_as_xyz
  1  'x, y, z'
loop_
 _atom_site_type_symbol
 _atom_site_label
 _atom_site_symmetry_multiplicity
 _atom_site_fract_x
 _atom_site_fract_y
 _atom_site_fract_z
 _atom_site_occupancy
  O  O0  1  0.34343065  0.17171585  0.67528032  1
  O  O1  1  0.82828431  0.17171585  0.67528032  1
  O  O2  1  0.82828477  0.65656871  0.67528032  1
  O  O3  1  0.17171459  0.82828457  0.32472065  1
  O  O4  1  0.65656998  0.82828457  0.32472065  1
  O  O5  1  0.17171486  0.34342972  0.32472065  1
  O  O6  1  0.50000041  0.00000000  0.00000000  1
  O  O7  1  0.50000031  0.50000021  0.00000000  1
  O  O8  1  0.99999990  0.50000021  0.00000000  1
  Ni  Ni9  1  0.00000000  0.00000000  0.50000048  1
  Ba  Ba10  1  0.66666748  0.33333414  0.33837165  1
  Ba  Ba11  1  0.33333314  0.66666629  0.66162932  1
  Ba  Ba12  1  0.00000000  0.00000000  0.00000000  1
  Ta  Ta13  1  0.33333314  0.66666629  0.17638948  1
  Ta  Ta14  1  0.66666748  0.33333414  0.82361148  1
