# generated using pymatgen
data_Li3Ti2(PO4)3
_symmetry_space_group_name_H-M   'P 1'
_cell_length_a   8.48878934
_cell_length_b   8.90834049
_cell_length_c   12.42124914
_cell_angle_alpha   90.00000001
_cell_angle_beta   86.36044299
_cell_angle_gamma   90.00000207
_symmetry_Int_Tables_number   1
_chemical_formula_structural   Li3Ti2(PO4)3
_chemical_formula_sum   'Li12 Ti8 P12 O48'
_cell_volume   937.41314943
_cell_formula_units_Z   4
loop_
 _symmetry_equiv_pos_site_id
 _symmetry_equiv_pos_as_xyz
  1  'x, y, z'
loop_
 _atom_site_type_symbol
 _atom_site_label
 _atom_site_symmetry_multiplicity
 _atom_site_fract_x
 _atom_site_fract_y
 _atom_site_fract_z
 _atom_site_occupancy
  Li  Li0  1  0.71148331  0.19467105  0.95173896  1
  Li  Li1  1  0.50000000  0.59655942  0.75000000  1
  Li  Li2  1  0.28851669  0.19467105  0.54826104  1
  Li  Li3  1  0.50000000  0.50000000  0.50000000  1
  Li  Li4  1  -0.00000000  0.00000000  0.50000000  1
  Li  Li5  1  0.71148331  0.80532895  0.45173896  1
  Li  Li6  1  0.50000000  0.40344058  0.25000000  1
  Li  Li7  1  0.00000000  0.90567752  0.75000000  1
  Li  Li8  1  1.00000000  0.09432248  0.25000000  1
  Li  Li9  1  0.50000000  0.50000000  -0.00000000  1
  Li  Li10  1  -0.00000000  0.00000000  -0.00000000  1
  Li  Li11  1  0.28851669  0.80532895  0.04826104  1
  Ti  Ti12  1  0.78983178  0.50112383  0.85404431  1
  Ti  Ti13  1  0.71346519  0.00507599  0.64163616  1
  Ti  Ti14  1  0.28653481  0.00507599  0.85836384  1
  Ti  Ti15  1  0.21016822  0.50112383  0.64595569  1
  Ti  Ti16  1  0.78983178  0.49887617  0.35404431  1
  Ti  Ti17  1  0.71346519  0.99492401  0.14163616  1
  Ti  Ti18  1  0.28653481  0.99492401  0.35836384  1
  Ti  Ti19  1  0.21016822  0.49887617  0.14595569  1
  P  P20  1  0.50000000  0.29604902  0.75000000  1
  P  P21  1  0.64984597  0.85156393  0.89707058  1
  P  P22  1  0.84411662  0.64629931  0.60250750  1
  P  P23  1  1.00000000  0.19971355  0.75000000  1
  P  P24  1  0.64984597  0.14843607  0.39707058  1
  P  P25  1  0.15588338  0.64629931  0.89749250  1
  P  P26  1  0.35015403  0.85156393  0.60292942  1
  P  P27  1  0.84411662  0.35370069  0.10250750  1
  P  P28  1  0.15588338  0.35370069  0.39749250  1
  P  P29  1  0.35015403  0.14843607  0.10292942  1
  P  P30  1  0.50000000  0.70395098  0.25000000  1
  P  P31  1  0.00000000  0.80028645  0.25000000  1
  O  O32  1  0.87017750  0.29356159  0.80918417  1
  O  O33  1  0.98696405  0.58546789  0.89905993  1
  O  O34  1  0.93627234  0.09068946  0.66325630  1
  O  O35  1  0.56977257  0.40177800  0.83539275  1
  O  O36  1  0.37847531  0.19689829  0.81274330  1
  O  O37  1  0.65043210  0.67850764  0.91067582  1
  O  O38  1  0.74992505  0.93412325  0.98011957  1
  O  O39  1  0.62152469  0.19689829  0.68725670  1
  O  O40  1  0.06372766  0.09068946  0.83674370  1
  O  O41  1  0.74992505  0.06587675  0.48011957  1
  O  O42  1  0.25411304  0.59287816  0.99215018  1
  O  O43  1  0.75171380  0.59994359  0.70821691  1
  O  O44  1  0.98696405  0.41453211  0.39905993  1
  O  O45  1  0.47258559  0.89564963  0.91155447  1
  O  O46  1  0.72396838  0.90258261  0.78595355  1
  O  O47  1  0.43022743  0.40177800  0.66460725  1
  O  O48  1  0.72396838  0.09741739  0.28595355  1
  O  O49  1  0.24828620  0.59994359  0.79178309  1
  O  O50  1  0.85768395  0.82125527  0.58797889  1
  O  O51  1  0.74588696  0.59287816  0.50784982  1
  O  O52  1  0.12982250  0.29356159  0.69081583  1
  O  O53  1  0.47258559  0.10435037  0.41155447  1
  O  O54  1  0.65043210  0.32149236  0.41067582  1
  O  O55  1  0.14231605  0.82125527  0.91202111  1
  O  O56  1  0.34956790  0.67850764  0.58932418  1
  O  O57  1  0.85768395  0.17874473  0.08797889  1
  O  O58  1  0.87017750  0.70643841  0.30918417  1
  O  O59  1  0.52741441  0.89564963  0.58844553  1
  O  O60  1  0.14231605  0.17874473  0.41202111  1
  O  O61  1  0.25411304  0.40712184  0.49215018  1
  O  O62  1  0.75171380  0.40005641  0.20821691  1
  O  O63  1  0.27603162  0.90258261  0.71404645  1
  O  O64  1  0.56977257  0.59822200  0.33539275  1
  O  O65  1  0.27603162  0.09741739  0.21404645  1
  O  O66  1  0.52741441  0.10435037  0.08844553  1
  O  O67  1  0.01303595  0.58546789  0.60094007  1
  O  O68  1  0.24828620  0.40005641  0.29178309  1
  O  O69  1  0.74588696  0.40712184  0.00784982  1
  O  O70  1  0.25007495  0.93412325  0.51988043  1
  O  O71  1  0.93627234  0.90931054  0.16325630  1
  O  O72  1  0.37847531  0.80310171  0.31274330  1
  O  O73  1  0.34956790  0.32149236  0.08932418  1
  O  O74  1  0.25007495  0.06587675  0.01988043  1
  O  O75  1  0.62152469  0.80310171  0.18725670  1
  O  O76  1  0.43022743  0.59822200  0.16460725  1
  O  O77  1  0.06372766  0.90931054  0.33674370  1
  O  O78  1  0.01303595  0.41453211  0.10094007  1
  O  O79  1  0.12982250  0.70643841  0.19081583  1
