# generated using pymatgen
data_Ba4Bi3F17
_symmetry_space_group_name_H-M   'P 1'
_cell_length_a   9.67029767
_cell_length_b   9.56042605
_cell_length_c   9.60352631
_cell_angle_alpha   72.92337820
_cell_angle_beta   72.63622842
_cell_angle_gamma   72.75237577
_symmetry_Int_Tables_number   1
_chemical_formula_structural   Ba4Bi3F17
_chemical_formula_sum   'Ba8 Bi6 F34'
_cell_volume   788.53362073
_cell_formula_units_Z   2
loop_
 _symmetry_equiv_pos_site_id
 _symmetry_equiv_pos_as_xyz
  1  'x, y, z'
loop_
 _atom_site_type_symbol
 _atom_site_label
 _atom_site_symmetry_multiplicity
 _atom_site_fract_x
 _atom_site_fract_y
 _atom_site_fract_z
 _atom_site_occupancy
  Ba  Ba0  1  0.05089428  0.30777663  0.89475615  1
  Ba  Ba1  1  0.26949532  0.26114539  0.26914087  1
  Ba  Ba2  1  0.31034884  0.88829728  0.06038643  1
  Ba  Ba3  1  0.11260410  0.94074995  0.69012986  1
  Ba  Ba4  1  0.88277982  0.05668305  0.31103894  1
  Ba  Ba5  1  0.68766910  0.10985177  0.95005893  1
  Ba  Ba6  1  0.73296399  0.73083029  0.73745264  1
  Ba  Ba7  1  0.94454910  0.69235012  0.10985132  1
  Bi  Bi8  1  0.16007657  0.61468182  0.46602413  1
  Bi  Bi9  1  0.46544938  0.15352694  0.61536709  1
  Bi  Bi10  1  0.38577977  0.53096732  0.84565785  1
  Bi  Bi11  1  0.61207654  0.47400140  0.17975486  1
  Bi  Bi12  1  0.53862687  0.81039743  0.38482411  1
  Bi  Bi13  1  0.83887594  0.38416813  0.53341679  1
  F  F14  1  0.99612798  0.00303383  0.00036294  1
  F  F15  1  0.01801342  0.17567808  0.45559688  1
  F  F16  1  0.13608107  0.13869848  0.14230307  1
  F  F17  1  0.04790710  0.48822162  0.35701687  1
  F  F18  1  0.17700351  0.45187827  0.02051935  1
  F  F19  1  0.07702484  0.78815094  0.26351621  1
  F  F20  1  0.45101485  0.01836480  0.17685402  1
  F  F21  1  0.35489553  0.04332075  0.49681089  1
  F  F22  1  0.26121536  0.07736416  0.79059389  1
  F  F23  1  0.26165395  0.34637420  0.54872298  1
  F  F24  1  0.19928867  0.59663641  0.70573435  1
  F  F25  1  0.34055185  0.55640644  0.25116065  1
  F  F26  1  0.48645651  0.35632229  0.04611192  1
  F  F27  1  0.28750588  0.80818329  0.40278590  1
  F  F28  1  0.21198901  0.73843468  0.92303411  1
  F  F29  1  0.40728244  0.29365018  0.80173145  1
  F  F30  1  0.55146379  0.25850191  0.34881989  1
  F  F31  1  0.53884770  0.55423203  0.41772021  1
  F  F32  1  0.45143993  0.73781246  0.65266840  1
  F  F33  1  0.60596299  0.73118709  0.15868262  1
  F  F34  1  0.78096252  0.26479773  0.08389795  1
  F  F35  1  0.70698616  0.19987642  0.58864800  1
  F  F36  1  0.50655472  0.64392268  0.95464238  1
  F  F37  1  0.65320171  0.45045637  0.73963606  1
  F  F38  1  0.81768548  0.40254511  0.28482529  1
  F  F39  1  0.75968682  0.66206030  0.44579689  1
  F  F40  1  0.73674807  0.91922957  0.21501240  1
  F  F41  1  0.64211682  0.95386862  0.51568085  1
  F  F42  1  0.54559237  0.98030364  0.82499046  1
  F  F43  1  0.91797026  0.21382063  0.73717499  1
  F  F44  1  0.82611864  0.54630526  0.98241603  1
  F  F45  1  0.95705424  0.50661323  0.64579023  1
  F  F46  1  0.86206269  0.86248401  0.85865918  1
  F  F47  1  0.98034352  0.82183700  0.54822267  1
