# generated using pymatgen
data_KReO4
_symmetry_space_group_name_H-M   'P 1'
_cell_length_a   5.82932328
_cell_length_b   5.82914265
_cell_length_c   7.68727917
_cell_angle_alpha   112.27553894
_cell_angle_beta   112.27483516
_cell_angle_gamma   90.00497614
_symmetry_Int_Tables_number   1
_chemical_formula_structural   KReO4
_chemical_formula_sum   'K2 Re2 O8'
_cell_volume   220.50636010
_cell_formula_units_Z   2
loop_
 _symmetry_equiv_pos_site_id
 _symmetry_equiv_pos_as_xyz
  1  'x, y, z'
loop_
 _atom_site_type_symbol
 _atom_site_label
 _atom_site_symmetry_multiplicity
 _atom_site_fract_x
 _atom_site_fract_y
 _atom_site_fract_z
 _atom_site_occupancy
  O  O0  1  0.17057821  0.81891423  0.90408981  1
  O  O1  1  0.08513894  0.67049193  0.40406540  1
  O  O2  1  0.31879100  0.23345800  0.40401355  1
  O  O3  1  0.73353952  0.58516061  0.90405676  1
  O  O4  1  0.26646048  0.41483939  0.09594324  1
  O  O5  1  0.68120900  0.76654200  0.59598645  1
  O  O6  1  0.91486106  0.32950807  0.59593460  1
  O  O7  1  0.82942179  0.18108577  0.09591019  1
  K  K8  1  0.37501705  0.12499312  0.74999451  1
  K  K9  1  0.62498295  0.87500688  0.25000549  1
  Re  Re10  1  0.12493722  0.37497172  0.24997677  1
  Re  Re11  1  0.87506278  0.62502828  0.75002323  1
