# generated using pymatgen
data_Ca3(BN2)2
_symmetry_space_group_name_H-M   'P 1'
_cell_length_a   12.66615434
_cell_length_b   7.39830271
_cell_length_c   12.83752872
_cell_angle_alpha   125.19091419
_cell_angle_beta   109.67098897
_cell_angle_gamma   54.26055855
_symmetry_Int_Tables_number   1
_chemical_formula_structural   Ca3(BN2)2
_chemical_formula_sum   'Ca18 B12 N24'
_cell_volume   797.97937730
_cell_formula_units_Z   6
loop_
 _symmetry_equiv_pos_site_id
 _symmetry_equiv_pos_as_xyz
  1  'x, y, z'
loop_
 _atom_site_type_symbol
 _atom_site_label
 _atom_site_symmetry_multiplicity
 _atom_site_fract_x
 _atom_site_fract_y
 _atom_site_fract_z
 _atom_site_occupancy
  B  B0  1  0.24412035  -0.00056668  0.75449498  1
  B  B1  1  1.00000000  0.51534777  0.51005901  1
  B  B2  1  0.24412035  0.51232599  0.74550502  1
  B  B3  1  0.25587965  0.97868406  0.24550502  1
  B  B4  1  0.00000000  0.48465223  0.98994099  1
  B  B5  1  0.25587965  0.50955663  0.25449498  1
  B  B6  1  0.75587965  1.00056668  0.74550502  1
  B  B7  1  0.50000000  0.49522975  0.48994099  1
  B  B8  1  0.75587965  0.48767401  0.75449498  1
  B  B9  1  0.74412035  0.02131594  0.25449498  1
  B  B10  1  0.50000000  0.50477025  0.01005901  1
  B  B11  1  0.74412035  0.49044337  0.24550502  1
  Ca  Ca12  1  0.00000000  0.98976478  0.49094481  1
  Ca  Ca13  1  0.00000000  0.50000000  0.75000000  1
  Ca  Ca14  1  1.00000000  0.01023522  0.00905519  1
  Ca  Ca15  1  0.25343806  1.01046905  0.51007753  1
  Ca  Ca16  1  0.00000000  0.00000000  0.75000000  1
  Ca  Ca17  1  0.24656194  0.00968602  0.01007753  1
  Ca  Ca18  1  0.24656194  0.49719010  0.48992247  1
  Ca  Ca19  1  0.00000000  0.00000000  0.25000000  1
  Ca  Ca20  1  0.50000000  0.00787516  0.50905519  1
  Ca  Ca21  1  0.50000000  0.50000000  0.75000000  1
  Ca  Ca22  1  0.25343806  0.48265483  0.98992247  1
  Ca  Ca23  1  0.50000000  0.99212484  0.99094481  1
  Ca  Ca24  1  0.75343806  0.99031398  0.48992247  1
  Ca  Ca25  1  0.50000000  0.50000000  0.25000000  1
  Ca  Ca26  1  0.74656194  -0.01046905  0.98992247  1
  Ca  Ca27  1  0.74656194  0.51734517  0.51007753  1
  Ca  Ca28  1  0.50000000  0.00000000  0.25000000  1
  Ca  Ca29  1  0.75343806  0.50280990  0.01007753  1
  N  N30  1  0.15952809  0.01373445  0.65829910  1
  N  N31  1  0.00000000  0.32613090  0.50232881  1
  N  N32  1  0.17591403  0.93200034  0.14711503  1
  N  N33  1  0.00000000  0.29163810  0.97701855  1
  N  N34  1  0.15952809  0.66720937  0.84170090  1
  N  N35  1  0.32408597  0.36222971  0.64711503  1
  N  N36  1  0.17591403  0.71617161  0.35288497  1
  N  N37  1  0.34047191  0.30286374  0.15829910  1
  N  N38  1  0.32408597  0.98959834  0.85288497  1
  N  N39  1  0.50000000  0.32147327  0.49767119  1
  N  N40  1  0.67591403  0.01040166  0.64711503  1
  N  N41  1  0.50000000  0.66239900  0.47701855  1
  N  N42  1  0.34047191  0.01619243  0.34170090  1
  N  N43  1  0.65952809  0.98380757  0.15829910  1
  N  N44  1  0.50000000  0.33760100  0.02298145  1
  N  N45  1  0.67591403  0.63777029  0.85288497  1
  N  N46  1  0.84047191  0.33279063  0.65829910  1
  N  N47  1  0.50000000  0.67852673  1.00232881  1
  N  N48  1  0.65952809  0.69713626  0.34170090  1
  N  N49  1  0.82408597  0.28382839  0.14711503  1
  N  N50  1  0.84047191  0.98626555  0.84170090  1
  N  N51  1  1.00000000  0.70836190  0.52298145  1
  N  N52  1  0.82408597  0.06799966  0.35288497  1
  N  N53  1  1.00000000  0.67386910  -0.00232881  1
