# generated using pymatgen
data_FePCl8
_symmetry_space_group_name_H-M   'P 1'
_cell_length_a   6.33779722
_cell_length_b   13.96979957
_cell_length_c   14.40193028
_cell_angle_alpha   90.00000000
_cell_angle_beta   90.00000000
_cell_angle_gamma   90.00000000
_symmetry_Int_Tables_number   1
_chemical_formula_structural   FePCl8
_chemical_formula_sum   'Fe4 P4 Cl32'
_cell_volume   1275.11460171
_cell_formula_units_Z   4
loop_
 _symmetry_equiv_pos_site_id
 _symmetry_equiv_pos_as_xyz
  1  'x, y, z'
loop_
 _atom_site_type_symbol
 _atom_site_label
 _atom_site_symmetry_multiplicity
 _atom_site_fract_x
 _atom_site_fract_y
 _atom_site_fract_z
 _atom_site_occupancy
  Fe  Fe0  1  0.27346001  0.02643953  0.25000000  1
  Fe  Fe1  1  0.27346001  0.47356047  0.75000000  1
  Fe  Fe2  1  0.72653999  0.52643953  0.25000000  1
  Fe  Fe3  1  0.72653999  0.97356047  0.75000000  1
  Cl  Cl4  1  0.40273499  0.96195166  0.12198013  1
  Cl  Cl5  1  0.40273499  0.53804834  0.87801987  1
  Cl  Cl6  1  0.59726501  0.46195166  0.37801987  1
  Cl  Cl7  1  0.59726501  0.03804834  0.62198013  1
  Cl  Cl8  1  0.59726501  0.03804834  0.87801987  1
  Cl  Cl9  1  0.59726501  0.46195166  0.12198013  1
  Cl  Cl10  1  0.40273499  0.53804834  0.62198013  1
  Cl  Cl11  1  0.40273499  0.96195166  0.37801987  1
  Cl  Cl12  1  0.34163671  0.18292538  0.25000000  1
  Cl  Cl13  1  0.34163671  0.31707462  0.75000000  1
  Cl  Cl14  1  0.65836329  0.68292538  0.25000000  1
  Cl  Cl15  1  0.65836329  0.81707462  0.75000000  1
  Cl  Cl16  1  0.92971469  0.00372746  0.25000000  1
  Cl  Cl17  1  0.92971469  0.49627254  0.75000000  1
  Cl  Cl18  1  0.07028531  0.50372746  0.25000000  1
  Cl  Cl19  1  0.07028531  0.99627254  0.75000000  1
  P  P20  1  0.95482975  0.25000000  0.00000000  1
  P  P21  1  0.04517025  0.75000000  0.50000000  1
  P  P22  1  0.04517025  0.75000000  0.00000000  1
  P  P23  1  0.95482975  0.25000000  0.50000000  1
  Cl  Cl24  1  0.13460281  0.35158358  0.05025093  1
  Cl  Cl25  1  0.13460281  0.14841642  0.94974907  1
  Cl  Cl26  1  0.86539719  0.85158358  0.44974907  1
  Cl  Cl27  1  0.86539719  0.64841642  0.55025093  1
  Cl  Cl28  1  0.86539719  0.64841642  0.94974907  1
  Cl  Cl29  1  0.86539719  0.85158358  0.05025093  1
  Cl  Cl30  1  0.13460281  0.14841642  0.55025093  1
  Cl  Cl31  1  0.13460281  0.35158358  0.44974907  1
  Cl  Cl32  1  0.77500843  0.19808662  0.09856291  1
  Cl  Cl33  1  0.77500843  0.30191338  0.90143709  1
  Cl  Cl34  1  0.22499157  0.69808662  0.40143709  1
  Cl  Cl35  1  0.22499157  0.80191338  0.59856291  1
  Cl  Cl36  1  0.22499157  0.80191338  0.90143709  1
  Cl  Cl37  1  0.22499157  0.69808662  0.09856291  1
  Cl  Cl38  1  0.77500843  0.30191338  0.59856291  1
  Cl  Cl39  1  0.77500843  0.19808662  0.40143709  1
