# generated using pymatgen
data_KCe(PO3)4
_symmetry_space_group_name_H-M   'P 1'
_cell_length_a   7.52332482
_cell_length_b   10.26556269
_cell_length_c   13.50802383
_cell_angle_alpha   90.00000000
_cell_angle_beta   90.00000000
_cell_angle_gamma   90.03793565
_symmetry_Int_Tables_number   1
_chemical_formula_structural   KCe(PO3)4
_chemical_formula_sum   'K4 Ce4 P16 O48'
_cell_volume   1043.24015540
_cell_formula_units_Z   4
loop_
 _symmetry_equiv_pos_site_id
 _symmetry_equiv_pos_as_xyz
  1  'x, y, z'
loop_
 _atom_site_type_symbol
 _atom_site_label
 _atom_site_symmetry_multiplicity
 _atom_site_fract_x
 _atom_site_fract_y
 _atom_site_fract_z
 _atom_site_occupancy
  Ce  Ce0  1  0.50848985  0.97772659  0.77961429  1
  Ce  Ce1  1  0.99151015  0.52227341  0.27961429  1
  Ce  Ce2  1  0.49151015  0.02227341  0.22038571  1
  Ce  Ce3  1  0.00848985  0.47772659  0.72038571  1
  P  P4  1  0.76499391  0.75289792  0.59872574  1
  P  P5  1  0.73500609  0.74710208  0.09872574  1
  P  P6  1  0.23500609  0.24710208  0.40127426  1
  P  P7  1  0.26499391  0.25289792  0.90127426  1
  P  P8  1  0.86272411  0.75875740  0.88731771  1
  P  P9  1  0.63727589  0.74124260  0.38731771  1
  P  P10  1  0.13727589  0.24124260  0.11268229  1
  P  P11  1  0.36272411  0.25875740  0.61268229  1
  P  P12  1  0.15298074  0.79858988  0.62364690  1
  P  P13  1  0.34701926  0.70141012  0.12364690  1
  P  P14  1  0.84701926  0.20141012  0.37635310  1
  P  P15  1  0.65298074  0.29858988  0.87635310  1
  P  P16  1  0.25290394  0.79516439  0.40892796  1
  P  P17  1  0.24709606  0.70483561  0.90892796  1
  P  P18  1  0.74709606  0.20483561  0.59107204  1
  P  P19  1  0.75290394  0.29516439  0.09107204  1
  K  K20  1  0.99770526  0.93262895  0.22519718  1
  K  K21  1  0.50229474  0.56737105  0.72519718  1
  K  K22  1  0.00229474  0.06737105  0.77480282  1
  K  K23  1  0.49770526  0.43262895  0.27480282  1
  O  O24  1  0.23022195  0.88560603  0.70190638  1
  O  O25  1  0.26977805  0.61439397  0.20190638  1
  O  O26  1  0.76977805  0.11439397  0.29809362  1
  O  O27  1  0.73022195  0.38560603  0.79809362  1
  O  O28  1  0.06632337  0.79054623  0.91935231  1
  O  O29  1  0.43367663  0.70945377  0.41935231  1
  O  O30  1  0.93367663  0.20945377  0.08064769  1
  O  O31  1  0.56632337  0.29054623  0.58064769  1
  O  O32  1  0.64297330  0.85044806  0.31370938  1
  O  O33  1  0.85702670  0.64955194  0.81370938  1
  O  O34  1  0.35702670  0.14955194  0.68629062  1
  O  O35  1  0.14297330  0.35044806  0.18629062  1
  O  O36  1  0.78177381  0.88698804  0.85872247  1
  O  O37  1  0.71822619  0.61301196  0.35872247  1
  O  O38  1  0.21822619  0.11301196  0.14127753  1
  O  O39  1  0.28177381  0.38698804  0.64127753  1
  O  O40  1  0.94372322  0.83672194  0.61847068  1
  O  O41  1  0.55627678  0.66327806  0.11847068  1
  O  O42  1  0.05627678  0.16327806  0.38152932  1
  O  O43  1  0.44372322  0.33672194  0.88152932  1
  O  O44  1  0.61912529  0.80850192  0.66231566  1
  O  O45  1  0.88087471  0.69149808  0.16231566  1
  O  O46  1  0.38087471  0.19149808  0.33768434  1
  O  O47  1  0.11912529  0.30850192  0.83768434  1
  O  O48  1  0.22850759  0.85161139  0.51968635  1
  O  O49  1  0.27149241  0.64838861  0.01968635  1
  O  O50  1  0.77149241  0.14838861  0.48031365  1
  O  O51  1  0.72850759  0.35161139  0.98031365  1
  O  O52  1  0.72614024  0.79727637  0.48634690  1
  O  O53  1  0.77385976  0.70272363  0.98634690  1
  O  O54  1  0.27385976  0.20272363  0.51365310  1
  O  O55  1  0.22614024  0.29727637  0.01365310  1
  O  O56  1  0.28395731  0.91138102  0.34385163  1
  O  O57  1  0.21604269  0.58861898  0.84385163  1
  O  O58  1  0.71604269  0.08861898  0.65614837  1
  O  O59  1  0.78395731  0.41138102  0.15614837  1
  O  O60  1  0.70076388  0.89124653  0.10618255  1
  O  O61  1  0.79923612  0.60875347  0.60618255  1
  O  O62  1  0.29923612  0.10875347  0.89381745  1
  O  O63  1  0.20076388  0.39124653  0.39381745  1
  O  O64  1  0.32501028  0.84616763  0.13278286  1
  O  O65  1  0.17498972  0.65383237  0.63278286  1
  O  O66  1  0.67498972  0.15383237  0.86721714  1
  O  O67  1  0.82501028  0.34616763  0.36721714  1
  O  O68  1  0.39769117  0.79541713  0.88417934  1
  O  O69  1  0.10230883  0.70458287  0.38417934  1
  O  O70  1  0.60230883  0.20458287  0.11582066  1
  O  O71  1  0.89769117  0.29541713  0.61582066  1
