# generated using pymatgen
data_FePO4
_symmetry_space_group_name_H-M   'P 1'
_cell_length_a   10.53604006
_cell_length_b   7.28565011
_cell_length_c   5.25941814
_cell_angle_alpha   90.00000000
_cell_angle_beta   90.00000000
_cell_angle_gamma   90.00000000
_symmetry_Int_Tables_number   1
_chemical_formula_structural   FePO4
_chemical_formula_sum   'Fe4 P4 O16'
_cell_volume   403.72293680
_cell_formula_units_Z   4
loop_
 _symmetry_equiv_pos_site_id
 _symmetry_equiv_pos_as_xyz
  1  'x, y, z'
loop_
 _atom_site_type_symbol
 _atom_site_label
 _atom_site_symmetry_multiplicity
 _atom_site_fract_x
 _atom_site_fract_y
 _atom_site_fract_z
 _atom_site_occupancy
  O  O0  1  0.54198183  0.51226454  0.74604633  1
  O  O1  1  0.88716052  0.41132483  0.09303817  1
  O  O2  1  0.86472915  0.29332339  0.64686155  1
  O  O3  1  0.81750261  0.62908122  0.74699976  1
  O  O4  1  0.04198183  0.51226454  0.75395367  1
  O  O5  1  0.11283948  0.91132483  0.90696083  1
  O  O6  1  0.13527085  0.79332239  0.35313945  1
  O  O7  1  0.18249739  0.12908122  0.25299924  1
  O  O8  1  0.31750261  0.62908122  0.75300024  1
  O  O9  1  0.68249739  0.12908122  0.24699876  1
  O  O10  1  0.38716052  0.41132483  0.40696183  1
  O  O11  1  0.45801817  0.01226554  0.25395267  1
  O  O12  1  0.95801817  0.01226554  0.24604533  1
  O  O13  1  0.61283948  0.91132483  0.59303917  1
  O  O14  1  0.63527085  0.79332239  0.14686055  1
  O  O15  1  0.36472915  0.29332339  0.85313845  1
  P  P16  1  0.09761814  0.96171511  0.19108457  1
  P  P17  1  0.40238186  0.46171411  0.69108457  1
  P  P18  1  0.59761814  0.96171511  0.30891643  1
  P  P19  1  0.90238186  0.46171411  0.80891543  1
  Fe  Fe20  1  0.84954060  0.21241690  0.30780409  1
  Fe  Fe21  1  0.65045940  0.71241690  0.80780209  1
  Fe  Fe22  1  0.34954060  0.21241690  0.19219691  1
  Fe  Fe23  1  0.15045940  0.71241690  0.69219591  1
