# generated using pymatgen
data_K2MnO4
_symmetry_space_group_name_H-M   'P 1'
_cell_length_a   5.96864276
_cell_length_b   7.77480770
_cell_length_c   10.55811845
_cell_angle_alpha   90.00000000
_cell_angle_beta   90.00000000
_cell_angle_gamma   90.00000000
_symmetry_Int_Tables_number   1
_chemical_formula_structural   K2MnO4
_chemical_formula_sum   'K8 Mn4 O16'
_cell_volume   489.95001129
_cell_formula_units_Z   4
loop_
 _symmetry_equiv_pos_site_id
 _symmetry_equiv_pos_as_xyz
  1  'x, y, z'
loop_
 _atom_site_type_symbol
 _atom_site_label
 _atom_site_symmetry_multiplicity
 _atom_site_fract_x
 _atom_site_fract_y
 _atom_site_fract_z
 _atom_site_occupancy
  Mn  Mn0  1  0.75000000  0.77050784  0.57911495  1
  Mn  Mn1  1  0.25000000  0.22949216  0.42088505  1
  Mn  Mn2  1  0.75000000  0.27050784  0.92088505  1
  Mn  Mn3  1  0.25000000  0.72949216  0.07911495  1
  O  O4  1  0.75000000  0.98343259  0.58065896  1
  O  O5  1  0.25000000  0.01656741  0.41934104  1
  O  O6  1  0.75000000  0.48343259  0.91934104  1
  O  O7  1  0.25000000  0.51656741  0.08065896  1
  O  O8  1  0.75000000  0.70117580  0.42932207  1
  O  O9  1  0.25000000  0.29882420  0.57067793  1
  O  O10  1  0.75000000  0.20117580  0.07067793  1
  O  O11  1  0.25000000  0.79882420  0.92932207  1
  O  O12  1  0.97601948  0.69390936  0.65213460  1
  O  O13  1  0.47601948  0.30609064  0.34786540  1
  O  O14  1  0.52398052  0.19390936  0.84786540  1
  O  O15  1  0.02398052  0.80609064  0.15213460  1
  O  O16  1  0.02398052  0.30609064  0.34786540  1
  O  O17  1  0.52398052  0.69390936  0.65213460  1
  O  O18  1  0.47601948  0.80609064  0.15213460  1
  O  O19  1  0.97601948  0.19390936  0.84786540  1
  K  K20  1  0.75000000  0.83478647  0.91479139  1
  K  K21  1  0.25000000  0.16521353  0.08520861  1
  K  K22  1  0.75000000  0.33478647  0.58520861  1
  K  K23  1  0.25000000  0.66521353  0.41479139  1
  K  K24  1  0.75000000  0.01187523  0.30243038  1
  K  K25  1  0.25000000  0.98812477  0.69756962  1
  K  K26  1  0.75000000  0.51187523  0.19756962  1
  K  K27  1  0.25000000  0.48812477  0.80243038  1
