# generated using pymatgen
data_Al2CoCl8
_symmetry_space_group_name_H-M   'P 1'
_cell_length_a   8.18898099
_cell_length_b   9.91628434
_cell_length_c   10.35340239
_cell_angle_alpha   70.05845143
_cell_angle_beta   66.70452860
_cell_angle_gamma   65.61250530
_symmetry_Int_Tables_number   1
_chemical_formula_structural   Al2CoCl8
_chemical_formula_sum   'Al4 Co2 Cl16'
_cell_volume   687.23683666
_cell_formula_units_Z   2
loop_
 _symmetry_equiv_pos_site_id
 _symmetry_equiv_pos_as_xyz
  1  'x, y, z'
loop_
 _atom_site_type_symbol
 _atom_site_label
 _atom_site_symmetry_multiplicity
 _atom_site_fract_x
 _atom_site_fract_y
 _atom_site_fract_z
 _atom_site_occupancy
  Co  Co0  1  0.99529939  0.75000000  0.25000000  1
  Co  Co1  1  0.00470061  0.25000000  0.75000000  1
  Al  Al2  1  0.31889341  0.36489621  0.47277751  1
  Al  Al3  1  0.15656713  0.13510379  0.02722249  1
  Al  Al4  1  0.68110659  0.63510379  0.52722249  1
  Al  Al5  1  0.84343287  0.86489621  0.97277751  1
  Cl  Cl6  1  0.60625514  0.24806511  0.44770955  1
  Cl  Cl7  1  0.30202980  0.25193489  0.05229045  1
  Cl  Cl8  1  0.39374486  0.75193489  0.55229045  1
  Cl  Cl9  1  0.69797020  0.74806511  0.94770955  1
  Cl  Cl10  1  0.15619589  0.22391833  0.49821572  1
  Cl  Cl11  1  0.87832994  0.27608167  0.00178428  1
  Cl  Cl12  1  0.84380411  0.77608167  0.50178428  1
  Cl  Cl13  1  0.12167006  0.72391833  0.99821572  1
  Cl  Cl14  1  0.29157614  0.55716009  0.28948698  1
  Cl  Cl15  1  0.13822321  0.94283991  0.21051302  1
  Cl  Cl16  1  0.70842386  0.44283991  0.71051302  1
  Cl  Cl17  1  0.86177679  0.05716009  0.78948698  1
  Cl  Cl18  1  0.16364639  0.44100463  0.67598769  1
  Cl  Cl19  1  0.28063871  0.05899537  0.82401231  1
  Cl  Cl20  1  0.83635361  0.55899537  0.32401231  1
  Cl  Cl21  1  0.71936129  0.94100463  0.17598769  1
