# generated using pymatgen
data_Li4Mn5(Fe2O9)2
_symmetry_space_group_name_H-M   'P 1'
_cell_length_a   9.10843623
_cell_length_b   24.78283173
_cell_length_c   2.91240187
_cell_angle_alpha   89.99957201
_cell_angle_beta   90.00018382
_cell_angle_gamma   90.08462629
_symmetry_Int_Tables_number   1
_chemical_formula_structural   Li4Mn5(Fe2O9)2
_chemical_formula_sum   'Li8 Mn10 Fe8 O36'
_cell_volume   657.42403514
_cell_formula_units_Z   2
loop_
 _symmetry_equiv_pos_site_id
 _symmetry_equiv_pos_as_xyz
  1  'x, y, z'
loop_
 _atom_site_type_symbol
 _atom_site_label
 _atom_site_symmetry_multiplicity
 _atom_site_fract_x
 _atom_site_fract_y
 _atom_site_fract_z
 _atom_site_occupancy
  Li  Li0  1  0.18269426  0.99035701  0.00002788  1
  Li  Li1  1  0.21075408  0.20674493  0.99999028  1
  Li  Li2  1  0.29343653  0.70288410  -0.00000017  1
  Li  Li3  1  0.31569609  0.49059886  0.00000483  1
  Li  Li4  1  0.68306893  0.50870953  0.99999693  1
  Li  Li5  1  0.70484403  0.29905433  0.99999933  1
  Li  Li6  1  0.79347826  0.79658963  0.00002328  1
  Li  Li7  1  0.81506804  0.00862990  0.00000146  1
  Mn  Mn8  1  -0.00011622  0.50009618  0.00000207  1
  Mn  Mn9  1  0.00001625  0.10393429  0.00001608  1
  Mn  Mn10  1  0.15386173  0.81009989  0.49999832  1
  Mn  Mn11  1  0.34603478  0.30893764  0.50000159  1
  Mn  Mn12  1  0.50108847  0.60357253  0.00000096  1
  Mn  Mn13  1  0.49815710  0.99869770  0.00000937  1
  Mn  Mn14  1  0.49817313  0.39637145  -0.00000029  1
  Mn  Mn15  1  0.65350506  0.69077667  0.49998902  1
  Mn  Mn16  1  0.84386145  0.19006849  0.49999915  1
  Mn  Mn17  1  0.00059924  0.89689497  0.99997572  1
  Fe  Fe18  1  0.00697872  0.30638682  0.00000064  1
  Fe  Fe19  1  0.15555282  0.58775846  0.49999521  1
  Fe  Fe20  1  0.34698035  0.08717993  0.50001460  1
  Fe  Fe21  1  0.49273313  0.80731350  0.99998376  1
  Fe  Fe22  1  0.51354330  0.19182434  0.00000994  1
  Fe  Fe23  1  0.65571437  0.91192827  0.50000847  1
  Fe  Fe24  1  0.84430457  0.41249600  0.49999595  1
  Fe  Fe25  1  0.99189658  0.69364751  0.99999401  1
  O  O26  1  0.99016225  0.42209436  -0.00001453  1
  O  O27  1  0.00975111  0.57805107  -0.00001548  1
  O  O28  1  0.05668812  0.94247612  0.49997102  1
  O  O29  1  0.04079135  0.15797146  0.50003166  1
  O  O30  1  0.12522197  0.66830408  0.49999217  1
  O  O31  1  0.10632345  0.76185090  0.99998620  1
  O  O32  1  0.14274304  0.50226706  0.49999708  1
  O  O33  1  0.14382899  0.28323812  0.50000053  1
  O  O34  1  0.19247695  0.85911251  0.99998878  1
  O  O35  1  0.19675406  0.08093333  0.00001795  1
  O  O36  1  0.30559811  0.57960504  0.99999893  1
  O  O37  1  0.30664215  0.35821735  0.99998547  1
  O  O38  1  0.35510183  0.78529530  0.49997319  1
  O  O39  1  0.35493793  0.00147398  0.50002051  1
  O  O40  1  0.39216002  0.26096140  -0.00000618  1
  O  O41  1  0.38570831  0.16670998  0.50000308  1
  O  O42  1  0.45827229  0.65746417  0.50001119  1
  O  O43  1  0.44280641  0.44202245  0.49997843  1
  O  O44  1  0.49126047  0.07623604  0.00000806  1
  O  O45  1  0.50888768  0.92062687  0.00001119  1
  O  O46  1  0.55723079  0.55817485  0.50001792  1
  O  O47  1  0.54152013  0.34246036  0.49998744  1
  O  O48  1  0.62767841  0.83166818  0.49998564  1
  O  O49  1  0.60514815  0.73873982  -0.00001339  1
  O  O50  1  0.64108618  0.99695460  0.50002402  1
  O  O51  1  0.64218403  0.21499008  0.50001053  1
  O  O52  1  0.69327799  0.64189384  0.00000477  1
  O  O53  1  0.69420789  0.42045834  0.99999224  1
  O  O54  1  0.80538575  0.92110214  0.99999517  1
  O  O55  1  0.80623733  0.14111190  0.00002072  1
  O  O56  1  0.85463713  0.71626361  0.49999358  1
  O  O57  1  0.85679741  0.49788580  0.49998940  1
  O  O58  1  0.88933442  0.23865659  0.00001390  1
  O  O59  1  0.87408266  0.33191320  0.49999591  1
  O  O60  1  0.95817052  0.84311598  0.49997384  1
  O  O61  1  0.94497967  0.05815021  0.50002668  1
