# generated using pymatgen
data_Ca2GeS4
_symmetry_space_group_name_H-M   'P 1'
_cell_length_a   6.36448475
_cell_length_b   8.24701271
_cell_length_c   13.82406462
_cell_angle_alpha   90.00000000
_cell_angle_beta   90.00000000
_cell_angle_gamma   90.00000000
_symmetry_Int_Tables_number   1
_chemical_formula_structural   Ca2GeS4
_chemical_formula_sum   'Ca8 Ge4 S16'
_cell_volume   725.59731889
_cell_formula_units_Z   4
loop_
 _symmetry_equiv_pos_site_id
 _symmetry_equiv_pos_as_xyz
  1  'x, y, z'
loop_
 _atom_site_type_symbol
 _atom_site_label
 _atom_site_symmetry_multiplicity
 _atom_site_fract_x
 _atom_site_fract_y
 _atom_site_fract_z
 _atom_site_occupancy
  Ca  Ca0  1  0.00000000  0.00000000  0.00000000  1
  Ca  Ca1  1  0.50000000  0.00000000  0.50000000  1
  Ca  Ca2  1  0.00000000  0.50000000  0.00000000  1
  Ca  Ca3  1  0.50000000  0.50000000  0.50000000  1
  Ca  Ca4  1  0.48474616  0.75000000  0.77405472  1
  Ca  Ca5  1  0.98474616  0.25000000  0.72594528  1
  Ca  Ca6  1  0.51525384  0.25000000  0.22594528  1
  Ca  Ca7  1  0.01525384  0.75000000  0.27405472  1
  Ge  Ge8  1  0.90637481  0.75000000  0.59450299  1
  Ge  Ge9  1  0.40637481  0.25000000  0.90549701  1
  Ge  Ge10  1  0.09362519  0.25000000  0.40549701  1
  Ge  Ge11  1  0.59362519  0.75000000  0.09450299  1
  S  S12  1  0.77018143  0.75000000  0.44385989  1
  S  S13  1  0.27018143  0.25000000  0.05614011  1
  S  S14  1  0.22981857  0.25000000  0.55614011  1
  S  S15  1  0.72981857  0.75000000  0.94385989  1
  S  S16  1  0.25518302  0.75000000  0.59442338  1
  S  S17  1  0.75518302  0.25000000  0.90557662  1
  S  S18  1  0.74481698  0.25000000  0.40557662  1
  S  S19  1  0.24481698  0.75000000  0.09442338  1
  S  S20  1  0.75679277  0.96307312  0.66902023  1
  S  S21  1  0.25679277  0.03692688  0.83097977  1
  S  S22  1  0.24320723  0.46307312  0.33097977  1
  S  S23  1  0.74320723  0.53692688  0.16902023  1
  S  S24  1  0.24320723  0.03692688  0.33097977  1
  S  S25  1  0.74320723  0.96307312  0.16902023  1
  S  S26  1  0.75679277  0.53692688  0.66902023  1
  S  S27  1  0.25679277  0.46307312  0.83097977  1
