# generated using pymatgen
data_Er2Ni12P7
_symmetry_space_group_name_H-M   'P 1'
_cell_length_a   9.02165107
_cell_length_b   9.02165143
_cell_length_c   3.66604380
_cell_angle_alpha   90.00000000
_cell_angle_beta   90.00000000
_cell_angle_gamma   119.99999866
_symmetry_Int_Tables_number   1
_chemical_formula_structural   Er2Ni12P7
_chemical_formula_sum   'Er2 Ni12 P7'
_cell_volume   258.40466883
_cell_formula_units_Z   1
loop_
 _symmetry_equiv_pos_site_id
 _symmetry_equiv_pos_as_xyz
  1  'x, y, z'
loop_
 _atom_site_type_symbol
 _atom_site_label
 _atom_site_symmetry_multiplicity
 _atom_site_fract_x
 _atom_site_fract_y
 _atom_site_fract_z
 _atom_site_occupancy
  Er  Er0  1  0.33333300  0.66666700  0.00000000  1
  Er  Er1  1  0.66666700  0.33333300  0.50000000  1
  Ni  Ni2  1  0.43444963  0.06084885  0.00000000  1
  Ni  Ni3  1  0.62639922  0.56555037  0.00000000  1
  Ni  Ni4  1  0.93915115  0.37360078  0.00000000  1
  Ni  Ni5  1  0.15274680  0.27478086  0.00000000  1
  Ni  Ni6  1  0.12203406  0.84725320  0.00000000  1
  Ni  Ni7  1  0.72521914  0.87796594  0.00000000  1
  Ni  Ni8  1  0.38219789  0.43140287  0.50000000  1
  Ni  Ni9  1  0.04920499  0.61780211  0.50000000  1
  Ni  Ni10  1  0.56859713  0.95079501  0.50000000  1
  Ni  Ni11  1  0.21705488  0.09413808  0.50000000  1
  Ni  Ni12  1  0.87708320  0.78294512  0.50000000  1
  Ni  Ni13  1  0.90586192  0.12291680  0.50000000  1
  P  P14  1  0.40790594  0.29380665  0.00000000  1
  P  P15  1  0.88590072  0.59209406  0.00000000  1
  P  P16  1  0.70619335  0.11409928  0.00000000  1
  P  P17  1  0.11199786  0.40608686  0.50000000  1
  P  P18  1  0.29408901  0.88800214  0.50000000  1
  P  P19  1  0.59391314  0.70591099  0.50000000  1
  P  P20  1  0.00000000  0.00000000  0.00000000  1
