# generated using pymatgen
data_Rb2Ti6O13
_symmetry_space_group_name_H-M   'P 1'
_cell_length_a   3.84334947
_cell_length_b   8.30173970
_cell_length_c   9.23877606
_cell_angle_alpha   100.57002676
_cell_angle_beta   90.00000000
_cell_angle_gamma   103.38413631
_symmetry_Int_Tables_number   1
_chemical_formula_structural   Rb2Ti6O13
_chemical_formula_sum   'Rb2 Ti6 O13'
_cell_volume   281.62665055
_cell_formula_units_Z   1
loop_
 _symmetry_equiv_pos_site_id
 _symmetry_equiv_pos_as_xyz
  1  'x, y, z'
loop_
 _atom_site_type_symbol
 _atom_site_label
 _atom_site_symmetry_multiplicity
 _atom_site_fract_x
 _atom_site_fract_y
 _atom_site_fract_z
 _atom_site_occupancy
  Rb  Rb0  1  0.45610215  0.91220429  0.25315068  1
  Rb  Rb1  1  0.54389785  0.08779571  0.74684932  1
  Ti  Ti2  1  0.11488913  0.22977825  0.09354459  1
  Ti  Ti3  1  0.88511087  0.77022175  0.90645541  1
  Ti  Ti4  1  0.17458465  0.34916931  0.43644520  1
  Ti  Ti5  1  0.82541535  0.65083069  0.56355480  1
  Ti  Ti6  1  0.23309996  0.46619992  0.77886599  1
  Ti  Ti7  1  0.76690004  0.53380008  0.22113401  1
  O  O8  1  0.00000000  0.00000000  0.00000000  1
  O  O9  1  0.23896907  0.47793814  0.23715999  1
  O  O10  1  0.76103093  0.52206186  0.76284001  1
  O  O11  1  0.08308314  0.16616628  0.28730687  1
  O  O12  1  0.91691686  0.83383372  0.71269313  1
  O  O13  1  0.29634552  0.59269104  0.57244429  1
  O  O14  1  0.70365448  0.40730896  0.42755571  1
  O  O15  1  0.13883810  0.27767620  0.61259609  1
  O  O16  1  0.86116190  0.72232380  0.38740391  1
  O  O17  1  0.35779660  0.71559320  0.89199018  1
  O  O18  1  0.64220340  0.28440680  0.10800982  1
  O  O19  1  0.16786551  0.33573103  0.91351131  1
  O  O20  1  0.83213449  0.66426897  0.08648869  1
