# generated using pymatgen
data_Li3Mn3CoO8
_symmetry_space_group_name_H-M   'P 1'
_cell_length_a   5.91219895
_cell_length_b   5.76946676
_cell_length_c   9.53594373
_cell_angle_alpha   89.99289179
_cell_angle_beta   89.99848302
_cell_angle_gamma   119.20551300
_symmetry_Int_Tables_number   1
_chemical_formula_structural   Li3Mn3CoO8
_chemical_formula_sum   'Li6 Mn6 Co2 O16'
_cell_volume   283.92295750
_cell_formula_units_Z   2
loop_
 _symmetry_equiv_pos_site_id
 _symmetry_equiv_pos_as_xyz
  1  'x, y, z'
loop_
 _atom_site_type_symbol
 _atom_site_label
 _atom_site_symmetry_multiplicity
 _atom_site_fract_x
 _atom_site_fract_y
 _atom_site_fract_z
 _atom_site_occupancy
  Li  Li0  1  0.82685200  0.17528228  0.55694140  1
  Li  Li1  1  0.82695887  0.65152236  0.55691102  1
  Li  Li2  1  0.34879807  0.17440383  0.55603330  1
  Li  Li3  1  0.65065796  0.82513810  0.05588510  1
  Li  Li4  1  0.17316846  0.34856092  0.05660327  1
  Li  Li5  1  0.17292003  0.82497719  0.05674607  1
  Mn  Mn6  1  0.83215015  0.16683455  0.28648091  1
  Mn  Mn7  1  0.83203278  0.66529338  0.28643230  1
  Mn  Mn8  1  0.33531180  0.16774049  0.28457182  1
  Mn  Mn9  1  0.66454221  0.83210163  0.78456636  1
  Mn  Mn10  1  0.16780645  0.33417637  0.78619532  1
  Mn  Mn11  1  0.16815201  0.83278565  0.78636967  1
  Co  Co12  1  0.67051240  0.33506056  0.00321963  1
  Co  Co13  1  0.32973325  0.66497965  0.50286774  1
  O  O14  1  0.84922408  0.16121151  0.89657164  1
  O  O15  1  0.96660493  0.48339217  0.16679914  1
  O  O16  1  0.69789285  0.34885800  0.40486951  1
  O  O17  1  0.52066420  0.03223030  0.16501120  1
  O  O18  1  0.84897491  0.68779991  0.89661846  1
  O  O19  1  0.52057400  0.48858914  0.16528458  1
  O  O20  1  0.31389389  0.15705309  0.90131591  1
  O  O21  1  0.68626784  0.84310936  0.40124835  1
  O  O22  1  0.47940283  0.51178542  0.66491838  1
  O  O23  1  0.30225359  0.65110256  0.90491000  1
  O  O24  1  0.15073147  0.31189257  0.39653296  1
  O  O25  1  0.96741370  0.98370320  0.17206381  1
  O  O26  1  0.03249757  0.01636122  0.67223735  1
  O  O27  1  0.47955817  0.96830090  0.66528816  1
  O  O28  1  0.03386494  0.51713453  0.66678203  1
  O  O29  1  0.15103658  0.83894718  0.39651460  1
