# generated using pymatgen
data_OsO4
_symmetry_space_group_name_H-M   'P 1'
_cell_length_a   4.75058393
_cell_length_b   5.44098980
_cell_length_c   8.46312721
_cell_angle_alpha   76.84055301
_cell_angle_beta   73.45062037
_cell_angle_gamma   64.08179658
_symmetry_Int_Tables_number   1
_chemical_formula_structural   OsO4
_chemical_formula_sum   'Os2 O8'
_cell_volume   187.24591032
_cell_formula_units_Z   2
loop_
 _symmetry_equiv_pos_site_id
 _symmetry_equiv_pos_as_xyz
  1  'x, y, z'
loop_
 _atom_site_type_symbol
 _atom_site_label
 _atom_site_symmetry_multiplicity
 _atom_site_fract_x
 _atom_site_fract_y
 _atom_site_fract_z
 _atom_site_occupancy
  Os  Os0  1  0.74421445  0.75005016  0.24990803  1
  Os  Os1  1  0.25578555  0.24994984  0.75009197  1
  O  O2  1  0.83994497  0.03377732  0.19508369  1
  O  O3  1  0.06878603  0.46619280  0.30417958  1
  O  O4  1  0.16005503  0.96622268  0.80491631  1
  O  O5  1  0.93121397  0.53380720  0.69582042  1
  O  O6  1  0.42246317  0.80666981  0.41621735  1
  O  O7  1  0.64614186  0.69367219  0.08429533  1
  O  O8  1  0.57753683  0.19333019  0.58378265  1
  O  O9  1  0.35385814  0.30632781  0.91570467  1
