# generated using pymatgen
data_S3(NO7)2
_symmetry_space_group_name_H-M   'P 1'
_cell_length_a   7.36895620
_cell_length_b   7.75017969
_cell_length_c   10.57469480
_cell_angle_alpha   100.89757409
_cell_angle_beta   110.39095667
_cell_angle_gamma   89.99999935
_symmetry_Int_Tables_number   1
_chemical_formula_structural   S3(NO7)2
_chemical_formula_sum   'S6 N4 O28'
_cell_volume   554.45094166
_cell_formula_units_Z   2
loop_
 _symmetry_equiv_pos_site_id
 _symmetry_equiv_pos_as_xyz
  1  'x, y, z'
loop_
 _atom_site_type_symbol
 _atom_site_label
 _atom_site_symmetry_multiplicity
 _atom_site_fract_x
 _atom_site_fract_y
 _atom_site_fract_z
 _atom_site_occupancy
  N  N0  1  0.69356101  0.64319654  0.70630666  1
  N  N1  1  0.01274565  0.14319654  0.70630666  1
  N  N2  1  0.98792144  0.78275324  0.29351092  1
  N  N3  1  0.30558948  0.28275324  0.29351092  1
  S  S4  1  0.25268771  0.75045875  0.00002607  1
  S  S5  1  0.74733836  0.25045875  0.00002607  1
  S  S6  1  0.17232984  0.62175420  0.70810737  1
  S  S7  1  0.53577753  0.12175420  0.70810737  1
  S  S8  1  0.46371482  0.76848406  0.29182925  1
  S  S9  1  0.82811443  0.26848406  0.29182925  1
  O  O10  1  0.33491347  0.69538144  0.87834053  1
  O  O11  1  0.54342707  0.19538144  0.87834053  1
  O  O12  1  0.45670721  0.75405777  0.12185301  1
  O  O13  1  0.66514580  0.25405777  0.12185301  1
  O  O14  1  0.31148611  0.61182396  0.63913773  1
  O  O15  1  0.32765161  0.11182396  0.63913773  1
  O  O16  1  0.67169877  0.79371351  0.36062711  1
  O  O17  1  0.68892834  0.29371351  0.36062711  1
  O  O18  1  0.08307182  0.45438084  0.70674041  1
  O  O19  1  0.62366859  0.95438084  0.70674041  1
  O  O20  1  0.37639522  0.60155674  0.29371858  1
  O  O21  1  0.91732335  0.10155674  0.29371858  1
  O  O22  1  0.03683804  0.76007340  0.68759649  1
  O  O23  1  0.65075846  0.26007340  0.68759649  1
  O  O24  1  0.34825740  0.91636678  0.31195702  1
  O  O25  1  0.96369962  0.41636678  0.31195702  1
  O  O26  1  0.18783730  0.92494192  0.00205853  1
  O  O27  1  0.81422122  0.42494192  0.00205853  1
  O  O28  1  0.12518429  0.61018802  0.99882621  1
  O  O29  1  0.87364192  0.11018802  0.99882621  1
  O  O30  1  0.72714259  0.66485794  0.82180809  1
  O  O31  1  0.09466550  0.16485794  0.82180809  1
  O  O32  1  0.90515804  0.75848953  0.17800643  1
  O  O33  1  0.27284839  0.25848953  0.17800643  1
  O  O34  1  0.66916524  0.61351045  0.59149922  1
  O  O35  1  0.92233399  0.11351045  0.59149922  1
  O  O36  1  0.07712480  0.80101091  0.40805037  1
  O  O37  1  0.33092557  0.30101091  0.40805037  1
