# generated using pymatgen
data_Ge2S3Br2
_symmetry_space_group_name_H-M   'P 1'
_cell_length_a   9.43297297
_cell_length_b   10.57002016
_cell_length_c   10.73725966
_cell_angle_alpha   93.63496980
_cell_angle_beta   115.92241919
_cell_angle_gamma   90.03494708
_symmetry_Int_Tables_number   1
_chemical_formula_structural   Ge2S3Br2
_chemical_formula_sum   'Ge8 S12 Br8'
_cell_volume   960.44703985
_cell_formula_units_Z   4
loop_
 _symmetry_equiv_pos_site_id
 _symmetry_equiv_pos_as_xyz
  1  'x, y, z'
loop_
 _atom_site_type_symbol
 _atom_site_label
 _atom_site_symmetry_multiplicity
 _atom_site_fract_x
 _atom_site_fract_y
 _atom_site_fract_z
 _atom_site_occupancy
  Ge  Ge0  1  0.73858531  0.81767303  0.74277871  1
  Ge  Ge1  1  0.26141469  0.18232697  0.25722129  1
  Ge  Ge2  1  0.69622188  0.51447323  0.82269976  1
  Ge  Ge3  1  0.30377812  0.48552677  0.17730024  1
  Ge  Ge4  1  0.37068076  0.69675503  0.67015984  1
  Ge  Ge5  1  0.62931924  0.30324497  0.32984016  1
  Ge  Ge6  1  0.63922082  0.77060959  0.00902961  1
  Ge  Ge7  1  0.36077918  0.22939041  0.99097039  1
  S  S8  1  0.78085007  0.90598797  0.95203565  1
  S  S9  1  0.21914993  0.09401203  0.04796435  1
  S  S10  1  0.84321240  0.62637873  0.74846410  1
  S  S11  1  0.15678760  0.37362127  0.25153590  1
  S  S12  1  0.48792866  0.82522898  0.58235769  1
  S  S13  1  0.51207134  0.17477102  0.41764231  1
  S  S14  1  0.73459862  0.57497123  0.03953270  1
  S  S15  1  0.26540138  0.42502877  0.96046730  1
  S  S16  1  0.44097299  0.49431770  0.67037546  1
  S  S17  1  0.55902701  0.50568230  0.32962454  1
  S  S18  1  0.37878613  0.77307498  0.87332611  1
  S  S19  1  0.62121387  0.22692502  0.12667389  1
  Br  Br20  1  0.87844721  0.94925231  0.66883762  1
  Br  Br21  1  0.12155279  0.05074769  0.33116238  1
  Br  Br22  1  0.10644804  0.69276056  0.51536943  1
  Br  Br23  1  0.89355196  0.30723944  0.48463057  1
  Br  Br24  1  0.67216881  0.84749117  0.22678485  1
  Br  Br25  1  0.32783119  0.15250883  0.77321515  1
  Br  Br26  1  0.78810780  0.31110390  0.83593539  1
  Br  Br27  1  0.21189220  0.68889610  0.16406461  1
