# generated using pymatgen
data_Ba2GeS4
_symmetry_space_group_name_H-M   'P 1'
_cell_length_a   6.90167216
_cell_length_b   9.09494396
_cell_length_c   12.59050426
_cell_angle_alpha   90.00000000
_cell_angle_beta   90.00000000
_cell_angle_gamma   90.00000000
_symmetry_Int_Tables_number   1
_chemical_formula_structural   Ba2GeS4
_chemical_formula_sum   'Ba8 Ge4 S16'
_cell_volume   790.31000057
_cell_formula_units_Z   4
loop_
 _symmetry_equiv_pos_site_id
 _symmetry_equiv_pos_as_xyz
  1  'x, y, z'
loop_
 _atom_site_type_symbol
 _atom_site_label
 _atom_site_symmetry_multiplicity
 _atom_site_fract_x
 _atom_site_fract_y
 _atom_site_fract_z
 _atom_site_occupancy
  Ba  Ba0  1  0.75000000  0.37330848  0.58053732  1
  Ba  Ba1  1  0.25000000  0.62669152  0.41946268  1
  Ba  Ba2  1  0.75000000  0.87330848  0.91946268  1
  Ba  Ba3  1  0.25000000  0.12669152  0.08053732  1
  Ba  Ba4  1  0.75000000  0.02137408  0.33076345  1
  Ba  Ba5  1  0.25000000  0.97862592  0.66923655  1
  Ba  Ba6  1  0.75000000  0.52137408  0.16923655  1
  Ba  Ba7  1  0.25000000  0.47862592  0.83076345  1
  Ge  Ge8  1  0.75000000  0.77105354  0.57179430  1
  Ge  Ge9  1  0.25000000  0.22894646  0.42820570  1
  Ge  Ge10  1  0.75000000  0.27105354  0.92820570  1
  Ge  Ge11  1  0.25000000  0.72894646  0.07179430  1
  S  S12  1  0.75000000  0.01296835  0.59446181  1
  S  S13  1  0.25000000  0.98703165  0.40553819  1
  S  S14  1  0.75000000  0.51296835  0.90553819  1
  S  S15  1  0.25000000  0.48703165  0.09446181  1
  S  S16  1  0.75000000  0.69266856  0.40320971  1
  S  S17  1  0.25000000  0.30733144  0.59679029  1
  S  S18  1  0.75000000  0.19266856  0.09679029  1
  S  S19  1  0.25000000  0.80733144  0.90320971  1
  S  S20  1  0.01405826  0.67088041  0.64056880  1
  S  S21  1  0.51405826  0.32911959  0.35943120  1
  S  S22  1  0.48594174  0.17088041  0.85943120  1
  S  S23  1  0.98594174  0.82911959  0.14056880  1
  S  S24  1  0.98594174  0.32911959  0.35943120  1
  S  S25  1  0.48594174  0.67088041  0.64056880  1
  S  S26  1  0.51405826  0.82911959  0.14056880  1
  S  S27  1  0.01405826  0.17088041  0.85943120  1
