# generated using pymatgen
data_Cs2Sn2O3
_symmetry_space_group_name_H-M   'P 1'
_cell_length_a   6.21533998
_cell_length_b   9.17799808
_cell_length_c   13.96071479
_cell_angle_alpha   90.00000000
_cell_angle_beta   90.00000000
_cell_angle_gamma   90.00000000
_symmetry_Int_Tables_number   1
_chemical_formula_structural   Cs2Sn2O3
_chemical_formula_sum   'Cs8 Sn8 O12'
_cell_volume   796.38029726
_cell_formula_units_Z   4
loop_
 _symmetry_equiv_pos_site_id
 _symmetry_equiv_pos_as_xyz
  1  'x, y, z'
loop_
 _atom_site_type_symbol
 _atom_site_label
 _atom_site_symmetry_multiplicity
 _atom_site_fract_x
 _atom_site_fract_y
 _atom_site_fract_z
 _atom_site_occupancy
  Cs  Cs0  1  0.25000000  0.53436395  0.36813255  1
  Cs  Cs1  1  0.75000000  0.46563605  0.63186745  1
  Cs  Cs2  1  0.75000000  0.03436395  0.13186745  1
  Cs  Cs3  1  0.25000000  0.96563605  0.86813255  1
  Cs  Cs4  1  0.25000000  0.33580520  0.09691897  1
  Cs  Cs5  1  0.75000000  0.66419480  0.90308103  1
  Cs  Cs6  1  0.75000000  0.83580520  0.40308103  1
  Cs  Cs7  1  0.25000000  0.16419480  0.59691897  1
  Sn  Sn8  1  0.25000000  0.78298455  0.13515383  1
  Sn  Sn9  1  0.75000000  0.21701545  0.86484617  1
  Sn  Sn10  1  0.75000000  0.28298455  0.36484617  1
  Sn  Sn11  1  0.25000000  0.71701545  0.63515383  1
  Sn  Sn12  1  0.25000000  0.08384990  0.30306280  1
  Sn  Sn13  1  0.75000000  0.91615010  0.69693720  1
  Sn  Sn14  1  0.75000000  0.58384990  0.19693720  1
  Sn  Sn15  1  0.25000000  0.41615010  0.80306280  1
  O  O16  1  0.00253678  0.23245362  0.27205457  1
  O  O17  1  0.50253678  0.76754638  0.72794543  1
  O  O18  1  0.99746322  0.73245362  0.22794543  1
  O  O19  1  0.49746322  0.26754638  0.77205457  1
  O  O20  1  0.99746322  0.76754638  0.72794543  1
  O  O21  1  0.49746322  0.23245362  0.27205457  1
  O  O22  1  0.00253678  0.26754638  0.77205457  1
  O  O23  1  0.50253678  0.73245362  0.22794543  1
  O  O24  1  0.25000000  0.00642402  0.16136575  1
  O  O25  1  0.75000000  0.99357598  0.83863425  1
  O  O26  1  0.75000000  0.50642402  0.33863425  1
  O  O27  1  0.25000000  0.49357598  0.66136575  1
