# generated using pymatgen
data_RbCr2FeO8
_symmetry_space_group_name_H-M   'P 1'
_cell_length_a   5.54434789
_cell_length_b   8.97785058
_cell_length_c   14.97124405
_cell_angle_alpha   90.00000000
_cell_angle_beta   90.00000000
_cell_angle_gamma   90.00000000
_symmetry_Int_Tables_number   1
_chemical_formula_structural   RbCr2FeO8
_chemical_formula_sum   'Rb4 Cr8 Fe4 O32'
_cell_volume   745.21353823
_cell_formula_units_Z   4
loop_
 _symmetry_equiv_pos_site_id
 _symmetry_equiv_pos_as_xyz
  1  'x, y, z'
loop_
 _atom_site_type_symbol
 _atom_site_label
 _atom_site_symmetry_multiplicity
 _atom_site_fract_x
 _atom_site_fract_y
 _atom_site_fract_z
 _atom_site_occupancy
  Rb  Rb0  1  0.25000000  0.94938597  0.37954943  1
  Rb  Rb1  1  0.75000000  0.05061403  0.62045057  1
  Rb  Rb2  1  0.75000000  0.44938597  0.12045057  1
  Rb  Rb3  1  0.25000000  0.55061403  0.87954943  1
  Fe  Fe4  1  0.25000000  0.49313168  0.34356557  1
  Fe  Fe5  1  0.75000000  0.50686832  0.65643443  1
  Fe  Fe6  1  0.75000000  0.99313168  0.15643443  1
  Fe  Fe7  1  0.25000000  0.00686832  0.84356557  1
  Cr  Cr8  1  0.75000000  0.24426014  0.33612927  1
  Cr  Cr9  1  0.25000000  0.75573986  0.66387073  1
  Cr  Cr10  1  0.25000000  0.74426014  0.16387073  1
  Cr  Cr11  1  0.75000000  0.25573986  0.83612927  1
  Cr  Cr12  1  0.75000000  0.68160223  0.43668365  1
  Cr  Cr13  1  0.25000000  0.31839777  0.56331635  1
  Cr  Cr14  1  0.25000000  0.18160223  0.06331635  1
  Cr  Cr15  1  0.75000000  0.81839777  0.93668365  1
  O  O16  1  0.75000000  0.85879641  0.45974421  1
  O  O17  1  0.25000000  0.14120359  0.54025579  1
  O  O18  1  0.25000000  0.35879641  0.04025579  1
  O  O19  1  0.75000000  0.64120359  0.95974421  1
  O  O20  1  0.25000000  0.71243269  0.05798917  1
  O  O21  1  0.75000000  0.28756731  0.94201083  1
  O  O22  1  0.75000000  0.21243269  0.44201083  1
  O  O23  1  0.25000000  0.78756731  0.55798917  1
  O  O24  1  0.25000000  0.41893429  0.47008309  1
  O  O25  1  0.75000000  0.58106571  0.52991691  1
  O  O26  1  0.75000000  0.91893429  0.02991691  1
  O  O27  1  0.25000000  0.08106571  0.97008309  1
  O  O28  1  0.25000000  0.57793993  0.21750505  1
  O  O29  1  0.75000000  0.42206007  0.78249495  1
  O  O30  1  0.75000000  0.07793993  0.28249495  1
  O  O31  1  0.25000000  0.92206007  0.71750505  1
  O  O32  1  0.99637680  0.34291448  0.30760357  1
  O  O33  1  0.49637680  0.65708552  0.69239643  1
  O  O34  1  0.00362320  0.84291448  0.19239643  1
  O  O35  1  0.50362320  0.15708552  0.80760357  1
  O  O36  1  0.00362320  0.65708552  0.69239643  1
  O  O37  1  0.50362320  0.34291448  0.30760357  1
  O  O38  1  0.99637680  0.15708552  0.80760357  1
  O  O39  1  0.49637680  0.84291448  0.19239643  1
  O  O40  1  0.00234945  0.14386846  0.12464391  1
  O  O41  1  0.50234945  0.85613154  0.87535609  1
  O  O42  1  0.99765055  0.64386846  0.37535609  1
  O  O43  1  0.49765055  0.35613154  0.62464391  1
  O  O44  1  0.99765055  0.85613154  0.87535609  1
  O  O45  1  0.49765055  0.14386846  0.12464391  1
  O  O46  1  0.00234945  0.35613154  0.62464391  1
  O  O47  1  0.50234945  0.64386846  0.37535609  1
