# generated using pymatgen
data_Cs3Zr2I9
_symmetry_space_group_name_H-M   'P 1'
_cell_length_a   8.60279023
_cell_length_b   8.60279017
_cell_length_c   20.54328980
_cell_angle_alpha   90.00000000
_cell_angle_beta   90.00000000
_cell_angle_gamma   120.00000027
_symmetry_Int_Tables_number   1
_chemical_formula_structural   Cs3Zr2I9
_chemical_formula_sum   'Cs6 Zr4 I18'
_cell_volume   1316.67711312
_cell_formula_units_Z   2
loop_
 _symmetry_equiv_pos_site_id
 _symmetry_equiv_pos_as_xyz
  1  'x, y, z'
loop_
 _atom_site_type_symbol
 _atom_site_label
 _atom_site_symmetry_multiplicity
 _atom_site_fract_x
 _atom_site_fract_y
 _atom_site_fract_z
 _atom_site_occupancy
  Cs  Cs0  1  0.33333300  0.66666700  0.06738230  1
  Cs  Cs1  1  0.66666700  0.33333300  0.56738230  1
  Cs  Cs2  1  0.66666700  0.33333300  0.93261770  1
  Cs  Cs3  1  0.33333300  0.66666700  0.43261770  1
  Cs  Cs4  1  0.00000000  0.00000000  0.25000000  1
  Cs  Cs5  1  0.00000000  0.00000000  0.75000000  1
  Zr  Zr6  1  0.66666700  0.33333300  0.17192101  1
  Zr  Zr7  1  0.33333300  0.66666700  0.67192101  1
  Zr  Zr8  1  0.33333300  0.66666700  0.82807899  1
  Zr  Zr9  1  0.66666700  0.33333300  0.32807899  1
  I  I10  1  0.82754216  0.65508432  0.09149904  1
  I  I11  1  0.17245784  0.82754216  0.59149904  1
  I  I12  1  0.65508432  0.82754216  0.59149904  1
  I  I13  1  0.34491568  0.17245784  0.09149904  1
  I  I14  1  0.82754216  0.17245784  0.09149904  1
  I  I15  1  0.17245784  0.34491568  0.90850096  1
  I  I16  1  0.17245784  0.82754216  0.90850096  1
  I  I17  1  0.17245784  0.34491568  0.59149904  1
  I  I18  1  0.65508432  0.82754216  0.90850096  1
  I  I19  1  0.34491568  0.17245784  0.40850096  1
  I  I20  1  0.82754216  0.65508432  0.40850096  1
  I  I21  1  0.82754216  0.17245784  0.40850096  1
  I  I22  1  0.49986638  -0.00026723  0.25000000  1
  I  I23  1  0.50013362  0.49986638  0.75000000  1
  I  I24  1  -0.00026723  0.49986638  0.75000000  1
  I  I25  1  1.00026723  0.50013362  0.25000000  1
  I  I26  1  0.49986638  0.50013362  0.25000000  1
  I  I27  1  0.50013362  1.00026723  0.75000000  1
