# generated using pymatgen
data_Tl2Ge2Se5
_symmetry_space_group_name_H-M   'P 1'
_cell_length_a   9.28403191
_cell_length_b   11.33730111
_cell_length_c   11.33730190
_cell_angle_alpha   89.73563325
_cell_angle_beta   78.43574409
_cell_angle_gamma   78.43574048
_symmetry_Int_Tables_number   1
_chemical_formula_structural   Tl2Ge2Se5
_chemical_formula_sum   'Tl8 Ge8 Se20'
_cell_volume   1144.57482944
_cell_formula_units_Z   4
loop_
 _symmetry_equiv_pos_site_id
 _symmetry_equiv_pos_as_xyz
  1  'x, y, z'
loop_
 _atom_site_type_symbol
 _atom_site_label
 _atom_site_symmetry_multiplicity
 _atom_site_fract_x
 _atom_site_fract_y
 _atom_site_fract_z
 _atom_site_occupancy
  Tl  Tl0  1  0.09696962  0.54488795  0.80195147  1
  Tl  Tl1  1  0.40303038  0.19804853  0.45511205  1
  Tl  Tl2  1  0.90303038  0.45511205  0.19804853  1
  Tl  Tl3  1  0.59696962  0.80195147  0.54488795  1
  Tl  Tl4  1  0.40357689  0.20129963  0.07815954  1
  Tl  Tl5  1  0.09642311  0.92184046  0.79870037  1
  Tl  Tl6  1  0.59642311  0.79870037  0.92184046  1
  Tl  Tl7  1  0.90357689  0.07815954  0.20129963  1
  Ge  Ge8  1  0.59168831  0.47854420  0.73275530  1
  Ge  Ge9  1  0.90831169  0.26724470  0.52145580  1
  Ge  Ge10  1  0.40831169  0.52145580  0.26724470  1
  Ge  Ge11  1  0.09168831  0.73275530  0.47854420  1
  Ge  Ge12  1  0.10984535  0.72985289  0.13605553  1
  Ge  Ge13  1  0.39015465  0.86394447  0.27014711  1
  Ge  Ge14  1  0.89015465  0.27014711  0.86394447  1
  Ge  Ge15  1  0.60984535  0.13605553  0.72985289  1
  Se  Se16  1  0.73222732  0.46760545  0.89272385  1
  Se  Se17  1  0.76777268  0.10727615  0.53239455  1
  Se  Se18  1  0.26777268  0.53239455  0.10727615  1
  Se  Se19  1  0.23222732  0.89272385  0.46760545  1
  Se  Se20  1  0.56193006  0.67150262  0.23935152  1
  Se  Se21  1  0.93806994  0.76064848  0.32849738  1
  Se  Se22  1  0.43806994  0.32849738  0.76064848  1
  Se  Se23  1  0.06193006  0.23935152  0.67150262  1
  Se  Se24  1  0.43031965  0.66729930  0.75848534  1
  Se  Se25  1  0.06968035  0.24151466  0.33270070  1
  Se  Se26  1  0.56968035  0.33270070  0.24151466  1
  Se  Se27  1  0.93031965  0.75848534  0.66729930  1
  Se  Se28  1  0.04625328  0.24365995  1.00208555  1
  Se  Se29  1  0.45374672  -0.00208555  0.75634005  1
  Se  Se30  1  0.95374672  0.75634005  -0.00208555  1
  Se  Se31  1  0.54625328  1.00208555  0.24365995  1
  Se  Se32  1  0.75000000  0.10881437  0.89118563  1
  Se  Se33  1  0.25000000  0.89118563  0.10881437  1
  Se  Se34  1  0.75000000  0.46460765  0.53539235  1
  Se  Se35  1  0.25000000  0.53539235  0.46460765  1
