# generated using pymatgen
data_RuF5
_symmetry_space_group_name_H-M   'P 1'
_cell_length_a   5.63345134
_cell_length_b   10.21848320
_cell_length_c   12.83177358
_cell_angle_alpha   90.00000000
_cell_angle_beta   100.47441821
_cell_angle_gamma   90.00000000
_symmetry_Int_Tables_number   1
_chemical_formula_structural   RuF5
_chemical_formula_sum   'Ru8 F40'
_cell_volume   726.35626556
_cell_formula_units_Z   8
loop_
 _symmetry_equiv_pos_site_id
 _symmetry_equiv_pos_as_xyz
  1  'x, y, z'
loop_
 _atom_site_type_symbol
 _atom_site_label
 _atom_site_symmetry_multiplicity
 _atom_site_fract_x
 _atom_site_fract_y
 _atom_site_fract_z
 _atom_site_occupancy
  Ru  Ru0  1  0.99481824  0.25313273  0.00128837  1
  Ru  Ru1  1  0.00518176  0.75313273  0.49871163  1
  Ru  Ru2  1  0.00518176  0.74686727  0.99871163  1
  Ru  Ru3  1  0.99481824  0.24686727  0.50128837  1
  Ru  Ru4  1  0.30383448  0.00423139  0.19862986  1
  Ru  Ru5  1  0.69616552  0.50423139  0.30137014  1
  Ru  Ru6  1  0.69616552  0.99576861  0.80137014  1
  Ru  Ru7  1  0.30383448  0.49576861  0.69862986  1
  F  F8  1  0.19316330  0.09086043  0.05464022  1
  F  F9  1  0.80683670  0.59086043  0.44535978  1
  F  F10  1  0.80683670  0.90913957  0.94535978  1
  F  F11  1  0.19316330  0.40913957  0.55464022  1
  F  F12  1  0.09881753  0.33209167  0.13062796  1
  F  F13  1  0.90118247  0.83209167  0.36937204  1
  F  F14  1  0.90118247  0.66790833  0.86937204  1
  F  F15  1  0.09881753  0.16790833  0.63062796  1
  F  F16  1  0.39132320  0.91626997  0.32501001  1
  F  F17  1  0.60867680  0.41626997  0.17498999  1
  F  F18  1  0.60867680  0.08373003  0.67498999  1
  F  F19  1  0.39132320  0.58373003  0.82501001  1
  F  F20  1  0.47665996  0.15218284  0.24581754  1
  F  F21  1  0.52334004  0.65218284  0.25418246  1
  F  F22  1  0.52334004  0.84781716  0.75418246  1
  F  F23  1  0.47665996  0.34781716  0.74581754  1
  F  F24  1  0.81223575  0.39451309  0.94567416  1
  F  F25  1  0.18776425  0.89451309  0.55432584  1
  F  F26  1  0.18776425  0.60548691  0.05432584  1
  F  F27  1  0.81223575  0.10548691  0.44567416  1
  F  F28  1  0.89846470  0.15427014  0.86167065  1
  F  F29  1  0.10153530  0.65427014  0.63832935  1
  F  F30  1  0.10153530  0.84572986  0.13832935  1
  F  F31  1  0.89846470  0.34572986  0.36167065  1
  F  F32  1  0.73189620  0.17525524  0.04717954  1
  F  F33  1  0.26810380  0.67525524  0.45282046  1
  F  F34  1  0.26810380  0.82474476  0.95282046  1
  F  F35  1  0.73189620  0.32474476  0.54717954  1
  F  F36  1  0.56122671  0.93313155  0.14430659  1
  F  F37  1  0.43877329  0.43313155  0.35569341  1
  F  F38  1  0.43877329  0.06686845  0.85569341  1
  F  F39  1  0.56122671  0.56686845  0.64430659  1
  F  F40  1  0.02434625  0.07013853  0.23885051  1
  F  F41  1  0.97565375  0.57013853  0.26114949  1
  F  F42  1  0.97565375  0.92986147  0.76114949  1
  F  F43  1  0.02434625  0.42986147  0.73885051  1
  F  F44  1  0.26388253  0.31258768  0.94903156  1
  F  F45  1  0.73611747  0.81258768  0.55096844  1
  F  F46  1  0.73611747  0.68741232  0.05096844  1
  F  F47  1  0.26388253  0.18741232  0.44903156  1
