# generated using pymatgen
data_Yb2WO6
_symmetry_space_group_name_H-M   'P 1'
_cell_length_a   5.63634211
_cell_length_b   7.64407972
_cell_length_c   11.16999450
_cell_angle_alpha   100.55348815
_cell_angle_beta   90.00000000
_cell_angle_gamma   90.00000000
_symmetry_Int_Tables_number   1
_chemical_formula_structural   Yb2WO6
_chemical_formula_sum   'Yb8 W4 O24'
_cell_volume   473.11454204
_cell_formula_units_Z   4
loop_
 _symmetry_equiv_pos_site_id
 _symmetry_equiv_pos_as_xyz
  1  'x, y, z'
loop_
 _atom_site_type_symbol
 _atom_site_label
 _atom_site_symmetry_multiplicity
 _atom_site_fract_x
 _atom_site_fract_y
 _atom_site_fract_z
 _atom_site_occupancy
  O  O0  1  0.45760812  0.78340644  0.25133713  1
  O  O1  1  0.45760812  0.21659356  0.24866287  1
  O  O2  1  0.54239188  0.21659356  0.74866287  1
  O  O3  1  0.54239188  0.78340644  0.75133713  1
  O  O4  1  0.02900085  0.92449737  0.10349132  1
  O  O5  1  0.02900085  0.07550263  0.39650868  1
  O  O6  1  0.97099915  0.07550263  0.89650868  1
  O  O7  1  0.97099915  0.92449737  0.60349132  1
  O  O8  1  0.98361073  0.71136850  0.21214434  1
  O  O9  1  0.98361073  0.28863150  0.28785566  1
  O  O10  1  0.01638927  0.28863150  0.78785566  1
  O  O11  1  0.01638927  0.71136850  0.71214434  1
  O  O12  1  0.83545945  0.65156780  0.43678345  1
  O  O13  1  0.83545945  0.34843220  0.06321655  1
  O  O14  1  0.16454055  0.34843220  0.56321655  1
  O  O15  1  0.16454055  0.65156780  0.93678345  1
  O  O16  1  0.65943299  0.48029253  0.61047692  1
  O  O17  1  0.65943299  0.51970747  0.88952308  1
  O  O18  1  0.34056701  0.51970747  0.38952308  1
  O  O19  1  0.34056701  0.48029253  0.11047692  1
  O  O20  1  0.48319333  0.85480976  0.56784279  1
  O  O21  1  0.48319333  0.14519024  0.93215721  1
  O  O22  1  0.51680667  0.14519024  0.43215721  1
  O  O23  1  0.51680667  0.85480976  0.06784279  1
  Yb  Yb24  1  0.18779053  0.80097540  0.41575113  1
  Yb  Yb25  1  0.18779053  0.19902460  0.08424887  1
  Yb  Yb26  1  0.81220947  0.19902460  0.58424887  1
  Yb  Yb27  1  0.81220947  0.80097540  0.91575113  1
  Yb  Yb28  1  0.66887549  0.50000000  0.25000000  1
  Yb  Yb29  1  0.33112451  0.50000000  0.75000000  1
  Yb  Yb30  1  0.73627701  0.00000000  0.25000000  1
  Yb  Yb31  1  0.26372299  0.00000000  0.75000000  1
  W  W32  1  0.25050179  0.70953716  0.09973378  1
  W  W33  1  0.25050179  0.29046284  0.40026622  1
  W  W34  1  0.74949821  0.29046284  0.90026622  1
  W  W35  1  0.74949821  0.70953716  0.59973378  1
