# generated using pymatgen
data_Li3Mn2SbO6
_symmetry_space_group_name_H-M   'P 1'
_cell_length_a   15.87982919
_cell_length_b   10.22875516
_cell_length_c   10.22875503
_cell_angle_alpha   17.64883121
_cell_angle_beta   17.26325368
_cell_angle_gamma   17.26325738
_symmetry_Int_Tables_number   1
_chemical_formula_structural   Li3Mn2SbO6
_chemical_formula_sum   'Li3 Mn2 Sb1 O6'
_cell_volume   129.49759136
_cell_formula_units_Z   1
loop_
 _symmetry_equiv_pos_site_id
 _symmetry_equiv_pos_as_xyz
  1  'x, y, z'
loop_
 _atom_site_type_symbol
 _atom_site_label
 _atom_site_symmetry_multiplicity
 _atom_site_fract_x
 _atom_site_fract_y
 _atom_site_fract_z
 _atom_site_occupancy
  Li  Li0  1  0.16666700  0.50000000  0.50000000  1
  Li  Li1  1  0.53551132  0.46654234  0.46654234  1
  Li  Li2  1  0.79782268  0.53345766  0.53345766  1
  Mn  Mn3  1  0.96998688  0.02274055  0.02274055  1
  Mn  Mn4  1  0.36334712  0.97725945  0.97725945  1
  Sb  Sb5  1  0.66666700  0.00000000  -0.00000000  1
  O  O6  1  0.28468257  0.23144730  0.23144730  1
  O  O7  1  0.56620764  0.26073097  0.26073097  1
  O  O8  1  0.04865043  0.76855270  0.76855270  1
  O  O9  1  0.87340047  0.28933607  0.28933607  1
  O  O10  1  0.45993253  0.71066393  0.71066393  1
  O  O11  1  0.76712536  0.73926903  0.73926903  1
