# generated using pymatgen
data_Mn2BiO5
_symmetry_space_group_name_H-M   'P 1'
_cell_length_a   5.87861915
_cell_length_b   7.65162902
_cell_length_c   8.66511602
_cell_angle_alpha   90.00000000
_cell_angle_beta   90.00000000
_cell_angle_gamma   90.00000000
_symmetry_Int_Tables_number   1
_chemical_formula_structural   Mn2BiO5
_chemical_formula_sum   'Mn8 Bi4 O20'
_cell_volume   389.76569535
_cell_formula_units_Z   4
loop_
 _symmetry_equiv_pos_site_id
 _symmetry_equiv_pos_as_xyz
  1  'x, y, z'
loop_
 _atom_site_type_symbol
 _atom_site_label
 _atom_site_symmetry_multiplicity
 _atom_site_fract_x
 _atom_site_fract_y
 _atom_site_fract_z
 _atom_site_occupancy
  Bi  Bi0  1  0.00000000  0.15505006  0.16489948  1
  Bi  Bi1  1  0.00000000  0.84494994  0.83510052  1
  Bi  Bi2  1  0.00000000  0.65505006  0.33510052  1
  Bi  Bi3  1  0.00000000  0.34494994  0.66489948  1
  Mn  Mn4  1  0.25798672  0.50000000  0.00000000  1
  Mn  Mn5  1  0.74201328  0.00000000  0.50000000  1
  Mn  Mn6  1  0.74201328  0.50000000  0.00000000  1
  Mn  Mn7  1  0.25798672  0.00000000  0.50000000  1
  Mn  Mn8  1  0.50000000  0.40530873  0.34937641  1
  Mn  Mn9  1  0.50000000  0.59469127  0.65062359  1
  Mn  Mn10  1  0.50000000  0.90530873  0.15062359  1
  Mn  Mn11  1  0.50000000  0.09469127  0.84937641  1
  O  O12  1  0.28325333  0.00000000  0.00000000  1
  O  O13  1  0.71674667  0.50000000  0.50000000  1
  O  O14  1  0.71674667  0.00000000  0.00000000  1
  O  O15  1  0.28325333  0.50000000  0.50000000  1
  O  O16  1  0.25022958  0.38771393  0.20150221  1
  O  O17  1  0.25022958  0.61228607  0.79849779  1
  O  O18  1  0.74977042  0.88771393  0.29849779  1
  O  O19  1  0.74977042  0.11228607  0.70150221  1
  O  O20  1  0.74977042  0.61228607  0.79849779  1
  O  O21  1  0.74977042  0.38771393  0.20150221  1
  O  O22  1  0.25022958  0.11228607  0.70150221  1
  O  O23  1  0.25022958  0.88771393  0.29849779  1
  O  O24  1  0.50000000  0.14586729  0.42766823  1
  O  O25  1  0.50000000  0.85413271  0.57233177  1
  O  O26  1  0.50000000  0.64586729  0.07233177  1
  O  O27  1  0.50000000  0.35413271  0.92766823  1
  O  O28  1  0.00000000  0.15534038  0.44329758  1
  O  O29  1  0.00000000  0.84465962  0.55670242  1
  O  O30  1  0.00000000  0.65534038  0.05670242  1
  O  O31  1  0.00000000  0.34465962  0.94329758  1
