# generated using pymatgen
data_Ni2Hg2OF6
_symmetry_space_group_name_H-M   'P 1'
_cell_length_a   7.43571105
_cell_length_b   7.43571092
_cell_length_c   7.43571028
_cell_angle_alpha   59.99999838
_cell_angle_beta   59.99999898
_cell_angle_gamma   59.99999869
_symmetry_Int_Tables_number   1
_chemical_formula_structural   Ni2Hg2OF6
_chemical_formula_sum   'Ni4 Hg4 O2 F12'
_cell_volume   290.70496618
_cell_formula_units_Z   2
loop_
 _symmetry_equiv_pos_site_id
 _symmetry_equiv_pos_as_xyz
  1  'x, y, z'
loop_
 _atom_site_type_symbol
 _atom_site_label
 _atom_site_symmetry_multiplicity
 _atom_site_fract_x
 _atom_site_fract_y
 _atom_site_fract_z
 _atom_site_occupancy
  Hg  Hg0  1  0.50000000  0.50000000  0.50000000  1
  Hg  Hg1  1  0.50000000  0.50000000  0.00000000  1
  Hg  Hg2  1  0.00000000  0.50000000  0.50000000  1
  Hg  Hg3  1  0.50000000  0.00000000  0.50000000  1
  Ni  Ni4  1  0.00000000  0.00000000  0.00000000  1
  Ni  Ni5  1  0.00000000  0.00000000  0.50000000  1
  Ni  Ni6  1  0.50000000  0.00000000  0.00000000  1
  Ni  Ni7  1  0.00000000  0.50000000  0.00000000  1
  F  F8  1  0.92707437  0.32292563  0.32292563  1
  F  F9  1  0.67707437  0.67707437  0.07292563  1
  F  F10  1  0.07292563  0.07292563  0.67707437  1
  F  F11  1  0.67707437  0.07292563  0.07292563  1
  F  F12  1  0.67707437  0.07292563  0.67707437  1
  F  F13  1  0.07292563  0.67707437  0.07292563  1
  F  F14  1  0.32292563  0.92707437  0.32292563  1
  F  F15  1  0.32292563  0.32292563  0.92707437  1
  F  F16  1  0.92707437  0.92707437  0.32292563  1
  F  F17  1  0.92707437  0.32292563  0.92707437  1
  F  F18  1  0.07292563  0.67707437  0.67707437  1
  F  F19  1  0.32292563  0.92707437  0.92707437  1
  O  O20  1  0.37500000  0.37500000  0.37500000  1
  O  O21  1  0.62500000  0.62500000  0.62500000  1
