# generated using pymatgen
data_OsF5
_symmetry_space_group_name_H-M   'P 1'
_cell_length_a   5.69757523
_cell_length_b   10.30245119
_cell_length_c   12.87873428
_cell_angle_alpha   90.00000000
_cell_angle_beta   100.21505210
_cell_angle_gamma   90.00000000
_symmetry_Int_Tables_number   1
_chemical_formula_structural   OsF5
_chemical_formula_sum   'Os8 F40'
_cell_volume   743.98588295
_cell_formula_units_Z   8
loop_
 _symmetry_equiv_pos_site_id
 _symmetry_equiv_pos_as_xyz
  1  'x, y, z'
loop_
 _atom_site_type_symbol
 _atom_site_label
 _atom_site_symmetry_multiplicity
 _atom_site_fract_x
 _atom_site_fract_y
 _atom_site_fract_z
 _atom_site_occupancy
  Os  Os0  1  0.99149378  0.25218745  0.99924520  1
  Os  Os1  1  0.00850622  0.75218745  0.50075480  1
  Os  Os2  1  0.00850622  0.74781255  0.00075480  1
  Os  Os3  1  0.99149378  0.24781255  0.49924520  1
  Os  Os4  1  0.29818889  0.00532133  0.19929947  1
  Os  Os5  1  0.70181111  0.50532133  0.30070053  1
  Os  Os6  1  0.70181111  0.99467867  0.80070053  1
  Os  Os7  1  0.29818889  0.49467867  0.69929947  1
  F  F8  1  0.18515267  0.09003185  0.05456621  1
  F  F9  1  0.81484733  0.59003185  0.44543379  1
  F  F10  1  0.81484733  0.90996815  0.94543379  1
  F  F11  1  0.18515267  0.40996815  0.55456621  1
  F  F12  1  0.08819404  0.33087098  0.12966638  1
  F  F13  1  0.91180596  0.83087098  0.37033362  1
  F  F14  1  0.91180596  0.66912902  0.87033362  1
  F  F15  1  0.08819404  0.16912902  0.62966638  1
  F  F16  1  0.38910345  0.91926659  0.32672201  1
  F  F17  1  0.61089655  0.41926659  0.17327799  1
  F  F18  1  0.61089655  0.08073341  0.67327799  1
  F  F19  1  0.38910345  0.58073341  0.82672201  1
  F  F20  1  0.46729777  0.15508597  0.24412093  1
  F  F21  1  0.53270223  0.65508597  0.25587907  1
  F  F22  1  0.53270223  0.84491403  0.75587907  1
  F  F23  1  0.46729777  0.34491403  0.74412093  1
  F  F24  1  0.81284265  0.39369939  0.94175472  1
  F  F25  1  0.18715735  0.89369939  0.55824528  1
  F  F26  1  0.18715735  0.60630061  0.05824528  1
  F  F27  1  0.81284265  0.10630061  0.44175472  1
  F  F28  1  0.90051012  0.15469992  0.85849288  1
  F  F29  1  0.09948988  0.65469992  0.64150712  1
  F  F30  1  0.09948988  0.84530008  0.14150712  1
  F  F31  1  0.90051012  0.34530008  0.35849288  1
  F  F32  1  0.72513266  0.17432207  0.04303303  1
  F  F33  1  0.27486734  0.67432207  0.45696697  1
  F  F34  1  0.27486734  0.82567793  0.95696697  1
  F  F35  1  0.72513266  0.32567793  0.54303303  1
  F  F36  1  0.55691485  0.93455901  0.14510112  1
  F  F37  1  0.44308515  0.43455901  0.35489888  1
  F  F38  1  0.44308515  0.06544099  0.85489888  1
  F  F39  1  0.55691485  0.56544099  0.64510112  1
  F  F40  1  0.01915899  0.07139186  0.24040047  1
  F  F41  1  0.98084101  0.57139186  0.25959953  1
  F  F42  1  0.98084101  0.92860814  0.75959953  1
  F  F43  1  0.01915899  0.42860814  0.74040047  1
  F  F44  1  0.26477020  0.31234590  0.95030392  1
  F  F45  1  0.73522980  0.81234590  0.54969608  1
  F  F46  1  0.73522980  0.68765410  0.04969608  1
  F  F47  1  0.26477020  0.18765410  0.45030392  1
