# generated using pymatgen
data_Ba2CaMgAl2F14
_symmetry_space_group_name_H-M   'P 1'
_cell_length_a   5.28404638
_cell_length_b   7.38764403
_cell_length_c   14.81682499
_cell_angle_alpha   91.79923260
_cell_angle_beta   90.00000000
_cell_angle_gamma   110.95455173
_symmetry_Int_Tables_number   1
_chemical_formula_structural   Ba2CaMgAl2F14
_chemical_formula_sum   'Ba4 Ca2 Mg2 Al4 F28'
_cell_volume   539.84111426
_cell_formula_units_Z   2
loop_
 _symmetry_equiv_pos_site_id
 _symmetry_equiv_pos_as_xyz
  1  'x, y, z'
loop_
 _atom_site_type_symbol
 _atom_site_label
 _atom_site_symmetry_multiplicity
 _atom_site_fract_x
 _atom_site_fract_y
 _atom_site_fract_z
 _atom_site_occupancy
  Ba  Ba0  1  0.84917211  0.61741804  0.38196798  1
  Ba  Ba1  1  0.23175407  0.38258196  0.11803202  1
  Ba  Ba2  1  0.15082789  0.38258196  0.61803202  1
  Ba  Ba3  1  0.76824593  0.61741804  0.88196798  1
  Ca  Ca4  1  0.56059695  0.00000000  0.25000000  1
  Ca  Ca5  1  0.43940305  0.00000000  0.75000000  1
  Al  Al6  1  0.88905085  0.76778047  0.12174441  1
  Al  Al7  1  0.12127038  0.23221953  0.37825559  1
  Al  Al8  1  0.11094915  0.23221953  0.87825559  1
  Al  Al9  1  0.87872962  0.76778047  0.62174441  1
  Mg  Mg10  1  0.50000000  0.00000000  0.00000000  1
  Mg  Mg11  1  0.50000000  0.00000000  0.50000000  1
  F  F12  1  0.80280820  0.51986806  0.07890318  1
  F  F13  1  0.28294015  0.48013194  0.42109682  1
  F  F14  1  0.19719180  0.48013194  0.92109682  1
  F  F15  1  0.71705985  0.51986806  0.57890318  1
  F  F16  1  0.89013636  0.15695927  0.97572575  1
  F  F17  1  0.73317709  0.84304073  0.52427425  1
  F  F18  1  0.10986364  0.84304073  0.02427425  1
  F  F19  1  0.26682291  0.15695927  0.47572575  1
  F  F20  1  0.17407499  0.77413932  0.55055035  1
  F  F21  1  0.39993567  0.22586068  0.94944965  1
  F  F22  1  0.82592501  0.22586068  0.44944965  1
  F  F23  1  0.60006433  0.77413932  0.05055035  1
  F  F24  1  0.94375938  0.01298193  0.15883370  1
  F  F25  1  0.93077746  0.98701807  0.34116630  1
  F  F26  1  0.05624062  0.98701807  0.84116630  1
  F  F27  1  0.06922254  0.01298193  0.65883370  1
  F  F28  1  0.03880358  0.68108396  0.71500856  1
  F  F29  1  0.35771962  0.31891604  0.78499144  1
  F  F30  1  0.96119642  0.31891604  0.28499144  1
  F  F31  1  0.64228038  0.68108396  0.21500856  1
  F  F32  1  0.84654823  0.25253626  0.80550353  1
  F  F33  1  0.59401198  0.74746374  0.69449647  1
  F  F34  1  0.15345177  0.74746374  0.19449647  1
  F  F35  1  0.40598802  0.25253626  0.30550353  1
  F  F36  1  0.38099534  0.86888163  0.38073875  1
  F  F37  1  0.51211370  0.13111837  0.11926125  1
  F  F38  1  0.61900466  0.13111837  0.61926125  1
  F  F39  1  0.48788630  0.86888163  0.88073875  1
