# generated using pymatgen
data_Ni3B7IO13
_symmetry_space_group_name_H-M   'P 1'
_cell_length_a   8.59676757
_cell_length_b   8.59676811
_cell_length_c   8.59676740
_cell_angle_alpha   59.99999495
_cell_angle_beta   59.99999281
_cell_angle_gamma   59.99999506
_symmetry_Int_Tables_number   1
_chemical_formula_structural   Ni3B7IO13
_chemical_formula_sum   'Ni6 B14 I2 O26'
_cell_volume   449.25251740
_cell_formula_units_Z   2
loop_
 _symmetry_equiv_pos_site_id
 _symmetry_equiv_pos_as_xyz
  1  'x, y, z'
loop_
 _atom_site_type_symbol
 _atom_site_label
 _atom_site_symmetry_multiplicity
 _atom_site_fract_x
 _atom_site_fract_y
 _atom_site_fract_z
 _atom_site_occupancy
  O  O0  1  0.00000000  0.00000000  0.00000000  1
  O  O1  1  0.50000000  0.50000000  0.50000000  1
  I  I2  1  0.25000000  0.25000000  0.25000000  1
  I  I3  1  0.75000000  0.75000000  0.75000000  1
  Ni  Ni4  1  0.00000000  0.00000000  0.50000000  1
  Ni  Ni5  1  0.50000000  0.00000000  0.00000000  1
  Ni  Ni6  1  0.00000000  0.50000000  0.50000000  1
  Ni  Ni7  1  0.50000000  0.00000000  0.50000000  1
  Ni  Ni8  1  0.00000000  0.50000000  0.00000000  1
  Ni  Ni9  1  0.50000000  0.50000000  0.00000000  1
  B  B10  1  0.75000000  0.25000000  0.25000000  1
  B  B11  1  0.75000000  0.75000000  0.25000000  1
  B  B12  1  0.25000000  0.25000000  0.75000000  1
  B  B13  1  0.75000000  0.25000000  0.75000000  1
  B  B14  1  0.25000000  0.75000000  0.25000000  1
  B  B15  1  0.25000000  0.75000000  0.75000000  1
  B  B16  1  0.08027046  0.08027046  0.08027046  1
  B  B17  1  0.58027046  0.58027046  0.25918963  1
  B  B18  1  0.25918963  0.58027046  0.58027046  1
  B  B19  1  0.58027046  0.25918963  0.58027046  1
  B  B20  1  0.75918963  0.08027046  0.08027046  1
  B  B21  1  0.08027046  0.75918963  0.08027046  1
  B  B22  1  0.08027046  0.08027046  0.75918963  1
  B  B23  1  0.58027046  0.58027046  0.58027046  1
  O  O24  1  0.93617788  0.25881412  0.10149462  1
  O  O25  1  0.75881412  0.60149462  0.20351337  1
  O  O26  1  0.20351337  0.43617788  0.75881412  1
  O  O27  1  0.75881412  0.20351337  0.43617788  1
  O  O28  1  0.60149462  0.43617788  0.20351337  1
  O  O29  1  0.60149462  0.20351337  0.75881412  1
  O  O30  1  0.20351337  0.60149462  0.43617788  1
  O  O31  1  0.10149462  0.93617788  0.25881412  1
  O  O32  1  0.25881412  0.10149462  0.93617788  1
  O  O33  1  0.70351337  0.93617788  0.10149462  1
  O  O34  1  0.25881412  0.70351337  0.10149462  1
  O  O35  1  0.70351337  0.25881412  0.93617788  1
  O  O36  1  0.10149462  0.25881412  0.70351337  1
  O  O37  1  0.93617788  0.10149462  0.70351337  1
  O  O38  1  0.93617788  0.70351337  0.25881412  1
  O  O39  1  0.10149462  0.70351337  0.93617788  1
  O  O40  1  0.70351337  0.10149462  0.25881412  1
  O  O41  1  0.25881412  0.93617788  0.70351337  1
  O  O42  1  0.20351337  0.75881412  0.60149462  1
  O  O43  1  0.43617788  0.20351337  0.60149462  1
  O  O44  1  0.43617788  0.75881412  0.20351337  1
  O  O45  1  0.75881412  0.43617788  0.60149462  1
  O  O46  1  0.60149462  0.75881412  0.43617788  1
  O  O47  1  0.43617788  0.60149462  0.75881412  1
