# generated using pymatgen
data_Ca3Si(ClO2)2
_symmetry_space_group_name_H-M   'P 1'
_cell_length_a   6.82217938
_cell_length_b   9.92875349
_cell_length_c   10.92655217
_cell_angle_alpha   105.71807159
_cell_angle_beta   90.00000000
_cell_angle_gamma   90.00000000
_symmetry_Int_Tables_number   1
_chemical_formula_structural   Ca3Si(ClO2)2
_chemical_formula_sum   'Ca12 Si4 Cl8 O16'
_cell_volume   712.44235061
_cell_formula_units_Z   4
loop_
 _symmetry_equiv_pos_site_id
 _symmetry_equiv_pos_as_xyz
  1  'x, y, z'
loop_
 _atom_site_type_symbol
 _atom_site_label
 _atom_site_symmetry_multiplicity
 _atom_site_fract_x
 _atom_site_fract_y
 _atom_site_fract_z
 _atom_site_occupancy
  Ca  Ca0  1  0.25872117  0.80251808  0.95410662  1
  Ca  Ca1  1  0.75872117  0.19748192  0.54589338  1
  Ca  Ca2  1  0.74127883  0.19748192  0.04589338  1
  Ca  Ca3  1  0.24127883  0.80251808  0.45410662  1
  Ca  Ca4  1  0.53882843  0.92109042  0.72815144  1
  Ca  Ca5  1  0.03882843  0.07890958  0.77184856  1
  Ca  Ca6  1  0.46117157  0.07890958  0.27184856  1
  Ca  Ca7  1  0.96117157  0.92109042  0.22815144  1
  Ca  Ca8  1  0.78342120  0.57506522  0.88895890  1
  Ca  Ca9  1  0.28342120  0.42493478  0.61104110  1
  Ca  Ca10  1  0.21657880  0.42493478  0.11104110  1
  Ca  Ca11  1  0.71657880  0.57506522  0.38895890  1
  Cl  Cl12  1  0.20121672  0.49209493  0.87535025  1
  Cl  Cl13  1  0.70121672  0.50790507  0.62464975  1
  Cl  Cl14  1  0.79878328  0.50790507  0.12464975  1
  Cl  Cl15  1  0.29878328  0.49209493  0.37535025  1
  Cl  Cl16  1  0.18212796  0.71392503  0.68115245  1
  Cl  Cl17  1  0.68212796  0.28607497  0.81884755  1
  Cl  Cl18  1  0.81787204  0.28607497  0.31884755  1
  Cl  Cl19  1  0.31787204  0.71392503  0.18115245  1
  Si  Si20  1  0.75030756  0.88098293  0.97014268  1
  Si  Si21  1  0.25030756  0.11901707  0.52985732  1
  Si  Si22  1  0.24969244  0.11901707  0.02985732  1
  Si  Si23  1  0.74969244  0.88098293  0.47014268  1
  O  O24  1  0.58310564  0.76687768  0.89629176  1
  O  O25  1  0.08310564  0.23312232  0.60370824  1
  O  O26  1  0.41689436  0.23312232  0.10370824  1
  O  O27  1  0.91689436  0.76687768  0.39629176  1
  O  O28  1  0.93148213  0.78049171  0.99447473  1
  O  O29  1  0.43148213  0.21950829  0.50552527  1
  O  O30  1  0.06851787  0.21950829  0.00552527  1
  O  O31  1  0.56851787  0.78049171  0.49447473  1
  O  O32  1  0.79821444  0.98480166  0.87924452  1
  O  O33  1  0.29821444  0.01519834  0.62075548  1
  O  O34  1  0.20178556  0.01519834  0.12075548  1
  O  O35  1  0.70178556  0.98480166  0.37924452  1
  O  O36  1  0.80728327  0.98641438  0.60990250  1
  O  O37  1  0.30728327  0.01358562  0.89009750  1
  O  O38  1  0.19271673  0.01358562  0.39009750  1
  O  O39  1  0.69271673  0.98641438  0.10990250  1
