# generated using pymatgen
data_YAlGeO5
_symmetry_space_group_name_H-M   'P 1'
_cell_length_a   5.67448952
_cell_length_b   7.32674313
_cell_length_c   8.41988512
_cell_angle_alpha   90.00000000
_cell_angle_beta   90.00000000
_cell_angle_gamma   90.00000000
_symmetry_Int_Tables_number   1
_chemical_formula_structural   YAlGeO5
_chemical_formula_sum   'Y4 Al4 Ge4 O20'
_cell_volume   350.06116204
_cell_formula_units_Z   4
loop_
 _symmetry_equiv_pos_site_id
 _symmetry_equiv_pos_as_xyz
  1  'x, y, z'
loop_
 _atom_site_type_symbol
 _atom_site_label
 _atom_site_symmetry_multiplicity
 _atom_site_fract_x
 _atom_site_fract_y
 _atom_site_fract_z
 _atom_site_occupancy
  Y  Y0  1  0.00000000  0.35725022  0.32610408  1
  Y  Y1  1  0.00000000  0.64274978  0.67389592  1
  Y  Y2  1  0.00000000  0.85725022  0.17389592  1
  Y  Y3  1  0.00000000  0.14274978  0.82610408  1
  Ge  Ge4  1  0.50000000  0.12024762  0.14426445  1
  Ge  Ge5  1  0.50000000  0.87975238  0.85573555  1
  Ge  Ge6  1  0.50000000  0.62024762  0.35573555  1
  Ge  Ge7  1  0.50000000  0.37975238  0.64426445  1
  Al  Al8  1  0.24957127  0.50000000  0.00000000  1
  Al  Al9  1  0.75042873  0.00000000  0.50000000  1
  Al  Al10  1  0.75042873  0.50000000  0.00000000  1
  Al  Al11  1  0.24957127  0.00000000  0.50000000  1
  O  O12  1  0.00000000  0.33912869  0.05323972  1
  O  O13  1  0.00000000  0.66087131  0.94676028  1
  O  O14  1  0.00000000  0.83912869  0.44676028  1
  O  O15  1  0.00000000  0.16087131  0.55323972  1
  O  O16  1  0.50000000  0.34659027  0.06891443  1
  O  O17  1  0.50000000  0.65340973  0.93108557  1
  O  O18  1  0.50000000  0.84659027  0.43108557  1
  O  O19  1  0.50000000  0.15340973  0.56891443  1
  O  O20  1  0.25326338  0.10570420  0.28738475  1
  O  O21  1  0.25326338  0.89429580  0.71261525  1
  O  O22  1  0.74673662  0.60570420  0.21261525  1
  O  O23  1  0.74673662  0.39429580  0.78738475  1
  O  O24  1  0.74673662  0.89429580  0.71261525  1
  O  O25  1  0.74673662  0.10570420  0.28738475  1
  O  O26  1  0.25326338  0.39429580  0.78738475  1
  O  O27  1  0.25326338  0.60570420  0.21261525  1
  O  O28  1  0.28515431  0.00000000  0.00000000  1
  O  O29  1  0.71484569  0.50000000  0.50000000  1
  O  O30  1  0.71484569  0.00000000  0.00000000  1
  O  O31  1  0.28515431  0.50000000  0.50000000  1
