# generated using pymatgen
data_NbTeI3
_symmetry_space_group_name_H-M   'P 1'
_cell_length_a   7.46961439
_cell_length_b   7.89781557
_cell_length_c   13.70493925
_cell_angle_alpha   90.00000000
_cell_angle_beta   100.71892692
_cell_angle_gamma   90.00000000
_symmetry_Int_Tables_number   1
_chemical_formula_structural   NbTeI3
_chemical_formula_sum   'Nb4 Te4 I12'
_cell_volume   794.39695088
_cell_formula_units_Z   4
loop_
 _symmetry_equiv_pos_site_id
 _symmetry_equiv_pos_as_xyz
  1  'x, y, z'
loop_
 _atom_site_type_symbol
 _atom_site_label
 _atom_site_symmetry_multiplicity
 _atom_site_fract_x
 _atom_site_fract_y
 _atom_site_fract_z
 _atom_site_occupancy
  I  I0  1  0.15039729  0.32602221  0.04573618  1
  I  I1  1  0.84960271  0.32602221  0.45426382  1
  I  I2  1  0.84960271  0.67397779  0.95426382  1
  I  I3  1  0.15039729  0.67397779  0.54573618  1
  I  I4  1  0.65047622  0.20839129  0.92069460  1
  I  I5  1  0.34952378  0.20839129  0.57930540  1
  I  I6  1  0.34952378  0.79160871  0.07930540  1
  I  I7  1  0.65047622  0.79160871  0.42069460  1
  I  I8  1  0.75125998  0.56111735  0.68873364  1
  I  I9  1  0.24874002  0.56111735  0.81126636  1
  I  I10  1  0.24874002  0.43888265  0.31126636  1
  I  I11  1  0.75125998  0.43888265  0.18873364  1
  Te  Te12  1  0.17079838  0.10650714  0.80581909  1
  Te  Te13  1  0.82920162  0.10650714  0.69418091  1
  Te  Te14  1  0.82920162  0.89349286  0.19418091  1
  Te  Te15  1  0.17079838  0.89349286  0.30581909  1
  Nb  Nb16  1  0.93444880  0.36254618  0.84551289  1
  Nb  Nb17  1  0.06555120  0.36254618  0.65448711  1
  Nb  Nb18  1  0.06555120  0.63745382  0.15448711  1
  Nb  Nb19  1  0.93444880  0.63745382  0.34551289  1
