# generated using pymatgen
data_Cs2AgI3
_symmetry_space_group_name_H-M   'P 1'
_cell_length_a   5.07313089
_cell_length_b   14.97168644
_cell_length_c   15.57240445
_cell_angle_alpha   90.00000000
_cell_angle_beta   90.00000000
_cell_angle_gamma   90.00000000
_symmetry_Int_Tables_number   1
_chemical_formula_structural   Cs2AgI3
_chemical_formula_sum   'Cs8 Ag4 I12'
_cell_volume   1182.77589551
_cell_formula_units_Z   4
loop_
 _symmetry_equiv_pos_site_id
 _symmetry_equiv_pos_as_xyz
  1  'x, y, z'
loop_
 _atom_site_type_symbol
 _atom_site_label
 _atom_site_symmetry_multiplicity
 _atom_site_fract_x
 _atom_site_fract_y
 _atom_site_fract_z
 _atom_site_occupancy
  Ag  Ag0  1  0.75000000  0.25272612  0.80342848  1
  Ag  Ag1  1  0.25000000  0.74727388  0.19657152  1
  Ag  Ag2  1  0.75000000  0.75272612  0.69657152  1
  Ag  Ag3  1  0.25000000  0.24727388  0.30342848  1
  I  I4  1  0.75000000  0.13465073  0.94801951  1
  I  I5  1  0.25000000  0.86534927  0.05198049  1
  I  I6  1  0.75000000  0.63465073  0.55198049  1
  I  I7  1  0.25000000  0.36534927  0.44801951  1
  I  I8  1  0.75000000  0.43626252  0.86025806  1
  I  I9  1  0.25000000  0.56373748  0.13974194  1
  I  I10  1  0.75000000  0.93626252  0.63974194  1
  I  I11  1  0.25000000  0.06373748  0.36025806  1
  I  I12  1  0.75000000  0.27648652  0.21137535  1
  I  I13  1  0.25000000  0.72351348  0.78862465  1
  I  I14  1  0.75000000  0.77648652  0.28862465  1
  I  I15  1  0.25000000  0.22351348  0.71137535  1
  Cs  Cs16  1  0.75000000  0.17389496  0.51810292  1
  Cs  Cs17  1  0.25000000  0.82610504  0.48189708  1
  Cs  Cs18  1  0.75000000  0.67389496  0.98189708  1
  Cs  Cs19  1  0.25000000  0.32610504  0.01810292  1
  Cs  Cs20  1  0.75000000  0.51294983  0.32432187  1
  Cs  Cs21  1  0.25000000  0.48705017  0.67567813  1
  Cs  Cs22  1  0.75000000  0.01294983  0.17567813  1
  Cs  Cs23  1  0.25000000  0.98705017  0.82432187  1
