# generated using pymatgen
data_ThI3
_symmetry_space_group_name_H-M   'P 1'
_cell_length_a   9.31443031
_cell_length_b   11.20549657
_cell_length_c   14.92952443
_cell_angle_alpha   90.00000000
_cell_angle_beta   90.00000000
_cell_angle_gamma   114.55829201
_symmetry_Int_Tables_number   1
_chemical_formula_structural   ThI3
_chemical_formula_sum   'Th8 I24'
_cell_volume   1417.27672382
_cell_formula_units_Z   8
loop_
 _symmetry_equiv_pos_site_id
 _symmetry_equiv_pos_as_xyz
  1  'x, y, z'
loop_
 _atom_site_type_symbol
 _atom_site_label
 _atom_site_symmetry_multiplicity
 _atom_site_fract_x
 _atom_site_fract_y
 _atom_site_fract_z
 _atom_site_occupancy
  Th  Th0  1  0.50000000  0.00000000  0.00000000  1
  Th  Th1  1  0.50000000  0.00000000  0.50000000  1
  Th  Th2  1  0.50000000  0.00000000  0.75000000  1
  Th  Th3  1  0.50000000  0.00000000  0.25000000  1
  Th  Th4  1  0.84488838  0.34471146  0.00000000  1
  Th  Th5  1  0.50017692  0.65528854  0.50000000  1
  Th  Th6  1  0.15511162  0.65528854  0.00000000  1
  Th  Th7  1  0.49982308  0.34471146  0.50000000  1
  I  I8  1  0.00000000  0.50000000  0.82076235  1
  I  I9  1  0.50000000  0.50000000  0.67923765  1
  I  I10  1  0.00000000  0.50000000  0.17923765  1
  I  I11  1  0.50000000  0.50000000  0.32076235  1
  I  I12  1  0.17959252  0.90494677  0.87106412  1
  I  I13  1  0.27464575  0.09505323  0.62893588  1
  I  I14  1  0.82040748  0.09505323  0.87106412  1
  I  I15  1  0.72535425  0.90494677  0.62893588  1
  I  I16  1  0.82040748  0.09505323  0.12893588  1
  I  I17  1  0.72535425  0.90494677  0.37106412  1
  I  I18  1  0.17959252  0.90494677  0.12893588  1
  I  I19  1  0.27464575  0.09505323  0.37106412  1
  I  I20  1  0.27505765  0.75376730  0.62721440  1
  I  I21  1  0.52129035  0.24623270  0.87278560  1
  I  I22  1  0.72494235  0.24623270  0.62721440  1
  I  I23  1  0.47870965  0.75376730  0.87278560  1
  I  I24  1  0.72494235  0.24623270  0.37278560  1
  I  I25  1  0.47870965  0.75376730  0.12721440  1
  I  I26  1  0.27505765  0.75376730  0.37278560  1
  I  I27  1  0.52129035  0.24623270  0.12721440  1
  I  I28  1  0.21055211  0.39288880  0.00000000  1
  I  I29  1  0.81766331  0.60711120  0.50000000  1
  I  I30  1  0.78944789  0.60711120  0.00000000  1
  I  I31  1  0.18233669  0.39288880  0.50000000  1
