# generated using pymatgen
data_KTh2(PO4)3
_symmetry_space_group_name_H-M   'P 1'
_cell_length_a   6.90939117
_cell_length_b   8.23383209
_cell_length_c   9.56026675
_cell_angle_alpha   101.18940782
_cell_angle_beta   111.18372687
_cell_angle_gamma   90.00000157
_symmetry_Int_Tables_number   1
_chemical_formula_structural   KTh2(PO4)3
_chemical_formula_sum   'K2 Th4 P6 O24'
_cell_volume   496.03403883
_cell_formula_units_Z   2
loop_
 _symmetry_equiv_pos_site_id
 _symmetry_equiv_pos_as_xyz
  1  'x, y, z'
loop_
 _atom_site_type_symbol
 _atom_site_label
 _atom_site_symmetry_multiplicity
 _atom_site_fract_x
 _atom_site_fract_y
 _atom_site_fract_z
 _atom_site_occupancy
  Th  Th0  1  0.94064399  0.96542448  0.69230473  1
  Th  Th1  1  0.24833926  0.53457552  0.30769527  1
  Th  Th2  1  0.05935601  0.03457552  0.30769527  1
  Th  Th3  1  0.75166074  0.46542448  0.69230473  1
  K  K4  1  0.40241370  0.75000000  1.00000000  1
  K  K5  1  0.59758630  0.25000000  0.00000000  1
  P  P6  1  0.78109477  0.68505437  0.38130024  1
  P  P7  1  0.39979453  0.81494563  0.61869976  1
  P  P8  1  0.21890523  0.31494563  0.61869976  1
  P  P9  1  0.60020547  0.18505437  0.38130024  1
  P  P10  1  0.90253143  0.75000000  0.00000000  1
  P  P11  1  0.09746857  0.25000000  1.00000000  1
  O  O12  1  0.96041160  0.75422937  0.85671029  1
  O  O13  1  0.10370130  0.74577063  0.14328971  1
  O  O14  1  0.03958840  0.24577063  0.14328971  1
  O  O15  1  0.89629870  0.25422937  0.85671029  1
  O  O16  1  0.80634429  0.90899913  0.05230175  1
  O  O17  1  0.75404254  0.59100087  0.94769825  1
  O  O18  1  0.19365571  0.09100087  0.94769825  1
  O  O19  1  0.24595746  0.40899913  0.05230175  1
  O  O20  1  0.82576342  0.67013485  0.55090930  1
  O  O21  1  0.27485412  0.82986515  0.44909070  1
  O  O22  1  0.17423658  0.32986515  0.44909070  1
  O  O23  1  0.72514588  0.17013485  0.55090930  1
  O  O24  1  0.54764240  0.65527280  0.28384438  1
  O  O25  1  0.26379802  0.84472720  0.71615562  1
  O  O26  1  0.45235760  0.34472720  0.71615562  1
  O  O27  1  0.73620198  0.15527280  0.28384438  1
  O  O28  1  0.85496714  0.87309119  0.40695340  1
  O  O29  1  0.44801373  0.62690881  0.59304660  1
  O  O30  1  0.14503286  0.12690881  0.59304660  1
  O  O31  1  0.55198627  0.37309119  0.40695340  1
  O  O32  1  0.91160277  0.57373377  0.30821958  1
  O  O33  1  0.60338318  0.92626623  0.69178042  1
  O  O34  1  0.08839723  0.42626623  0.69178042  1
  O  O35  1  0.39661682  0.07373377  0.30821958  1
