# generated using pymatgen
data_La3InS6
_symmetry_space_group_name_H-M   'P 1'
_cell_length_a   4.10100516
_cell_length_b   14.02911404
_cell_length_c   17.02189496
_cell_angle_alpha   90.00000000
_cell_angle_beta   90.00000000
_cell_angle_gamma   90.00000000
_symmetry_Int_Tables_number   1
_chemical_formula_structural   La3InS6
_chemical_formula_sum   'La12 In4 S24'
_cell_volume   979.32866716
_cell_formula_units_Z   4
loop_
 _symmetry_equiv_pos_site_id
 _symmetry_equiv_pos_as_xyz
  1  'x, y, z'
loop_
 _atom_site_type_symbol
 _atom_site_label
 _atom_site_symmetry_multiplicity
 _atom_site_fract_x
 _atom_site_fract_y
 _atom_site_fract_z
 _atom_site_occupancy
  La  La0  1  0.25506467  0.03686347  0.78018804  1
  La  La1  1  0.25506467  0.96313653  0.21981196  1
  La  La2  1  0.74493533  0.46313653  0.28018804  1
  La  La3  1  0.74493533  0.53686347  0.71981196  1
  La  La4  1  0.25898427  0.24934179  0.60951025  1
  La  La5  1  0.25898427  0.75065821  0.39048975  1
  La  La6  1  0.74101573  0.25065821  0.10951025  1
  La  La7  1  0.74101573  0.74934179  0.89048975  1
  La  La8  1  0.75886591  0.31011189  0.85712045  1
  La  La9  1  0.75886591  0.68988811  0.14287955  1
  La  La10  1  0.24113409  0.18988811  0.35712045  1
  La  La11  1  0.24113409  0.81011189  0.64287955  1
  In  In12  1  0.75359883  -0.00000000  0.50000000  1
  In  In13  1  0.24640117  0.50000000  0.00000000  1
  In  In14  1  0.41319550  0.50000000  0.50000000  1
  In  In15  1  0.58680450  -0.00000000  0.00000000  1
  S  S16  1  0.76582124  0.39799659  0.58777038  1
  S  S17  1  0.76582124  0.60200341  0.41222962  1
  S  S18  1  0.23417876  0.10200341  0.08777038  1
  S  S19  1  0.23417876  0.89799659  0.91222962  1
  S  S20  1  0.24885588  0.31354468  0.98274761  1
  S  S21  1  0.24885588  0.68645532  0.01725239  1
  S  S22  1  0.75114412  0.18645532  0.48274761  1
  S  S23  1  0.75114412  0.81354468  0.51725239  1
  S  S24  1  0.75465269  0.10807023  0.89264871  1
  S  S25  1  0.75465269  0.89192977  0.10735129  1
  S  S26  1  0.24534731  0.39192977  0.39264871  1
  S  S27  1  0.24534731  0.60807023  0.60735129  1
  S  S28  1  0.75855642  0.17720573  0.71708811  1
  S  S29  1  0.75855642  0.82279427  0.28291189  1
  S  S30  1  0.24144358  0.32279427  0.21708811  1
  S  S31  1  0.24144358  0.67720573  0.78291189  1
  S  S32  1  0.25072660  0.38696660  0.75546172  1
  S  S33  1  0.25072660  0.61303340  0.24453828  1
  S  S34  1  0.74927340  0.11303340  0.25546172  1
  S  S35  1  0.74927340  0.88696660  0.74453828  1
  S  S36  1  0.25327832  0.01999091  0.60254744  1
  S  S37  1  0.25327832  0.98000909  0.39745256  1
  S  S38  1  0.74672168  0.48000909  0.10254744  1
  S  S39  1  0.74672168  0.51999091  0.89745256  1
