# generated using pymatgen
data_Li3FeOF3
_symmetry_space_group_name_H-M   'P 1'
_cell_length_a   6.01668245
_cell_length_b   6.03173765
_cell_length_c   5.95722675
_cell_angle_alpha   60.40780420
_cell_angle_beta   60.32634490
_cell_angle_gamma   58.98107263
_symmetry_Int_Tables_number   1
_chemical_formula_structural   Li3FeOF3
_chemical_formula_sum   'Li6 Fe2 O2 F6'
_cell_volume   152.48375418
_cell_formula_units_Z   2
loop_
 _symmetry_equiv_pos_site_id
 _symmetry_equiv_pos_as_xyz
  1  'x, y, z'
loop_
 _atom_site_type_symbol
 _atom_site_label
 _atom_site_symmetry_multiplicity
 _atom_site_fract_x
 _atom_site_fract_y
 _atom_site_fract_z
 _atom_site_occupancy
  Li  Li0  1  0.50000000  -0.00000000  0.00000000  1
  Li  Li1  1  0.50000000  -0.00000000  0.50000000  1
  Li  Li2  1  -0.00000000  0.50000000  0.00000000  1
  Li  Li3  1  0.50000000  0.50000000  0.00000000  1
  Li  Li4  1  -0.00000000  0.50000000  0.50000000  1
  Li  Li5  1  0.50000000  0.50000000  0.50000000  1
  Fe  Fe6  1  -0.00000000  -0.00000000  0.00000000  1
  Fe  Fe7  1  -0.00000000  -0.00000000  0.50000000  1
  O  O8  1  0.78200185  0.22067160  0.74866277  1
  O  O9  1  0.21799815  0.77932840  0.25133723  1
  F  F10  1  0.72877066  0.28198284  0.24462375  1
  F  F11  1  0.26181295  0.25632425  0.24169006  1
  F  F12  1  0.73818705  0.74367575  0.25982826  1
  F  F13  1  0.26181295  0.25632425  0.74017174  1
  F  F14  1  0.73818705  0.74367575  0.75830994  1
  F  F15  1  0.27122934  0.71801716  0.75537625  1
