# generated using pymatgen
data_UPCl10
_symmetry_space_group_name_H-M   'P 1'
_cell_length_a   7.43380645
_cell_length_b   7.77501250
_cell_length_c   14.36705169
_cell_angle_alpha   91.08526443
_cell_angle_beta   91.08883006
_cell_angle_gamma   105.64867099
_symmetry_Int_Tables_number   1
_chemical_formula_structural   UPCl10
_chemical_formula_sum   'U2 P2 Cl20'
_cell_volume   799.21250611
_cell_formula_units_Z   2
loop_
 _symmetry_equiv_pos_site_id
 _symmetry_equiv_pos_as_xyz
  1  'x, y, z'
loop_
 _atom_site_type_symbol
 _atom_site_label
 _atom_site_symmetry_multiplicity
 _atom_site_fract_x
 _atom_site_fract_y
 _atom_site_fract_z
 _atom_site_occupancy
  U  U0  1  0.00000000  0.00000000  0.00000000  1
  U  U1  1  0.00000000  0.00000000  0.50000000  1
  Cl  Cl2  1  0.23864313  0.83952003  0.94690461  1
  Cl  Cl3  1  0.76135687  0.16047997  0.05309539  1
  Cl  Cl4  1  0.76754908  0.70005405  0.02405298  1
  Cl  Cl5  1  0.23245092  0.29994595  0.97594702  1
  Cl  Cl6  1  0.88554056  0.99647014  0.83310811  1
  Cl  Cl7  1  0.11445944  0.00352986  0.16689189  1
  Cl  Cl8  1  0.86642444  0.17688844  0.38350338  1
  Cl  Cl9  1  0.13357556  0.82311156  0.61649662  1
  Cl  Cl10  1  0.31084053  0.08065298  0.41962296  1
  Cl  Cl11  1  0.68915947  0.91934702  0.58037704  1
  Cl  Cl12  1  0.88693205  0.71840509  0.39776319  1
  Cl  Cl13  1  0.11306795  0.28159491  0.60223681  1
  Cl  Cl14  1  0.14169658  0.52333376  0.19560420  1
  Cl  Cl15  1  0.85830342  0.47666624  0.80439580  1
  Cl  Cl16  1  0.52551396  0.82605005  0.22632363  1
  Cl  Cl17  1  0.47448604  0.17394995  0.77367637  1
  Cl  Cl18  1  0.52158320  0.41559058  0.22743881  1
  Cl  Cl19  1  0.47841680  0.58440942  0.77256119  1
  Cl  Cl20  1  0.34404705  0.58409073  0.39576564  1
  Cl  Cl21  1  0.65595295  0.41590927  0.60423436  1
  P  P22  1  0.38320565  0.58781732  0.26170860  1
  P  P23  1  0.61679435  0.41218268  0.73829140  1
