# generated using pymatgen
data_Nb4CrSe8
_symmetry_space_group_name_H-M   'P 1'
_cell_length_a   6.97909819
_cell_length_b   6.97909819
_cell_length_c   13.83574717
_cell_angle_alpha   90.00000000
_cell_angle_beta   90.00000000
_cell_angle_gamma   120.00000003
_symmetry_Int_Tables_number   1
_chemical_formula_structural   Nb4CrSe8
_chemical_formula_sum   'Nb8 Cr2 Se16'
_cell_volume   583.62228437
_cell_formula_units_Z   2
loop_
 _symmetry_equiv_pos_site_id
 _symmetry_equiv_pos_as_xyz
  1  'x, y, z'
loop_
 _atom_site_type_symbol
 _atom_site_label
 _atom_site_symmetry_multiplicity
 _atom_site_fract_x
 _atom_site_fract_y
 _atom_site_fract_z
 _atom_site_occupancy
  Cr  Cr0  1  0.00000000  0.00000000  0.25000000  1
  Cr  Cr1  1  0.00000000  0.00000000  0.75000000  1
  Se  Se2  1  0.83260787  0.16739213  0.87680946  1
  Se  Se3  1  0.16739213  0.83260787  0.37680946  1
  Se  Se4  1  0.16739213  0.33478426  0.37680946  1
  Se  Se5  1  0.66521574  0.83260787  0.37680946  1
  Se  Se6  1  0.33478426  0.16739213  0.87680946  1
  Se  Se7  1  0.83260787  0.66521574  0.62319054  1
  Se  Se8  1  0.33333333  0.66666667  0.87905219  1
  Se  Se9  1  0.83260787  0.66521574  0.87680946  1
  Se  Se10  1  0.33333333  0.66666667  0.62094781  1
  Se  Se11  1  0.66666667  0.33333333  0.12094781  1
  Se  Se12  1  0.66666667  0.33333333  0.37905219  1
  Se  Se13  1  0.16739213  0.33478426  0.12319054  1
  Se  Se14  1  0.66521574  0.83260787  0.12319054  1
  Se  Se15  1  0.83260787  0.16739213  0.62319054  1
  Se  Se16  1  0.33478426  0.16739213  0.62319054  1
  Se  Se17  1  0.16739213  0.83260787  0.12319054  1
  Nb  Nb18  1  0.00000000  0.00000000  0.00000000  1
  Nb  Nb19  1  0.50000000  0.00000000  0.50000000  1
  Nb  Nb20  1  0.50000000  0.50000000  0.00000000  1
  Nb  Nb21  1  0.00000000  0.50000000  0.00000000  1
  Nb  Nb22  1  0.00000000  0.50000000  0.50000000  1
  Nb  Nb23  1  0.50000000  0.50000000  0.50000000  1
  Nb  Nb24  1  0.50000000  0.00000000  0.00000000  1
  Nb  Nb25  1  0.00000000  0.00000000  0.50000000  1
