# generated using pymatgen
data_Na2Li3GaO4
_symmetry_space_group_name_H-M   'P 1'
_cell_length_a   6.59212367
_cell_length_b   8.03495616
_cell_length_c   8.34437549
_cell_angle_alpha   90.00000000
_cell_angle_beta   90.00000000
_cell_angle_gamma   90.00000000
_symmetry_Int_Tables_number   1
_chemical_formula_structural   Na2Li3GaO4
_chemical_formula_sum   'Na8 Li12 Ga4 O16'
_cell_volume   441.98008035
_cell_formula_units_Z   4
loop_
 _symmetry_equiv_pos_site_id
 _symmetry_equiv_pos_as_xyz
  1  'x, y, z'
loop_
 _atom_site_type_symbol
 _atom_site_label
 _atom_site_symmetry_multiplicity
 _atom_site_fract_x
 _atom_site_fract_y
 _atom_site_fract_z
 _atom_site_occupancy
  Ga  Ga0  1  0.00000000  0.77458789  0.87439213  1
  Ga  Ga1  1  0.00000000  0.22541211  0.12560787  1
  Ga  Ga2  1  0.50000000  0.27458789  0.62560787  1
  Ga  Ga3  1  0.50000000  0.72541211  0.37439213  1
  Na  Na4  1  0.00000000  0.25942188  0.75457035  1
  Na  Na5  1  0.00000000  0.74057812  0.24542965  1
  Na  Na6  1  0.50000000  0.75942188  0.74542965  1
  Na  Na7  1  0.50000000  0.24057812  0.25457035  1
  Na  Na8  1  0.74159707  0.50000000  0.00000000  1
  Na  Na9  1  0.75840293  0.00000000  0.50000000  1
  Na  Na10  1  0.25840293  0.50000000  0.00000000  1
  Na  Na11  1  0.24159707  0.00000000  0.50000000  1
  O  O12  1  0.00000000  0.56409784  0.77400706  1
  O  O13  1  0.00000000  0.43590216  0.22599294  1
  O  O14  1  0.50000000  0.06409784  0.72599294  1
  O  O15  1  0.50000000  0.93590216  0.27400706  1
  O  O16  1  0.75873271  0.80304717  0.98812172  1
  O  O17  1  0.75873271  0.19695283  0.01187828  1
  O  O18  1  0.74126729  0.30304717  0.51187828  1
  O  O19  1  0.74126729  0.69695283  0.48812172  1
  O  O20  1  0.24126729  0.19695283  0.01187828  1
  O  O21  1  0.24126729  0.80304717  0.98812172  1
  O  O22  1  0.25873271  0.69695283  0.48812172  1
  O  O23  1  0.25873271  0.30304717  0.51187828  1
  O  O24  1  0.00000000  0.95104021  0.72160508  1
  O  O25  1  0.00000000  0.04895979  0.27839492  1
  O  O26  1  0.50000000  0.45104021  0.77839492  1
  O  O27  1  0.50000000  0.54895979  0.22160508  1
  Li  Li28  1  0.75474365  0.48461114  0.35216662  1
  Li  Li29  1  0.75474365  0.51538886  0.64783338  1
  Li  Li30  1  0.74525635  0.98461114  0.14783338  1
  Li  Li31  1  0.74525635  0.01538886  0.85216662  1
  Li  Li32  1  0.24525635  0.51538886  0.64783338  1
  Li  Li33  1  0.24525635  0.48461114  0.35216662  1
  Li  Li34  1  0.25474365  0.01538886  0.85216662  1
  Li  Li35  1  0.25474365  0.98461114  0.14783338  1
  Li  Li36  1  0.00000000  0.26483125  0.41805715  1
  Li  Li37  1  0.00000000  0.73516875  0.58194285  1
  Li  Li38  1  0.50000000  0.76483125  0.08194285  1
  Li  Li39  1  0.50000000  0.23516875  0.91805715  1
