# generated using pymatgen
data_KDy2Cl7
_symmetry_space_group_name_H-M   'P 1'
_cell_length_a   6.96294508
_cell_length_b   12.63329886
_cell_length_c   13.43414242
_cell_angle_alpha   90.00000000
_cell_angle_beta   90.73283511
_cell_angle_gamma   90.00000000
_symmetry_Int_Tables_number   1
_chemical_formula_structural   KDy2Cl7
_chemical_formula_sum   'K4 Dy8 Cl28'
_cell_volume   1181.63722144
_cell_formula_units_Z   4
loop_
 _symmetry_equiv_pos_site_id
 _symmetry_equiv_pos_as_xyz
  1  'x, y, z'
loop_
 _atom_site_type_symbol
 _atom_site_label
 _atom_site_symmetry_multiplicity
 _atom_site_fract_x
 _atom_site_fract_y
 _atom_site_fract_z
 _atom_site_occupancy
  K  K0  1  0.25859876  0.79936331  0.96330112  1
  K  K1  1  0.74140124  0.29936331  0.53669888  1
  K  K2  1  0.74140124  0.20063669  0.03669888  1
  K  K3  1  0.25859876  0.70063669  0.46330112  1
  Dy  Dy4  1  0.22691080  0.15924820  0.75254604  1
  Dy  Dy5  1  0.77308920  0.65924820  0.74745396  1
  Dy  Dy6  1  0.77308920  0.84075180  0.24745396  1
  Dy  Dy7  1  0.22691080  0.34075180  0.25254604  1
  Dy  Dy8  1  0.27510816  0.46188656  0.76242359  1
  Dy  Dy9  1  0.72489184  0.96188656  0.73757641  1
  Dy  Dy10  1  0.72489184  0.53811344  0.23757641  1
  Dy  Dy11  1  0.27510816  0.03811344  0.26242359  1
  Cl  Cl12  1  0.24621600  0.31366565  0.61041621  1
  Cl  Cl13  1  0.75378400  0.81366565  0.88958379  1
  Cl  Cl14  1  0.75378400  0.68633435  0.38958379  1
  Cl  Cl15  1  0.24621600  0.18633435  0.11041621  1
  Cl  Cl16  1  0.49658097  0.29660248  0.82528552  1
  Cl  Cl17  1  0.50341903  0.79660248  0.67471448  1
  Cl  Cl18  1  0.50341903  0.70339752  0.17471448  1
  Cl  Cl19  1  0.49658097  0.20339752  0.32528552  1
  Cl  Cl20  1  0.01459929  0.32066034  0.82587659  1
  Cl  Cl21  1  0.98540071  0.82066034  0.67412341  1
  Cl  Cl22  1  0.98540071  0.67933966  0.17412341  1
  Cl  Cl23  1  0.01459929  0.17933966  0.32587659  1
  Cl  Cl24  1  0.47780931  0.07442298  0.62292160  1
  Cl  Cl25  1  0.52219069  0.57442298  0.87707840  1
  Cl  Cl26  1  0.52219069  0.92557702  0.37707840  1
  Cl  Cl27  1  0.47780931  0.42557702  0.12292160  1
  Cl  Cl28  1  0.95670622  0.08779161  0.62395991  1
  Cl  Cl29  1  0.04329378  0.58779161  0.87604009  1
  Cl  Cl30  1  0.04329378  0.91220839  0.37604009  1
  Cl  Cl31  1  0.95670622  0.41220839  0.12395991  1
  Cl  Cl32  1  0.44650443  0.02543755  0.86530977  1
  Cl  Cl33  1  0.55349557  0.52543755  0.63469023  1
  Cl  Cl34  1  0.55349557  0.97456245  0.13469023  1
  Cl  Cl35  1  0.44650443  0.47456245  0.36530977  1
  Cl  Cl36  1  0.96526709  0.05706878  0.86959780  1
  Cl  Cl37  1  0.03473291  0.55706878  0.63040220  1
  Cl  Cl38  1  0.03473291  0.94293122  0.13040220  1
  Cl  Cl39  1  0.96526709  0.44293122  0.36959780  1
