# generated using pymatgen
data_Ba3SrTa2O9
_symmetry_space_group_name_H-M   'P 1'
_cell_length_a   6.15079966
_cell_length_b   6.15079966
_cell_length_c   15.61389024
_cell_angle_alpha   90.00000000
_cell_angle_beta   90.00000000
_cell_angle_gamma   120.00000001
_symmetry_Int_Tables_number   1
_chemical_formula_structural   Ba3SrTa2O9
_chemical_formula_sum   'Ba6 Sr2 Ta4 O18'
_cell_volume   511.56982216
_cell_formula_units_Z   2
loop_
 _symmetry_equiv_pos_site_id
 _symmetry_equiv_pos_as_xyz
  1  'x, y, z'
loop_
 _atom_site_type_symbol
 _atom_site_label
 _atom_site_symmetry_multiplicity
 _atom_site_fract_x
 _atom_site_fract_y
 _atom_site_fract_z
 _atom_site_occupancy
  Ba  Ba0  1  0.00000000  0.00000000  0.25000000  1
  Ba  Ba1  1  0.00000000  0.00000000  0.75000000  1
  Ba  Ba2  1  0.33333300  0.66666700  0.11916890  1
  Ba  Ba3  1  0.66666700  0.33333300  0.61916890  1
  Ba  Ba4  1  0.66666700  0.33333300  0.88083110  1
  Ba  Ba5  1  0.33333300  0.66666700  0.38083110  1
  Sr  Sr6  1  0.00000000  0.00000000  0.00000000  1
  Sr  Sr7  1  0.00000000  0.00000000  0.50000000  1
  Ta  Ta8  1  0.33333300  0.66666700  0.84552076  1
  Ta  Ta9  1  0.66666700  0.33333300  0.34552076  1
  Ta  Ta10  1  0.66666700  0.33333300  0.15447924  1
  Ta  Ta11  1  0.33333300  0.66666700  0.65447924  1
  O  O12  1  0.57046580  0.04559700  0.25000000  1
  O  O13  1  0.52486880  0.57046580  0.75000000  1
  O  O14  1  0.04559700  0.47513120  0.75000000  1
  O  O15  1  0.95440300  0.52486880  0.25000000  1
  O  O16  1  0.47513120  0.42953420  0.25000000  1
  O  O17  1  0.42953420  0.95440300  0.75000000  1
  O  O18  1  0.75875789  0.64400646  0.09812489  1
  O  O19  1  0.11475143  0.75875789  0.59812489  1
  O  O20  1  0.64400646  0.88524857  0.59812489  1
  O  O21  1  0.35599354  0.11475143  0.09812489  1
  O  O22  1  0.88524857  0.24124211  0.09812489  1
  O  O23  1  0.24124211  0.35599354  0.59812489  1
  O  O24  1  0.24124211  0.35599354  0.90187511  1
  O  O25  1  0.88524857  0.24124211  0.40187511  1
  O  O26  1  0.35599354  0.11475143  0.40187511  1
  O  O27  1  0.64400646  0.88524857  0.90187511  1
  O  O28  1  0.11475143  0.75875789  0.90187511  1
  O  O29  1  0.75875789  0.64400646  0.40187511  1
