# generated using pymatgen
data_Ti(TlSe)4
_symmetry_space_group_name_H-M   'P 1'
_cell_length_a   8.69324387
_cell_length_b   8.78125667
_cell_length_c   16.31243505
_cell_angle_alpha   104.88345757
_cell_angle_beta   90.00000000
_cell_angle_gamma   90.00000000
_symmetry_Int_Tables_number   1
_chemical_formula_structural   Ti(TlSe)4
_chemical_formula_sum   'Ti4 Tl16 Se16'
_cell_volume   1203.47436854
_cell_formula_units_Z   4
loop_
 _symmetry_equiv_pos_site_id
 _symmetry_equiv_pos_as_xyz
  1  'x, y, z'
loop_
 _atom_site_type_symbol
 _atom_site_label
 _atom_site_symmetry_multiplicity
 _atom_site_fract_x
 _atom_site_fract_y
 _atom_site_fract_z
 _atom_site_occupancy
  Tl  Tl0  1  0.71927489  0.38790748  0.36166229  1
  Tl  Tl1  1  0.21927489  0.61209252  0.13833771  1
  Tl  Tl2  1  0.28072511  0.61209252  0.63833771  1
  Tl  Tl3  1  0.78072511  0.38790748  0.86166229  1
  Tl  Tl4  1  0.89868081  0.81943616  0.37686430  1
  Tl  Tl5  1  0.39868081  0.18056384  0.12313570  1
  Tl  Tl6  1  0.10131919  0.18056384  0.62313570  1
  Tl  Tl7  1  0.60131919  0.81943616  0.87686430  1
  Tl  Tl8  1  0.31725399  0.58897345  0.39021085  1
  Tl  Tl9  1  0.81725399  0.41102655  0.10978915  1
  Tl  Tl10  1  0.68274601  0.41102655  0.60978915  1
  Tl  Tl11  1  0.18274601  0.58897345  0.89021085  1
  Tl  Tl12  1  0.49382780  0.97023812  0.36685700  1
  Tl  Tl13  1  0.99382780  0.02976188  0.13314300  1
  Tl  Tl14  1  0.50617220  0.02976188  0.63314300  1
  Tl  Tl15  1  0.00617220  0.97023812  0.86685700  1
  Ti  Ti16  1  0.88847764  0.79136347  0.62283945  1
  Ti  Ti17  1  0.38847764  0.20863653  0.87716055  1
  Ti  Ti18  1  0.11152236  0.20863653  0.37716055  1
  Ti  Ti19  1  0.61152236  0.79136347  0.12283945  1
  Se  Se20  1  0.11095485  0.81787040  0.53819004  1
  Se  Se21  1  0.61095485  0.18212960  0.96180996  1
  Se  Se22  1  0.88904515  0.18212960  0.46180996  1
  Se  Se23  1  0.38904515  0.81787040  0.03819004  1
  Se  Se24  1  0.66800205  0.70261977  0.53555797  1
  Se  Se25  1  0.16800205  0.29738023  0.96444203  1
  Se  Se26  1  0.33199795  0.29738023  0.46444203  1
  Se  Se27  1  0.83199795  0.70261977  0.03555797  1
  Se  Se28  1  0.94698564  0.61088581  0.70706171  1
  Se  Se29  1  0.44698564  0.38911419  0.79293829  1
  Se  Se30  1  0.05301436  0.38911419  0.29293829  1
  Se  Se31  1  0.55301436  0.61088581  0.20706171  1
  Se  Se32  1  0.83126731  0.04889817  0.71348171  1
  Se  Se33  1  0.33126731  0.95110183  0.78651829  1
  Se  Se34  1  0.16873269  0.95110183  0.28651829  1
  Se  Se35  1  0.66873269  0.04889817  0.21348171  1
