# generated using pymatgen
data_Li3Co8(OF3)4
_symmetry_space_group_name_H-M   'P 1'
_cell_length_a   6.08188664
_cell_length_b   10.30984127
_cell_length_c   6.11675450
_cell_angle_alpha   106.91011143
_cell_angle_beta   60.25391088
_cell_angle_gamma   107.20983190
_symmetry_Int_Tables_number   1
_chemical_formula_structural   Li3Co8(OF3)4
_chemical_formula_sum   'Li3 Co8 O4 F12'
_cell_volume   313.25688619
_cell_formula_units_Z   1
loop_
 _symmetry_equiv_pos_site_id
 _symmetry_equiv_pos_as_xyz
  1  'x, y, z'
loop_
 _atom_site_type_symbol
 _atom_site_label
 _atom_site_symmetry_multiplicity
 _atom_site_fract_x
 _atom_site_fract_y
 _atom_site_fract_z
 _atom_site_occupancy
  Li  Li0  1  0.99965156  0.99505899  0.99515525  1
  Li  Li1  1  0.81447425  0.43504695  0.80395030  1
  Li  Li2  1  0.19315369  0.56637428  0.17945340  1
  Co  Co3  1  0.00612834  0.99041841  0.50583589  1
  Co  Co4  1  0.48186864  0.99111490  0.50543268  1
  Co  Co5  1  0.26054396  0.26040404  0.25272465  1
  Co  Co6  1  0.25193959  0.26548583  0.76350635  1
  Co  Co7  1  0.74870771  0.26003393  0.25109971  1
  Co  Co8  1  0.25942594  0.75516001  0.73726373  1
  Co  Co9  1  0.75780775  0.75433261  0.73619022  1
  Co  Co10  1  0.74169326  0.73669962  0.25045398  1
  O  O11  1  0.35779319  0.14328090  0.43059840  1
  O  O12  1  0.12596913  0.35004680  0.09941236  1
  O  O13  1  0.11793087  0.87904677  0.64335008  1
  O  O14  1  0.64283672  0.87071528  0.58554239  1
  F  F15  1  0.34999461  0.12726522  0.88080896  1
  F  F16  1  0.89777335  0.12778853  0.87927770  1
  F  F17  1  0.88153308  0.11691858  0.35531613  1
  F  F18  1  0.12419048  0.36419757  0.62253574  1
  F  F19  1  0.62495397  0.36118805  0.11164204  1
  F  F20  1  0.61926399  0.36483170  0.62016102  1
  F  F21  1  0.38673010  0.65090656  0.87545313  1
  F  F22  1  0.37384156  0.63064594  0.38124478  1
  F  F23  1  0.87739471  0.63191124  0.87398990  1
  F  F24  1  0.87392540  0.63045214  0.37941343  1
  F  F25  1  0.10109266  0.87543813  0.12110648  1
  F  F26  1  0.65372849  0.87496304  0.11968630  1
