# generated using pymatgen
data_LiReO4
_symmetry_space_group_name_H-M   'P 1'
_cell_length_a   7.04896293
_cell_length_b   8.61973454
_cell_length_c   9.87723826
_cell_angle_alpha   97.32880201
_cell_angle_beta   106.37528897
_cell_angle_gamma   101.57591120
_symmetry_Int_Tables_number   1
_chemical_formula_structural   LiReO4
_chemical_formula_sum   'Li6 Re6 O24'
_cell_volume   553.15600957
_cell_formula_units_Z   6
loop_
 _symmetry_equiv_pos_site_id
 _symmetry_equiv_pos_as_xyz
  1  'x, y, z'
loop_
 _atom_site_type_symbol
 _atom_site_label
 _atom_site_symmetry_multiplicity
 _atom_site_fract_x
 _atom_site_fract_y
 _atom_site_fract_z
 _atom_site_occupancy
  Re  Re0  1  0.79655562  0.90284098  0.65933292  1
  Re  Re1  1  0.20344438  0.09715902  0.34066708  1
  Re  Re2  1  0.99299730  0.50422623  0.74428226  1
  Re  Re3  1  0.00700270  0.49577377  0.25571774  1
  Re  Re4  1  0.47945820  0.20676004  0.87712891  1
  Re  Re5  1  0.52054180  0.79323996  0.12287109  1
  O  O6  1  0.93320888  0.79841552  0.57376762  1
  O  O7  1  0.06679112  0.20158448  0.42623238  1
  O  O8  1  0.14033655  0.37286149  0.18125506  1
  O  O9  1  0.85966345  0.62713851  0.81874494  1
  O  O10  1  0.73061579  0.19627736  0.95555458  1
  O  O11  1  0.26938421  0.80372264  0.04444542  1
  O  O12  1  0.95521756  0.63908618  0.15032277  1
  O  O13  1  0.04478244  0.36091382  0.84967723  1
  O  O14  1  0.25158453  0.93738131  0.42513329  1
  O  O15  1  0.74841547  0.06261869  0.57486671  1
  O  O16  1  0.77436329  0.37888562  0.26115052  1
  O  O17  1  0.22563671  0.62111438  0.73884948  1
  O  O18  1  0.94150097  0.97855078  0.84147228  1
  O  O19  1  0.05849903  0.02144922  0.15852772  1
  O  O20  1  0.51678021  0.62640873  0.20789867  1
  O  O21  1  0.48321979  0.37359127  0.79210133  1
  O  O22  1  0.65337446  0.97081348  0.24916443  1
  O  O23  1  0.34662554  0.02918652  0.75083557  1
  O  O24  1  0.15929331  0.59535275  0.42826903  1
  O  O25  1  0.84070669  0.40464725  0.57173097  1
  O  O26  1  0.36615152  0.23100469  0.01425817  1
  O  O27  1  0.63384848  0.76899531  0.98574183  1
  O  O28  1  0.56032708  0.77473996  0.64704077  1
  O  O29  1  0.43967292  0.22526004  0.35295923  1
  Li  Li30  1  0.53254872  0.61367465  0.78380081  1
  Li  Li31  1  0.46745128  0.38632535  0.21619919  1
  Li  Li32  1  0.03807469  0.19369465  0.98971296  1
  Li  Li33  1  0.96192531  0.80630535  0.01028704  1
  Li  Li34  1  0.24877527  0.80374353  0.58852732  1
  Li  Li35  1  0.75122473  0.19625647  0.41147268  1
