# generated using pymatgen
data_Na2Sr(PO3)4
_symmetry_space_group_name_H-M   'P 1'
_cell_length_a   5.05621171
_cell_length_b   9.97358832
_cell_length_c   9.97358832
_cell_angle_alpha   90.00000000
_cell_angle_beta   90.00000000
_cell_angle_gamma   90.00000000
_symmetry_Int_Tables_number   1
_chemical_formula_structural   Na2Sr(PO3)4
_chemical_formula_sum   'Na4 Sr2 P8 O24'
_cell_volume   502.95383718
_cell_formula_units_Z   2
loop_
 _symmetry_equiv_pos_site_id
 _symmetry_equiv_pos_as_xyz
  1  'x, y, z'
loop_
 _atom_site_type_symbol
 _atom_site_label
 _atom_site_symmetry_multiplicity
 _atom_site_fract_x
 _atom_site_fract_y
 _atom_site_fract_z
 _atom_site_occupancy
  Sr  Sr0  1  0.50000000  0.25000000  0.25000000  1
  Sr  Sr1  1  0.50000000  0.75000000  0.75000000  1
  P  P2  1  0.00000000  0.53788794  0.25000000  1
  P  P3  1  0.00000000  0.25000000  0.53788794  1
  P  P4  1  0.00000000  0.25000000  0.96211206  1
  P  P5  1  0.00000000  0.96211206  0.25000000  1
  P  P6  1  0.00000000  0.46211206  0.75000000  1
  P  P7  1  0.00000000  0.75000000  0.46211206  1
  P  P8  1  0.00000000  0.75000000  0.03788794  1
  P  P9  1  0.00000000  0.03788794  0.75000000  1
  Na  Na10  1  0.50000000  0.00000000  0.00000000  1
  Na  Na11  1  0.50000000  0.50000000  0.00000000  1
  Na  Na12  1  0.50000000  0.00000000  0.50000000  1
  Na  Na13  1  0.50000000  0.50000000  0.50000000  1
  O  O14  1  0.13042287  0.64011621  0.35988379  1
  O  O15  1  0.13042287  0.14011621  0.64011621  1
  O  O16  1  0.13042287  0.35988379  0.85988379  1
  O  O17  1  0.13042287  0.85988379  0.14011621  1
  O  O18  1  0.86957713  0.64011621  0.14011621  1
  O  O19  1  0.86957713  0.85988379  0.35988379  1
  O  O20  1  0.86957713  0.35988379  0.64011621  1
  O  O21  1  0.86957713  0.14011621  0.85988379  1
  O  O22  1  0.22817858  0.18941807  0.03627603  1
  O  O23  1  0.22817858  0.46372397  0.18941807  1
  O  O24  1  0.22817858  0.03627603  0.31058193  1
  O  O25  1  0.22817858  0.31058193  0.46372397  1
  O  O26  1  0.77182142  0.18941807  0.46372397  1
  O  O27  1  0.77182142  0.31058193  0.03627603  1
  O  O28  1  0.77182142  0.03627603  0.18941807  1
  O  O29  1  0.77182142  0.46372397  0.31058193  1
  O  O30  1  0.77182142  0.81058193  0.96372397  1
  O  O31  1  0.77182142  0.53627603  0.81058193  1
  O  O32  1  0.77182142  0.96372397  0.68941807  1
  O  O33  1  0.77182142  0.68941807  0.53627603  1
  O  O34  1  0.22817858  0.81058193  0.53627603  1
  O  O35  1  0.22817858  0.68941807  0.96372397  1
  O  O36  1  0.22817858  0.96372397  0.81058193  1
  O  O37  1  0.22817858  0.53627603  0.68941807  1
