# generated using pymatgen
data_Ti(TlS)4
_symmetry_space_group_name_H-M   'P 1'
_cell_length_a   8.45291645
_cell_length_b   8.56161757
_cell_length_c   15.84343101
_cell_angle_alpha   105.67085725
_cell_angle_beta   90.00000000
_cell_angle_gamma   90.00000000
_symmetry_Int_Tables_number   1
_chemical_formula_structural   Ti(TlS)4
_chemical_formula_sum   'Ti4 Tl16 S16'
_cell_volume   1103.97926775
_cell_formula_units_Z   4
loop_
 _symmetry_equiv_pos_site_id
 _symmetry_equiv_pos_as_xyz
  1  'x, y, z'
loop_
 _atom_site_type_symbol
 _atom_site_label
 _atom_site_symmetry_multiplicity
 _atom_site_fract_x
 _atom_site_fract_y
 _atom_site_fract_z
 _atom_site_occupancy
  Tl  Tl0  1  0.72303469  0.38501831  0.35867588  1
  Tl  Tl1  1  0.22303469  0.61498169  0.14132412  1
  Tl  Tl2  1  0.27696531  0.61498169  0.64132412  1
  Tl  Tl3  1  0.77696531  0.38501831  0.85867588  1
  Tl  Tl4  1  0.90105305  0.82254050  0.37695665  1
  Tl  Tl5  1  0.40105305  0.17745950  0.12304335  1
  Tl  Tl6  1  0.09894695  0.17745950  0.62304335  1
  Tl  Tl7  1  0.59894695  0.82254050  0.87695665  1
  Tl  Tl8  1  0.31663393  0.58702163  0.39168196  1
  Tl  Tl9  1  0.81663393  0.41297837  0.10831804  1
  Tl  Tl10  1  0.68336607  0.41297837  0.60831804  1
  Tl  Tl11  1  0.18336607  0.58702163  0.89168196  1
  Tl  Tl12  1  0.49183582  0.97371569  0.36675537  1
  Tl  Tl13  1  0.99183582  0.02628431  0.13324463  1
  Tl  Tl14  1  0.50816418  0.02628431  0.63324463  1
  Tl  Tl15  1  0.00816418  0.97371569  0.86675537  1
  Ti  Ti16  1  0.88840491  0.79093646  0.62212171  1
  Ti  Ti17  1  0.38840491  0.20906354  0.87787829  1
  Ti  Ti18  1  0.11159509  0.20906354  0.37787829  1
  Ti  Ti19  1  0.61159509  0.79093646  0.12212171  1
  S  S20  1  0.10622582  0.81592373  0.54031089  1
  S  S21  1  0.60622582  0.18407627  0.95968911  1
  S  S22  1  0.89377418  0.18407627  0.45968911  1
  S  S23  1  0.39377418  0.81592373  0.04031089  1
  S  S24  1  0.67466144  0.70103248  0.53693561  1
  S  S25  1  0.17466144  0.29896752  0.96306439  1
  S  S26  1  0.32533856  0.29896752  0.46306439  1
  S  S27  1  0.82533856  0.70103248  0.03693561  1
  S  S28  1  0.94477889  0.61739056  0.70400198  1
  S  S29  1  0.44477889  0.38260944  0.79599802  1
  S  S30  1  0.05522111  0.38260944  0.29599802  1
  S  S31  1  0.55522111  0.61739056  0.20400198  1
  S  S32  1  0.83121914  0.04248953  0.71144114  1
  S  S33  1  0.33121914  0.95751047  0.78855886  1
  S  S34  1  0.16878086  0.95751047  0.28855886  1
  S  S35  1  0.66878086  0.04248953  0.21144114  1
