# generated using pymatgen
data_KLa(PO3)4
_symmetry_space_group_name_H-M   'P 1'
_cell_length_a   7.41026889
_cell_length_b   8.19774786
_cell_length_c   8.67774890
_cell_angle_alpha   90.00000000
_cell_angle_beta   90.00000000
_cell_angle_gamma   91.99549819
_symmetry_Int_Tables_number   1
_chemical_formula_structural   KLa(PO3)4
_chemical_formula_sum   'K2 La2 P8 O24'
_cell_volume   526.83200686
_cell_formula_units_Z   2
loop_
 _symmetry_equiv_pos_site_id
 _symmetry_equiv_pos_as_xyz
  1  'x, y, z'
loop_
 _atom_site_type_symbol
 _atom_site_label
 _atom_site_symmetry_multiplicity
 _atom_site_fract_x
 _atom_site_fract_y
 _atom_site_fract_z
 _atom_site_occupancy
  K  K0  1  0.27343808  0.71847244  0.94194363  1
  K  K1  1  0.72656192  0.28152756  0.44194363  1
  La  La2  1  0.23444189  0.24189993  0.24764625  1
  La  La3  1  0.76555811  0.75810007  0.74764625  1
  P  P4  1  0.00194804  0.38179913  0.89420022  1
  P  P5  1  0.99805196  0.61820087  0.39420022  1
  P  P6  1  0.62395883  0.39511431  0.00051112  1
  P  P7  1  0.37604117  0.60488569  0.50051112  1
  P  P8  1  0.10507457  0.10880482  0.67212436  1
  P  P9  1  0.89492543  0.89119518  0.17212436  1
  P  P10  1  0.43396838  0.10110883  0.87104431  1
  P  P11  1  0.56603162  0.89889117  0.37104431  1
  O  O12  1  0.83222301  0.34513756  0.00625958  1
  O  O13  1  0.16777699  0.65486244  0.50625958  1
  O  O14  1  0.61045679  0.56585565  0.94112274  1
  O  O15  1  0.38954321  0.43414435  0.44112274  1
  O  O16  1  0.54205507  0.35005769  0.15354736  1
  O  O17  1  0.45794493  0.64994231  0.65354736  1
  O  O18  1  0.16784547  0.38821686  0.99406296  1
  O  O19  1  0.83215453  0.61178314  0.49406296  1
  O  O20  1  0.97029815  0.52737554  0.79398102  1
  O  O21  1  0.02970185  0.47262446  0.29398102  1
  O  O22  1  0.31416871  0.13536407  0.71938388  1
  O  O23  1  0.68583129  0.86463593  0.21938388  1
  O  O24  1  0.04277456  0.93521756  0.70319919  1
  O  O25  1  0.95722544  0.06478244  0.20319919  1
  O  O26  1  0.08664454  0.17976783  0.51434692  1
  O  O27  1  0.91335546  0.82023217  0.01434692  1
  O  O28  1  0.31680345  0.07626962  0.01074621  1
  O  O29  1  0.68319655  0.92373038  0.51074621  1
  O  O30  1  0.99316096  0.21794061  0.79254693  1
  O  O31  1  0.00683904  0.78205939  0.29254693  1
  O  O32  1  0.54550421  0.27290525  0.86806125  1
  O  O33  1  0.45449579  0.72709475  0.36806125  1
  O  O34  1  0.56013684  0.96617497  0.83597208  1
  O  O35  1  0.43986316  0.03382503  0.33597208  1
