# generated using pymatgen
data_KNa2FeO3
_symmetry_space_group_name_H-M   'P 1'
_cell_length_a   6.37008039
_cell_length_b   6.62438262
_cell_length_c   10.32274146
_cell_angle_alpha   90.00000000
_cell_angle_beta   90.00000000
_cell_angle_gamma   90.00000000
_symmetry_Int_Tables_number   1
_chemical_formula_structural   KNa2FeO3
_chemical_formula_sum   'K4 Na8 Fe4 O12'
_cell_volume   435.59749390
_cell_formula_units_Z   4
loop_
 _symmetry_equiv_pos_site_id
 _symmetry_equiv_pos_as_xyz
  1  'x, y, z'
loop_
 _atom_site_type_symbol
 _atom_site_label
 _atom_site_symmetry_multiplicity
 _atom_site_fract_x
 _atom_site_fract_y
 _atom_site_fract_z
 _atom_site_occupancy
  Fe  Fe0  1  0.75000000  0.17000154  0.00755766  1
  Fe  Fe1  1  0.25000000  0.82999846  0.99244234  1
  Fe  Fe2  1  0.75000000  0.67000154  0.49244234  1
  Fe  Fe3  1  0.25000000  0.32999846  0.50755766  1
  K  K4  1  0.75000000  0.66227940  0.02534969  1
  K  K5  1  0.25000000  0.33772060  0.97465031  1
  K  K6  1  0.75000000  0.16227940  0.47465031  1
  K  K7  1  0.25000000  0.83772060  0.52534969  1
  Na  Na8  1  0.99389082  0.00651905  0.76954131  1
  Na  Na9  1  0.49389082  0.99348095  0.23045869  1
  Na  Na10  1  0.50610918  0.50651905  0.73045869  1
  Na  Na11  1  0.00610918  0.49348095  0.26954131  1
  Na  Na12  1  0.00610918  0.99348095  0.23045869  1
  Na  Na13  1  0.50610918  0.00651905  0.76954131  1
  Na  Na14  1  0.49389082  0.49348095  0.26954131  1
  Na  Na15  1  0.99389082  0.50651905  0.73045869  1
  O  O16  1  0.75000000  0.83291116  0.64126759  1
  O  O17  1  0.25000000  0.16708884  0.35873241  1
  O  O18  1  0.75000000  0.33291116  0.85873241  1
  O  O19  1  0.25000000  0.66708884  0.14126759  1
  O  O20  1  0.00000000  0.00000000  0.00000000  1
  O  O21  1  0.50000000  0.00000000  0.00000000  1
  O  O22  1  0.50000000  0.50000000  0.50000000  1
  O  O23  1  0.00000000  0.50000000  0.50000000  1
  O  O24  1  0.75000000  0.29359515  0.17112714  1
  O  O25  1  0.25000000  0.70640485  0.82887286  1
  O  O26  1  0.75000000  0.79359515  0.32887286  1
  O  O27  1  0.25000000  0.20640485  0.67112714  1
