# generated using pymatgen
data_VP3(HO5)2
_symmetry_space_group_name_H-M   'P 1'
_cell_length_a   7.56760479
_cell_length_b   8.98563114
_cell_length_c   11.92440886
_cell_angle_alpha   90.00000000
_cell_angle_beta   103.47074195
_cell_angle_gamma   90.00000000
_symmetry_Int_Tables_number   1
_chemical_formula_structural   VP3(HO5)2
_chemical_formula_sum   'V4 P12 H8 O40'
_cell_volume   788.54882239
_cell_formula_units_Z   4
loop_
 _symmetry_equiv_pos_site_id
 _symmetry_equiv_pos_as_xyz
  1  'x, y, z'
loop_
 _atom_site_type_symbol
 _atom_site_label
 _atom_site_symmetry_multiplicity
 _atom_site_fract_x
 _atom_site_fract_y
 _atom_site_fract_z
 _atom_site_occupancy
  V  V0  1  0.46233002  0.07240755  0.20799546  1
  V  V1  1  0.03766998  0.57240755  0.29200454  1
  V  V2  1  0.53766998  0.92759245  0.79200454  1
  V  V3  1  0.96233002  0.42759245  0.70799546  1
  P  P4  1  0.28021474  0.39129627  0.13556889  1
  P  P5  1  0.21978526  0.89129627  0.36443111  1
  P  P6  1  0.71978526  0.60870373  0.86443111  1
  P  P7  1  0.78021474  0.10870373  0.63556889  1
  P  P8  1  0.64831202  0.39261288  0.29248161  1
  P  P9  1  0.85168798  0.89261288  0.20751839  1
  P  P10  1  0.35168798  0.60738712  0.70751839  1
  P  P11  1  0.14831202  0.10738712  0.79248161  1
  P  P12  1  0.72854785  0.11913067  0.02369684  1
  P  P13  1  0.77145215  0.61913067  0.47630316  1
  P  P14  1  0.27145215  0.88086933  0.97630316  1
  P  P15  1  0.22854785  0.38086933  0.52369684  1
  O  O16  1  0.47498116  0.45967336  0.20491666  1
  O  O17  1  0.02501884  0.95967336  0.29508334  1
  O  O18  1  0.52501884  0.54032664  0.79508334  1
  O  O19  1  0.97498116  0.04032664  0.70491666  1
  O  O20  1  0.79626330  0.08277614  0.50875197  1
  O  O21  1  0.70373670  0.58277614  0.99124803  1
  O  O22  1  0.20373670  0.91722386  0.49124803  1
  O  O23  1  0.29626330  0.41722386  0.00875197  1
  O  O24  1  0.65249003  0.48040459  0.40879011  1
  O  O25  1  0.84750997  0.98040459  0.09120989  1
  O  O26  1  0.34750997  0.51959541  0.59120989  1
  O  O27  1  0.15249003  0.01959541  0.90879011  1
  O  O28  1  0.36813267  0.98805370  0.33766277  1
  O  O29  1  0.13186733  0.48805370  0.16233723  1
  O  O30  1  0.63186733  0.01194630  0.66233723  1
  O  O31  1  0.86813267  0.51194630  0.83766277  1
  O  O32  1  0.26937981  0.22832325  0.16679392  1
  O  O33  1  0.23062019  0.72832325  0.33320608  1
  O  O34  1  0.73062019  0.77167675  0.83320608  1
  O  O35  1  0.76937981  0.27167675  0.66679392  1
  O  O36  1  0.56834219  0.14349751  0.07754976  1
  O  O37  1  0.93165781  0.64349751  0.42245024  1
  O  O38  1  0.43165781  0.85650249  0.92245024  1
  O  O39  1  0.06834219  0.35650249  0.57754976  1
  O  O40  1  0.61733054  0.22976572  0.31740308  1
  O  O41  1  0.88266946  0.72976572  0.18259692  1
  O  O42  1  0.38266946  0.77023428  0.68259692  1
  O  O43  1  0.11733054  0.27023428  0.81740308  1
  O  O44  1  0.81602676  0.42480728  0.24775845  1
  O  O45  1  0.68397324  0.92480728  0.25224155  1
  O  O46  1  0.18397324  0.57519272  0.75224155  1
  O  O47  1  0.31602676  0.07519272  0.74775845  1
  O  O48  1  0.18831445  0.41886007  0.39765767  1
  O  O49  1  0.31168555  0.91886007  0.10234233  1
  O  O50  1  0.81168555  0.58113993  0.60234233  1
  O  O51  1  0.68831445  0.08113993  0.89765767  1
  O  O52  1  0.85963955  0.25627652  0.04254697  1
  O  O53  1  0.64036045  0.75627652  0.45745303  1
  O  O54  1  0.14036045  0.74372348  0.95745303  1
  O  O55  1  0.35963955  0.24372348  0.54254697  1
  H  H56  1  0.72048732  0.14484226  0.44620933  1
  H  H57  1  0.77951268  0.64484226  0.05379067  1
  H  H58  1  0.27951268  0.85515774  0.55379067  1
  H  H59  1  0.22048732  0.35515774  0.94620933  1
  H  H60  1  0.85400727  0.32030247  0.10908242  1
  H  H61  1  0.64599273  0.82030247  0.39091758  1
  H  H62  1  0.14599273  0.67969753  0.89091758  1
  H  H63  1  0.35400727  0.17969753  0.60908242  1
