# generated using pymatgen
data_Cs2FeO4
_symmetry_space_group_name_H-M   'P 1'
_cell_length_a   6.38478577
_cell_length_b   8.57782913
_cell_length_c   11.34538653
_cell_angle_alpha   90.00000000
_cell_angle_beta   90.00000000
_cell_angle_gamma   90.00000000
_symmetry_Int_Tables_number   1
_chemical_formula_structural   Cs2FeO4
_chemical_formula_sum   'Cs8 Fe4 O16'
_cell_volume   621.35960683
_cell_formula_units_Z   4
loop_
 _symmetry_equiv_pos_site_id
 _symmetry_equiv_pos_as_xyz
  1  'x, y, z'
loop_
 _atom_site_type_symbol
 _atom_site_label
 _atom_site_symmetry_multiplicity
 _atom_site_fract_x
 _atom_site_fract_y
 _atom_site_fract_z
 _atom_site_occupancy
  O  O0  1  0.25000000  0.04265312  0.41301177  1
  O  O1  1  0.75000000  0.95734688  0.58698823  1
  O  O2  1  0.25000000  0.54265312  0.08698823  1
  O  O3  1  0.75000000  0.45734688  0.91301177  1
  O  O4  1  0.25000000  0.79513644  0.94029760  1
  O  O5  1  0.75000000  0.20486356  0.05970240  1
  O  O6  1  0.25000000  0.29513644  0.55970240  1
  O  O7  1  0.75000000  0.70486356  0.44029760  1
  O  O8  1  0.53644844  0.19433078  0.85351466  1
  O  O9  1  0.03644844  0.80566922  0.14648534  1
  O  O10  1  0.96355156  0.69433078  0.64648534  1
  O  O11  1  0.46355156  0.30566922  0.35351466  1
  O  O12  1  0.53644844  0.69433078  0.64648534  1
  O  O13  1  0.03644844  0.30566922  0.35351466  1
  O  O14  1  0.96355156  0.19433078  0.85351466  1
  O  O15  1  0.46355156  0.80566922  0.14648534  1
  Fe  Fe16  1  0.75000000  0.26417107  0.91941088  1
  Fe  Fe17  1  0.25000000  0.73582893  0.08058912  1
  Fe  Fe18  1  0.75000000  0.76417107  0.58058912  1
  Fe  Fe19  1  0.25000000  0.23582893  0.41941088  1
  Cs  Cs20  1  0.25000000  0.66602475  0.41092271  1
  Cs  Cs21  1  0.75000000  0.33397525  0.58907729  1
  Cs  Cs22  1  0.25000000  0.16602475  0.08907729  1
  Cs  Cs23  1  0.75000000  0.83397525  0.91092271  1
  Cs  Cs24  1  0.75000000  0.51244758  0.19359804  1
  Cs  Cs25  1  0.25000000  0.48755242  0.80640196  1
  Cs  Cs26  1  0.75000000  0.01244758  0.30640196  1
  Cs  Cs27  1  0.25000000  0.98755242  0.69359804  1
