# generated using pymatgen
data_K4WO5
_symmetry_space_group_name_H-M   'P 1'
_cell_length_a   6.39104584
_cell_length_b   10.39343576
_cell_length_c   17.22942597
_cell_angle_alpha   94.21112985
_cell_angle_beta   92.58120168
_cell_angle_gamma   96.27504515
_symmetry_Int_Tables_number   1
_chemical_formula_structural   K4WO5
_chemical_formula_sum   'K24 W6 O30'
_cell_volume   1132.90877726
_cell_formula_units_Z   6
loop_
 _symmetry_equiv_pos_site_id
 _symmetry_equiv_pos_as_xyz
  1  'x, y, z'
loop_
 _atom_site_type_symbol
 _atom_site_label
 _atom_site_symmetry_multiplicity
 _atom_site_fract_x
 _atom_site_fract_y
 _atom_site_fract_z
 _atom_site_occupancy
  W  W0  1  0.71816105  0.73385392  0.74890423  1
  W  W1  1  0.28183895  0.26614608  0.25109577  1
  W  W2  1  0.10029165  0.25686480  0.59696356  1
  W  W3  1  0.89970835  0.74313520  0.40303644  1
  W  W4  1  0.56324924  0.77398388  0.09264799  1
  W  W5  1  0.43675076  0.22601612  0.90735201  1
  K  K6  1  0.44051147  0.42035827  0.08475000  1
  K  K7  1  0.55948853  0.57964173  0.91525000  1
  K  K8  1  0.73205895  0.54013574  0.55797133  1
  K  K9  1  0.26794105  0.45986426  0.44202867  1
  K  K10  1  0.95783158  0.29638001  0.99373267  1
  K  K11  1  0.04216842  0.70361999  0.00626733  1
  K  K12  1  0.51091799  0.01165201  0.67974771  1
  K  K13  1  0.48908201  0.98834799  0.32025229  1
  K  K14  1  0.42454910  0.80539623  0.49434711  1
  K  K15  1  0.57545090  0.19460377  0.50565289  1
  K  K16  1  0.94873631  0.49941801  0.18014858  1
  K  K17  1  0.05126369  0.50058199  0.81985142  1
  K  K18  1  0.06845859  0.08742424  0.40510253  1
  K  K19  1  0.93154141  0.91257576  0.59489747  1
  K  K20  1  0.23472316  0.59572277  0.64875463  1
  K  K21  1  0.76527684  0.40427723  0.35124537  1
  K  K22  1  0.94959380  0.16104144  0.78885919  1
  K  K23  1  0.05040620  0.83895856  0.21114081  1
  K  K24  1  0.74428286  0.95298642  0.93017688  1
  K  K25  1  0.25571714  0.04701358  0.06982312  1
  K  K26  1  0.78075831  0.11464289  0.15455222  1
  K  K27  1  0.21924169  0.88535711  0.84544778  1
  K  K28  1  0.42690858  0.64810070  0.28123147  1
  K  K29  1  0.57309142  0.35189930  0.71876853  1
  O  O30  1  0.15873311  0.84145658  0.37554554  1
  O  O31  1  0.84126689  0.15854342  0.62445446  1
  O  O32  1  0.31659167  0.66223502  0.12046766  1
  O  O33  1  0.68340833  0.33776498  0.87953234  1
  O  O34  1  0.64135158  0.63400297  0.42416270  1
  O  O35  1  0.35864842  0.36599703  0.57583730  1
  O  O36  1  0.42754117  0.81726169  0.00129734  1
  O  O37  1  0.57245883  0.18273831  0.99870266  1
  O  O38  1  0.71257320  0.62653257  0.08136568  1
  O  O39  1  0.28742680  0.37346743  0.91863432  1
  O  O40  1  0.58818907  0.76159207  0.64676071  1
  O  O41  1  0.41181093  0.23840793  0.35323929  1
  O  O42  1  0.85912802  0.71799851  0.85055737  1
  O  O43  1  0.14087198  0.28200149  0.14944263  1
  O  O44  1  0.82378585  0.88220462  0.07327713  1
  O  O45  1  0.17621415  0.11779538  0.92672287  1
  O  O46  1  0.12785468  0.33973345  0.69848981  1
  O  O47  1  0.87214532  0.66026655  0.30151019  1
  O  O48  1  0.84268072  0.59296749  0.70527813  1
  O  O49  1  0.15731928  0.40703251  0.29472187  1
  O  O50  1  0.04219355  0.68087178  0.48865525  1
  O  O51  1  0.95780645  0.31912822  0.51134475  1
  O  O52  1  0.77167096  0.89558401  0.42606686  1
  O  O53  1  0.22832904  0.10441599  0.57393314  1
  O  O54  1  0.85491530  0.90535419  0.75250752  1
  O  O55  1  0.14508470  0.09464581  0.24749248  1
  O  O56  1  0.46055881  0.11834403  0.81589548  1
  O  O57  1  0.53944119  0.88165597  0.18410452  1
  O  O58  1  0.45073965  0.69215791  0.78752111  1
  O  O59  1  0.54926035  0.30784209  0.21247889  1
