# generated using pymatgen
data_Rb5Nb3OF18
_symmetry_space_group_name_H-M   'P 1'
_cell_length_a   7.97372279
_cell_length_b   11.87695120
_cell_length_c   11.87695054
_cell_angle_alpha   83.53697818
_cell_angle_beta   70.39293234
_cell_angle_gamma   70.39293423
_symmetry_Int_Tables_number   1
_chemical_formula_structural   Rb5Nb3OF18
_chemical_formula_sum   'Rb10 Nb6 O2 F36'
_cell_volume   998.13130654
_cell_formula_units_Z   2
loop_
 _symmetry_equiv_pos_site_id
 _symmetry_equiv_pos_as_xyz
  1  'x, y, z'
loop_
 _atom_site_type_symbol
 _atom_site_label
 _atom_site_symmetry_multiplicity
 _atom_site_fract_x
 _atom_site_fract_y
 _atom_site_fract_z
 _atom_site_occupancy
  Nb  Nb0  1  0.34402645  0.81234211  0.49999528  1
  Nb  Nb1  1  0.84402645  0.49999528  0.81234211  1
  Nb  Nb2  1  0.15637237  0.49998915  0.18762964  1
  Nb  Nb3  1  0.65637237  0.18762964  0.49998915  1
  Nb  Nb4  1  0.73362432  0.00000148  0.00000455  1
  Nb  Nb5  1  0.23362432  0.00000455  0.00000148  1
  Rb  Rb6  1  0.23714370  0.50003689  0.50002417  1
  Rb  Rb7  1  0.73714370  0.50002417  0.50003689  1
  Rb  Rb8  1  0.18825765  0.69328176  0.86031936  1
  Rb  Rb9  1  0.04861016  0.13965818  0.69325442  1
  Rb  Rb10  1  0.88148997  0.86037589  0.30673105  1
  Rb  Rb11  1  0.74187799  0.30674924  0.13961416  1
  Rb  Rb12  1  0.38148997  0.30673105  0.86037589  1
  Rb  Rb13  1  0.54861016  0.69325442  0.13965818  1
  Rb  Rb14  1  0.68825765  0.86031936  0.69328176  1
  Rb  Rb15  1  0.24187799  0.13961416  0.30674924  1
  O  O16  1  0.00708510  1.00000377  1.00000172  1
  O  O17  1  0.50708510  1.00000172  1.00000377  1
  F  F18  1  0.60776538  0.77129897  0.50002304  1
  F  F19  1  0.10776538  0.50002304  0.77129897  1
  F  F20  1  0.37903352  0.49999530  0.22872637  1
  F  F21  1  0.87903352  0.22872637  0.49999530  1
  F  F22  1  0.01142665  0.61034768  0.33007692  1
  F  F23  1  0.34146120  0.66994424  0.61033979  1
  F  F24  1  0.62174511  0.33009724  0.38966759  1
  F  F25  1  0.95186486  0.38965150  0.66993017  1
  F  F26  1  0.12174511  0.38966759  0.33009724  1
  F  F27  1  0.84146120  0.61033979  0.66994424  1
  F  F28  1  0.51142665  0.33007692  0.61034768  1
  F  F29  1  0.45186486  0.66993017  0.38965150  1
  F  F30  1  0.39957346  0.20867066  0.49996670  1
  F  F31  1  0.89957346  0.49996670  0.20867066  1
  F  F32  1  0.60834818  0.49992982  0.79125697  1
  F  F33  1  0.10834818  0.79125697  0.49992982  1
  F  F34  1  0.64909119  0.07028857  0.15985586  1
  F  F35  1  0.80888944  0.84015050  0.07026113  1
  F  F36  1  0.71934130  0.15984997  0.92970158  1
  F  F37  1  0.87917514  0.92969040  0.84014265  1
  F  F38  1  0.21934130  0.92970158  0.15984997  1
  F  F39  1  0.30888944  0.07026113  0.84015050  1
  F  F40  1  0.14909119  0.15985586  0.07028857  1
  F  F41  1  0.37917514  0.84014265  0.92969040  1
  F  F42  1  0.80100439  0.65880234  0.87680051  1
  F  F43  1  0.67772041  0.12325594  0.65879731  1
  F  F44  1  0.45978083  0.87684417  0.34121418  1
  F  F45  1  0.33650261  0.34117844  0.12323318  1
  F  F46  1  0.95978083  0.34121418  0.87684417  1
  F  F47  1  0.17772041  0.65879731  0.12325594  1
  F  F48  1  0.30100439  0.87680051  0.65880234  1
  F  F49  1  0.83650261  0.12323318  0.34117844  1
  F  F50  1  0.65969576  0.01915468  0.50000541  1
  F  F51  1  0.15969576  0.50000541  0.01915468  1
  F  F52  1  0.67879286  0.50001001  0.98082738  1
  F  F53  1  0.17879286  0.98082738  0.50001001  1
