# generated using pymatgen
data_K3As11
_symmetry_space_group_name_H-M   'P 1'
_cell_length_a   11.04809044
_cell_length_b   11.36074519
_cell_length_c   14.78491552
_cell_angle_alpha   90.00000000
_cell_angle_beta   90.00000000
_cell_angle_gamma   90.00000000
_symmetry_Int_Tables_number   1
_chemical_formula_structural   K3As11
_chemical_formula_sum   'K12 As44'
_cell_volume   1855.72187524
_cell_formula_units_Z   4
loop_
 _symmetry_equiv_pos_site_id
 _symmetry_equiv_pos_as_xyz
  1  'x, y, z'
loop_
 _atom_site_type_symbol
 _atom_site_label
 _atom_site_symmetry_multiplicity
 _atom_site_fract_x
 _atom_site_fract_y
 _atom_site_fract_z
 _atom_site_occupancy
  K  K0  1  0.08753931  0.76166480  0.01188030  1
  K  K1  1  0.58753931  0.73833520  0.48811970  1
  K  K2  1  0.91246069  0.26166480  0.48811970  1
  K  K3  1  0.41246069  0.23833520  0.01188030  1
  K  K4  1  0.91246069  0.23833520  0.98811970  1
  K  K5  1  0.41246069  0.26166480  0.51188030  1
  K  K6  1  0.08753931  0.73833520  0.51188030  1
  K  K7  1  0.58753931  0.76166480  0.98811970  1
  K  K8  1  0.25000000  0.00000000  0.28448847  1
  K  K9  1  0.75000000  0.50000000  0.21551153  1
  K  K10  1  0.75000000  0.00000000  0.71551153  1
  K  K11  1  0.25000000  0.50000000  0.78448847  1
  As  As12  1  0.27667740  0.68439203  0.24506944  1
  As  As13  1  0.77667740  0.81560797  0.25493056  1
  As  As14  1  0.72332260  0.18439203  0.25493056  1
  As  As15  1  0.22332260  0.31560797  0.24506944  1
  As  As16  1  0.72332260  0.31560797  0.75493056  1
  As  As17  1  0.22332260  0.18439203  0.74506944  1
  As  As18  1  0.27667740  0.81560797  0.74506944  1
  As  As19  1  0.77667740  0.68439203  0.75493056  1
  As  As20  1  0.06499726  0.61389214  0.21573769  1
  As  As21  1  0.56499726  0.88610786  0.28426231  1
  As  As22  1  0.93500274  0.11389214  0.28426231  1
  As  As23  1  0.43500274  0.38610786  0.21573769  1
  As  As24  1  0.93500274  0.38610786  0.78426231  1
  As  As25  1  0.43500274  0.11389214  0.71573769  1
  As  As26  1  0.06499726  0.88610786  0.71573769  1
  As  As27  1  0.56499726  0.61389214  0.78426231  1
  As  As28  1  0.39819190  0.57148376  0.13134414  1
  As  As29  1  0.89819190  0.92851624  0.36865586  1
  As  As30  1  0.60180810  0.07148376  0.36865586  1
  As  As31  1  0.10180810  0.42851624  0.13134414  1
  As  As32  1  0.60180810  0.42851624  0.86865586  1
  As  As33  1  0.10180810  0.07148376  0.63134414  1
  As  As34  1  0.39819190  0.92851624  0.63134414  1
  As  As35  1  0.89819190  0.57148376  0.86865586  1
  As  As36  1  0.32641148  0.58028510  0.38965988  1
  As  As37  1  0.82641148  0.91971490  0.11034012  1
  As  As38  1  0.67358852  0.08028510  0.11034012  1
  As  As39  1  0.17358852  0.41971490  0.38965988  1
  As  As40  1  0.67358852  0.41971490  0.61034012  1
  As  As41  1  0.17358852  0.08028510  0.88965988  1
  As  As42  1  0.32641148  0.91971490  0.88965988  1
  As  As43  1  0.82641148  0.58028510  0.61034012  1
  As  As44  1  0.50606343  0.46381097  0.35909226  1
  As  As45  1  0.00606343  0.03618903  0.14090774  1
  As  As46  1  0.49393657  0.96381097  0.14090774  1
  As  As47  1  0.99393657  0.53618903  0.35909226  1
  As  As48  1  0.49393657  0.53618903  0.64090774  1
  As  As49  1  0.99393657  0.96381097  0.85909226  1
  As  As50  1  0.50606343  0.03618903  0.85909226  1
  As  As51  1  0.00606343  0.46381097  0.64090774  1
  As  As52  1  0.25000000  0.00000000  0.52288742  1
  As  As53  1  0.75000000  0.50000000  0.97711258  1
  As  As54  1  0.75000000  0.00000000  0.47711258  1
  As  As55  1  0.25000000  0.50000000  0.02288742  1
