# generated using pymatgen
data_Li3Cr4(PO4)6
_symmetry_space_group_name_H-M   'P 1'
_cell_length_a   9.72921579
_cell_length_b   9.81075953
_cell_length_c   9.79689507
_cell_angle_alpha   85.87335890
_cell_angle_beta   94.26812498
_cell_angle_gamma   94.52592386
_symmetry_Int_Tables_number   1
_chemical_formula_structural   Li3Cr4(PO4)6
_chemical_formula_sum   'Li6 Cr8 P12 O48'
_cell_volume   927.56561525
_cell_formula_units_Z   2
loop_
 _symmetry_equiv_pos_site_id
 _symmetry_equiv_pos_as_xyz
  1  'x, y, z'
loop_
 _atom_site_type_symbol
 _atom_site_label
 _atom_site_symmetry_multiplicity
 _atom_site_fract_x
 _atom_site_fract_y
 _atom_site_fract_z
 _atom_site_occupancy
  Li  Li0  1  0.02586136  0.51117655  0.25147025  1
  Li  Li1  1  0.37399120  0.75053844  0.82497473  1
  Li  Li2  1  0.51254340  0.01804365  0.75599846  1
  Li  Li3  1  0.56982823  0.22539385  0.54119027  1
  Li  Li4  1  0.91483638  0.68969773  0.02126087  1
  Li  Li5  1  0.96852374  0.24936615  0.38749656  1
  Cr  Cr6  1  0.02351145  0.25277239  0.78490572  1
  Cr  Cr7  1  0.24923470  0.24980679  0.99959519  1
  Cr  Cr8  1  0.25067849  0.02614057  0.21553120  1
  Cr  Cr9  1  0.47087077  0.46643918  0.00049980  1
  Cr  Cr10  1  0.52620414  0.53247204  0.50112441  1
  Cr  Cr11  1  0.74877925  0.74905386  0.49952642  1
  Cr  Cr12  1  0.75108316  0.96461068  0.27538309  1
  Cr  Cr13  1  0.96628244  0.75139798  0.71788441  1
  P  P14  1  0.04907205  0.82014308  0.40376307  1
  P  P15  1  0.17264163  0.95297574  0.90085585  1
  P  P16  1  0.15016329  0.55005830  0.92975987  1
  P  P17  1  0.34372853  0.32375790  0.70126163  1
  P  P18  1  0.31951193  0.33931494  0.29921012  1
  P  P19  1  0.45163651  0.84512039  0.42468872  1
  P  P20  1  0.54930232  0.15232080  0.06840906  1
  P  P21  1  0.64747702  0.68127113  0.79868351  1
  P  P22  1  0.68216918  0.64784584  0.20395714  1
  P  P23  1  0.84259077  0.45010987  0.57592258  1
  P  P24  1  0.81786957  0.04955555  0.59103747  1
  P  P25  1  0.95194438  0.17381634  0.10186703  1
  O  O26  1  0.03190476  0.88110624  0.85500835  1
  O  O27  1  0.08034732  0.81358492  0.56190678  1
  O  O28  1  0.09284037  0.61679474  0.79211126  1
  O  O29  1  0.11394875  0.95631138  0.33976440  1
  O  O30  1  0.09218082  0.69417812  0.34380357  1
  O  O31  1  0.12219185  0.38712020  0.92073994  1
  O  O32  1  0.08170205  0.59125060  0.05214514  1
  O  O33  1  0.11683263  0.16137079  0.12615376  1
  O  O34  1  0.16055980  0.11457063  0.87330884  1
  O  O35  1  0.18358807  0.30975370  0.67235836  1
  O  O36  1  0.19243381  0.91763321  0.06004154  1
  O  O37  1  0.18801139  0.39127626  0.33918356  1
  O  O38  1  0.29409992  0.91505967  0.82938063  1
  O  O39  1  0.31108152  0.58390878  0.93622369  1
  O  O40  1  0.31603192  0.17867564  0.32628108  1
  O  O41  1  0.38550524  0.90367541  0.28796364  1
  O  O42  1  0.37634196  0.33164697  0.86417231  1
  O  O43  1  0.33363206  0.37572703  0.13735110  1
  O  O44  1  0.41102942  0.90743292  0.55093457  1
  O  O45  1  0.39908950  0.46416683  0.63766048  1
  O  O46  1  0.41634439  0.68721904  0.43605674  1
  O  O47  1  0.41422230  0.20461908  0.65615588  1
  O  O48  1  0.38555948  0.12140171  0.07908911  1
  O  O49  1  0.45620105  0.39346129  0.37375787  1
  O  O50  1  0.56986179  0.79969319  0.83308976  1
  O  O51  1  0.54538137  0.58822684  0.13709337  1
  O  O52  1  0.59308570  0.54134532  0.86375829  1
  O  O53  1  0.61516586  0.87567624  0.41207545  1
  O  O54  1  0.62180805  0.66736079  0.63538338  1
  O  O55  1  0.59023407  0.09489350  0.93983528  1
  O  O56  1  0.58373797  0.31031562  0.06170328  1
  O  O57  1  0.61559545  0.08880669  0.20317400  1
  O  O58  1  0.66866874  0.61825796  0.36531768  1
  O  O59  1  0.68209409  0.41298590  0.56264442  1
  O  O60  1  0.69320862  0.80654727  0.16628410  1
  O  O61  1  0.68448720  0.09279559  0.63671351  1
  O  O62  1  0.80700767  0.69711426  0.83705106  1
  O  O63  1  0.82763671  0.88801658  0.62601241  1
  O  O64  1  0.81191857  0.59169831  0.16253313  1
  O  O65  1  0.82555750  0.08082985  0.43064026  1
  O  O66  1  0.87240981  0.61204932  0.58568181  1
  O  O67  1  0.88547732  0.82952538  0.37168871  1
  O  O68  1  0.89900113  0.38607094  0.71560517  1
  O  O69  1  0.91590537  0.19794622  0.94525094  1
  O  O70  1  0.91061921  0.40750614  0.45493068  1
  O  O71  1  0.88672809  0.03082874  0.14779534  1
  O  O72  1  0.91928956  0.28653125  0.18791590  1
  O  O73  1  0.95137488  0.11920321  0.65649203  1
