# generated using pymatgen
data_Na2Li3CoO4
_symmetry_space_group_name_H-M   'P 1'
_cell_length_a   6.60238547
_cell_length_b   8.04808592
_cell_length_c   8.24274727
_cell_angle_alpha   90.00000000
_cell_angle_beta   90.00000000
_cell_angle_gamma   90.00000000
_symmetry_Int_Tables_number   1
_chemical_formula_structural   Na2Li3CoO4
_chemical_formula_sum   'Na8 Li12 Co4 O16'
_cell_volume   437.99128054
_cell_formula_units_Z   4
loop_
 _symmetry_equiv_pos_site_id
 _symmetry_equiv_pos_as_xyz
  1  'x, y, z'
loop_
 _atom_site_type_symbol
 _atom_site_label
 _atom_site_symmetry_multiplicity
 _atom_site_fract_x
 _atom_site_fract_y
 _atom_site_fract_z
 _atom_site_occupancy
  Co  Co0  1  0.00000000  0.77550279  0.88237396  1
  Co  Co1  1  0.00000000  0.22449721  0.11762604  1
  Co  Co2  1  0.50000000  0.27550279  0.61762604  1
  Co  Co3  1  0.50000000  0.72449721  0.38237396  1
  Na  Na4  1  0.00000000  0.25931120  0.74886494  1
  Na  Na5  1  0.00000000  0.74068880  0.25113506  1
  Na  Na6  1  0.50000000  0.75931120  0.75113506  1
  Na  Na7  1  0.50000000  0.24068880  0.24886494  1
  Na  Na8  1  0.74418696  0.50000000  0.00000000  1
  Na  Na9  1  0.75581304  0.00000000  0.50000000  1
  Na  Na10  1  0.25581304  0.50000000  0.00000000  1
  Na  Na11  1  0.24418696  0.00000000  0.50000000  1
  Li  Li12  1  0.75473866  0.48575117  0.35040993  1
  Li  Li13  1  0.75473866  0.51424883  0.64959007  1
  Li  Li14  1  0.74526134  0.98575117  0.14959007  1
  Li  Li15  1  0.74526134  0.01424883  0.85040993  1
  Li  Li16  1  0.24526134  0.51424883  0.64959007  1
  Li  Li17  1  0.24526134  0.48575117  0.35040993  1
  Li  Li18  1  0.25473866  0.01424883  0.85040993  1
  Li  Li19  1  0.25473866  0.98575117  0.14959007  1
  Li  Li20  1  0.00000000  0.26402829  0.40711307  1
  Li  Li21  1  0.00000000  0.73597171  0.59288693  1
  Li  Li22  1  0.50000000  0.76402829  0.09288693  1
  Li  Li23  1  0.50000000  0.23597171  0.90711307  1
  O  O24  1  0.00000000  0.56217758  0.77942463  1
  O  O25  1  0.00000000  0.43782242  0.22057537  1
  O  O26  1  0.50000000  0.06217758  0.72057537  1
  O  O27  1  0.50000000  0.93782242  0.27942463  1
  O  O28  1  0.75283331  0.80343331  0.98466858  1
  O  O29  1  0.75283331  0.19656669  0.01533142  1
  O  O30  1  0.74716669  0.30343331  0.51533142  1
  O  O31  1  0.74716669  0.69656669  0.48466858  1
  O  O32  1  0.24716669  0.19656669  0.01533142  1
  O  O33  1  0.24716669  0.80343331  0.98466858  1
  O  O34  1  0.25283331  0.69656669  0.48466858  1
  O  O35  1  0.25283331  0.30343331  0.51533142  1
  O  O36  1  0.00000000  0.95396932  0.72556151  1
  O  O37  1  0.00000000  0.04603068  0.27443849  1
  O  O38  1  0.50000000  0.45396932  0.77443849  1
  O  O39  1  0.50000000  0.54603068  0.22556151  1
