# generated using pymatgen
data_Ho3Ge5
_symmetry_space_group_name_H-M   'P 1'
_cell_length_a   5.75987849
_cell_length_b   7.46484195
_cell_length_c   9.11463798
_cell_angle_alpha   82.99844781
_cell_angle_beta   71.58109194
_cell_angle_gamma   67.30646866
_symmetry_Int_Tables_number   1
_chemical_formula_structural   Ho3Ge5
_chemical_formula_sum   'Ho6 Ge10'
_cell_volume   343.03619000
_cell_formula_units_Z   2
loop_
 _symmetry_equiv_pos_site_id
 _symmetry_equiv_pos_as_xyz
  1  'x, y, z'
loop_
 _atom_site_type_symbol
 _atom_site_label
 _atom_site_symmetry_multiplicity
 _atom_site_fract_x
 _atom_site_fract_y
 _atom_site_fract_z
 _atom_site_occupancy
  Ho  Ho0  1  0.00097601  0.99808853  -0.00000564  1
  Ho  Ho1  1  0.25096810  0.49808973  0.49999398  1
  Ho  Ho2  1  0.57741712  0.48264843  0.83710625  1
  Ho  Ho3  1  0.93994301  0.48264549  0.16289876  1
  Ho  Ho4  1  0.35283086  0.98265588  0.33709952  1
  Ho  Ho5  1  0.66452652  0.98266402  0.66289368  1
  Ge  Ge6  1  0.45351495  0.09304869  0.99998104  1
  Ge  Ge7  1  0.70347195  0.59304525  0.50002272  1
  Ge  Ge8  1  0.91246056  0.68939725  0.86862346  1
  Ge  Ge9  1  0.39813504  0.68936797  0.13138673  1
  Ge  Ge10  1  0.77954116  0.18938160  0.36858651  1
  Ge  Ge11  1  0.03106359  0.18940853  0.63138419  1
  Ge  Ge12  1  0.17937454  0.32269634  0.82652986  1
  Ge  Ge13  1  0.49787853  0.32268386  0.17350121  1
  Ge  Ge14  1  0.92138484  0.82267233  0.32652448  1
  Ge  Ge15  1  0.25591322  0.82270609  0.67347326  1
