# generated using pymatgen
data_GePbO3
_symmetry_space_group_name_H-M   'P 1'
_cell_length_a   9.48860143
_cell_length_b   9.48860063
_cell_length_c   9.48860099
_cell_angle_alpha   113.50180619
_cell_angle_beta   113.50180409
_cell_angle_gamma   113.50179859
_symmetry_Int_Tables_number   1
_chemical_formula_structural   GePbO3
_chemical_formula_sum   'Ge6 Pb6 O18'
_cell_volume   537.66026275
_cell_formula_units_Z   6
loop_
 _symmetry_equiv_pos_site_id
 _symmetry_equiv_pos_as_xyz
  1  'x, y, z'
loop_
 _atom_site_type_symbol
 _atom_site_label
 _atom_site_symmetry_multiplicity
 _atom_site_fract_x
 _atom_site_fract_y
 _atom_site_fract_z
 _atom_site_occupancy
  Ge  Ge0  1  0.25826096  0.52095904  0.65496071  1
  Ge  Ge1  1  0.52095904  0.65496071  0.25826096  1
  Ge  Ge2  1  0.74173904  0.47904096  0.34503929  1
  Ge  Ge3  1  0.34503929  0.74173904  0.47904096  1
  Ge  Ge4  1  0.47904096  0.34503929  0.74173904  1
  Ge  Ge5  1  0.65496071  0.25826096  0.52095904  1
  Pb  Pb6  1  0.29225768  0.98914441  0.82729579  1
  Pb  Pb7  1  0.17270421  0.70774232  0.01085559  1
  Pb  Pb8  1  0.01085559  0.17270421  0.70774232  1
  Pb  Pb9  1  0.82729579  0.29225768  0.98914441  1
  Pb  Pb10  1  0.70774232  0.01085559  0.17270421  1
  Pb  Pb11  1  0.98914441  0.82729579  0.29225768  1
  O  O12  1  0.21954982  0.52066886  0.45355834  1
  O  O13  1  0.31826076  0.73693611  0.84782145  1
  O  O14  1  0.53641001  0.03274808  0.28536757  1
  O  O15  1  0.26306389  0.15217855  0.68173924  1
  O  O16  1  0.96725192  0.71463243  0.46358999  1
  O  O17  1  0.45355834  0.21954982  0.52066886  1
  O  O18  1  0.84782145  0.31826076  0.73693611  1
  O  O19  1  0.03274808  0.28536757  0.53641001  1
  O  O20  1  0.68173924  0.26306389  0.15217855  1
  O  O21  1  0.73693611  0.84782145  0.31826076  1
  O  O22  1  0.52066886  0.45355834  0.21954982  1
  O  O23  1  0.47933114  0.54644166  0.78045018  1
  O  O24  1  0.71463243  0.46358999  0.96725192  1
  O  O25  1  0.54644166  0.78045018  0.47933114  1
  O  O26  1  0.15217855  0.68173924  0.26306389  1
  O  O27  1  0.78045018  0.47933114  0.54644166  1
  O  O28  1  0.46358999  0.96725192  0.71463243  1
  O  O29  1  0.28536757  0.53641001  0.03274808  1
