# generated using pymatgen
data_Li3Mn3CoO8
_symmetry_space_group_name_H-M   'P 1'
_cell_length_a   5.83059967
_cell_length_b   5.83052487
_cell_length_c   9.54512605
_cell_angle_alpha   89.68252118
_cell_angle_beta   89.63702688
_cell_angle_gamma   119.14642813
_symmetry_Int_Tables_number   1
_chemical_formula_structural   Li3Mn3CoO8
_chemical_formula_sum   'Li6 Mn6 Co2 O16'
_cell_volume   283.38366620
_cell_formula_units_Z   2
loop_
 _symmetry_equiv_pos_site_id
 _symmetry_equiv_pos_as_xyz
  1  'x, y, z'
loop_
 _atom_site_type_symbol
 _atom_site_label
 _atom_site_symmetry_multiplicity
 _atom_site_fract_x
 _atom_site_fract_y
 _atom_site_fract_z
 _atom_site_occupancy
  Li  Li0  1  0.83476184  0.18290253  0.55636810  1
  Li  Li1  1  0.83041944  0.65206547  0.55692063  1
  Li  Li2  1  0.35173351  0.17800858  0.55651805  1
  Li  Li3  1  0.64543351  0.82567752  0.05756493  1
  Li  Li4  1  0.17294794  0.34158200  0.05554279  1
  Li  Li5  1  0.17582216  0.83129195  0.05655205  1
  Mn  Mn6  1  0.83252153  0.16750302  0.28575619  1
  Mn  Mn7  1  0.83194264  0.66522039  0.28509247  1
  Mn  Mn8  1  0.33491142  0.16860268  0.28494144  1
  Mn  Mn9  1  0.66588437  0.83231111  0.78553856  1
  Mn  Mn10  1  0.16872928  0.33549238  0.78519347  1
  Mn  Mn11  1  0.16772240  0.83293052  0.78661770  1
  Co  Co12  1  0.66468213  0.32822628  0.00262473  1
  Co  Co13  1  0.33016214  0.66630708  0.50289369  1
  O  O14  1  0.83869553  0.15047741  0.89644881  1
  O  O15  1  0.96966349  0.48378835  0.16446750  1
  O  O16  1  0.69776312  0.34981508  0.40445836  1
  O  O17  1  0.52102363  0.03511855  0.16761478  1
  O  O18  1  0.84141826  0.68127572  0.89851456  1
  O  O19  1  0.51960078  0.48791755  0.16490681  1
  O  O20  1  0.30799170  0.14942990  0.90073786  1
  O  O21  1  0.68257524  0.84173054  0.39841086  1
  O  O22  1  0.48857580  0.51960480  0.66556950  1
  O  O23  1  0.34963501  0.69815997  0.90521054  1
  O  O24  1  0.15074765  0.31095134  0.39883501  1
  O  O25  1  0.96767925  0.98358052  0.17168451  1
  O  O26  1  0.98486303  0.96826063  0.67244114  1
  O  O27  1  0.48535635  0.97122071  0.66559253  1
  O  O28  1  0.03673814  0.52253195  0.66740044  1
  O  O29  1  0.15044774  0.83834347  0.39637197  1
