# generated using pymatgen
data_YbCu(WO4)2
_symmetry_space_group_name_H-M   'P 1'
_cell_length_a   5.06220712
_cell_length_b   6.03456724
_cell_length_c   9.87378538
_cell_angle_alpha   90.00000000
_cell_angle_beta   93.31847289
_cell_angle_gamma   90.00000000
_symmetry_Int_Tables_number   1
_chemical_formula_structural   YbCu(WO4)2
_chemical_formula_sum   'Yb2 Cu2 W4 O16'
_cell_volume   301.12089305
_cell_formula_units_Z   2
loop_
 _symmetry_equiv_pos_site_id
 _symmetry_equiv_pos_as_xyz
  1  'x, y, z'
loop_
 _atom_site_type_symbol
 _atom_site_label
 _atom_site_symmetry_multiplicity
 _atom_site_fract_x
 _atom_site_fract_y
 _atom_site_fract_z
 _atom_site_occupancy
  O  O0  1  0.42422750  0.33898308  0.14125418  1
  O  O1  1  0.07577250  0.33898308  0.35874582  1
  O  O2  1  0.57577250  0.66101692  0.85874582  1
  O  O3  1  0.92422750  0.66101692  0.64125418  1
  O  O4  1  0.44144151  0.90897903  0.60657404  1
  O  O5  1  0.05855849  0.90897903  0.89342596  1
  O  O6  1  0.55855849  0.09102097  0.39342596  1
  O  O7  1  0.94144151  0.09102097  0.10657404  1
  O  O8  1  0.88266272  0.62035474  0.10758962  1
  O  O9  1  0.61733728  0.62035474  0.39241038  1
  O  O10  1  0.11733728  0.37964526  0.89241038  1
  O  O11  1  0.38266272  0.37964526  0.60758962  1
  O  O12  1  0.94417264  0.11209860  0.60132840  1
  O  O13  1  0.55582736  0.11209860  0.89867160  1
  O  O14  1  0.05582736  0.88790140  0.39867160  1
  O  O15  1  0.44417264  0.88790140  0.10132840  1
  Cu  Cu16  1  0.25000000  0.71683467  0.75000000  1
  Cu  Cu17  1  0.75000000  0.28316533  0.25000000  1
  Yb  Yb18  1  0.75000000  0.34486055  0.75000000  1
  Yb  Yb19  1  0.25000000  0.65513945  0.25000000  1
  W  W20  1  0.25531614  0.16744415  0.00463977  1
  W  W21  1  0.74468386  0.83255585  0.99536023  1
  W  W22  1  0.24468386  0.16744415  0.49536023  1
  W  W23  1  0.75531614  0.83255585  0.50463977  1
