# generated using pymatgen
data_LiInO2
_symmetry_space_group_name_H-M   'P 1'
_cell_length_a   4.38402082
_cell_length_b   4.38402082
_cell_length_c   5.66804644
_cell_angle_alpha   112.75125748
_cell_angle_beta   112.75125747
_cell_angle_gamma   89.99999995
_symmetry_Int_Tables_number   1
_chemical_formula_structural   LiInO2
_chemical_formula_sum   'Li2 In2 O4'
_cell_volume   91.20104535
_cell_formula_units_Z   2
loop_
 _symmetry_equiv_pos_site_id
 _symmetry_equiv_pos_as_xyz
  1  'x, y, z'
loop_
 _atom_site_type_symbol
 _atom_site_label
 _atom_site_symmetry_multiplicity
 _atom_site_fract_x
 _atom_site_fract_y
 _atom_site_fract_z
 _atom_site_occupancy
  Li  Li0  1  0.87500000  0.12500000  0.75000000  1
  Li  Li1  1  0.12500000  0.87500000  0.25000000  1
  O  O2  1  0.14269772  0.39269772  0.28539543  1
  O  O3  1  0.39269772  0.14269772  0.78539543  1
  O  O4  1  0.60730228  0.85730228  0.21460457  1
  O  O5  1  0.85730228  0.60730228  0.71460457  1
  In  In6  1  0.62500000  0.37500000  0.25000000  1
  In  In7  1  0.37500000  0.62500000  0.75000000  1
