# generated using pymatgen
data_SbP(OF3)2
_symmetry_space_group_name_H-M   'P 1'
_cell_length_a   5.70032516
_cell_length_b   7.55809039
_cell_length_c   7.61625712
_cell_angle_alpha   88.35251680
_cell_angle_beta   76.15580267
_cell_angle_gamma   83.42640708
_symmetry_Int_Tables_number   1
_chemical_formula_structural   SbP(OF3)2
_chemical_formula_sum   'Sb2 P2 O4 F12'
_cell_volume   316.50829896
_cell_formula_units_Z   2
loop_
 _symmetry_equiv_pos_site_id
 _symmetry_equiv_pos_as_xyz
  1  'x, y, z'
loop_
 _atom_site_type_symbol
 _atom_site_label
 _atom_site_symmetry_multiplicity
 _atom_site_fract_x
 _atom_site_fract_y
 _atom_site_fract_z
 _atom_site_occupancy
  Sb  Sb0  1  0.58248861  0.23059335  0.75587681  1
  Sb  Sb1  1  0.41751139  0.76940665  0.24412319  1
  P  P2  1  0.22994090  0.19214536  0.16737313  1
  P  P3  1  0.77005910  0.80785464  0.83262687  1
  O  O4  1  0.56473873  0.73644227  0.97130759  1
  O  O5  1  0.78269099  0.00700186  0.82512768  1
  O  O6  1  0.43526127  0.26355773  0.02869241  1
  O  O7  1  0.21730901  0.99299814  0.17487232  1
  F  F8  1  0.39066370  0.43934356  0.70947286  1
  F  F9  1  0.24198171  0.26301253  0.35162358  1
  F  F10  1  0.01637194  0.72202667  0.85910854  1
  F  F11  1  0.73643686  0.18340096  0.51000748  1
  F  F12  1  0.26356314  0.81659904  0.48999252  1
  F  F13  1  0.60933630  0.56065644  0.29052714  1
  F  F14  1  0.83309646  0.35796505  0.79370225  1
  F  F15  1  0.16690354  0.64203495  0.20629775  1
  F  F16  1  0.33429761  0.08199047  0.75449473  1
  F  F17  1  0.66570239  0.91800953  0.24550527  1
  F  F18  1  0.75801829  0.73698747  0.64837642  1
  F  F19  1  0.98362806  0.27797333  0.14089146  1
