# generated using pymatgen
data_CsH5O3
_symmetry_space_group_name_H-M   'P 1'
_cell_length_a   6.83883945
_cell_length_b   9.26230690
_cell_length_c   13.35789190
_cell_angle_alpha   90.00000000
_cell_angle_beta   90.00000000
_cell_angle_gamma   90.00000000
_symmetry_Int_Tables_number   1
_chemical_formula_structural   CsH5O3
_chemical_formula_sum   'Cs8 H40 O24'
_cell_volume   846.13468819
_cell_formula_units_Z   8
loop_
 _symmetry_equiv_pos_site_id
 _symmetry_equiv_pos_as_xyz
  1  'x, y, z'
loop_
 _atom_site_type_symbol
 _atom_site_label
 _atom_site_symmetry_multiplicity
 _atom_site_fract_x
 _atom_site_fract_y
 _atom_site_fract_z
 _atom_site_occupancy
  Cs  Cs0  1  0.39448196  0.50669857  0.15691470  1
  Cs  Cs1  1  0.60551804  0.00669857  0.84308530  1
  Cs  Cs2  1  0.60551804  0.50669857  0.65691470  1
  Cs  Cs3  1  0.39448196  0.00669857  0.34308530  1
  Cs  Cs4  1  0.06742377  0.61867425  0.42420614  1
  Cs  Cs5  1  0.93257623  0.11867425  0.57579386  1
  Cs  Cs6  1  0.93257623  0.61867425  0.92420614  1
  Cs  Cs7  1  0.06742377  0.11867425  0.07579386  1
  O  O8  1  0.81708971  0.23682448  0.27409625  1
  O  O9  1  0.18291029  0.73682448  0.72590375  1
  O  O10  1  0.18291029  0.23682448  0.77409625  1
  O  O11  1  0.81708971  0.73682448  0.22590375  1
  O  O12  1  0.32153094  0.28679041  0.48964603  1
  O  O13  1  0.67846906  0.78679041  0.51035397  1
  O  O14  1  0.67846906  0.28679041  0.98964603  1
  O  O15  1  0.32153094  0.78679041  0.01035397  1
  O  O16  1  0.88384634  0.47667842  0.14365435  1
  O  O17  1  0.11615366  0.97667842  0.85634565  1
  O  O18  1  0.11615366  0.47667842  0.64365435  1
  O  O19  1  0.88384634  0.97667842  0.35634565  1
  O  O20  1  0.53533634  0.62161778  0.37078123  1
  O  O21  1  0.46466366  0.12161778  0.62921877  1
  O  O22  1  0.46466366  0.62161778  0.87078123  1
  O  O23  1  0.53533634  0.12161778  0.12921877  1
  O  O24  1  0.68401930  0.36221028  0.43616645  1
  O  O25  1  0.31598070  0.86221028  0.56383355  1
  O  O26  1  0.31598070  0.36221028  0.93616645  1
  O  O27  1  0.68401930  0.86221028  0.06383355  1
  O  O28  1  0.19448009  0.31424355  0.30494227  1
  O  O29  1  0.80551991  0.81424355  0.69505773  1
  O  O30  1  0.80551991  0.31424355  0.80494227  1
  O  O31  1  0.19448009  0.81424355  0.19505773  1
  H  H32  1  0.71728747  0.20386460  0.22593157  1
  H  H33  1  0.28271253  0.70386460  0.77406843  1
  H  H34  1  0.28271253  0.20386460  0.72593157  1
  H  H35  1  0.71728747  0.70386460  0.27406843  1
  H  H36  1  0.26130397  0.35993985  0.53268006  1
  H  H37  1  0.73869603  0.85993985  0.46731994  1
  H  H38  1  0.73869603  0.35993985  0.03268006  1
  H  H39  1  0.26130397  0.85993985  0.96731994  1
  H  H40  1  0.86556581  0.40113725  0.19617087  1
  H  H41  1  0.13443419  0.90113725  0.80382913  1
  H  H42  1  0.13443419  0.40113725  0.69617087  1
  H  H43  1  0.86556581  0.90113725  0.30382913  1
  H  H44  1  0.86186276  0.57437852  0.17729396  1
  H  H45  1  0.13813724  0.07437852  0.82270604  1
  H  H46  1  0.13813724  0.57437852  0.67729396  1
  H  H47  1  0.86186276  0.07437852  0.32270604  1
  H  H48  1  0.58848563  0.52475399  0.38966506  1
  H  H49  1  0.41151437  0.02475399  0.61033494  1
  H  H50  1  0.41151437  0.52475399  0.88966506  1
  H  H51  1  0.58848563  0.02475399  0.11033494  1
  H  H52  1  0.58757069  0.68700218  0.42712021  1
  H  H53  1  0.41242931  0.18700218  0.57287979  1
  H  H54  1  0.41242931  0.68700218  0.92712021  1
  H  H55  1  0.58757069  0.18700218  0.07287979  1
  H  H56  1  0.72564031  0.31057100  0.37150462  1
  H  H57  1  0.27435969  0.81057100  0.62849538  1
  H  H58  1  0.27435969  0.31057100  0.87150462  1
  H  H59  1  0.72564031  0.81057100  0.12849538  1
  H  H60  1  0.54637400  0.32953101  0.45378274  1
  H  H61  1  0.45362600  0.82953101  0.54621726  1
  H  H62  1  0.45362600  0.32953101  0.95378274  1
  H  H63  1  0.54637400  0.82953101  0.04621726  1
  H  H64  1  0.05633651  0.28274621  0.29645394  1
  H  H65  1  0.94366349  0.78274621  0.70354606  1
  H  H66  1  0.94366349  0.28274621  0.79645394  1
  H  H67  1  0.05633651  0.78274621  0.20354606  1
  H  H68  1  0.23237321  0.30333763  0.37837146  1
  H  H69  1  0.76762679  0.80333763  0.62162854  1
  H  H70  1  0.76762679  0.30333763  0.87837146  1
  H  H71  1  0.23237321  0.80333763  0.12162854  1
