# generated using pymatgen
data_Sb3Au3F22
_symmetry_space_group_name_H-M   'P 1'
_cell_length_a   10.44591818
_cell_length_b   10.96937229
_cell_length_c   15.83429729
_cell_angle_alpha   90.00000000
_cell_angle_beta   94.32949578
_cell_angle_gamma   90.00000000
_symmetry_Int_Tables_number   1
_chemical_formula_structural   Sb3Au3F22
_chemical_formula_sum   'Sb12 Au12 F88'
_cell_volume   1809.19807709
_cell_formula_units_Z   4
loop_
 _symmetry_equiv_pos_site_id
 _symmetry_equiv_pos_as_xyz
  1  'x, y, z'
loop_
 _atom_site_type_symbol
 _atom_site_label
 _atom_site_symmetry_multiplicity
 _atom_site_fract_x
 _atom_site_fract_y
 _atom_site_fract_z
 _atom_site_occupancy
  Sb  Sb0  1  0.89822769  0.87507800  0.03117319  1
  Sb  Sb1  1  0.90017495  0.62426375  0.52906078  1
  Sb  Sb2  1  0.89822769  0.12492200  0.53117319  1
  Sb  Sb3  1  0.63671759  0.36784397  0.72987411  1
  Sb  Sb4  1  0.35047514  0.62293110  0.94395694  1
  Sb  Sb5  1  0.63559272  0.12544258  0.23527271  1
  Sb  Sb6  1  0.35691805  0.13069964  0.93509525  1
  Sb  Sb7  1  0.90017495  0.37573625  0.02906078  1
  Sb  Sb8  1  0.63671759  0.63215603  0.22987411  1
  Sb  Sb9  1  0.35047514  0.37706890  0.44395694  1
  Sb  Sb10  1  0.63559272  0.87455742  0.73527271  1
  Sb  Sb11  1  0.35691805  0.86930036  0.43509525  1
  Au  Au12  1  0.94960129  0.11655312  0.86635892  1
  Au  Au13  1  0.37069330  0.62465482  0.68873793  1
  Au  Au14  1  0.13034117  0.36831769  0.73530642  1
  Au  Au15  1  0.13034117  0.63168231  0.23530642  1
  Au  Au16  1  0.13740043  0.13056321  0.23628242  1
  Au  Au17  1  0.94620285  0.38258131  0.36591756  1
  Au  Au18  1  0.31012433  0.12507103  0.60056355  1
  Au  Au19  1  0.94960129  0.88344688  0.36635892  1
  Au  Au20  1  0.37069330  0.37534518  0.18873793  1
  Au  Au21  1  0.13740043  0.86943679  0.73628242  1
  Au  Au22  1  0.94620285  0.61741869  0.86591756  1
  Au  Au23  1  0.31012433  0.87492897  0.10056355  1
  F  F24  1  0.05401533  0.71248167  0.78350953  1
  F  F25  1  0.46383905  0.46800570  0.72803596  1
  F  F26  1  0.05401533  0.28751833  0.28350953  1
  F  F27  1  0.88462493  0.78579964  0.91974014  1
  F  F28  1  0.88462493  0.21420036  0.41974014  1
  F  F29  1  0.79067904  0.27520313  0.73316501  1
  F  F30  1  0.72578757  0.98584461  0.27968679  1
  F  F31  1  0.60758627  0.80997093  0.84317784  1
  F  F32  1  0.65020162  0.08375558  0.12037571  1
  F  F33  1  0.72578757  0.01415539  0.77968679  1
  F  F34  1  0.47048253  0.94974505  0.73006014  1
  F  F35  1  0.37134465  0.96363897  0.54974595  1
  F  F36  1  0.53980959  0.71769355  0.68450404  1
  F  F37  1  0.20319568  0.46840917  0.18739633  1
  F  F38  1  0.78613581  0.77622350  0.73350414  1
  F  F39  1  0.96321374  0.76947969  0.58270090  1
  F  F40  1  0.91682657  0.52693840  0.62805248  1
  F  F41  1  0.47048253  0.05025495  0.23006014  1
  F  F42  1  0.72042671  0.51394316  0.76992160  1
  F  F43  1  0.52782642  0.91801384  0.42307812  1
  F  F44  1  0.29378453  0.98086919  0.88613832  1
  F  F45  1  0.18338802  0.16519715  0.96019728  1
  F  F46  1  0.18338802  0.83480285  0.46019728  1
  F  F47  1  0.06801659  0.91921778  0.00518176  1
  F  F48  1  0.83997851  0.48169809  0.45523456  1
  F  F49  1  0.72042671  0.48605684  0.26992160  1
  F  F50  1  0.78613581  0.22377650  0.23350414  1
  F  F51  1  0.25040042  0.28200069  0.65278729  1
  F  F52  1  0.33489567  0.21754209  0.83103849  1
  F  F53  1  0.52474058  0.59196993  0.92943254  1
  F  F54  1  0.01135006  0.95969099  0.81021823  1
  F  F55  1  0.29378453  0.01913081  0.38613832  1
  F  F56  1  0.41111103  0.26639860  0.00322538  1
  F  F57  1  0.53980959  0.28230645  0.18450404  1
  F  F58  1  0.84499390  0.01953959  0.95887571  1
  F  F59  1  0.52474058  0.40803007  0.42943254  1
  F  F60  1  0.06801659  0.08078222  0.50518176  1
  F  F61  1  0.33937004  0.27351808  0.34558945  1
  F  F62  1  0.04893240  0.21021718  0.77828478  1
  F  F63  1  0.79067904  0.72479687  0.23316501  1
  F  F64  1  0.25040042  0.71799931  0.15278729  1
  F  F65  1  0.18086049  0.32366975  0.46462519  1
  F  F66  1  0.46383905  0.53199430  0.22803596  1
  F  F67  1  0.00650669  0.54055224  0.31072219  1
  F  F68  1  0.37134465  0.03636103  0.04974595  1
  F  F69  1  0.96321374  0.23052031  0.08270090  1
  F  F70  1  0.72342736  0.15943068  0.53935591  1
  F  F71  1  0.28654553  0.48973379  0.87576888  1
  F  F72  1  0.04893240  0.78978282  0.27828478  1
  F  F73  1  0.06620303  0.42142894  -0.00086362  1
  F  F74  1  0.41111103  0.73360140  0.50322538  1
  F  F75  1  0.83997851  0.51830191  0.95523456  1
  F  F76  1  0.96018042  0.27161807  0.58328231  1
  F  F77  1  0.26061974  0.77297719  0.65925931  1
  F  F78  1  0.88274267  0.28255309  0.91840761  1
  F  F79  1  0.96018042  0.72838193  0.08328231  1
  F  F80  1  0.40906545  0.77401334  0.01328898  1
  F  F81  1  0.84499390  0.98046041  0.45887571  1
  F  F82  1  0.60122964  0.33066556  0.84247957  1
  F  F83  1  0.35791282  0.46739800  0.54667167  1
  F  F84  1  0.26061974  0.22702281  0.15925931  1
  F  F85  1  0.52978908  0.76476146  0.19024664  1
  F  F86  1  0.72342736  0.84056932  0.03935591  1
  F  F87  1  0.72582970  0.34058627  0.03838514  1
  F  F88  1  0.72582970  0.65941373  0.53838514  1
  F  F89  1  0.20319568  0.53159083  0.68739633  1
  F  F90  1  0.60758627  0.19002907  0.34317784  1
  F  F91  1  0.33489567  0.78245791  0.33103849  1
  F  F92  1  0.91547090  0.03034687  0.63127850  1
  F  F93  1  0.60122964  0.66933444  0.34247957  1
  F  F94  1  0.00650669  0.45944776  0.81072219  1
  F  F95  1  0.91682657  0.47306160  0.12805248  1
  F  F96  1  0.52978908  0.23523854  0.69024664  1
  F  F97  1  0.35791282  0.53260200  0.04667167  1
  F  F98  1  0.01135006  0.04030901  0.31021823  1
  F  F99  1  0.52782642  0.08198616  0.92307812  1
  F  F100  1  0.40906545  0.22598666  0.51328898  1
  F  F101  1  0.06620303  0.57857106  0.49913638  1
  F  F102  1  0.21063212  0.96878635  0.18508574  1
  F  F103  1  0.18086049  0.67633025  0.96462519  1
  F  F104  1  0.91547090  0.96965313  0.13127850  1
  F  F105  1  0.28654553  0.51026621  0.37576888  1
  F  F106  1  0.65020162  0.91624442  0.62037571  1
  F  F107  1  0.64427761  0.57837326  0.11678774  1
  F  F108  1  0.64427761  0.42162674  0.61678774  1
  F  F109  1  0.88274267  0.71744691  0.41840761  1
  F  F110  1  0.33937004  0.72648192  0.84558945  1
  F  F111  1  0.21063212  0.03121365  0.68508574  1
