# generated using pymatgen
data_RbLi7(SiO4)2
_symmetry_space_group_name_H-M   'P 1'
_cell_length_a   6.43610774
_cell_length_b   7.85947504
_cell_length_c   8.54037787
_cell_angle_alpha   90.49883476
_cell_angle_beta   112.13588933
_cell_angle_gamma   89.99999877
_symmetry_Int_Tables_number   1
_chemical_formula_structural   RbLi7(SiO4)2
_chemical_formula_sum   'Rb2 Li14 Si4 O16'
_cell_volume   400.15019183
_cell_formula_units_Z   2
loop_
 _symmetry_equiv_pos_site_id
 _symmetry_equiv_pos_as_xyz
  1  'x, y, z'
loop_
 _atom_site_type_symbol
 _atom_site_label
 _atom_site_symmetry_multiplicity
 _atom_site_fract_x
 _atom_site_fract_y
 _atom_site_fract_z
 _atom_site_occupancy
  Rb  Rb0  1  0.75536204  0.53049165  0.51072409  1
  Rb  Rb1  1  0.24463796  0.46950835  0.48927591  1
  Li  Li2  1  0.32084304  0.63145225  0.13394287  1
  Li  Li3  1  0.18690017  0.36854775  0.86605713  1
  Li  Li4  1  0.81309983  0.63145225  0.13394287  1
  Li  Li5  1  0.06855325  0.28712128  0.13710651  1
  Li  Li6  1  0.92669417  0.12955315  0.36967530  1
  Li  Li7  1  0.67915696  0.36854775  0.86605713  1
  Li  Li8  1  0.93144675  0.71287872  0.86289349  1
  Li  Li9  1  0.50000000  0.00000000  0.00000000  1
  Li  Li10  1  0.44298114  0.12955315  0.36967530  1
  Li  Li11  1  0.35720716  0.13675735  0.71441433  1
  Li  Li12  1  0.55701886  0.87044685  0.63032470  1
  Li  Li13  1  0.07330583  0.87044685  0.63032470  1
  Li  Li14  1  0.64279284  0.86324265  0.28558567  1
  Li  Li15  1  0.00000000  0.00000000  0.00000000  1
  Si  Si16  1  0.57077427  0.29245202  0.14154854  1
  Si  Si17  1  0.42922573  0.70754798  0.85845146  1
  Si  Si18  1  0.14655552  0.85949737  0.29311104  1
  Si  Si19  1  0.85344448  0.14050263  0.70688896  1
  O  O20  1  0.12827079  0.06709879  0.25654158  1
  O  O21  1  0.61760024  0.60685554  0.80296746  1
  O  O22  1  0.05239590  0.76365480  0.10479181  1
  O  O23  1  0.53202330  0.74915690  0.06404661  1
  O  O24  1  0.02016187  0.19451514  0.60758693  1
  O  O25  1  0.38421567  0.89755087  0.76843134  1
  O  O26  1  0.94760410  0.23634520  0.89520819  1
  O  O27  1  0.87172921  0.93290121  0.74345842  1
  O  O28  1  0.41257494  0.80548486  0.39241307  1
  O  O29  1  0.81463278  0.39314446  0.19703254  1
  O  O30  1  0.61578433  0.10244913  0.23156866  1
  O  O31  1  0.38239976  0.39314446  0.19703254  1
  O  O32  1  0.18536722  0.60685554  0.80296746  1
  O  O33  1  0.97983813  0.80548486  0.39241307  1
  O  O34  1  0.58742506  0.19451514  0.60758693  1
  O  O35  1  0.46797670  0.25084310  0.93595339  1
