# generated using pymatgen
data_KErP2S7
_symmetry_space_group_name_H-M   'P 1'
_cell_length_a   9.01621227
_cell_length_b   9.70882988
_cell_length_c   12.45682586
_cell_angle_alpha   90.00000000
_cell_angle_beta   90.00000000
_cell_angle_gamma   89.82705401
_symmetry_Int_Tables_number   1
_chemical_formula_structural   KErP2S7
_chemical_formula_sum   'K4 Er4 P8 S28'
_cell_volume   1090.42659126
_cell_formula_units_Z   4
loop_
 _symmetry_equiv_pos_site_id
 _symmetry_equiv_pos_as_xyz
  1  'x, y, z'
loop_
 _atom_site_type_symbol
 _atom_site_label
 _atom_site_symmetry_multiplicity
 _atom_site_fract_x
 _atom_site_fract_y
 _atom_site_fract_z
 _atom_site_occupancy
  K  K0  1  0.86981453  0.60971396  0.30916760  1
  K  K1  1  0.63018547  0.39028604  0.80916760  1
  K  K2  1  0.13018547  0.39028604  0.69083240  1
  K  K3  1  0.36981453  0.60971396  0.19083240  1
  Er  Er4  1  0.89328185  0.85859617  0.64224965  1
  Er  Er5  1  0.60671815  0.14140383  0.14224965  1
  Er  Er6  1  0.10671815  0.14140383  0.35775035  1
  Er  Er7  1  0.39328185  0.85859617  0.85775035  1
  P  P8  1  0.52389955  0.72654633  0.60736341  1
  P  P9  1  0.02389955  0.72654633  0.89263659  1
  P  P10  1  0.80240617  0.17661153  0.53414509  1
  P  P11  1  0.69759383  0.82338847  0.03414509  1
  P  P12  1  0.30240617  0.17661153  0.96585491  1
  P  P13  1  0.19759383  0.82338847  0.46585491  1
  P  P14  1  0.47610045  0.27345367  0.39263659  1
  P  P15  1  0.97610045  0.27345367  0.10736341  1
  S  S16  1  0.38679475  0.63239359  0.71315185  1
  S  S17  1  0.67690629  0.99816357  0.94543485  1
  S  S18  1  0.21306181  0.63483399  0.94188593  1
  S  S19  1  0.17690629  0.99816357  0.55456515  1
  S  S20  1  0.82309371  0.00183643  0.44543485  1
  S  S21  1  0.08132928  0.90753162  0.82017373  1
  S  S22  1  0.35346569  0.14365003  0.80861067  1
  S  S23  1  0.32309371  0.00183643  0.05456515  1
  S  S24  1  0.42329034  0.75728376  0.45259965  1
  S  S25  1  0.92329034  0.75728376  0.04740035  1
  S  S26  1  0.64653431  0.85634997  0.19138933  1
  S  S27  1  0.11320525  0.36760641  0.21315185  1
  S  S28  1  0.28693819  0.36516601  0.44188593  1
  S  S29  1  0.61320525  0.36760641  0.28684815  1
  S  S30  1  0.71306181  0.63483399  0.55811407  1
  S  S31  1  0.06803038  0.67508591  0.53076998  1
  S  S32  1  0.58132928  0.90753162  0.67982627  1
  S  S33  1  0.78693819  0.36516601  0.05811407  1
  S  S34  1  0.56803038  0.67508591  0.96923002  1
  S  S35  1  0.07670966  0.24271624  0.95259965  1
  S  S36  1  0.41867072  0.09246838  0.32017373  1
  S  S37  1  0.85346569  0.14365003  0.69138933  1
  S  S38  1  0.14653431  0.85634997  0.30861067  1
  S  S39  1  0.88679475  0.63239359  0.78684815  1
  S  S40  1  0.43196962  0.32491409  0.03076998  1
  S  S41  1  0.93196962  0.32491409  0.46923002  1
  S  S42  1  0.57670966  0.24271624  0.54740035  1
  S  S43  1  0.91867072  0.09246838  0.17982627  1
