# generated using pymatgen
data_Na2Zn(SO4)2
_symmetry_space_group_name_H-M   'P 1'
_cell_length_a   8.81316555
_cell_length_b   10.52052540
_cell_length_c   15.31639005
_cell_angle_alpha   90.00000000
_cell_angle_beta   90.80327926
_cell_angle_gamma   90.00000000
_symmetry_Int_Tables_number   1
_chemical_formula_structural   Na2Zn(SO4)2
_chemical_formula_sum   'Na16 Zn8 S16 O64'
_cell_volume   1419.98282600
_cell_formula_units_Z   8
loop_
 _symmetry_equiv_pos_site_id
 _symmetry_equiv_pos_as_xyz
  1  'x, y, z'
loop_
 _atom_site_type_symbol
 _atom_site_label
 _atom_site_symmetry_multiplicity
 _atom_site_fract_x
 _atom_site_fract_y
 _atom_site_fract_z
 _atom_site_occupancy
  Na  Na0  1  0.75000000  0.00697684  0.25000000  1
  Na  Na1  1  0.19790440  0.60247327  0.01392617  1
  Na  Na2  1  0.75000000  0.41998618  0.75000000  1
  Na  Na3  1  0.69973910  0.89389230  0.98056734  1
  Na  Na4  1  0.80209560  0.39752673  0.98607383  1
  Na  Na5  1  0.30209560  0.60247327  0.48607383  1
  Na  Na6  1  0.25000000  0.15963989  0.25000000  1
  Na  Na7  1  0.25000000  0.99302316  0.75000000  1
  Na  Na8  1  0.75000000  0.34732629  0.25000000  1
  Na  Na9  1  0.30026090  0.10610770  0.01943266  1
  Na  Na10  1  0.75000000  0.84036011  0.75000000  1
  Na  Na11  1  0.25000000  0.58001382  0.25000000  1
  Na  Na12  1  0.25000000  0.65267371  0.75000000  1
  Na  Na13  1  0.19973910  0.10610770  0.48056734  1
  Na  Na14  1  0.69790440  0.39752673  0.51392617  1
  Na  Na15  1  0.80026090  0.89389230  0.51943266  1
  Zn  Zn16  1  0.57304826  0.12528630  0.62407042  1
  Zn  Zn17  1  0.91525372  0.61925928  0.37689285  1
  Zn  Zn18  1  0.58474628  0.61925928  0.12310715  1
  Zn  Zn19  1  0.08474628  0.38074072  0.62310715  1
  Zn  Zn20  1  0.42695174  0.87471370  0.37592958  1
  Zn  Zn21  1  0.07304826  0.87471370  0.12407042  1
  Zn  Zn22  1  0.41525372  0.38074072  0.87689285  1
  Zn  Zn23  1  0.92695174  0.12528630  0.87592958  1
  S  S24  1  0.07634157  0.87000103  0.90956452  1
  S  S25  1  0.56286599  0.11096686  0.84266567  1
  S  S26  1  0.93713401  0.11096686  0.65733433  1
  S  S27  1  0.92365843  0.12999897  0.09043548  1
  S  S28  1  0.06509371  0.37235594  0.40443979  1
  S  S29  1  0.43713401  0.88903314  0.15733433  1
  S  S30  1  0.92690259  0.60741778  0.15716286  1
  S  S31  1  0.93490629  0.62764406  0.59556021  1
  S  S32  1  0.57309741  0.60741778  0.34283714  1
  S  S33  1  0.57634157  0.12999897  0.40956452  1
  S  S34  1  0.06286599  0.88903314  0.34266567  1
  S  S35  1  0.56509371  0.62764406  0.90443979  1
  S  S36  1  0.42365843  0.87000103  0.59043548  1
  S  S37  1  0.42690259  0.39258222  0.65716286  1
  S  S38  1  0.43490629  0.37235594  0.09556021  1
  S  S39  1  0.07309741  0.39258222  0.84283714  1
  O  O40  1  0.42647818  0.26969337  0.15997674  1
  O  O41  1  0.92985903  0.31287538  0.84701334  1
  O  O42  1  0.41415776  0.15664234  0.39354435  1
  O  O43  1  0.66864885  0.52007477  0.88403216  1
  O  O44  1  0.60105493  0.68102886  0.99335498  1
  O  O45  1  0.83135115  0.52007477  0.61596784  1
  O  O46  1  0.87085283  0.18335545  0.00402103  1
  O  O47  1  0.08584224  0.15664234  0.10645565  1
  O  O48  1  0.20575497  0.30424119  0.85289349  1
  O  O49  1  0.07372313  0.45626906  0.75556892  1
  O  O50  1  0.59996128  0.98583999  0.41525455  1
  O  O51  1  0.59504592  0.42801665  0.09321112  1
  O  O52  1  0.39894507  0.31897114  0.00664502  1
  O  O53  1  0.50090808  0.07983854  0.75377408  1
  O  O54  1  0.40495408  0.57198335  0.90678888  1
  O  O55  1  0.33135115  0.47992523  0.11596784  1
  O  O56  1  0.91626473  0.25252337  0.64840438  1
  O  O57  1  0.90003872  0.98583999  0.08474545  1
  O  O58  1  0.96249441  0.94142798  0.40844557  1
  O  O59  1  0.21765119  0.94989244  0.35178002  1
  O  O60  1  0.28234881  0.94989244  0.14821998  1
  O  O61  1  0.89894507  0.68102886  0.50664502  1
  O  O62  1  0.79424503  0.69575881  0.14710651  1
  O  O63  1  0.82723463  0.17988855  0.16004350  1
  O  O64  1  0.10105493  0.31897114  0.49335498  1
  O  O65  1  0.16864885  0.47992523  0.38403216  1
  O  O66  1  0.03750559  0.05857202  0.59155443  1
  O  O67  1  0.17276537  0.82011145  0.83995650  1
  O  O68  1  0.58373527  0.25252337  0.85159562  1
  O  O69  1  0.71765119  0.05010756  0.85178002  1
  O  O70  1  0.09996128  0.01416001  0.91525455  1
  O  O71  1  0.43099784  0.48810596  0.58818867  1
  O  O72  1  0.57352182  0.73030663  0.84002326  1
  O  O73  1  0.46249441  0.05857202  0.90844557  1
  O  O74  1  0.57372313  0.54373094  0.25556892  1
  O  O75  1  0.49909192  0.92016146  0.24622592  1
  O  O76  1  0.09504592  0.57198335  0.59321112  1
  O  O77  1  0.70575497  0.69575881  0.35289349  1
  O  O78  1  0.00090808  0.92016146  0.25377408  1
  O  O79  1  0.32723463  0.82011145  0.66004350  1
  O  O80  1  0.53750559  0.94142798  0.09155443  1
  O  O81  1  0.92627687  0.54373094  0.24443108  1
  O  O82  1  0.93099784  0.51189404  0.08818867  1
  O  O83  1  0.56900216  0.51189404  0.41181133  1
  O  O84  1  0.62914717  0.18335545  0.49597897  1
  O  O85  1  0.07352182  0.26969337  0.34002326  1
  O  O86  1  0.08373527  0.74747663  0.35159562  1
  O  O87  1  0.57014097  0.31287538  0.65298666  1
  O  O88  1  0.12914717  0.81664455  0.99597897  1
  O  O89  1  0.37085283  0.81664455  0.50402103  1
  O  O90  1  0.90495408  0.42801665  0.40678888  1
  O  O91  1  0.06900216  0.48810596  0.91181133  1
  O  O92  1  0.91415776  0.84335766  0.89354435  1
  O  O93  1  0.58584224  0.84335766  0.60645565  1
  O  O94  1  0.78234881  0.05010756  0.64821998  1
  O  O95  1  0.40003872  0.01416001  0.58474545  1
  O  O96  1  0.67276537  0.17988855  0.33995650  1
  O  O97  1  0.29424503  0.30424119  0.64710651  1
  O  O98  1  0.41626473  0.74747663  0.14840438  1
  O  O99  1  0.42627687  0.45626906  0.74443108  1
  O  O100  1  0.07014097  0.68712462  0.15298666  1
  O  O101  1  0.92647818  0.73030663  0.65997674  1
  O  O102  1  0.99909192  0.07983854  0.74622592  1
  O  O103  1  0.42985903  0.68712462  0.34701334  1
