# generated using pymatgen
data_BaSb2F12
_symmetry_space_group_name_H-M   'P 1'
_cell_length_a   5.74598100
_cell_length_b   5.73964093
_cell_length_c   9.43677097
_cell_angle_alpha   95.16078336
_cell_angle_beta   97.50524450
_cell_angle_gamma   118.41949995
_symmetry_Int_Tables_number   1
_chemical_formula_structural   BaSb2F12
_chemical_formula_sum   'Ba1 Sb2 F12'
_cell_volume   267.21056955
_cell_formula_units_Z   1
loop_
 _symmetry_equiv_pos_site_id
 _symmetry_equiv_pos_as_xyz
  1  'x, y, z'
loop_
 _atom_site_type_symbol
 _atom_site_label
 _atom_site_symmetry_multiplicity
 _atom_site_fract_x
 _atom_site_fract_y
 _atom_site_fract_z
 _atom_site_occupancy
  Ba  Ba0  1  0.03619890  0.01211013  0.07506170  1
  Sb  Sb1  1  0.50050863  0.77974074  0.41053652  1
  Sb  Sb2  1  0.30573138  0.62354106  0.86109154  1
  F  F3  1  0.09666700  0.76634417  0.77485877  1
  F  F4  1  0.32796153  0.44579896  0.26866165  1
  F  F5  1  0.48222706  0.95742715  0.00530639  1
  F  F6  1  0.61852362  0.79343609  0.77939968  1
  F  F7  1  0.51189539  0.50970457  0.99068100  1
  F  F8  1  0.72946321  0.66590984  0.50388428  1
  F  F9  1  0.13489228  0.27781078  0.74746461  1
  F  F10  1  0.26982948  0.87570294  0.28730173  1
  F  F11  1  0.65588493  0.11757137  0.53210231  1
  F  F12  1  0.75572441  0.93321153  0.28203333  1
  F  F13  1  0.22443401  0.60908965  0.51691558  1
  F  F14  1  0.04005818  0.48460102  0.98670091  1
