# generated using pymatgen
data_AsSe(ClF2)3
_symmetry_space_group_name_H-M   'P 1'
_cell_length_a   7.89346168
_cell_length_b   9.61156696
_cell_length_c   12.20221930
_cell_angle_alpha   90.00000000
_cell_angle_beta   98.37545745
_cell_angle_gamma   90.00000000
_symmetry_Int_Tables_number   1
_chemical_formula_structural   AsSe(ClF2)3
_chemical_formula_sum   'As4 Se4 Cl12 F24'
_cell_volume   915.89105891
_cell_formula_units_Z   4
loop_
 _symmetry_equiv_pos_site_id
 _symmetry_equiv_pos_as_xyz
  1  'x, y, z'
loop_
 _atom_site_type_symbol
 _atom_site_label
 _atom_site_symmetry_multiplicity
 _atom_site_fract_x
 _atom_site_fract_y
 _atom_site_fract_z
 _atom_site_occupancy
  As  As0  1  0.18814941  0.73669332  0.07185809  1
  As  As1  1  0.81185059  0.26330668  0.92814191  1
  As  As2  1  0.18814941  0.76330668  0.57185809  1
  As  As3  1  0.81185059  0.23669332  0.42814191  1
  Se  Se4  1  0.81319248  0.82124394  0.30482772  1
  Se  Se5  1  0.18680752  0.17875606  0.69517228  1
  Se  Se6  1  0.81319248  0.67875606  0.80482772  1
  Se  Se7  1  0.18680752  0.32124394  0.19517228  1
  Cl  Cl8  1  0.28389542  0.43822612  0.34018326  1
  Cl  Cl9  1  0.78472561  0.88691776  0.74225943  1
  Cl  Cl10  1  0.21527439  0.38691776  0.75774057  1
  Cl  Cl11  1  0.21527439  0.11308224  0.25774057  1
  Cl  Cl12  1  0.71610458  0.56177388  0.65981674  1
  Cl  Cl13  1  0.59777719  0.82741260  0.39353774  1
  Cl  Cl14  1  0.71610458  0.93822612  0.15981674  1
  Cl  Cl15  1  0.78472561  0.61308224  0.24225943  1
  Cl  Cl16  1  0.28389542  0.06177388  0.84018326  1
  Cl  Cl17  1  0.40222281  0.17258740  0.60646226  1
  Cl  Cl18  1  0.40222281  0.32741260  0.10646226  1
  Cl  Cl19  1  0.59777719  0.67258740  0.89353774  1
  F  F20  1  0.98317433  0.71541787  0.49790855  1
  F  F21  1  0.01682567  0.21541787  0.00209145  1
  F  F22  1  0.10002698  0.92933643  0.60081222  1
  F  F23  1  0.24418209  0.66848828  0.94722196  1
  F  F24  1  0.72810530  0.09901759  0.95583517  1
  F  F25  1  0.98317433  0.78458213  0.99790855  1
  F  F26  1  0.38719215  0.81431089  0.64550745  1
  F  F27  1  0.75581791  0.33151172  0.05277804  1
  F  F28  1  0.61280785  0.31431089  0.85449255  1
  F  F29  1  0.27189470  0.90098241  0.04416483  1
  F  F30  1  0.89997302  0.42933643  0.89918778  1
  F  F31  1  0.72810530  0.40098241  0.45583517  1
  F  F32  1  0.24418209  0.83151172  0.44722196  1
  F  F33  1  0.89997302  0.07066357  0.39918778  1
  F  F34  1  0.61280785  0.18568911  0.35449255  1
  F  F35  1  0.01682567  0.28458213  0.50209145  1
  F  F36  1  0.12199623  0.69718266  0.69548273  1
  F  F37  1  0.87800377  0.30281734  0.30451727  1
  F  F38  1  0.27189470  0.59901759  0.54416483  1
  F  F39  1  0.75581791  0.16848828  0.55277804  1
  F  F40  1  0.10002698  0.57066357  0.10081222  1
  F  F41  1  0.12199623  0.80281734  0.19548273  1
  F  F42  1  0.38719215  0.68568911  0.14550745  1
  F  F43  1  0.87800377  0.19718266  0.80451727  1
