# generated using pymatgen
data_Li2TiCo3O8
_symmetry_space_group_name_H-M   'P 1'
_cell_length_a   8.45798517
_cell_length_b   8.10126641
_cell_length_c   8.53070544
_cell_angle_alpha   90.09718842
_cell_angle_beta   90.17889873
_cell_angle_gamma   90.06020582
_symmetry_Int_Tables_number   1
_chemical_formula_structural   Li2TiCo3O8
_chemical_formula_sum   'Li8 Ti4 Co12 O32'
_cell_volume   584.52325755
_cell_formula_units_Z   4
loop_
 _symmetry_equiv_pos_site_id
 _symmetry_equiv_pos_as_xyz
  1  'x, y, z'
loop_
 _atom_site_type_symbol
 _atom_site_label
 _atom_site_symmetry_multiplicity
 _atom_site_fract_x
 _atom_site_fract_y
 _atom_site_fract_z
 _atom_site_occupancy
  Li  Li0  1  0.99894010  0.99330055  0.00031989  1
  Li  Li1  1  0.24882341  0.25614820  0.24907020  1
  Li  Li2  1  0.24812391  0.74531116  0.75336037  1
  Li  Li3  1  0.50299100  0.00589181  0.49980358  1
  Li  Li4  1  0.49707157  0.50503543  0.00296304  1
  Li  Li5  1  0.75025250  0.24516398  0.74597604  1
  Li  Li6  1  0.75140453  0.75673868  0.24845759  1
  Li  Li7  1  0.00209626  0.49320016  0.49964250  1
  Ti  Ti8  1  0.13066021  0.87521462  0.37627492  1
  Ti  Ti9  1  0.36492387  0.12677957  0.88781935  1
  Ti  Ti10  1  0.63419017  0.62868623  0.61247342  1
  Ti  Ti11  1  0.87427787  0.37151257  0.12169666  1
  Co  Co12  1  0.12207651  0.12938500  0.62274864  1
  Co  Co13  1  0.12932358  0.38103558  0.87656026  1
  Co  Co14  1  0.12005055  0.62572466  0.12864845  1
  Co  Co15  1  0.37915353  0.37574649  0.62897182  1
  Co  Co16  1  0.36950500  0.61631279  0.37107566  1
  Co  Co17  1  0.37443698  0.86900614  0.12092721  1
  Co  Co18  1  0.62492057  0.37110666  0.37549009  1
  Co  Co19  1  0.62933598  0.11837846  0.12857852  1
  Co  Co20  1  0.62090904  0.87519325  0.87173379  1
  Co  Co21  1  0.87922172  0.12468127  0.37318158  1
  Co  Co22  1  0.87454365  0.87820012  0.62414763  1
  Co  Co23  1  0.87806054  0.62997120  0.88002820  1
  O  O24  1  0.10280366  0.11831081  0.38054768  1
  O  O25  1  0.11926174  0.88679647  0.60616146  1
  O  O26  1  0.11536073  0.61758330  0.90453009  1
  O  O27  1  0.13901931  0.13596355  0.86652021  1
  O  O28  1  0.10948429  0.39361762  0.11636413  1
  O  O29  1  0.14715870  0.36783122  0.64143613  1
  O  O30  1  0.12745657  0.63425895  0.35369737  1
  O  O31  1  0.13130786  0.85758926  0.14208341  1
  O  O32  1  0.36757152  0.15081639  0.63778634  1
  O  O33  1  0.36924860  0.36172658  0.87098723  1
  O  O34  1  0.34558011  0.63348414  0.13496559  1
  O  O35  1  0.38664461  0.60065539  0.61815691  1
  O  O36  1  0.35718423  0.86212113  0.36958799  1
  O  O37  1  0.39168294  0.38519047  0.38125993  1
  O  O38  1  0.38120437  0.11307301  0.11031656  1
  O  O39  1  0.38452562  0.88629559  0.88269665  1
  O  O40  1  0.60817093  0.38455902  0.61669025  1
  O  O41  1  0.61779102  0.61582950  0.39100848  1
  O  O42  1  0.60972489  0.88480080  0.11057524  1
  O  O43  1  0.64305921  0.36086180  0.13052144  1
  O  O44  1  0.61248814  0.09882716  0.88114759  1
  O  O45  1  0.65425841  0.13189586  0.36413612  1
  O  O46  1  0.63153220  0.86355265  0.63447486  1
  O  O47  1  0.63015892  0.65141857  0.86291557  1
  O  O48  1  0.86780757  0.35740367  0.35872286  1
  O  O49  1  0.87118951  0.13281848  0.14478091  1
  O  O50  1  0.86262121  0.86461276  0.85678596  1
  O  O51  1  0.88820215  0.89509421  0.38639308  1
  O  O52  1  0.85792371  0.63098487  0.63387935  1
  O  O53  1  0.88817250  0.11870738  0.59799585  1
  O  O54  1  0.88020228  0.38887760  0.89262108  1
  O  O55  1  0.89590646  0.61685521  0.12044428  1
