# generated using pymatgen
data_TiPHO5
_symmetry_space_group_name_H-M   'P 1'
_cell_length_a   7.16376974
_cell_length_b   7.48501003
_cell_length_c   7.48593571
_cell_angle_alpha   116.84418785
_cell_angle_beta   90.00000000
_cell_angle_gamma   90.00000000
_symmetry_Int_Tables_number   1
_chemical_formula_structural   TiPHO5
_chemical_formula_sum   'Ti4 P4 H4 O20'
_cell_volume   358.14651398
_cell_formula_units_Z   4
loop_
 _symmetry_equiv_pos_site_id
 _symmetry_equiv_pos_as_xyz
  1  'x, y, z'
loop_
 _atom_site_type_symbol
 _atom_site_label
 _atom_site_symmetry_multiplicity
 _atom_site_fract_x
 _atom_site_fract_y
 _atom_site_fract_z
 _atom_site_occupancy
  Ti  Ti0  1  0.72628412  0.71818572  0.97272817  1
  Ti  Ti1  1  0.22439469  0.71931135  0.47028731  1
  Ti  Ti2  1  0.72439469  0.28068865  0.52971269  1
  Ti  Ti3  1  0.22628412  0.28181428  0.02727183  1
  P  P4  1  0.36263170  0.00134367  0.24982159  1
  P  P5  1  0.86263170  0.99865633  0.75017841  1
  P  P6  1  0.11184385  0.49926254  0.74913802  1
  P  P7  1  0.61184385  0.50073746  0.25086198  1
  H  H8  1  0.47257634  0.04466234  0.70504049  1
  H  H9  1  0.97257634  0.95533766  0.29495951  1
  H  H10  1  0.92560399  0.07345140  0.17694323  1
  H  H11  1  0.42560399  0.92654860  0.82305677  1
  O  O12  1  0.36431279  0.99587805  0.75385583  1
  O  O13  1  0.23583081  0.09800697  0.15075063  1
  O  O14  1  0.65031191  0.49909683  0.75143548  1
  O  O15  1  0.98622635  0.15847166  0.91453073  1
  O  O16  1  0.98740828  0.84103476  0.58631831  1
  O  O17  1  0.23011747  0.90689082  0.34741985  1
  O  O18  1  0.98842987  0.66182533  0.91149644  1
  O  O19  1  0.73583081  0.90199303  0.84924937  1
  O  O20  1  0.15031191  0.50090317  0.24856452  1
  O  O21  1  0.48842987  0.33817467  0.08850356  1
  O  O22  1  0.86431279  0.00412195  0.24614417  1
  O  O23  1  0.73688047  0.40271036  0.34957620  1
  O  O24  1  0.48622635  0.84152834  0.08546927  1
  O  O25  1  0.23803912  0.40086436  0.84657346  1
  O  O26  1  0.98680825  0.33618503  0.58914793  1
  O  O27  1  0.48680825  0.66381497  0.41085207  1
  O  O28  1  0.73011747  0.09310918  0.65258015  1
  O  O29  1  0.23688047  0.59728964  0.65042380  1
  O  O30  1  0.73803912  0.59913564  0.15342654  1
  O  O31  1  0.48740828  0.15896524  0.41368169  1
