# generated using pymatgen
data_CuP4S3I
_symmetry_space_group_name_H-M   'P 1'
_cell_length_a   8.17765032
_cell_length_b   10.90966477
_cell_length_c   11.79479159
_cell_angle_alpha   90.00000000
_cell_angle_beta   110.28338106
_cell_angle_gamma   90.00000000
_symmetry_Int_Tables_number   1
_chemical_formula_structural   CuP4S3I
_chemical_formula_sum   'Cu4 P16 S12 I4'
_cell_volume   987.02511204
_cell_formula_units_Z   4
loop_
 _symmetry_equiv_pos_site_id
 _symmetry_equiv_pos_as_xyz
  1  'x, y, z'
loop_
 _atom_site_type_symbol
 _atom_site_label
 _atom_site_symmetry_multiplicity
 _atom_site_fract_x
 _atom_site_fract_y
 _atom_site_fract_z
 _atom_site_occupancy
  Cu  Cu0  1  0.79645480  0.50000000  0.00000000  1
  Cu  Cu1  1  0.29645480  0.00000000  0.00000000  1
  Cu  Cu2  1  0.70354520  0.00000000  0.00000000  1
  Cu  Cu3  1  0.20354520  0.50000000  0.00000000  1
  P  P4  1  0.38024094  0.70635788  0.76048188  1
  P  P5  1  0.71722978  0.52671710  0.43445957  1
  P  P6  1  0.28070484  0.54094543  0.83612207  1
  P  P7  1  0.55541723  0.54094543  0.83612207  1
  P  P8  1  0.21929516  0.04094543  0.16387793  1
  P  P9  1  0.78070484  0.95905457  0.83612207  1
  P  P10  1  0.11975906  0.20635788  0.23951812  1
  P  P11  1  0.94458277  0.04094543  0.16387793  1
  P  P12  1  0.88024094  0.79364212  0.76048188  1
  P  P13  1  0.05541723  0.95905457  0.83612207  1
  P  P14  1  0.78277022  0.02671710  0.56554043  1
  P  P15  1  0.71929516  0.45905457  0.16387793  1
  P  P16  1  0.28277022  0.47328290  0.56554043  1
  P  P17  1  0.61975906  0.29364212  0.23951812  1
  P  P18  1  0.44458277  0.45905457  0.16387793  1
  P  P19  1  0.21722978  0.97328290  0.43445957  1
  S  S20  1  0.45989168  0.56365942  0.31628257  1
  S  S21  1  0.71303542  0.33140863  0.42607084  1
  S  S22  1  0.85639089  0.56365942  0.31628257  1
  S  S23  1  0.21303542  0.16859137  0.42607084  1
  S  S24  1  0.95989168  0.93634058  0.31628257  1
  S  S25  1  0.28696458  0.66859137  0.57392916  1
  S  S26  1  0.54010832  0.43634058  0.68371743  1
  S  S27  1  0.35639089  0.93634058  0.31628257  1
  S  S28  1  0.64360911  0.06365942  0.68371743  1
  S  S29  1  0.78696458  0.83140863  0.57392916  1
  S  S30  1  0.14360911  0.43634058  0.68371743  1
  S  S31  1  0.04010832  0.06365942  0.68371743  1
  I  I32  1  0.53179046  0.82350948  0.06358091  1
  I  I33  1  0.03179046  0.67649052  0.06358091  1
  I  I34  1  0.46820954  0.17649052  0.93641909  1
  I  I35  1  0.96820954  0.32350948  0.93641909  1
