# generated using pymatgen
data_RbSbS(O2F)2
_symmetry_space_group_name_H-M   'P 1'
_cell_length_a   5.41747365
_cell_length_b   9.76087755
_cell_length_c   11.63745764
_cell_angle_alpha   90.00000000
_cell_angle_beta   90.00000000
_cell_angle_gamma   90.00000000
_symmetry_Int_Tables_number   1
_chemical_formula_structural   RbSbS(O2F)2
_chemical_formula_sum   'Rb4 Sb4 S4 O16 F8'
_cell_volume   615.38057803
_cell_formula_units_Z   4
loop_
 _symmetry_equiv_pos_site_id
 _symmetry_equiv_pos_as_xyz
  1  'x, y, z'
loop_
 _atom_site_type_symbol
 _atom_site_label
 _atom_site_symmetry_multiplicity
 _atom_site_fract_x
 _atom_site_fract_y
 _atom_site_fract_z
 _atom_site_occupancy
  Rb  Rb0  1  0.24173376  0.51585996  0.84058361  1
  Rb  Rb1  1  0.24173376  0.01585996  0.65941639  1
  Rb  Rb2  1  0.74173376  0.98414004  0.34058361  1
  Rb  Rb3  1  0.74173376  0.48414004  0.15941639  1
  Sb  Sb4  1  0.75729551  0.82878499  0.91644998  1
  Sb  Sb5  1  0.25729551  0.67121501  0.41644998  1
  Sb  Sb6  1  0.75729551  0.32878499  0.58355002  1
  Sb  Sb7  1  0.25729551  0.17121501  0.08355002  1
  S  S8  1  0.20076099  0.79891687  0.13370857  1
  S  S9  1  0.70076099  0.20108313  0.86629143  1
  S  S10  1  0.20076099  0.29891687  0.36629143  1
  S  S11  1  0.70076099  0.70108313  0.63370857  1
  O  O12  1  0.32871785  0.70132092  0.05939367  1
  O  O13  1  0.35457865  0.41828358  0.33499424  1
  O  O14  1  0.96549958  0.35427380  0.42239131  1
  O  O15  1  0.46549958  0.14572620  0.92239131  1
  O  O16  1  0.85457865  0.58171642  0.66500576  1
  O  O17  1  0.85457865  0.08171642  0.83499424  1
  O  O18  1  0.10616730  0.22723603  0.25874792  1
  O  O19  1  0.60616730  0.27276397  0.75874792  1
  O  O20  1  0.82871785  0.29867908  0.94060633  1
  O  O21  1  0.96549958  0.85427380  0.07760869  1
  O  O22  1  0.35457865  0.91828358  0.16500576  1
  O  O23  1  0.60616730  0.77276397  0.74125208  1
  O  O24  1  0.10616730  0.72723603  0.24125208  1
  O  O25  1  0.32871785  0.20132092  0.44060633  1
  O  O26  1  0.46549958  0.64572620  0.57760869  1
  O  O27  1  0.82871785  0.79867908  0.55939367  1
  F  F28  1  0.58166275  0.67972063  0.34117674  1
  F  F29  1  0.28738361  0.37241321  0.06116614  1
  F  F30  1  0.28738361  0.87241321  0.43883386  1
  F  F31  1  0.58166275  0.17972063  0.15882326  1
  F  F32  1  0.08166275  0.32027937  0.65882326  1
  F  F33  1  0.08166275  0.82027937  0.84117674  1
  F  F34  1  0.78738361  0.62758679  0.93883386  1
  F  F35  1  0.78738361  0.12758679  0.56116614  1
