# generated using pymatgen
data_Sr3Se3(ClO4)2
_symmetry_space_group_name_H-M   'P 1'
_cell_length_a   5.60104551
_cell_length_b   11.74125389
_cell_length_c   17.75078171
_cell_angle_alpha   90.00000000
_cell_angle_beta   90.00000000
_cell_angle_gamma   90.00000000
_symmetry_Int_Tables_number   1
_chemical_formula_structural   Sr3Se3(ClO4)2
_chemical_formula_sum   'Sr12 Se12 Cl8 O32'
_cell_volume   1167.34993636
_cell_formula_units_Z   4
loop_
 _symmetry_equiv_pos_site_id
 _symmetry_equiv_pos_as_xyz
  1  'x, y, z'
loop_
 _atom_site_type_symbol
 _atom_site_label
 _atom_site_symmetry_multiplicity
 _atom_site_fract_x
 _atom_site_fract_y
 _atom_site_fract_z
 _atom_site_occupancy
  Sr  Sr0  1  0.75000000  0.53923370  0.30105762  1
  Sr  Sr1  1  0.75000000  0.03923370  0.19894238  1
  Sr  Sr2  1  0.75000000  0.87121173  0.42374855  1
  Sr  Sr3  1  0.25000000  0.46076630  0.69894238  1
  Sr  Sr4  1  0.75000000  0.37121173  0.07625145  1
  Sr  Sr5  1  0.25000000  0.63218042  0.48648812  1
  Sr  Sr6  1  0.25000000  0.62878827  0.92374855  1
  Sr  Sr7  1  0.25000000  0.12878827  0.57625145  1
  Sr  Sr8  1  0.25000000  0.96076630  0.80105762  1
  Sr  Sr9  1  0.75000000  0.36781958  0.51351188  1
  Sr  Sr10  1  0.25000000  0.13218042  0.01351188  1
  Sr  Sr11  1  0.75000000  0.86781958  0.98648812  1
  Se  Se12  1  0.75000000  0.12932386  0.89687168  1
  Se  Se13  1  0.75000000  0.62932386  0.60312832  1
  Se  Se14  1  0.75000000  0.75546715  0.80731399  1
  Se  Se15  1  0.25000000  0.05486343  0.33482842  1
  Se  Se16  1  0.75000000  0.94513657  0.66517158  1
  Se  Se17  1  0.25000000  0.55486343  0.16517158  1
  Se  Se18  1  0.25000000  0.37067614  0.39687168  1
  Se  Se19  1  0.25000000  0.74453285  0.30731399  1
  Se  Se20  1  0.75000000  0.44513657  0.83482842  1
  Se  Se21  1  0.75000000  0.25546715  0.69268601  1
  Se  Se22  1  0.25000000  0.87067614  0.10312832  1
  Se  Se23  1  0.25000000  0.24453285  0.19268601  1
  Cl  Cl24  1  0.75000000  0.60260997  -0.00046193  1
  Cl  Cl25  1  0.75000000  0.75579286  0.19584413  1
  Cl  Cl26  1  0.25000000  0.24420714  0.80415587  1
  Cl  Cl27  1  0.25000000  0.39739003  1.00046193  1
  Cl  Cl28  1  0.75000000  0.25579286  0.30415587  1
  Cl  Cl29  1  0.25000000  0.89739003  0.49953807  1
  Cl  Cl30  1  0.75000000  0.10260997  0.50046193  1
  Cl  Cl31  1  0.25000000  0.74420714  0.69584413  1
  O  O32  1  0.01727771  0.71639066  0.36631993  1
  O  O33  1  0.50983179  0.03084467  0.67584514  1
  O  O34  1  0.50983179  0.53084467  0.82415486  1
  O  O35  1  0.98272229  0.28360934  0.63368007  1
  O  O36  1  0.98272229  0.78360934  0.86631993  1
  O  O37  1  0.51727771  0.78360934  0.86631993  1
  O  O38  1  0.49016821  0.96915533  0.32415486  1
  O  O39  1  0.48272229  0.71639066  0.36631993  1
  O  O40  1  0.51468136  0.53544186  0.58752675  1
  O  O41  1  0.51727771  0.28360934  0.63368007  1
  O  O42  1  0.48272229  0.21639066  0.13368007  1
  O  O43  1  0.98531864  0.53544186  0.58752675  1
  O  O44  1  0.48531864  0.46455814  0.41247325  1
  O  O45  1  0.25000000  0.29655213  0.48062991  1
  O  O46  1  0.25000000  0.59695451  0.26666993  1
  O  O47  1  0.51468136  0.03544186  0.91247325  1
  O  O48  1  0.48531864  0.96455814  0.08752675  1
  O  O49  1  0.25000000  0.09695451  0.23333007  1
  O  O50  1  0.98531864  0.03544186  0.91247325  1
  O  O51  1  0.75000000  0.40304549  0.73333007  1
  O  O52  1  0.99016821  0.03084467  0.67584514  1
  O  O53  1  0.00983179  0.46915533  0.17584514  1
  O  O54  1  0.75000000  0.70344787  0.51937009  1
  O  O55  1  0.01727771  0.21639066  0.13368007  1
  O  O56  1  0.75000000  0.90304549  0.76666993  1
  O  O57  1  0.49016821  0.46915533  0.17584514  1
  O  O58  1  0.01468136  0.96455814  0.08752675  1
  O  O59  1  0.01468136  0.46455814  0.41247325  1
  O  O60  1  0.00983179  0.96915533  0.32415486  1
  O  O61  1  0.99016821  0.53084467  0.82415486  1
  O  O62  1  0.25000000  0.79655213  0.01937009  1
  O  O63  1  0.75000000  0.20344787  0.98062991  1
