# generated using pymatgen
data_KUN3O11
_symmetry_space_group_name_H-M   'P 1'
_cell_length_a   8.15060376
_cell_length_b   8.46433998
_cell_length_c   8.46434000
_cell_angle_alpha   70.62718326
_cell_angle_beta   68.80142540
_cell_angle_gamma   68.80142810
_symmetry_Int_Tables_number   1
_chemical_formula_structural   KUN3O11
_chemical_formula_sum   'K2 U2 N6 O22'
_cell_volume   493.84456298
_cell_formula_units_Z   2
loop_
 _symmetry_equiv_pos_site_id
 _symmetry_equiv_pos_as_xyz
  1  'x, y, z'
loop_
 _atom_site_type_symbol
 _atom_site_label
 _atom_site_symmetry_multiplicity
 _atom_site_fract_x
 _atom_site_fract_y
 _atom_site_fract_z
 _atom_site_occupancy
  K  K0  1  0.50000000  0.50000000  0.00000000  1
  K  K1  1  0.00000000  0.00000000  0.50000000  1
  U  U2  1  0.25000000  0.23856844  0.76143156  1
  U  U3  1  0.75000000  0.76143156  0.23856844  1
  N  N4  1  0.56492656  0.92530391  0.75534612  1
  N  N5  1  0.93507344  0.24465388  0.07469609  1
  N  N6  1  0.06492656  0.75534612  0.92530391  1
  N  N7  1  0.43507344  0.07469609  0.24465388  1
  N  N8  1  0.75000000  0.46172559  0.53827441  1
  N  N9  1  0.25000000  0.53827441  0.46172559  1
  O  O10  1  0.19366202  0.74904765  0.79317591  1
  O  O11  1  0.69366202  0.79317591  0.74904765  1
  O  O12  1  0.75000000  0.33632336  0.66367664  1
  O  O13  1  0.91431490  0.87901824  0.93106969  1
  O  O14  1  0.11719806  0.53801993  0.60307121  1
  O  O15  1  0.34452411  0.33473684  0.85635193  1
  O  O16  1  0.88280194  0.46198007  0.39692879  1
  O  O17  1  0.41431490  0.93106969  0.87901824  1
  O  O18  1  0.30633798  0.20682409  0.25095235  1
  O  O19  1  0.65547589  0.66526316  0.14364807  1
  O  O20  1  0.84452411  0.85635193  0.33473684  1
  O  O21  1  0.42968139  0.93096075  0.36152473  1
  O  O22  1  0.61719806  0.60307121  0.53801993  1
  O  O23  1  0.38280194  0.39692879  0.46198007  1
  O  O24  1  0.15547589  0.14364807  0.66526316  1
  O  O25  1  0.58568510  0.06893031  0.12098176  1
  O  O26  1  0.08568510  0.12098176  0.06893031  1
  O  O27  1  0.80633798  0.25095235  0.20682409  1
  O  O28  1  0.07031861  0.63847527  0.06903925  1
  O  O29  1  0.92968139  0.36152473  0.93096075  1
  O  O30  1  0.57031861  0.06903925  0.63847527  1
  O  O31  1  0.25000000  0.66367664  0.33632336  1
