# generated using pymatgen
data_RbLu(SO4)2
_symmetry_space_group_name_H-M   'P 1'
_cell_length_a   5.11675860
_cell_length_b   7.71479008
_cell_length_c   8.90517237
_cell_angle_alpha   95.27897922
_cell_angle_beta   90.00000000
_cell_angle_gamma   90.00000000
_symmetry_Int_Tables_number   1
_chemical_formula_structural   RbLu(SO4)2
_chemical_formula_sum   'Rb2 Lu2 S4 O16'
_cell_volume   350.03816864
_cell_formula_units_Z   2
loop_
 _symmetry_equiv_pos_site_id
 _symmetry_equiv_pos_as_xyz
  1  'x, y, z'
loop_
 _atom_site_type_symbol
 _atom_site_label
 _atom_site_symmetry_multiplicity
 _atom_site_fract_x
 _atom_site_fract_y
 _atom_site_fract_z
 _atom_site_occupancy
  Rb  Rb0  1  0.18860891  0.25000000  0.50000000  1
  Rb  Rb1  1  0.81139109  0.75000000  0.50000000  1
  Lu  Lu2  1  0.89537098  0.75000000  0.00000000  1
  Lu  Lu3  1  0.10462902  0.25000000  0.00000000  1
  S  S4  1  0.32099427  0.65510121  0.21100947  1
  S  S5  1  0.67900573  0.15510121  0.21100947  1
  S  S6  1  0.67900573  0.34489879  0.78899053  1
  S  S7  1  0.32099427  0.84489879  0.78899053  1
  O  O8  1  0.40699556  0.29932229  0.82971030  1
  O  O9  1  0.68283891  0.07725598  0.35372928  1
  O  O10  1  0.20407501  0.96209068  0.91909840  1
  O  O11  1  0.79592499  0.03790932  0.08090160  1
  O  O12  1  0.31716109  0.92274402  0.64627072  1
  O  O13  1  0.14861267  0.68756530  0.78579457  1
  O  O14  1  0.31716109  0.57725598  0.35372928  1
  O  O15  1  0.85138733  0.31243470  0.21420543  1
  O  O16  1  0.59300444  0.79932229  0.82971030  1
  O  O17  1  0.79592499  0.46209068  0.91909840  1
  O  O18  1  0.20407501  0.53790932  0.08090160  1
  O  O19  1  0.59300444  0.70067771  0.17028970  1
  O  O20  1  0.14861267  0.81243470  0.21420543  1
  O  O21  1  0.85138733  0.18756530  0.78579457  1
  O  O22  1  0.40699556  0.20067771  0.17028970  1
  O  O23  1  0.68283891  0.42274402  0.64627072  1
