# generated using pymatgen
data_KTe3O6F
_symmetry_space_group_name_H-M   'P 1'
_cell_length_a   7.31635295
_cell_length_b   7.31635312
_cell_length_c   7.31635282
_cell_angle_alpha   82.31706652
_cell_angle_beta   82.31706641
_cell_angle_gamma   82.31706437
_symmetry_Int_Tables_number   1
_chemical_formula_structural   KTe3O6F
_chemical_formula_sum   'K2 Te6 O12 F2'
_cell_volume   381.95353948
_cell_formula_units_Z   2
loop_
 _symmetry_equiv_pos_site_id
 _symmetry_equiv_pos_as_xyz
  1  'x, y, z'
loop_
 _atom_site_type_symbol
 _atom_site_label
 _atom_site_symmetry_multiplicity
 _atom_site_fract_x
 _atom_site_fract_y
 _atom_site_fract_z
 _atom_site_occupancy
  K  K0  1  0.84719900  0.84719900  0.84719900  1
  K  K1  1  0.15280100  0.15280100  0.15280100  1
  Te  Te2  1  0.35283603  0.12150629  0.63450979  1
  Te  Te3  1  0.87849371  0.36549021  0.64716397  1
  Te  Te4  1  0.36549021  0.64716397  0.87849371  1
  Te  Te5  1  0.12150629  0.63450979  0.35283603  1
  Te  Te6  1  0.63450979  0.35283603  0.12150629  1
  Te  Te7  1  0.64716397  0.87849371  0.36549021  1
  O  O8  1  0.04441439  0.54789468  0.65086879  1
  O  O9  1  0.65086879  0.04441439  0.54789468  1
  O  O10  1  0.45210532  0.34913121  0.95558561  1
  O  O11  1  0.54789468  0.65086879  0.04441439  1
  O  O12  1  0.34300063  0.93763564  0.85246583  1
  O  O13  1  0.85246583  0.34300063  0.93763564  1
  O  O14  1  0.93763564  0.85246583  0.34300063  1
  O  O15  1  0.95558561  0.45210532  0.34913121  1
  O  O16  1  0.65699937  0.06236436  0.14753417  1
  O  O17  1  0.06236436  0.14753417  0.65699937  1
  O  O18  1  0.14753417  0.65699937  0.06236436  1
  O  O19  1  0.34913121  0.95558561  0.45210532  1
  F  F20  1  0.34966476  0.34966476  0.34966476  1
  F  F21  1  0.65033524  0.65033524  0.65033524  1
