# generated using pymatgen
data_SnH22(Cl3O5)2
_symmetry_space_group_name_H-M   'P 1'
_cell_length_a   7.34695212
_cell_length_b   9.08627287
_cell_length_c   14.04490323
_cell_angle_alpha   92.85713136
_cell_angle_beta   90.00000000
_cell_angle_gamma   90.00000000
_symmetry_Int_Tables_number   1
_chemical_formula_structural   SnH22(Cl3O5)2
_chemical_formula_sum   'Sn2 H44 Cl12 O20'
_cell_volume   936.42185671
_cell_formula_units_Z   2
loop_
 _symmetry_equiv_pos_site_id
 _symmetry_equiv_pos_as_xyz
  1  'x, y, z'
loop_
 _atom_site_type_symbol
 _atom_site_label
 _atom_site_symmetry_multiplicity
 _atom_site_fract_x
 _atom_site_fract_y
 _atom_site_fract_z
 _atom_site_occupancy
  Sn  Sn0  1  0.50000000  0.50000000  0.50000000  1
  Sn  Sn1  1  0.00000000  0.00000000  0.00000000  1
  H  H2  1  0.61032764  0.22907031  0.76146257  1
  H  H3  1  0.38967236  0.77092969  0.23853743  1
  H  H4  1  0.70326321  0.23249787  0.86327483  1
  H  H5  1  0.76964360  0.65084892  0.79306010  1
  H  H6  1  0.11032764  0.27092969  0.73853743  1
  H  H7  1  0.73035640  0.15084892  0.29306010  1
  H  H8  1  0.50033981  0.38762094  0.86283263  1
  H  H9  1  0.09738047  0.72417486  0.58309749  1
  H  H10  1  0.49157755  0.77700394  0.81816599  1
  H  H11  1  0.90261953  0.27582514  0.41690251  1
  H  H12  1  0.50387389  0.01757276  0.68537403  1
  H  H13  1  0.40261953  0.22417486  0.08309749  1
  H  H14  1  0.50842245  0.22299606  0.18183401  1
  H  H15  1  0.80635176  0.53899832  0.70605451  1
  H  H16  1  0.54102366  0.43059649  0.11547446  1
  H  H17  1  0.97965378  0.64155776  0.10874407  1
  H  H18  1  0.99157755  0.72299606  0.68183401  1
  H  H19  1  0.22021225  0.94917278  0.37285946  1
  H  H20  1  0.30635176  0.96100168  0.79394549  1
  H  H21  1  0.20326321  0.26750213  0.63672517  1
  H  H22  1  0.19364824  0.46100168  0.29394549  1
  H  H23  1  0.27978775  0.44917278  0.87285946  1
  H  H24  1  0.95897634  0.93059649  0.61547446  1
  H  H25  1  0.88967236  0.72907031  0.26146257  1
  H  H26  1  0.77978775  0.05082722  0.62714054  1
  H  H27  1  0.29673679  0.76750213  0.13672517  1
  H  H28  1  0.04102366  0.06940351  0.38452554  1
  H  H29  1  0.47965378  0.85844224  0.39125593  1
  H  H30  1  0.79673679  0.73249787  0.36327483  1
  H  H31  1  0.00387389  0.48242724  0.81462597  1
  H  H32  1  0.52034622  0.14155776  0.60874407  1
  H  H33  1  0.99612611  0.51757276  0.18537403  1
  H  H34  1  0.72021225  0.55082722  0.12714054  1
  H  H35  1  0.59738047  0.77582514  0.91690251  1
  H  H36  1  0.45897634  0.56940351  0.88452554  1
  H  H37  1  0.69364824  0.03899832  0.20605451  1
  H  H38  1  0.26964360  0.84915108  0.70693990  1
  H  H39  1  1.00033981  0.11237906  0.63716737  1
  H  H40  1  0.02034622  0.35844224  0.89125593  1
  H  H41  1  0.23035640  0.34915108  0.20693990  1
  H  H42  1  0.49966019  0.61237906  0.13716737  1
  H  H43  1  0.00842245  0.27700394  0.31816599  1
  H  H44  1  -0.00033981  0.88762094  0.36283263  1
  H  H45  1  0.49612611  0.98242724  0.31462597  1
  Cl  Cl46  1  0.79626836  0.40429769  0.55550277  1
  Cl  Cl47  1  0.10902365  0.01653928  0.16414978  1
  Cl  Cl48  1  0.29626836  0.09570231  0.94449723  1
  Cl  Cl49  1  0.38272636  0.24239802  0.48474574  1
  Cl  Cl50  1  0.60902365  0.48346072  0.33585022  1
  Cl  Cl51  1  0.11727364  0.74239802  0.98474574  1
  Cl  Cl52  1  0.39097635  0.51653928  0.66414978  1
  Cl  Cl53  1  0.61727364  0.75760198  0.51525426  1
  Cl  Cl54  1  0.20373164  0.59570231  0.44449723  1
  Cl  Cl55  1  0.70373164  0.90429769  0.05550277  1
  Cl  Cl56  1  0.89097635  0.98346072  0.83585022  1
  Cl  Cl57  1  0.88272636  0.25760198  0.01525426  1
  O  O58  1  0.91542519  0.59729681  0.16212710  1
  O  O59  1  0.36157385  0.70630342  0.18117591  1
  O  O60  1  0.93636643  0.21309271  0.36039705  1
  O  O61  1  0.06363357  0.78690729  0.63960295  1
  O  O62  1  0.41542519  0.90270319  0.33787290  1
  O  O63  1  0.86157385  0.79369658  0.31882409  1
  O  O64  1  0.43636643  0.28690729  0.13960295  1
  O  O65  1  0.86851651  0.60422597  0.75365777  1
  O  O66  1  0.56363357  0.71309271  0.86039705  1
  O  O67  1  0.13842615  0.20630342  0.68117591  1
  O  O68  1  0.58906131  0.53449556  0.10309604  1
  O  O69  1  0.13148349  0.39577403  0.24634223  1
  O  O70  1  0.58457481  0.09729681  0.66212710  1
  O  O71  1  0.91093869  0.03449556  0.60309604  1
  O  O72  1  0.63148349  0.10422597  0.25365777  1
  O  O73  1  0.63842615  0.29369658  0.81882409  1
  O  O74  1  0.08457481  0.40270319  0.83787290  1
  O  O75  1  0.08906131  0.96550444  0.39690396  1
  O  O76  1  0.36851651  0.89577403  0.74634223  1
  O  O77  1  0.41093869  0.46550444  0.89690396  1
