# generated using pymatgen
data_Ba3CaSb2O9
_symmetry_space_group_name_H-M   'P 1'
_cell_length_a   6.08641238
_cell_length_b   6.08641237
_cell_length_c   15.07466003
_cell_angle_alpha   91.03289898
_cell_angle_beta   91.03289900
_cell_angle_gamma   119.80365819
_symmetry_Int_Tables_number   1
_chemical_formula_structural   Ba3CaSb2O9
_chemical_formula_sum   'Ba6 Ca2 Sb4 O18'
_cell_volume   484.25708476
_cell_formula_units_Z   2
loop_
 _symmetry_equiv_pos_site_id
 _symmetry_equiv_pos_as_xyz
  1  'x, y, z'
loop_
 _atom_site_type_symbol
 _atom_site_label
 _atom_site_symmetry_multiplicity
 _atom_site_fract_x
 _atom_site_fract_y
 _atom_site_fract_z
 _atom_site_occupancy
  Ba  Ba0  1  0.00999319  0.99000681  0.75000000  1
  Ba  Ba1  1  0.32300977  0.66057626  0.41012373  1
  Ba  Ba2  1  0.33942374  0.67699023  0.08987627  1
  Ba  Ba3  1  0.66057626  0.32300977  0.91012373  1
  Ba  Ba4  1  0.67699023  0.33942374  0.58987627  1
  Ba  Ba5  1  0.99000681  0.00999319  0.25000000  1
  Ca  Ca6  1  0.00000000  0.00000000  0.50000000  1
  Ca  Ca7  1  0.00000000  0.00000000  0.00000000  1
  Sb  Sb8  1  0.35753570  0.68344713  0.65457457  1
  Sb  Sb9  1  0.68344713  0.35753570  0.15457457  1
  Sb  Sb10  1  0.31655287  0.64246430  0.84542543  1
  Sb  Sb11  1  0.64246430  0.31655287  0.34542543  1
  O  O12  1  0.52082648  0.04854381  0.23642150  1
  O  O13  1  0.21919324  0.86302674  0.58771401  1
  O  O14  1  0.86302674  0.21919324  0.08771401  1
  O  O15  1  0.30500446  0.13142722  0.39505576  1
  O  O16  1  0.47917352  0.95145619  0.76357850  1
  O  O17  1  0.69499554  0.86857278  0.60494424  1
  O  O18  1  0.04854381  0.52082648  0.73642150  1
  O  O19  1  0.60950537  0.77322751  0.92780117  1
  O  O20  1  0.51707233  0.48292767  0.25000000  1
  O  O21  1  0.22677249  0.39049463  0.57219883  1
  O  O22  1  0.13142722  0.30500446  0.89505576  1
  O  O23  1  0.78080676  0.13697326  0.41228599  1
  O  O24  1  0.95145619  0.47917352  0.26357850  1
  O  O25  1  0.77322751  0.60950537  0.42780117  1
  O  O26  1  0.39049463  0.22677249  0.07219883  1
  O  O27  1  0.86857278  0.69499554  0.10494424  1
  O  O28  1  0.13697326  0.78080676  0.91228599  1
  O  O29  1  0.48292767  0.51707233  0.75000000  1
