# generated using pymatgen
data_BaSc3AgS6
_symmetry_space_group_name_H-M   'P 1'
_cell_length_a   11.02160155
_cell_length_b   11.23221031
_cell_length_c   16.32738747
_cell_angle_alpha   90.00000000
_cell_angle_beta   90.00000000
_cell_angle_gamma   90.00000000
_symmetry_Int_Tables_number   1
_chemical_formula_structural   BaSc3AgS6
_chemical_formula_sum   'Ba8 Sc24 Ag8 S48'
_cell_volume   2021.28071413
_cell_formula_units_Z   8
loop_
 _symmetry_equiv_pos_site_id
 _symmetry_equiv_pos_as_xyz
  1  'x, y, z'
loop_
 _atom_site_type_symbol
 _atom_site_label
 _atom_site_symmetry_multiplicity
 _atom_site_fract_x
 _atom_site_fract_y
 _atom_site_fract_z
 _atom_site_occupancy
  Ba  Ba0  1  0.73418352  0.94425973  0.20366068  1
  Ba  Ba1  1  0.76581648  0.55574027  0.70366068  1
  Ba  Ba2  1  0.76581648  0.94425973  0.70366068  1
  Ba  Ba3  1  0.23418352  0.44425973  0.29633932  1
  Ba  Ba4  1  0.73418352  0.55574027  0.20366068  1
  Ba  Ba5  1  0.26581648  0.44425973  0.79633932  1
  Ba  Ba6  1  0.26581648  0.05574027  0.79633932  1
  Ba  Ba7  1  0.23418352  0.05574027  0.29633932  1
  Sc  Sc8  1  0.92171452  0.08561617  0.41373775  1
  Sc  Sc9  1  0.86057238  0.25000000  0.97506219  1
  Sc  Sc10  1  0.57828548  0.08561617  0.91373775  1
  Sc  Sc11  1  0.07828548  0.91438383  0.58626225  1
  Sc  Sc12  1  0.14110466  0.41671500  0.03424534  1
  Sc  Sc13  1  0.07828548  0.58561617  0.58626225  1
  Sc  Sc14  1  0.35889534  0.41671500  0.53424534  1
  Sc  Sc15  1  0.57828548  0.41438383  0.91373775  1
  Sc  Sc16  1  0.63942762  0.25000000  0.47506219  1
  Sc  Sc17  1  0.64110466  0.91671500  0.46575466  1
  Sc  Sc18  1  0.85889534  0.91671500  0.96575466  1
  Sc  Sc19  1  0.36057238  0.75000000  0.52493781  1
  Sc  Sc20  1  0.93012436  0.75000000  0.40685447  1
  Sc  Sc21  1  0.42171452  0.58561617  0.08626225  1
  Sc  Sc22  1  0.13942762  0.75000000  0.02493781  1
  Sc  Sc23  1  0.06987564  0.25000000  0.59314553  1
  Sc  Sc24  1  0.85889534  0.58328500  0.96575466  1
  Sc  Sc25  1  0.43012436  0.25000000  0.09314553  1
  Sc  Sc26  1  0.92171452  0.41438383  0.41373775  1
  Sc  Sc27  1  0.56987564  0.75000000  0.90685447  1
  Sc  Sc28  1  0.14110466  0.08328500  0.03424534  1
  Sc  Sc29  1  0.64110466  0.58328500  0.46575466  1
  Sc  Sc30  1  0.35889534  0.08328500  0.53424534  1
  Sc  Sc31  1  0.42171452  0.91438383  0.08626225  1
  Ag  Ag32  1  0.95681640  0.25000000  0.78825821  1
  Ag  Ag33  1  0.04920850  0.75000000  0.82318267  1
  Ag  Ag34  1  0.95079150  0.25000000  0.17681733  1
  Ag  Ag35  1  0.45079150  0.75000000  0.32318267  1
  Ag  Ag36  1  0.04318360  0.75000000  0.21174179  1
  Ag  Ag37  1  0.45681640  0.75000000  0.71174179  1
  Ag  Ag38  1  0.54920850  0.25000000  0.67681733  1
  Ag  Ag39  1  0.54318360  0.25000000  0.28825821  1
  S  S40  1  0.36487301  0.08374665  0.98552175  1
  S  S41  1  0.59075889  0.75000000  0.57265446  1
  S  S42  1  0.13512699  0.41625335  0.48552175  1
  S  S43  1  0.29645862  0.25000000  0.63708768  1
  S  S44  1  0.40924111  0.25000000  0.42734554  1
  S  S45  1  0.20354138  0.25000000  0.13708768  1
  S  S46  1  0.02090367  0.07809096  0.68937268  1
  S  S47  1  0.08576163  0.57865407  0.92467847  1
  S  S48  1  0.36344428  0.75000000  0.98086448  1
  S  S49  1  0.80108659  0.41181383  0.86892362  1
  S  S50  1  0.91423837  0.07865407  0.07532153  1
  S  S51  1  0.63512699  0.91625335  0.01447825  1
  S  S52  1  0.63655572  0.25000000  0.01913552  1
  S  S53  1  0.41423837  0.92134593  0.42467847  1
  S  S54  1  0.51009238  0.75000000  0.17888334  1
  S  S55  1  0.08576163  0.92134593  0.92467847  1
  S  S56  1  0.97909633  0.92190904  0.31062732  1
  S  S57  1  0.86487301  0.91625335  0.51447825  1
  S  S58  1  0.98990762  0.75000000  0.67888334  1
  S  S59  1  0.19891341  0.58818617  0.13107638  1
  S  S60  1  0.47909633  0.07809096  0.18937268  1
  S  S61  1  0.47909633  0.42190904  0.18937268  1
  S  S62  1  0.30108659  0.58818617  0.63107638  1
  S  S63  1  0.86344428  0.25000000  0.51913552  1
  S  S64  1  0.48990762  0.25000000  0.82111666  1
  S  S65  1  0.13512699  0.08374665  0.48552175  1
  S  S66  1  0.63512699  0.58374665  0.01447825  1
  S  S67  1  0.80108659  0.08818617  0.86892362  1
  S  S68  1  0.58576163  0.42134593  0.57532153  1
  S  S69  1  0.86487301  0.58374665  0.51447825  1
  S  S70  1  0.13655572  0.75000000  0.48086448  1
  S  S71  1  0.69891341  0.41181383  0.36892362  1
  S  S72  1  0.01009238  0.25000000  0.32111666  1
  S  S73  1  0.90924111  0.75000000  0.07265446  1
  S  S74  1  0.52090367  0.92190904  0.81062732  1
  S  S75  1  0.58576163  0.07865407  0.57532153  1
  S  S76  1  0.36487301  0.41625335  0.98552175  1
  S  S77  1  0.09075889  0.25000000  0.92734554  1
  S  S78  1  0.79645862  0.75000000  0.86291232  1
  S  S79  1  0.30108659  0.91181383  0.63107638  1
  S  S80  1  0.19891341  0.91181383  0.13107638  1
  S  S81  1  0.52090367  0.57809096  0.81062732  1
  S  S82  1  0.97909633  0.57809096  0.31062732  1
  S  S83  1  0.91423837  0.42134593  0.07532153  1
  S  S84  1  0.41423837  0.57865407  0.42467847  1
  S  S85  1  0.70354138  0.75000000  0.36291232  1
  S  S86  1  0.02090367  0.42190904  0.68937268  1
  S  S87  1  0.69891341  0.08818617  0.36892362  1
