# generated using pymatgen
data_MgP4(Cl5O3)2
_symmetry_space_group_name_H-M   'P 1'
_cell_length_a   10.13549417
_cell_length_b   11.29099961
_cell_length_c   11.59686965
_cell_angle_alpha   108.27887918
_cell_angle_beta   96.35021962
_cell_angle_gamma   116.00873323
_symmetry_Int_Tables_number   1
_chemical_formula_structural   MgP4(Cl5O3)2
_chemical_formula_sum   'Mg2 P8 Cl20 O12'
_cell_volume   1083.62051719
_cell_formula_units_Z   2
loop_
 _symmetry_equiv_pos_site_id
 _symmetry_equiv_pos_as_xyz
  1  'x, y, z'
loop_
 _atom_site_type_symbol
 _atom_site_label
 _atom_site_symmetry_multiplicity
 _atom_site_fract_x
 _atom_site_fract_y
 _atom_site_fract_z
 _atom_site_occupancy
  Mg  Mg0  1  0.76096546  0.99328623  0.05850091  1
  Mg  Mg1  1  0.23903454  0.00671377  0.94149909  1
  P  P2  1  0.98402160  0.84362649  0.08277889  1
  P  P3  1  0.01597840  0.15637351  0.91722111  1
  P  P4  1  0.39871737  0.78456351  0.85018623  1
  P  P5  1  0.44045580  0.17325697  0.75192739  1
  P  P6  1  0.91017336  0.71717784  0.67199220  1
  P  P7  1  0.60128263  0.21543649  0.14981377  1
  P  P8  1  0.08982664  0.28282216  0.32800780  1
  P  P9  1  0.55954420  0.82674303  0.24807261  1
  Cl  Cl10  1  0.37711368  0.10884974  0.56300332  1
  Cl  Cl11  1  0.52969384  0.62831890  0.17859411  1
  Cl  Cl12  1  0.69823328  0.67825192  0.67008794  1
  Cl  Cl13  1  0.65027956  0.19956680  0.79403067  1
  Cl  Cl14  1  0.34972044  0.80043320  0.20596933  1
  Cl  Cl15  1  0.92538719  0.63214253  0.99817230  1
  Cl  Cl16  1  0.06463069  0.25964683  0.48977453  1
  Cl  Cl17  1  0.09606536  0.46864924  0.35277206  1
  Cl  Cl18  1  0.39601347  0.76445142  0.66700191  1
  Cl  Cl19  1  0.30176672  0.32174808  0.32991206  1
  Cl  Cl20  1  0.73073700  0.42639070  0.17778139  1
  Cl  Cl21  1  0.97573217  0.12436386  0.72849407  1
  Cl  Cl22  1  0.26926300  0.57360930  0.82221861  1
  Cl  Cl23  1  0.62288632  0.89115026  0.43699668  1
  Cl  Cl24  1  0.60398653  0.23554858  0.33299809  1
  Cl  Cl25  1  0.47030616  0.37168110  0.82140589  1
  Cl  Cl26  1  0.93536931  0.74035317  0.51022547  1
  Cl  Cl27  1  0.90393464  0.53135076  0.64722794  1
  Cl  Cl28  1  0.07461281  0.36785747  0.00182770  1
  Cl  Cl29  1  0.02426783  0.87563614  0.27150593  1
  O  O30  1  0.02863255  0.84112840  0.78613121  1
  O  O31  1  0.13469677  0.93398367  0.06652123  1
  O  O32  1  0.32987032  0.07211666  0.79501154  1
  O  O33  1  0.67012968  0.92788334  0.20498846  1
  O  O34  1  0.86530323  0.06601633  0.93347877  1
  O  O35  1  0.97136745  0.15887160  0.21386879  1
  O  O36  1  0.68677170  0.14019711  0.10447312  1
  O  O37  1  0.15433310  0.14549278  0.95530803  1
  O  O38  1  0.84566690  0.85450722  0.04469197  1
  O  O39  1  0.44162965  0.16373386  0.07777815  1
  O  O40  1  0.55837035  0.83626614  0.92222185  1
  O  O41  1  0.31322830  0.85980289  0.89552688  1
