# generated using pymatgen
data_Li2Ni3(BO3)3
_symmetry_space_group_name_H-M   'P 1'
_cell_length_a   8.10838190
_cell_length_b   8.10327935
_cell_length_c   6.07849938
_cell_angle_alpha   90.00000000
_cell_angle_beta   90.00000000
_cell_angle_gamma   60.14935244
_symmetry_Int_Tables_number   1
_chemical_formula_structural   Li2Ni3(BO3)3
_chemical_formula_sum   'Li4 Ni6 B6 O18'
_cell_volume   346.39662481
_cell_formula_units_Z   2
loop_
 _symmetry_equiv_pos_site_id
 _symmetry_equiv_pos_as_xyz
  1  'x, y, z'
loop_
 _atom_site_type_symbol
 _atom_site_label
 _atom_site_symmetry_multiplicity
 _atom_site_fract_x
 _atom_site_fract_y
 _atom_site_fract_z
 _atom_site_occupancy
  Li  Li0  1  0.27985943  0.69711838  0.25000000  1
  Li  Li1  1  0.02157776  0.27927675  0.75000000  1
  Li  Li2  1  0.69881491  0.02520305  0.75000000  1
  Li  Li3  1  0.69964660  0.02363525  0.25000000  1
  Ni  Ni4  1  0.37640048  0.98518077  0.99966918  1
  Ni  Ni5  1  0.37640048  0.98518077  0.50033082  1
  Ni  Ni6  1  0.63325377  0.38424458  0.99917524  1
  Ni  Ni7  1  0.63325377  0.38424458  0.50082476  1
  Ni  Ni8  1  0.98997365  0.62875299  0.00048207  1
  Ni  Ni9  1  0.98997365  0.62875299  0.49951793  1
  B  B10  1  0.33431270  0.33336572  0.25000000  1
  B  B11  1  0.33640942  0.33075148  0.75000000  1
  B  B12  1  0.99571151  0.00132444  0.00125057  1
  B  B13  1  0.99571151  0.00132444  0.49874943  1
  B  B14  1  0.67013480  0.66836750  0.75000000  1
  B  B15  1  0.66410283  0.66864144  0.25000000  1
  O  O16  1  0.09135448  0.80550075  0.48404552  1
  O  O17  1  0.09135448  0.80550075  0.01595448  1
  O  O18  1  0.46617436  0.78484048  0.25000000  1
  O  O19  1  0.47548139  0.78345243  0.75000000  1
  O  O20  1  0.14117620  0.45739293  0.25000000  1
  O  O21  1  0.14074753  0.44702939  0.75000000  1
  O  O22  1  0.09960726  0.09228948  0.98461138  1
  O  O23  1  0.09960726  0.09228948  0.51538862  1
  O  O24  1  0.78848124  0.74821433  0.75000000  1
  O  O25  1  0.78064959  0.74952381  0.25000000  1
  O  O26  1  0.45311367  0.41137610  0.25000000  1
  O  O27  1  0.46012221  0.40016788  0.75000000  1
  O  O28  1  0.41283770  0.13405492  0.75000000  1
  O  O29  1  0.41226530  0.13784218  0.25000000  1
  O  O30  1  0.75134630  0.47093184  0.75000000  1
  O  O31  1  0.74224284  0.47378270  0.25000000  1
  O  O32  1  0.79873646  0.10031772  0.00092127  1
  O  O33  1  0.79873646  0.10031772  0.49907873  1
