# generated using pymatgen
data_KZrVF7
_symmetry_space_group_name_H-M   'P 1'
_cell_length_a   6.61504814
_cell_length_b   8.07624109
_cell_length_c   11.34950180
_cell_angle_alpha   90.00000000
_cell_angle_beta   90.00000000
_cell_angle_gamma   90.00000000
_symmetry_Int_Tables_number   1
_chemical_formula_structural   KZrVF7
_chemical_formula_sum   'K4 Zr4 V4 F28'
_cell_volume   606.34399667
_cell_formula_units_Z   4
loop_
 _symmetry_equiv_pos_site_id
 _symmetry_equiv_pos_as_xyz
  1  'x, y, z'
loop_
 _atom_site_type_symbol
 _atom_site_label
 _atom_site_symmetry_multiplicity
 _atom_site_fract_x
 _atom_site_fract_y
 _atom_site_fract_z
 _atom_site_occupancy
  F  F0  1  0.05124937  0.19444112  0.95650005  1
  F  F1  1  0.05124937  0.80555888  0.54349995  1
  F  F2  1  0.44875063  0.69444112  0.54349995  1
  F  F3  1  0.44875063  0.30555888  0.95650005  1
  F  F4  1  0.94875063  0.80555888  0.04349995  1
  F  F5  1  0.94875063  0.19444112  0.45650005  1
  F  F6  1  0.55124937  0.30555888  0.45650005  1
  F  F7  1  0.55124937  0.69444112  0.04349995  1
  F  F8  1  0.25000000  0.75000000  0.91408956  1
  F  F9  1  0.25000000  0.25000000  0.58591044  1
  F  F10  1  0.75000000  0.25000000  0.08591044  1
  F  F11  1  0.75000000  0.75000000  0.41408956  1
  F  F12  1  0.93066480  0.78817583  0.74961662  1
  F  F13  1  0.93066480  0.21182417  0.75038338  1
  F  F14  1  0.56933520  0.28817583  0.75038338  1
  F  F15  1  0.56933520  0.71182417  0.74961662  1
  F  F16  1  0.06933520  0.21182417  0.25038338  1
  F  F17  1  0.06933520  0.78817583  0.24961662  1
  F  F18  1  0.43066480  0.71182417  0.24961662  1
  F  F19  1  0.43066480  0.28817583  0.25038338  1
  F  F20  1  0.66756243  0.00412731  0.89793136  1
  F  F21  1  0.66756243  0.99587269  0.60206864  1
  F  F22  1  0.83243757  0.50412731  0.60206864  1
  F  F23  1  0.83243757  0.49587269  0.89793136  1
  F  F24  1  0.33243757  0.99587269  0.10206864  1
  F  F25  1  0.33243757  0.00412731  0.39793136  1
  F  F26  1  0.16756243  0.49587269  0.39793136  1
  F  F27  1  0.16756243  0.50412731  0.10206864  1
  K  K28  1  0.26341411  0.00000000  0.75000000  1
  K  K29  1  0.73658589  0.00000000  0.25000000  1
  K  K30  1  0.23658589  0.50000000  0.75000000  1
  K  K31  1  0.76341411  0.50000000  0.25000000  1
  V  V32  1  0.75000000  0.25000000  0.59774106  1
  V  V33  1  0.25000000  0.25000000  0.09774106  1
  V  V34  1  0.25000000  0.75000000  0.40225894  1
  V  V35  1  0.75000000  0.75000000  0.90225894  1
  Zr  Zr36  1  0.75000000  0.75000000  0.59316480  1
  Zr  Zr37  1  0.25000000  0.25000000  0.40683520  1
  Zr  Zr38  1  0.25000000  0.75000000  0.09316480  1
  Zr  Zr39  1  0.75000000  0.25000000  0.90683520  1
