# generated using pymatgen
data_Li2MnV3O8
_symmetry_space_group_name_H-M   'P 1'
_cell_length_a   6.41798484
_cell_length_b   6.41798463
_cell_length_c   6.57508561
_cell_angle_alpha   73.65574328
_cell_angle_beta   106.34425763
_cell_angle_gamma   143.29018599
_symmetry_Int_Tables_number   1
_chemical_formula_structural   Li2MnV3O8
_chemical_formula_sum   'Li2 Mn1 V3 O8'
_cell_volume   154.61328735
_cell_formula_units_Z   1
loop_
 _symmetry_equiv_pos_site_id
 _symmetry_equiv_pos_as_xyz
  1  'x, y, z'
loop_
 _atom_site_type_symbol
 _atom_site_label
 _atom_site_symmetry_multiplicity
 _atom_site_fract_x
 _atom_site_fract_y
 _atom_site_fract_z
 _atom_site_occupancy
  Li  Li0  1  0.06021777  0.93978223  0.35282597  1
  Li  Li1  1  0.94087782  0.05912218  0.64078436  1
  Mn  Mn2  1  0.71043723  0.28956277  0.29822453  1
  V  V3  1  0.39096911  0.60903089  0.28778322  1
  V  V4  1  0.61189245  0.38810655  0.71233411  1
  V  V5  1  0.29217625  0.70782375  0.70748430  1
  O  O6  1  0.12456305  0.87543695  0.67284846  1
  O  O7  1  0.23487551  0.76512449  0.35600991  1
  O  O8  1  0.35003029  0.64996971  0.00354862  1
  O  O9  1  0.43776808  0.56223192  0.62759009  1
  O  O10  1  0.55754876  0.44245124  0.36595493  1
  O  O11  1  0.63442304  0.36557696  0.97720858  1
  O  O12  1  0.77228893  0.22771107  0.67931423  1
  O  O13  1  0.88193370  0.11806630  0.31808669  1
