# generated using pymatgen
data_SbP(Cl3O)2
_symmetry_space_group_name_H-M   'P 1'
_cell_length_a   8.91593649
_cell_length_b   11.37702833
_cell_length_c   12.05493030
_cell_angle_alpha   90.00000000
_cell_angle_beta   90.00000000
_cell_angle_gamma   108.78744972
_symmetry_Int_Tables_number   1
_chemical_formula_structural   SbP(Cl3O)2
_chemical_formula_sum   'Sb4 P4 Cl24 O8'
_cell_volume   1157.66254557
_cell_formula_units_Z   4
loop_
 _symmetry_equiv_pos_site_id
 _symmetry_equiv_pos_as_xyz
  1  'x, y, z'
loop_
 _atom_site_type_symbol
 _atom_site_label
 _atom_site_symmetry_multiplicity
 _atom_site_fract_x
 _atom_site_fract_y
 _atom_site_fract_z
 _atom_site_occupancy
  Sb  Sb0  1  0.80925727  0.27048050  0.53859788  1
  Sb  Sb1  1  0.80925727  0.77048050  0.96140212  1
  Sb  Sb2  1  0.19074273  0.22951950  0.03859788  1
  Sb  Sb3  1  0.19074273  0.72951950  0.46140212  1
  P  P4  1  0.19007217  0.45845809  0.59414089  1
  P  P5  1  0.80992783  0.04154191  0.09414089  1
  P  P6  1  0.80992783  0.54154191  0.40585911  1
  P  P7  1  0.19007217  0.95845809  0.90585911  1
  Cl  Cl8  1  0.68829935  0.29483934  0.70612876  1
  Cl  Cl9  1  0.04181894  0.71489127  0.62590067  1
  Cl  Cl10  1  0.28226837  0.53506269  0.73727452  1
  Cl  Cl11  1  0.31170065  0.70516066  0.29387124  1
  Cl  Cl12  1  0.86023253  0.08952679  0.59755673  1
  Cl  Cl13  1  0.43476609  0.83017223  0.55025241  1
  Cl  Cl14  1  0.43476609  0.33017223  0.94974759  1
  Cl  Cl15  1  0.56523391  0.66982777  0.05025241  1
  Cl  Cl16  1  0.71773163  0.96493731  0.23727452  1
  Cl  Cl17  1  0.71773163  0.46493731  0.26272548  1
  Cl  Cl18  1  0.04181894  0.21489127  0.87409933  1
  Cl  Cl19  1  0.68482024  0.65159601  0.44777988  1
  Cl  Cl20  1  0.95818106  0.28510873  0.37409933  1
  Cl  Cl21  1  0.68482024  0.15159601  0.05222012  1
  Cl  Cl22  1  0.95818106  0.78510873  0.12590067  1
  Cl  Cl23  1  0.86023253  0.58952679  0.90244327  1
  Cl  Cl24  1  0.28226837  0.03506269  0.76272548  1
  Cl  Cl25  1  0.31517976  0.84840399  0.94777988  1
  Cl  Cl26  1  0.31517976  0.34840399  0.55222012  1
  Cl  Cl27  1  0.13976747  0.91047321  0.40244327  1
  Cl  Cl28  1  0.68829935  0.79483934  0.79387124  1
  Cl  Cl29  1  0.31170065  0.20516066  0.20612876  1
  Cl  Cl30  1  0.56523391  0.16982777  0.44974759  1
  Cl  Cl31  1  0.13976747  0.41047321  0.09755673  1
  O  O32  1  0.78255409  0.44486306  0.49759089  1
  O  O33  1  0.01867329  0.38173574  0.61898038  1
  O  O34  1  0.21744591  0.05513694  0.99759089  1
  O  O35  1  0.21744591  0.55513694  0.50240911  1
  O  O36  1  0.01867329  0.88173574  0.88101962  1
  O  O37  1  0.98132671  0.11826426  0.11898038  1
  O  O38  1  0.78255409  0.94486306  0.00240911  1
  O  O39  1  0.98132671  0.61826426  0.38101962  1
