# generated using pymatgen
data_Pr3Si2ClO8
_symmetry_space_group_name_H-M   'P 1'
_cell_length_a   6.49496674
_cell_length_b   7.90060319
_cell_length_c   8.87077323
_cell_angle_alpha   97.40556956
_cell_angle_beta   90.00000000
_cell_angle_gamma   114.27033733
_symmetry_Int_Tables_number   1
_chemical_formula_structural   Pr3Si2ClO8
_chemical_formula_sum   'Pr6 Si4 Cl2 O16'
_cell_volume   410.79560961
_cell_formula_units_Z   2
loop_
 _symmetry_equiv_pos_site_id
 _symmetry_equiv_pos_as_xyz
  1  'x, y, z'
loop_
 _atom_site_type_symbol
 _atom_site_label
 _atom_site_symmetry_multiplicity
 _atom_site_fract_x
 _atom_site_fract_y
 _atom_site_fract_z
 _atom_site_occupancy
  Pr  Pr0  1  0.08033749  0.37018104  0.17102968  1
  Pr  Pr1  1  0.28984355  0.37018104  0.67102968  1
  Pr  Pr2  1  0.57373840  0.00000000  0.75000000  1
  Pr  Pr3  1  0.91966251  0.62981896  0.82897032  1
  Pr  Pr4  1  0.71015645  0.62981896  0.32897032  1
  Pr  Pr5  1  0.42626160  0.00000000  0.25000000  1
  Si  Si6  1  0.71234674  0.31579900  0.52530593  1
  Si  Si7  1  0.28765326  0.68420100  0.47469407  1
  Si  Si8  1  0.39654774  0.68420100  0.97469407  1
  Si  Si9  1  0.60345226  0.31579900  0.02530593  1
  Cl  Cl10  1  0.02450765  0.00000000  0.75000000  1
  Cl  Cl11  1  0.97549235  0.00000000  0.25000000  1
  O  O12  1  0.45900473  0.69088371  0.15476893  1
  O  O13  1  0.54099527  0.30911629  0.84523107  1
  O  O14  1  0.18259702  0.47836415  0.91867770  1
  O  O15  1  0.70435963  0.15562918  0.03171072  1
  O  O16  1  0.70423287  0.52163585  0.58132230  1
  O  O17  1  0.23187898  0.69088371  0.65476893  1
  O  O18  1  0.88141441  0.28558328  0.64439000  1
  O  O19  1  0.81740298  0.52163585  0.08132230  1
  O  O20  1  0.29576713  0.47836415  0.41867770  1
  O  O21  1  0.11858559  0.71441672  0.35561000  1
  O  O22  1  0.76812102  0.30911629  0.34523107  1
  O  O23  1  0.54873046  0.84437082  0.46828928  1
  O  O24  1  0.40416887  0.28558328  0.14439000  1
  O  O25  1  0.59583113  0.71441672  0.85561000  1
  O  O26  1  0.45126954  0.15562918  0.53171072  1
  O  O27  1  0.29564037  0.84437082  0.96828928  1
