# generated using pymatgen
data_NaMnCrF6
_symmetry_space_group_name_H-M   'P 1'
_cell_length_a   9.16243470
_cell_length_b   9.16243518
_cell_length_c   5.09068622
_cell_angle_alpha   90.00000000
_cell_angle_beta   90.00000000
_cell_angle_gamma   120.00000195
_symmetry_Int_Tables_number   1
_chemical_formula_structural   NaMnCrF6
_chemical_formula_sum   'Na3 Mn3 Cr3 F18'
_cell_volume   370.10824460
_cell_formula_units_Z   3
loop_
 _symmetry_equiv_pos_site_id
 _symmetry_equiv_pos_as_xyz
  1  'x, y, z'
loop_
 _atom_site_type_symbol
 _atom_site_label
 _atom_site_symmetry_multiplicity
 _atom_site_fract_x
 _atom_site_fract_y
 _atom_site_fract_z
 _atom_site_occupancy
  Na  Na0  1  0.37017980  0.00000000  0.00000000  1
  Na  Na1  1  0.00000000  0.37017980  0.00000000  1
  Na  Na2  1  0.62982020  0.62982020  0.00000000  1
  Mn  Mn3  1  0.70080317  1.00000000  0.50000000  1
  Mn  Mn4  1  0.29919683  0.29919683  0.50000000  1
  Mn  Mn5  1  0.00000000  0.70080317  0.50000000  1
  Cr  Cr6  1  0.33333300  0.66666700  0.49617832  1
  Cr  Cr7  1  0.66666700  0.33333300  0.50382168  1
  Cr  Cr8  1  0.00000000  0.00000000  0.00000000  1
  F  F9  1  0.77478428  0.23370016  0.29522448  1
  F  F10  1  0.76629984  0.54108512  0.29522448  1
  F  F11  1  0.45891488  0.22521572  0.29522448  1
  F  F12  1  0.54108512  0.76629984  0.70477552  1
  F  F13  1  0.22521572  0.45891488  0.70477552  1
  F  F14  1  0.23370016  0.77478428  0.70477552  1
  F  F15  1  0.40817233  0.53824671  0.28601895  1
  F  F16  1  0.46175229  0.86992462  0.28601895  1
  F  F17  1  0.13007538  0.59182767  0.28601895  1
  F  F18  1  0.90012438  0.10110313  0.77874744  1
  F  F19  1  0.89889687  0.79902125  0.77874744  1
  F  F20  1  0.20097875  0.09987562  0.77874744  1
  F  F21  1  0.79902125  0.89889687  0.22125256  1
  F  F22  1  0.09987562  0.20097875  0.22125256  1
  F  F23  1  0.10110313  0.90012438  0.22125256  1
  F  F24  1  0.53824671  0.40817233  0.71398105  1
  F  F25  1  0.59182767  0.13007538  0.71398105  1
  F  F26  1  0.86992462  0.46175229  0.71398105  1
