# generated using pymatgen
data_Yb4Cl6O
_symmetry_space_group_name_H-M   'P 1'
_cell_length_a   8.98508454
_cell_length_b   8.98508426
_cell_length_c   6.78149390
_cell_angle_alpha   90.00000000
_cell_angle_beta   90.00000000
_cell_angle_gamma   120.00000104
_symmetry_Int_Tables_number   1
_chemical_formula_structural   Yb4Cl6O
_chemical_formula_sum   'Yb8 Cl12 O2'
_cell_volume   474.13315364
_cell_formula_units_Z   2
loop_
 _symmetry_equiv_pos_site_id
 _symmetry_equiv_pos_as_xyz
  1  'x, y, z'
loop_
 _atom_site_type_symbol
 _atom_site_label
 _atom_site_symmetry_multiplicity
 _atom_site_fract_x
 _atom_site_fract_y
 _atom_site_fract_z
 _atom_site_occupancy
  Yb  Yb0  1  0.33333300  0.66666700  0.42998390  1
  Yb  Yb1  1  0.80115635  0.60231271  0.50189040  1
  Yb  Yb2  1  0.19884365  0.39768729  0.00189040  1
  Yb  Yb3  1  0.19884365  0.80115635  0.00189040  1
  Yb  Yb4  1  0.60231271  0.80115635  0.00189040  1
  Yb  Yb5  1  0.39768729  0.19884365  0.50189040  1
  Yb  Yb6  1  0.80115635  0.19884365  0.50189040  1
  Yb  Yb7  1  0.66666700  0.33333300  0.92998390  1
  Cl  Cl8  1  0.46461214  0.53538786  0.71220826  1
  Cl  Cl9  1  0.27704935  0.13852467  0.88752086  1
  Cl  Cl10  1  0.53538786  0.46461214  0.21220826  1
  Cl  Cl11  1  0.07077572  0.53538786  0.71220826  1
  Cl  Cl12  1  0.86147533  0.13852467  0.88752086  1
  Cl  Cl13  1  0.92922428  0.46461214  0.21220826  1
  Cl  Cl14  1  0.53538786  0.07077572  0.21220826  1
  Cl  Cl15  1  0.46461214  0.92922428  0.71220826  1
  Cl  Cl16  1  0.86147533  0.72295065  0.88752086  1
  Cl  Cl17  1  0.13852467  0.86147533  0.38752086  1
  Cl  Cl18  1  0.72295065  0.86147533  0.38752086  1
  Cl  Cl19  1  0.13852467  0.27704935  0.38752086  1
  O  O20  1  0.33333300  0.66666700  0.10665754  1
  O  O21  1  0.66666700  0.33333300  0.60665754  1
