# generated using pymatgen
data_K2SnP2O7
_symmetry_space_group_name_H-M   'P 1'
_cell_length_a   6.88209844
_cell_length_b   10.02094555
_cell_length_c   12.44366073
_cell_angle_alpha   107.86371959
_cell_angle_beta   90.00000000
_cell_angle_gamma   90.00000000
_symmetry_Int_Tables_number   1
_chemical_formula_structural   K2SnP2O7
_chemical_formula_sum   'K8 Sn4 P8 O28'
_cell_volume   816.80493075
_cell_formula_units_Z   4
loop_
 _symmetry_equiv_pos_site_id
 _symmetry_equiv_pos_as_xyz
  1  'x, y, z'
loop_
 _atom_site_type_symbol
 _atom_site_label
 _atom_site_symmetry_multiplicity
 _atom_site_fract_x
 _atom_site_fract_y
 _atom_site_fract_z
 _atom_site_occupancy
  K  K0  1  0.87102304  0.63154944  0.14686781  1
  K  K1  1  0.12897696  0.36845056  0.85313219  1
  K  K2  1  0.85318537  0.81906205  0.84013455  1
  K  K3  1  0.37102304  0.86845056  0.35313219  1
  K  K4  1  0.14681463  0.18093795  0.15986545  1
  K  K5  1  0.62897696  0.13154944  0.64686781  1
  K  K6  1  0.64681463  0.31906205  0.34013455  1
  K  K7  1  0.35318537  0.68093795  0.65986545  1
  Sn  Sn8  1  0.84729113  0.74693036  0.49495555  1
  Sn  Sn9  1  0.65270887  0.24693036  0.99495555  1
  Sn  Sn10  1  0.15270887  0.25306964  0.50504445  1
  Sn  Sn11  1  0.34729113  0.75306964  0.00504445  1
  P  P12  1  0.64100973  0.99314676  0.14455720  1
  P  P13  1  0.85899027  0.49314676  0.64455720  1
  P  P14  1  0.36741267  0.51162392  0.14936357  1
  P  P15  1  0.13258733  0.01162392  0.64936357  1
  P  P16  1  0.63258733  0.48837608  0.85063643  1
  P  P17  1  0.14100973  0.50685324  0.35544280  1
  P  P18  1  0.35899027  0.00685324  0.85544280  1
  P  P19  1  0.86741267  0.98837608  0.35063643  1
  O  O20  1  0.87939050  0.36673319  0.53446796  1
  O  O21  1  0.52436538  0.35978707  0.86377664  1
  O  O22  1  0.54833956  0.97127659  0.79116589  1
  O  O23  1  0.47563462  0.64021293  0.13622336  1
  O  O24  1  0.80958076  0.53411403  0.92395461  1
  O  O25  1  0.62060950  0.86673319  0.03446796  1
  O  O26  1  0.02436538  0.14021293  0.63622336  1
  O  O27  1  0.30958076  0.96588597  0.57604539  1
  O  O28  1  0.20076058  0.06871628  0.78301385  1
  O  O29  1  0.12060950  0.63326681  0.46553204  1
  O  O30  1  0.29923942  0.56871628  0.28301385  1
  O  O31  1  0.98782809  0.88939580  0.64391794  1
  O  O32  1  0.97563462  0.85978707  0.36377664  1
  O  O33  1  0.45166044  0.02872341  0.20883411  1
  O  O34  1  0.79923942  0.93128372  0.21698615  1
  O  O35  1  0.19041924  0.46588597  0.07604539  1
  O  O36  1  0.95166044  0.47127659  0.29116589  1
  O  O37  1  0.37939050  0.13326681  0.96553204  1
  O  O38  1  0.04833956  0.52872341  0.70883411  1
  O  O39  1  0.25436393  0.88274666  0.87842022  1
  O  O40  1  0.70076058  0.43128372  0.71698615  1
  O  O41  1  0.69041924  0.03411403  0.42395461  1
  O  O42  1  0.51217191  0.38939580  0.14391794  1
  O  O43  1  0.24563607  0.38274666  0.37842022  1
  O  O44  1  0.48782809  0.61060420  0.85608206  1
  O  O45  1  0.75436393  0.61725334  0.62157978  1
  O  O46  1  0.01217191  0.11060420  0.35608206  1
  O  O47  1  0.74563607  0.11725334  0.12157978  1
