# generated using pymatgen
data_CoAs4F18
_symmetry_space_group_name_H-M   'P 1'
_cell_length_a   7.42350762
_cell_length_b   7.44549788
_cell_length_c   13.14097569
_cell_angle_alpha   90.00000000
_cell_angle_beta   90.00000000
_cell_angle_gamma   91.81884132
_symmetry_Int_Tables_number   1
_chemical_formula_structural   CoAs4F18
_chemical_formula_sum   'Co2 As8 F36'
_cell_volume   725.95826227
_cell_formula_units_Z   2
loop_
 _symmetry_equiv_pos_site_id
 _symmetry_equiv_pos_as_xyz
  1  'x, y, z'
loop_
 _atom_site_type_symbol
 _atom_site_label
 _atom_site_symmetry_multiplicity
 _atom_site_fract_x
 _atom_site_fract_y
 _atom_site_fract_z
 _atom_site_occupancy
  Co  Co0  1  0.50000000  0.50000000  0.50000000  1
  Co  Co1  1  0.00000000  0.00000000  0.00000000  1
  As  As2  1  0.50000000  0.00000000  0.50000000  1
  As  As3  1  0.51734303  0.43881359  0.78136309  1
  As  As4  1  0.98265697  0.06118641  0.28136309  1
  As  As5  1  0.50000000  0.00000000  0.00000000  1
  As  As6  1  0.00000000  0.50000000  0.00000000  1
  As  As7  1  0.48265697  0.56118641  0.21863691  1
  As  As8  1  0.01734303  0.93881359  0.71863691  1
  As  As9  1  0.00000000  0.50000000  0.50000000  1
  F  F10  1  0.73588357  0.05277908  0.96762855  1
  F  F11  1  0.55343811  0.54164458  0.65393409  1
  F  F12  1  0.18543339  0.16797617  0.24450223  1
  F  F13  1  0.26411643  0.94722092  0.03237145  1
  F  F14  1  0.44379194  0.23346544  0.52803449  1
  F  F15  1  0.31456661  0.33202383  0.74450223  1
  F  F16  1  0.44058160  0.20949770  0.94945273  1
  F  F17  1  0.96837359  0.40065010  0.61901567  1
  F  F18  1  0.28024597  0.95919556  0.45479994  1
  F  F19  1  0.78024597  0.45919556  0.04520006  1
  F  F20  1  0.57166451  0.06112118  0.37773797  1
  F  F21  1  0.94058160  0.70949770  0.55054727  1
  F  F22  1  0.07166451  0.56112118  0.12226203  1
  F  F23  1  0.46837359  0.90065010  0.88098433  1
  F  F24  1  0.94656189  0.95835542  0.15393409  1
  F  F25  1  0.84695948  0.24241500  0.25321200  1
  F  F26  1  0.92833549  0.43887882  0.87773797  1
  F  F27  1  0.23588357  0.55277908  0.53237145  1
  F  F28  1  0.05620806  0.26653456  0.02803449  1
  F  F29  1  0.44656189  0.45835542  0.34606591  1
  F  F30  1  0.71975403  0.04080444  0.54520006  1
  F  F31  1  0.55941840  0.79050230  0.05054727  1
  F  F32  1  0.76411643  0.44722092  0.46762855  1
  F  F33  1  0.21975403  0.54080444  0.95479994  1
  F  F34  1  0.34695948  0.74241500  0.24678800  1
  F  F35  1  0.68543339  0.66797617  0.25549777  1
  F  F36  1  0.42833549  0.93887882  0.62226203  1
  F  F37  1  0.65304052  0.25758500  0.75321200  1
  F  F38  1  0.05343811  0.04164458  0.84606591  1
  F  F39  1  0.05941840  0.29050230  0.44945273  1
  F  F40  1  0.94379194  0.73346544  0.97196551  1
  F  F41  1  0.55620806  0.76653456  0.47196551  1
  F  F42  1  0.15304052  0.75758500  0.74678800  1
  F  F43  1  0.03162641  0.59934990  0.38098433  1
  F  F44  1  0.53162641  0.09934990  0.11901567  1
  F  F45  1  0.81456661  0.83202383  0.75549777  1
