# generated using pymatgen
data_Ba3LiIr2O9
_symmetry_space_group_name_H-M   'P 1'
_cell_length_a   5.85900937
_cell_length_b   5.85900915
_cell_length_c   14.45058384
_cell_angle_alpha   90.00000000
_cell_angle_beta   90.00000000
_cell_angle_gamma   120.00000121
_symmetry_Int_Tables_number   1
_chemical_formula_structural   Ba3LiIr2O9
_chemical_formula_sum   'Ba6 Li2 Ir4 O18'
_cell_volume   429.60011503
_cell_formula_units_Z   2
loop_
 _symmetry_equiv_pos_site_id
 _symmetry_equiv_pos_as_xyz
  1  'x, y, z'
loop_
 _atom_site_type_symbol
 _atom_site_label
 _atom_site_symmetry_multiplicity
 _atom_site_fract_x
 _atom_site_fract_y
 _atom_site_fract_z
 _atom_site_occupancy
  Ba  Ba0  1  0.66666700  0.33333300  0.41661768  1
  Ba  Ba1  1  0.33333300  0.66666700  0.58338232  1
  Ba  Ba2  1  0.33333300  0.66666700  0.91661768  1
  Ba  Ba3  1  0.00000000  0.00000000  0.25000000  1
  Ba  Ba4  1  0.66666700  0.33333300  0.08338232  1
  Ba  Ba5  1  0.00000000  0.00000000  0.75000000  1
  Li  Li6  1  0.00000000  0.00000000  0.50000000  1
  Li  Li7  1  0.00000000  0.00000000  0.00000000  1
  Ir  Ir8  1  0.33333300  0.66666700  0.15568206  1
  Ir  Ir9  1  0.66666700  0.33333300  0.84431794  1
  Ir  Ir10  1  0.33333300  0.66666700  0.34431794  1
  Ir  Ir11  1  0.66666700  0.33333300  0.65568206  1
  O  O12  1  0.82600549  0.65201099  0.58385685  1
  O  O13  1  0.82600549  0.17399451  0.91614315  1
  O  O14  1  0.65201099  0.82600549  0.41614315  1
  O  O15  1  0.51586921  0.48413079  0.75000000  1
  O  O16  1  0.17399451  0.34798901  0.41614315  1
  O  O17  1  0.34798901  0.17399451  0.58385685  1
  O  O18  1  0.51586921  0.03173842  0.75000000  1
  O  O19  1  0.17399451  0.34798901  0.08385685  1
  O  O20  1  0.48413079  0.96826158  0.25000000  1
  O  O21  1  0.65201099  0.82600549  0.08385685  1
  O  O22  1  0.17399451  0.82600549  0.41614315  1
  O  O23  1  0.34798901  0.17399451  0.91614315  1
  O  O24  1  0.03173842  0.51586921  0.25000000  1
  O  O25  1  0.48413079  0.51586921  0.25000000  1
  O  O26  1  0.96826158  0.48413079  0.75000000  1
  O  O27  1  0.82600549  0.65201099  0.91614315  1
  O  O28  1  0.82600549  0.17399451  0.58385685  1
  O  O29  1  0.17399451  0.82600549  0.08385685  1
