# generated using pymatgen
data_CsSb(PO4)2
_symmetry_space_group_name_H-M   'P 1'
_cell_length_a   4.91435450
_cell_length_b   4.91435435
_cell_length_c   9.38708292
_cell_angle_alpha   90.00000000
_cell_angle_beta   90.00000000
_cell_angle_gamma   120.00000092
_symmetry_Int_Tables_number   1
_chemical_formula_structural   CsSb(PO4)2
_chemical_formula_sum   'Cs1 Sb1 P2 O8'
_cell_volume   196.33341977
_cell_formula_units_Z   1
loop_
 _symmetry_equiv_pos_site_id
 _symmetry_equiv_pos_as_xyz
  1  'x, y, z'
loop_
 _atom_site_type_symbol
 _atom_site_label
 _atom_site_symmetry_multiplicity
 _atom_site_fract_x
 _atom_site_fract_y
 _atom_site_fract_z
 _atom_site_occupancy
  Cs  Cs0  1  0.00000000  0.00000000  0.00000000  1
  Sb  Sb1  1  0.00000000  0.00000000  0.50000000  1
  P  P2  1  0.33333300  0.66666700  0.68757820  1
  P  P3  1  0.66666700  0.33333300  0.31242180  1
  O  O4  1  0.66666700  0.33333300  0.15345978  1
  O  O5  1  0.64993680  0.94385248  0.62647175  1
  O  O6  1  0.29391568  0.35006320  0.62647175  1
  O  O7  1  0.33333300  0.66666700  0.84654022  1
  O  O8  1  0.70608432  0.64993680  0.37352825  1
  O  O9  1  0.35006320  0.05614752  0.37352825  1
  O  O10  1  0.94385248  0.29391568  0.37352825  1
  O  O11  1  0.05614752  0.70608432  0.62647175  1
