# generated using pymatgen
data_Na2Be(GeO3)2
_symmetry_space_group_name_H-M   'P 1'
_cell_length_a   7.19140711
_cell_length_b   11.49523956
_cell_length_c   11.53247550
_cell_angle_alpha   84.40318810
_cell_angle_beta   71.83289916
_cell_angle_gamma   71.77198597
_symmetry_Int_Tables_number   1
_chemical_formula_structural   Na2Be(GeO3)2
_chemical_formula_sum   'Na12 Be6 Ge12 O36'
_cell_volume   860.37570081
_cell_formula_units_Z   6
loop_
 _symmetry_equiv_pos_site_id
 _symmetry_equiv_pos_as_xyz
  1  'x, y, z'
loop_
 _atom_site_type_symbol
 _atom_site_label
 _atom_site_symmetry_multiplicity
 _atom_site_fract_x
 _atom_site_fract_y
 _atom_site_fract_z
 _atom_site_occupancy
  Na  Na0  1  0.74216506  0.50000000  0.51566989  1
  Na  Na1  1  0.49216506  0.00000000  0.01566989  1
  Na  Na2  1  0.10933987  0.50000000  0.78132026  1
  Na  Na3  1  0.85933987  0.00000000  0.28132026  1
  Na  Na4  1  0.06120777  0.84520496  0.55238965  1
  Na  Na5  1  0.38640258  0.15479504  0.55238965  1
  Na  Na6  1  0.15641273  0.65479504  0.05238965  1
  Na  Na7  1  0.79119762  0.34520496  0.05238965  1
  Na  Na8  1  0.44287736  0.81482322  0.82744656  1
  Na  Na9  1  0.72967608  0.18517678  0.82744656  1
  Na  Na10  1  0.50770058  0.68517678  0.32744656  1
  Na  Na11  1  0.16485286  0.31482322  0.32744656  1
  Be  Be12  1  0.27388007  0.83737379  0.14600790  1
  Be  Be13  1  0.58011203  0.16262621  0.14600790  1
  Be  Be14  1  0.36125386  0.66262621  0.64600790  1
  Be  Be15  1  0.99273824  0.33737379  0.64600790  1
  Be  Be16  1  0.88492736  0.50000000  0.23014528  1
  Be  Be17  1  0.63492736  0.00000000  0.73014528  1
  Ge  Ge18  1  0.24951365  0.50000000  0.50097270  1
  Ge  Ge19  1  0.99951365  0.00000000  0.00097270  1
  Ge  Ge20  1  0.59497466  0.50000000  0.81005067  1
  Ge  Ge21  1  0.34497466  0.00000000  0.31005067  1
  Ge  Ge22  1  0.94212256  0.79914824  0.84276039  1
  Ge  Ge23  1  0.21511705  0.20085176  0.84276039  1
  Ge  Ge24  1  0.99127080  0.70085176  0.34276039  1
  Ge  Ge25  1  0.66596881  0.29914824  0.34276039  1
  Ge  Ge26  1  0.56004315  0.86797306  0.52577205  1
  Ge  Ge27  1  0.91418480  0.13202694  0.52577205  1
  Ge  Ge28  1  0.67801621  0.63202694  0.02577205  1
  Ge  Ge29  1  0.29621174  0.36797306  0.02577205  1
  O  O30  1  0.73606127  0.51834865  0.90947806  1
  O  O31  1  0.35446067  0.48165135  0.90947806  1
  O  O32  1  0.50440992  0.98165135  0.40947806  1
  O  O33  1  0.08611202  0.01834865  0.40947806  1
  O  O34  1  0.11272052  0.71436162  0.71545209  1
  O  O35  1  0.17182739  0.28563838  0.71545209  1
  O  O36  1  0.07708214  0.78563838  0.21545209  1
  O  O37  1  0.70746577  0.21436162  0.21545209  1
  O  O38  1  0.08524084  0.87070157  0.90010434  1
  O  O39  1  0.01465482  0.12929843  0.90010434  1
  O  O40  1  0.20594241  0.62929843  0.40010434  1
  O  O41  1  0.39395325  0.37070157  0.40010434  1
  O  O42  1  0.83399873  0.80846249  0.46518134  1
  O  O43  1  0.70081993  0.19153751  0.46518134  1
  O  O44  1  0.89246122  0.69153751  0.96518134  1
  O  O45  1  0.14235744  0.30846249  0.96518134  1
  O  O46  1  0.51041257  0.95420465  0.65422956  1
  O  O47  1  0.83535787  0.04579535  0.65422956  1
  O  O48  1  0.71461722  0.54579535  0.15422956  1
  O  O49  1  0.13115322  0.45420465  0.15422956  1
  O  O50  1  0.40374016  0.86674739  0.22818201  1
  O  O51  1  0.36807783  0.13325261  0.22818201  1
  O  O52  1  0.52048755  0.63325261  0.72818201  1
  O  O53  1  0.75133043  0.36674739  0.72818201  1
  O  O54  1  0.43761950  0.73636306  0.03640261  1
  O  O55  1  0.52597789  0.26363694  0.03640261  1
  O  O56  1  0.42398256  0.76363694  0.53640261  1
  O  O57  1  0.03961483  0.23636306  0.53640261  1
  O  O58  1  0.39362595  0.53117085  0.58354719  1
  O  O59  1  0.02282686  0.46882915  0.58354719  1
  O  O60  1  0.17479680  0.96882915  0.08354719  1
  O  O61  1  0.74165601  0.03117085  0.08354719  1
  O  O62  1  0.85101545  0.60844482  0.32676686  1
  O  O63  1  0.82221770  0.39155518  0.32676686  1
  O  O64  1  0.70946027  0.89155518  0.82676686  1
  O  O65  1  0.46377287  0.10844482  0.82676686  1
