# generated using pymatgen
data_KUI3O11
_symmetry_space_group_name_H-M   'P 1'
_cell_length_a   7.39988867
_cell_length_b   11.68474511
_cell_length_c   26.00635308
_cell_angle_alpha   90.00000000
_cell_angle_beta   90.00000000
_cell_angle_gamma   90.00000000
_symmetry_Int_Tables_number   1
_chemical_formula_structural   KUI3O11
_chemical_formula_sum   'K8 U8 I24 O88'
_cell_volume   2248.66046096
_cell_formula_units_Z   8
loop_
 _symmetry_equiv_pos_site_id
 _symmetry_equiv_pos_as_xyz
  1  'x, y, z'
loop_
 _atom_site_type_symbol
 _atom_site_label
 _atom_site_symmetry_multiplicity
 _atom_site_fract_x
 _atom_site_fract_y
 _atom_site_fract_z
 _atom_site_occupancy
  K  K0  1  0.55336264  0.83695385  0.02110601  1
  K  K1  1  0.94663736  0.83695385  0.52110601  1
  K  K2  1  0.44663736  0.66304615  0.52110601  1
  K  K3  1  0.44663736  0.16304615  0.97889399  1
  K  K4  1  0.05336264  0.66304615  0.02110601  1
  K  K5  1  0.94663736  0.33695385  0.97889399  1
  K  K6  1  0.55336264  0.33695385  0.47889399  1
  K  K7  1  0.05336264  0.16304615  0.47889399  1
  U  U8  1  0.46366375  0.02505756  0.15176542  1
  U  U9  1  0.46366375  0.52505756  0.34823458  1
  U  U10  1  0.03633625  0.52505756  0.84823458  1
  U  U11  1  0.03633625  0.02505756  0.65176542  1
  U  U12  1  0.96366375  0.47494244  0.15176542  1
  U  U13  1  0.53633625  0.47494244  0.65176542  1
  U  U14  1  0.96366375  0.97494244  0.34823458  1
  U  U15  1  0.53633625  0.97494244  0.84823458  1
  I  I16  1  0.56497550  0.65972549  0.79666526  1
  I  I17  1  0.13873729  0.20386087  0.84468824  1
  I  I18  1  0.63873729  0.79613913  0.65531176  1
  I  I19  1  0.04652911  0.56134276  0.43760753  1
  I  I20  1  0.54652911  0.43865724  0.06239247  1
  I  I21  1  0.06497550  0.34027451  0.70333474  1
  I  I22  1  0.43502450  0.84027451  0.29666526  1
  I  I23  1  0.54652911  0.93865724  0.43760753  1
  I  I24  1  0.95347089  0.93865724  0.93760753  1
  I  I25  1  0.36126271  0.20386087  0.34468824  1
  I  I26  1  0.36126271  0.70386087  0.15531176  1
  I  I27  1  0.93502450  0.65972549  0.29666526  1
  I  I28  1  0.63873729  0.29613913  0.84468824  1
  I  I29  1  0.93502450  0.15972549  0.20333474  1
  I  I30  1  0.04652911  0.06134276  0.06239247  1
  I  I31  1  0.45347089  0.06134276  0.56239247  1
  I  I32  1  0.45347089  0.56134276  0.93760753  1
  I  I33  1  0.86126271  0.79613913  0.15531176  1
  I  I34  1  0.13873729  0.70386087  0.65531176  1
  I  I35  1  0.56497550  0.15972549  0.70333474  1
  I  I36  1  0.95347089  0.43865724  0.56239247  1
  I  I37  1  0.86126271  0.29613913  0.34468824  1
  I  I38  1  0.43502450  0.34027451  0.20333474  1
  I  I39  1  0.06497550  0.84027451  0.79666526  1
  O  O40  1  0.28134303  0.93375462  0.33320640  1
  O  O41  1  0.02553602  0.97352093  0.41600203  1
  O  O42  1  0.83080800  0.93995004  0.87320864  1
  O  O43  1  0.03889065  0.22466593  0.65538353  1
  O  O44  1  0.28428601  0.85070433  0.14239107  1
  O  O45  1  0.52553602  0.52647907  0.41600203  1
  O  O46  1  0.33080800  0.56004996  0.87320864  1
  O  O47  1  0.71865697  0.56624538  0.83320640  1
  O  O48  1  0.60808324  0.84257698  0.58940526  1
  O  O49  1  0.82217663  0.03820922  0.97666645  1
  O  O50  1  0.62324944  0.34748985  0.33512249  1
  O  O51  1  0.33080800  0.06004996  0.62679136  1
  O  O52  1  0.86565069  0.80513207  0.96195920  1
  O  O53  1  0.22216978  0.27071427  0.74689622  1
  O  O54  1  0.10808324  0.65742302  0.58940526  1
  O  O55  1  0.12324944  0.65251015  0.16487751  1
  O  O56  1  0.39191676  0.65742302  0.08940526  1
  O  O57  1  0.37675056  0.65251015  0.66487751  1
  O  O58  1  0.67782337  0.53820922  0.02333355  1
  O  O59  1  0.63434931  0.80513207  0.46195920  1
  O  O60  1  0.46110935  0.72466593  0.34461647  1
  O  O61  1  0.27783022  0.27071427  0.24689622  1
  O  O62  1  0.78428601  0.14929567  0.35760893  1
  O  O63  1  0.47446398  0.97352093  0.91600203  1
  O  O64  1  0.71571399  0.64929567  0.64239107  1
  O  O65  1  0.59013567  0.97788801  0.77957477  1
  O  O66  1  0.09013567  0.02211199  0.72042523  1
  O  O67  1  0.36565069  0.19486793  0.53804080  1
  O  O68  1  0.96110935  0.27533407  0.15538353  1
  O  O69  1  0.28428601  0.35070433  0.35760893  1
  O  O70  1  0.60808324  0.34257698  0.91059474  1
  O  O71  1  0.09013567  0.52211199  0.77957477  1
  O  O72  1  0.16919200  0.56004996  0.37320864  1
  O  O73  1  0.21571399  0.85070433  0.64239107  1
  O  O74  1  0.89191676  0.34257698  0.41059474  1
  O  O75  1  0.67782337  0.03820922  0.47666645  1
  O  O76  1  0.16919200  0.06004996  0.12679136  1
  O  O77  1  0.78134303  0.06624538  0.16679360  1
  O  O78  1  0.72216978  0.72928573  0.75310378  1
  O  O79  1  0.96110935  0.77533407  0.34461647  1
  O  O80  1  0.83080800  0.43995004  0.62679136  1
  O  O81  1  0.53889065  0.27533407  0.65538353  1
  O  O82  1  0.53889065  0.77533407  0.84461647  1
  O  O83  1  0.97446398  0.52647907  0.91600203  1
  O  O84  1  0.89191676  0.84257698  0.08940526  1
  O  O85  1  0.97446398  0.02647907  0.58399797  1
  O  O86  1  0.77783022  0.22928573  0.24689622  1
  O  O87  1  0.66919200  0.43995004  0.12679136  1
  O  O88  1  0.21865697  0.93375462  0.83320640  1
  O  O89  1  0.90986433  0.97788801  0.27957477  1
  O  O90  1  0.02553602  0.47352093  0.08399797  1
  O  O91  1  0.66919200  0.93995004  0.37320864  1
  O  O92  1  0.28134303  0.43375462  0.16679360  1
  O  O93  1  0.77783022  0.72928573  0.25310378  1
  O  O94  1  0.71571399  0.14929567  0.85760893  1
  O  O95  1  0.87675056  0.34748985  0.83512249  1
  O  O96  1  0.47446398  0.47352093  0.58399797  1
  O  O97  1  0.87675056  0.84748985  0.66487751  1
  O  O98  1  0.21571399  0.35070433  0.85760893  1
  O  O99  1  0.32217663  0.96179078  0.52333355  1
  O  O100  1  0.37675056  0.15251015  0.83512249  1
  O  O101  1  0.17782337  0.96179078  0.02333355  1
  O  O102  1  0.13434931  0.69486793  0.46195920  1
  O  O103  1  0.21865697  0.43375462  0.66679360  1
  O  O104  1  0.10808324  0.15742302  0.91059474  1
  O  O105  1  0.27783022  0.77071427  0.25310378  1
  O  O106  1  0.40986433  0.02211199  0.22042523  1
  O  O107  1  0.46110935  0.22466593  0.15538353  1
  O  O108  1  0.39191676  0.15742302  0.41059474  1
  O  O109  1  0.12324944  0.15251015  0.33512249  1
  O  O110  1  0.03889065  0.72466593  0.84461647  1
  O  O111  1  0.90986433  0.47788801  0.22042523  1
  O  O112  1  0.62324944  0.84748985  0.16487751  1
  O  O113  1  0.82217663  0.53820922  0.52333355  1
  O  O114  1  0.40986433  0.52211199  0.27957477  1
  O  O115  1  0.36565069  0.69486793  0.96195920  1
  O  O116  1  0.78428601  0.64929567  0.14239107  1
  O  O117  1  0.71865697  0.06624538  0.66679360  1
  O  O118  1  0.72216978  0.22928573  0.74689622  1
  O  O119  1  0.32217663  0.46179078  0.97666645  1
  O  O120  1  0.52553602  0.02647907  0.08399797  1
  O  O121  1  0.86565069  0.30513207  0.53804080  1
  O  O122  1  0.59013567  0.47788801  0.72042523  1
  O  O123  1  0.63434931  0.30513207  0.03804080  1
  O  O124  1  0.22216978  0.77071427  0.75310378  1
  O  O125  1  0.17782337  0.46179078  0.47666645  1
  O  O126  1  0.78134303  0.56624538  0.33320640  1
  O  O127  1  0.13434931  0.19486793  0.03804080  1
