# generated using pymatgen
data_CsLuP2O7
_symmetry_space_group_name_H-M   'P 1'
_cell_length_a   7.95798862
_cell_length_b   8.78242070
_cell_length_c   10.80255056
_cell_angle_alpha   90.00000000
_cell_angle_beta   90.00000000
_cell_angle_gamma   104.47422786
_symmetry_Int_Tables_number   1
_chemical_formula_structural   CsLuP2O7
_chemical_formula_sum   'Cs4 Lu4 P8 O28'
_cell_volume   731.03121775
_cell_formula_units_Z   4
loop_
 _symmetry_equiv_pos_site_id
 _symmetry_equiv_pos_as_xyz
  1  'x, y, z'
loop_
 _atom_site_type_symbol
 _atom_site_label
 _atom_site_symmetry_multiplicity
 _atom_site_fract_x
 _atom_site_fract_y
 _atom_site_fract_z
 _atom_site_occupancy
  Cs  Cs0  1  0.80034561  0.95012491  0.69441581  1
  Cs  Cs1  1  0.80034561  0.45012491  0.80558419  1
  Cs  Cs2  1  0.19965439  0.04987509  0.30558419  1
  Cs  Cs3  1  0.19965439  0.54987509  0.19441581  1
  Lu  Lu4  1  0.23778402  0.25403436  0.90040728  1
  Lu  Lu5  1  0.76221598  0.74596564  0.09959272  1
  Lu  Lu6  1  0.23778402  0.75403436  0.59959272  1
  Lu  Lu7  1  0.76221598  0.24596564  0.40040728  1
  P  P8  1  0.13086183  0.82428798  0.90417093  1
  P  P9  1  0.86913817  0.67571202  0.40417093  1
  P  P10  1  0.13086183  0.32428798  0.59582907  1
  P  P11  1  0.57277525  0.81774231  0.37098063  1
  P  P12  1  0.86913817  0.17571202  0.09582907  1
  P  P13  1  0.42722475  0.18225769  0.62901937  1
  P  P14  1  0.57277525  0.31774231  0.12901937  1
  P  P15  1  0.42722475  0.68225769  0.87098063  1
  O  O16  1  0.33321717  0.51148220  0.89689178  1
  O  O17  1  0.39242768  0.26803040  0.07006971  1
  O  O18  1  0.00139764  0.26905102  0.00269942  1
  O  O19  1  0.66678283  0.98851780  0.39689178  1
  O  O20  1  0.15513640  0.00065445  0.91512821  1
  O  O21  1  0.43580191  0.22630281  0.76647098  1
  O  O22  1  0.56419809  0.27369719  0.26647098  1
  O  O23  1  0.66678283  0.48851780  0.10310822  1
  O  O24  1  0.08695931  0.26324248  0.72833985  1
  O  O25  1  0.84486360  0.99934555  0.08487179  1
  O  O26  1  0.99860236  0.73094898  0.99730058  1
  O  O27  1  0.31658422  0.79021528  0.94220533  1
  O  O28  1  0.56419809  0.77369719  0.23352902  1
  O  O29  1  0.00139764  0.76905102  0.49730058  1
  O  O30  1  0.33321717  0.01148220  0.60310822  1
  O  O31  1  0.68341578  0.20978472  0.05779467  1
  O  O32  1  0.60757232  0.23196960  0.57006971  1
  O  O33  1  0.31658422  0.29021528  0.55779467  1
  O  O34  1  0.08695931  0.76324248  0.77166015  1
  O  O35  1  0.99860236  0.23094898  0.50269942  1
  O  O36  1  0.39242768  0.76803040  0.42993029  1
  O  O37  1  0.43580191  0.72630281  0.73352902  1
  O  O38  1  0.60757232  0.73196960  0.92993029  1
  O  O39  1  0.15513640  0.50065445  0.58487179  1
  O  O40  1  0.68341578  0.70978472  0.44220533  1
  O  O41  1  0.91304069  0.73675752  0.27166015  1
  O  O42  1  0.91304069  0.23675752  0.22833985  1
  O  O43  1  0.84486360  0.49934555  0.41512821  1
