# generated using pymatgen
data_KGeAuS3
_symmetry_space_group_name_H-M   'P 1'
_cell_length_a   10.79969201
_cell_length_b   11.49870926
_cell_length_c   11.57936676
_cell_angle_alpha   90.00000000
_cell_angle_beta   114.32933158
_cell_angle_gamma   90.00000000
_symmetry_Int_Tables_number   1
_chemical_formula_structural   KGeAuS3
_chemical_formula_sum   'K8 Ge8 Au8 S24'
_cell_volume   1310.25372914
_cell_formula_units_Z   8
loop_
 _symmetry_equiv_pos_site_id
 _symmetry_equiv_pos_as_xyz
  1  'x, y, z'
loop_
 _atom_site_type_symbol
 _atom_site_label
 _atom_site_symmetry_multiplicity
 _atom_site_fract_x
 _atom_site_fract_y
 _atom_site_fract_z
 _atom_site_occupancy
  K  K0  1  0.32820825  0.73382004  0.71058008  1
  K  K1  1  0.96586296  0.76615794  0.87613865  1
  K  K2  1  0.17179175  0.23382004  0.78941992  1
  K  K3  1  0.03413704  0.23384206  0.12386135  1
  K  K4  1  0.53413704  0.26615794  0.62386135  1
  K  K5  1  0.46586296  0.73384206  0.37613865  1
  K  K6  1  0.67179175  0.26617996  0.28941992  1
  K  K7  1  0.82820825  0.76617996  0.21058008  1
  Ge  Ge8  1  0.41672809  0.00138507  0.08241175  1
  Ge  Ge9  1  0.39273570  0.50368835  0.05746816  1
  Ge  Ge10  1  0.10726430  0.00368835  0.44253184  1
  Ge  Ge11  1  0.91672809  0.49861493  0.58241175  1
  Ge  Ge12  1  0.08327191  0.50138507  0.41758825  1
  Ge  Ge13  1  0.89273570  0.99631165  0.55746816  1
  Ge  Ge14  1  0.60726430  0.49631165  0.94253184  1
  Ge  Ge15  1  0.58327191  0.99861493  0.91758825  1
  Au  Au16  1  0.36979760  0.08882915  0.35703776  1
  Au  Au17  1  0.16525022  0.91874830  0.18040595  1
  Au  Au18  1  0.33474978  0.41874830  0.31959405  1
  Au  Au19  1  0.63020240  0.91117085  0.64296224  1
  Au  Au20  1  0.86979760  0.41117085  0.85703776  1
  Au  Au21  1  0.83474978  0.08125170  0.81959405  1
  Au  Au22  1  0.13020240  0.58882915  0.14296224  1
  Au  Au23  1  0.66525022  0.58125170  0.68040595  1
  S  S24  1  0.18908825  -0.00102543  0.00509890  1
  S  S25  1  0.31091175  0.49897457  0.49490110  1
  S  S26  1  0.51085282  0.85440970  0.01131093  1
  S  S27  1  0.34720009  0.34085849  0.13841649  1
  S  S28  1  0.47234973  0.99332124  0.70707016  1
  S  S29  1  0.62457723  0.52829431  0.14360957  1
  S  S30  1  0.01085282  0.64559030  0.51131093  1
  S  S31  1  0.87542277  0.02829431  0.35639043  1
  S  S32  1  0.65279991  0.65914151  0.86158351  1
  S  S33  1  0.21192203  0.16577513  0.42543236  1
  S  S34  1  0.15279991  0.84085849  0.36158351  1
  S  S35  1  0.68908825  0.50102543  0.50509890  1
  S  S36  1  0.98914718  0.35440970  0.48868907  1
  S  S37  1  0.52765027  0.00667876  0.29292984  1
  S  S38  1  0.37542277  0.47170569  0.85639043  1
  S  S39  1  0.02765027  0.49332124  0.79292984  1
  S  S40  1  0.84720009  0.15914151  0.63841649  1
  S  S41  1  0.12457723  0.97170569  0.64360957  1
  S  S42  1  0.48914718  0.14559030  0.98868907  1
  S  S43  1  0.71192203  0.33422487  0.92543236  1
  S  S44  1  0.97234973  0.50667876  0.20707016  1
  S  S45  1  0.81091175  1.00102543  0.99490110  1
  S  S46  1  0.28807797  0.66577513  0.07456764  1
  S  S47  1  0.78807797  0.83422487  0.57456764  1
