# generated using pymatgen
data_Y2Te5O13
_symmetry_space_group_name_H-M   'P 1'
_cell_length_a   7.05509159
_cell_length_b   8.79793526
_cell_length_c   10.79483788
_cell_angle_alpha   89.46178961
_cell_angle_beta   87.42218026
_cell_angle_gamma   74.98120197
_symmetry_Int_Tables_number   1
_chemical_formula_structural   Y2Te5O13
_chemical_formula_sum   'Y4 Te10 O26'
_cell_volume   646.49358428
_cell_formula_units_Z   2
loop_
 _symmetry_equiv_pos_site_id
 _symmetry_equiv_pos_as_xyz
  1  'x, y, z'
loop_
 _atom_site_type_symbol
 _atom_site_label
 _atom_site_symmetry_multiplicity
 _atom_site_fract_x
 _atom_site_fract_y
 _atom_site_fract_z
 _atom_site_occupancy
  Y  Y0  1  0.99834732  0.73888246  0.23926732  1
  Y  Y1  1  0.00165268  0.26111754  0.76073268  1
  Y  Y2  1  0.55325996  0.52671938  0.17852456  1
  Y  Y3  1  0.44674004  0.47328062  0.82147544  1
  Te  Te4  1  0.27340234  0.39230180  0.48891609  1
  Te  Te5  1  0.29024930  0.87530833  0.97755258  1
  Te  Te6  1  0.84469414  0.19745669  0.35817818  1
  Te  Te7  1  0.43872227  0.90075143  0.30088975  1
  Te  Te8  1  0.15530586  0.80254331  0.64182182  1
  Te  Te9  1  0.11982290  0.35074401  0.10980067  1
  Te  Te10  1  0.56127773  0.09924857  0.69911025  1
  Te  Te11  1  0.88017710  0.64925599  0.89019933  1
  Te  Te12  1  0.70975070  0.12469167  0.02244742  1
  Te  Te13  1  0.72659766  0.60769820  0.51108391  1
  O  O14  1  0.46119187  0.19382008  0.52125657  1
  O  O15  1  0.31434221  0.73566921  0.28520439  1
  O  O16  1  0.04571991  0.34938287  0.56626330  1
  O  O17  1  0.95428009  0.65061713  0.43373670  1
  O  O18  1  0.32786939  0.74205734  0.77404207  1
  O  O19  1  0.12339270  0.48947372  0.89269497  1
  O  O20  1  0.76479038  0.50540972  0.81176876  1
  O  O21  1  0.06562469  0.26547559  0.27696443  1
  O  O22  1  0.65213855  0.01833348  0.87462654  1
  O  O23  1  0.23520962  0.49459028  0.18823124  1
  O  O24  1  0.32888870  0.22532817  0.77710770  1
  O  O25  1  0.67213061  0.25794266  0.22595793  1
  O  O26  1  0.46482039  0.67019858  0.99917112  1
  O  O27  1  0.53517961  0.32980142  0.00082888  1
  O  O28  1  0.68565779  0.26433079  0.71479561  1
  O  O29  1  0.66264158  0.48681841  0.38152232  1
  O  O30  1  0.93437531  0.73452441  0.72303557  1
  O  O31  1  0.87660730  0.51052628  0.10730503  1
  O  O32  1  0.06430922  0.01590516  0.68775147  1
  O  O33  1  0.33735842  0.51318159  0.61847768  1
  O  O34  1  0.05952928  0.81823230  0.03817318  1
  O  O35  1  0.94047072  0.18176770  0.96182682  1
  O  O36  1  0.67111130  0.77467183  0.22289230  1
  O  O37  1  0.53880813  0.80617992  0.47874343  1
  O  O38  1  0.93569078  0.98409484  0.31224853  1
  O  O39  1  0.34786145  0.98166652  0.12537346  1
