# generated using pymatgen
data_Ag2B8O13
_symmetry_space_group_name_H-M   'P 1'
_cell_length_a   6.70229253
_cell_length_b   8.84924776
_cell_length_c   17.77354645
_cell_angle_alpha   90.00000000
_cell_angle_beta   90.05320567
_cell_angle_gamma   90.00000000
_symmetry_Int_Tables_number   1
_chemical_formula_structural   Ag2B8O13
_chemical_formula_sum   'Ag8 B32 O52'
_cell_volume   1054.15297864
_cell_formula_units_Z   4
loop_
 _symmetry_equiv_pos_site_id
 _symmetry_equiv_pos_as_xyz
  1  'x, y, z'
loop_
 _atom_site_type_symbol
 _atom_site_label
 _atom_site_symmetry_multiplicity
 _atom_site_fract_x
 _atom_site_fract_y
 _atom_site_fract_z
 _atom_site_occupancy
  Ag  Ag0  1  0.07396647  0.01416719  0.61733567  1
  Ag  Ag1  1  0.53050482  0.93930262  0.90542443  1
  Ag  Ag2  1  0.53050482  0.56069738  0.40542443  1
  Ag  Ag3  1  0.92603353  0.51416719  0.88266433  1
  Ag  Ag4  1  0.07396647  0.48583281  0.11733567  1
  Ag  Ag5  1  0.46949518  0.06069738  0.09457557  1
  Ag  Ag6  1  0.92603353  0.98583281  0.38266433  1
  Ag  Ag7  1  0.46949518  0.43930262  0.59457557  1
  B  B8  1  0.97362882  0.19172048  0.22994094  1
  B  B9  1  0.00308761  0.36842155  0.59223679  1
  B  B10  1  0.02115722  0.93243908  0.18999447  1
  B  B11  1  0.76821554  0.26860044  0.49607890  1
  B  B12  1  0.97362882  0.30827952  0.72994094  1
  B  B13  1  0.23178446  0.73139956  0.50392110  1
  B  B14  1  0.99691239  0.86842155  0.90776321  1
  B  B15  1  0.99691239  0.63157845  0.40776321  1
  B  B16  1  0.46584593  0.23804460  0.76999119  1
  B  B17  1  0.53442212  0.80173546  0.59243395  1
  B  B18  1  0.53415407  0.73804460  0.73000881  1
  B  B19  1  0.46557788  0.30173546  0.90756605  1
  B  B20  1  0.46557788  0.19826454  0.40756605  1
  B  B21  1  0.87253669  0.72837772  0.01966724  1
  B  B22  1  0.97884278  0.43243908  0.31000553  1
  B  B23  1  0.87253669  0.77162228  0.51966724  1
  B  B24  1  0.02637118  0.80827952  0.77005906  1
  B  B25  1  0.00308761  0.13157845  0.09223679  1
  B  B26  1  0.23178446  0.76860044  0.00392110  1
  B  B27  1  0.53415407  0.76195540  0.23000881  1
  B  B28  1  0.48485765  0.50417348  0.19074655  1
  B  B29  1  0.76821554  0.23139956  0.99607890  1
  B  B30  1  0.46584593  0.26195540  0.26999119  1
  B  B31  1  0.51514235  1.00417348  0.30925345  1
  B  B32  1  0.48485765  -0.00417348  0.69074655  1
  B  B33  1  0.53442212  0.69826454  0.09243395  1
  B  B34  1  0.12746331  0.22837772  0.48033276  1
  B  B35  1  0.51514235  0.49582652  0.80925345  1
  B  B36  1  0.02637118  0.69172048  0.27005906  1
  B  B37  1  0.97884278  0.06756092  0.81000553  1
  B  B38  1  0.12746331  0.27162228  0.98033276  1
  B  B39  1  0.02115722  0.56756092  0.68999447  1
  O  O40  1  0.46417354  0.14715703  0.70707088  1
  O  O41  1  0.95120643  0.21722932  0.79178525  1
  O  O42  1  0.16462834  0.18013413  0.04141245  1
  O  O43  1  0.46675134  0.39296877  0.75248011  1
  O  O44  1  0.99943586  0.25938593  0.65828135  1
  O  O45  1  0.99943586  0.24061407  0.15828135  1
  O  O46  1  0.54622020  0.44868977  0.88121890  1
  O  O47  1  0.41936218  0.73414734  0.53174986  1
  O  O48  1  0.96897373  0.03659768  0.24591981  1
  O  O49  1  0.04769201  0.52180012  0.61814597  1
  O  O50  1  0.83537166  0.68013413  0.45858755  1
  O  O51  1  0.46493248  0.31041999  0.34245849  1
  O  O52  1  0.92623655  0.18136128  0.46812022  1
  O  O53  1  0.58063782  0.23414734  0.96825014  1
  O  O54  1  0.04769201  0.97819988  0.11814597  1
  O  O55  1  0.04879357  0.78277068  0.20821475  1
  O  O56  1  0.92623655  0.31863872  0.96812022  1
  O  O57  1  0.04879357  0.71722932  0.70821475  1
  O  O58  1  0.53506752  0.81041999  0.15754151  1
  O  O59  1  0.53582646  0.85284297  0.29292912  1
  O  O60  1  0.83537166  0.81986587  0.95858755  1
  O  O61  1  0.00056414  0.74061407  0.34171865  1
  O  O62  1  0.46417354  0.35284297  0.20707088  1
  O  O63  1  0.25897339  0.32748700  0.93057290  1
  O  O64  1  0.53324866  0.60703123  0.24751989  1
  O  O65  1  0.46493248  0.18958001  0.84245849  1
  O  O66  1  0.19386448  0.63726584  0.44389373  1
  O  O67  1  0.74102661  0.67251300  0.06942710  1
  O  O68  1  0.53324866  0.89296877  0.74751989  1
  O  O69  1  0.25897339  0.17251300  0.43057290  1
  O  O70  1  0.03102627  0.53659768  0.25408019  1
  O  O71  1  0.19386448  0.86273416  0.94389373  1
  O  O72  1  0.07376345  0.81863872  0.53187978  1
  O  O73  1  0.54622020  0.05131023  0.38121890  1
  O  O74  1  0.03102627  0.96340232  0.75408019  1
  O  O75  1  0.95230799  0.47819988  0.38185403  1
  O  O76  1  0.45377980  0.94868977  0.61878110  1
  O  O77  1  0.80613552  0.36273416  0.55610627  1
  O  O78  1  0.16462834  0.31986587  0.54141245  1
  O  O79  1  0.41936218  0.76585266  0.03174986  1
  O  O80  1  0.74102661  0.82748700  0.56942710  1
  O  O81  1  0.53506752  0.68958001  0.65754151  1
  O  O82  1  0.58063782  0.26585266  0.46825014  1
  O  O83  1  0.96897373  0.46340232  0.74591981  1
  O  O84  1  0.80613552  0.13726584  0.05610627  1
  O  O85  1  0.95230799  0.02180012  0.88185403  1
  O  O86  1  0.45377980  0.55131023  0.11878110  1
  O  O87  1  0.07376345  0.68136128  0.03187978  1
  O  O88  1  0.53582646  0.64715703  0.79292912  1
  O  O89  1  0.95120643  0.28277068  0.29178525  1
  O  O90  1  0.46675134  0.10703123  0.25248011  1
  O  O91  1  0.00056414  0.75938593  0.84171865  1
