# generated using pymatgen
data_DyCuTe2ClO6
_symmetry_space_group_name_H-M   'P 1'
_cell_length_a   5.44196638
_cell_length_b   9.33357044
_cell_length_c   14.98550220
_cell_angle_alpha   90.00000000
_cell_angle_beta   90.00000000
_cell_angle_gamma   99.94603239
_symmetry_Int_Tables_number   1
_chemical_formula_structural   DyCuTe2ClO6
_chemical_formula_sum   'Dy4 Cu4 Te8 Cl4 O24'
_cell_volume   749.71872088
_cell_formula_units_Z   4
loop_
 _symmetry_equiv_pos_site_id
 _symmetry_equiv_pos_as_xyz
  1  'x, y, z'
loop_
 _atom_site_type_symbol
 _atom_site_label
 _atom_site_symmetry_multiplicity
 _atom_site_fract_x
 _atom_site_fract_y
 _atom_site_fract_z
 _atom_site_occupancy
  Dy  Dy0  1  0.74551500  0.97263243  0.91294713  1
  Dy  Dy1  1  0.25448500  0.02736757  0.08705287  1
  Dy  Dy2  1  0.25448500  0.52736757  0.41294713  1
  Dy  Dy3  1  0.74551500  0.47263243  0.58705287  1
  Cu  Cu4  1  0.27252140  0.82945391  0.27725359  1
  Cu  Cu5  1  0.72747860  0.67054609  0.77725359  1
  Cu  Cu6  1  0.72747860  0.17054609  0.72274641  1
  Cu  Cu7  1  0.27252140  0.32945391  0.22274641  1
  Te  Te8  1  0.25572663  0.71659121  0.65449891  1
  Te  Te9  1  0.78036889  0.79638429  0.41367329  1
  Te  Te10  1  0.25572663  0.21659121  0.84550109  1
  Te  Te11  1  0.74427337  0.78340879  0.15449891  1
  Te  Te12  1  0.74427337  0.28340879  0.34550109  1
  Te  Te13  1  0.78036889  0.29638429  0.08632671  1
  Te  Te14  1  0.21963111  0.70361571  0.91367329  1
  Te  Te15  1  0.21963111  0.20361571  0.58632671  1
  Cl  Cl16  1  0.72416533  0.44351293  0.89710649  1
  Cl  Cl17  1  0.72416533  0.94351293  0.60289351  1
  Cl  Cl18  1  0.27583467  0.55648707  0.10289351  1
  Cl  Cl19  1  0.27583467  0.05648707  0.39710649  1
  O  O20  1  0.96188957  0.29213671  0.63844270  1
  O  O21  1  0.36914752  0.86532298  0.98258803  1
  O  O22  1  0.12543036  0.62647922  0.54565697  1
  O  O23  1  0.50148899  0.59680917  0.67640228  1
  O  O24  1  0.03811043  0.70786329  0.36155730  1
  O  O25  1  0.01553918  0.40831996  0.28595030  1
  O  O26  1  0.96188957  0.79213671  0.86155730  1
  O  O27  1  0.53144688  0.72936913  0.32302720  1
  O  O28  1  0.63085248  0.63467702  0.48258803  1
  O  O29  1  0.49851101  0.90319083  0.17640228  1
  O  O30  1  0.46855312  0.77063087  0.82302720  1
  O  O31  1  0.01553918  0.90831996  0.21404970  1
  O  O32  1  0.46855312  0.27063087  0.67697280  1
  O  O33  1  0.63085248  0.13467702  0.01741197  1
  O  O34  1  0.98446082  0.09168004  0.78595030  1
  O  O35  1  0.87456964  0.87352078  0.04565697  1
  O  O36  1  0.03811043  0.20786329  0.13844270  1
  O  O37  1  0.36914752  0.36532298  0.51741197  1
  O  O38  1  0.87456964  0.37352078  0.45434303  1
  O  O39  1  0.49851101  0.40319083  0.32359772  1
  O  O40  1  0.98446082  0.59168004  0.71404970  1
  O  O41  1  0.53144688  0.22936913  0.17697280  1
  O  O42  1  0.50148899  0.09680917  0.82359772  1
  O  O43  1  0.12543036  0.12647922  0.95434303  1
