# generated using pymatgen
data_TbSeClO3
_symmetry_space_group_name_H-M   'P 1'
_cell_length_a   7.05738886
_cell_length_b   7.33144066
_cell_length_c   8.91929706
_cell_angle_alpha   90.00000000
_cell_angle_beta   90.00000000
_cell_angle_gamma   90.00000000
_symmetry_Int_Tables_number   1
_chemical_formula_structural   TbSeClO3
_chemical_formula_sum   'Tb4 Se4 Cl4 O12'
_cell_volume   461.49181187
_cell_formula_units_Z   4
loop_
 _symmetry_equiv_pos_site_id
 _symmetry_equiv_pos_as_xyz
  1  'x, y, z'
loop_
 _atom_site_type_symbol
 _atom_site_label
 _atom_site_symmetry_multiplicity
 _atom_site_fract_x
 _atom_site_fract_y
 _atom_site_fract_z
 _atom_site_occupancy
  Tb  Tb0  1  0.25000000  0.60589049  0.03920240  1
  Tb  Tb1  1  0.75000000  0.39410951  0.96079760  1
  Tb  Tb2  1  0.25000000  0.10589049  0.46079760  1
  Tb  Tb3  1  0.75000000  0.89410951  0.53920240  1
  Se  Se4  1  0.75000000  0.28976867  0.36771177  1
  Se  Se5  1  0.25000000  0.21023133  0.86771177  1
  Se  Se6  1  0.75000000  0.78976867  0.13228823  1
  Se  Se7  1  0.25000000  0.71023133  0.63228823  1
  Cl  Cl8  1  0.75000000  0.55659296  0.68166989  1
  Cl  Cl9  1  0.75000000  0.05659296  0.81833011  1
  Cl  Cl10  1  0.25000000  0.44340704  0.31833011  1
  Cl  Cl11  1  0.25000000  0.94340704  0.18166989  1
  O  O12  1  0.57315320  0.14158273  0.43267438  1
  O  O13  1  0.07315320  0.85841727  0.56732562  1
  O  O14  1  0.25000000  0.25184459  0.68006734  1
  O  O15  1  0.92684680  0.14158273  0.43267438  1
  O  O16  1  0.42684680  0.35841727  0.93267438  1
  O  O17  1  0.92684680  0.64158273  0.06732562  1
  O  O18  1  0.75000000  0.74815541  0.31993266  1
  O  O19  1  0.25000000  0.75184459  0.81993266  1
  O  O20  1  0.42684680  0.85841727  0.56732562  1
  O  O21  1  0.07315320  0.35841727  0.93267438  1
  O  O22  1  0.75000000  0.24815541  0.18006734  1
  O  O23  1  0.57315320  0.64158273  0.06732562  1
