# generated using pymatgen
data_Li2CuS2
_symmetry_space_group_name_H-M   'P 1'
_cell_length_a   7.90617016
_cell_length_b   7.90874447
_cell_length_c   5.83758287
_cell_angle_alpha   89.99307980
_cell_angle_beta   89.99392519
_cell_angle_gamma   89.98746064
_symmetry_Int_Tables_number   1
_chemical_formula_structural   Li2CuS2
_chemical_formula_sum   'Li8 Cu4 S8'
_cell_volume   365.01166495
_cell_formula_units_Z   4
loop_
 _symmetry_equiv_pos_site_id
 _symmetry_equiv_pos_as_xyz
  1  'x, y, z'
loop_
 _atom_site_type_symbol
 _atom_site_label
 _atom_site_symmetry_multiplicity
 _atom_site_fract_x
 _atom_site_fract_y
 _atom_site_fract_z
 _atom_site_occupancy
  Li  Li0  1  0.00560944  0.50544721  0.75034100  1
  Li  Li1  1  0.00561558  0.99453818  0.75035271  1
  Li  Li2  1  0.49418718  0.50547433  0.75033853  1
  Li  Li3  1  0.49416127  0.99443314  0.75034271  1
  Li  Li4  1  0.50537097  0.00557787  0.24958719  1
  Li  Li5  1  0.50532507  0.49447850  0.24958353  1
  Li  Li6  1  0.99490249  0.00545939  0.24957180  1
  Li  Li7  1  0.99483810  0.49455619  0.24956650  1
  Cu  Cu8  1  0.24998519  0.24987136  0.25664676  1
  Cu  Cu9  1  0.25002164  0.25010746  0.76132378  1
  Cu  Cu10  1  0.75002992  0.74991375  0.23962375  1
  Cu  Cu11  1  0.74999918  0.75007673  0.74286167  1
  S  S12  1  0.02445936  0.25000687  0.50857571  1
  S  S13  1  0.24999538  0.02180468  0.00826066  1
  S  S14  1  0.25001195  0.47826897  0.00829927  1
  S  S15  1  0.47551984  0.25000662  0.50900744  1
  S  S16  1  0.52405328  0.74998195  0.49120412  1
  S  S17  1  0.74997886  0.52276520  0.99145575  1
  S  S18  1  0.75000779  0.97721707  0.99142795  1
  S  S19  1  0.97591051  0.74999752  0.49162816  1
