# generated using pymatgen
data_Cs2VF6
_symmetry_space_group_name_H-M   'P 1'
_cell_length_a   6.29687381
_cell_length_b   7.41198029
_cell_length_c   8.19897484
_cell_angle_alpha   90.00000000
_cell_angle_beta   112.58190434
_cell_angle_gamma   90.00000000
_symmetry_Int_Tables_number   1
_chemical_formula_structural   Cs2VF6
_chemical_formula_sum   'Cs4 V2 F12'
_cell_volume   353.32671147
_cell_formula_units_Z   2
loop_
 _symmetry_equiv_pos_site_id
 _symmetry_equiv_pos_as_xyz
  1  'x, y, z'
loop_
 _atom_site_type_symbol
 _atom_site_label
 _atom_site_symmetry_multiplicity
 _atom_site_fract_x
 _atom_site_fract_y
 _atom_site_fract_z
 _atom_site_occupancy
  F  F0  1  0.73913744  0.75000000  0.47827489  1
  F  F1  1  0.26086256  0.25000000  0.52172511  1
  F  F2  1  0.49492218  0.75000000  0.98984435  1
  F  F3  1  0.50507782  0.25000000  0.01015565  1
  F  F4  1  0.83656057  0.57057573  0.23676872  1
  F  F5  1  0.59979185  0.42942427  0.76323128  1
  F  F6  1  0.59979185  0.07057573  0.76323128  1
  F  F7  1  0.83656057  0.92942427  0.23676872  1
  F  F8  1  0.40020815  0.57057573  0.23676872  1
  F  F9  1  0.16343943  0.42942427  0.76323128  1
  F  F10  1  0.40020815  0.92942427  0.23676872  1
  F  F11  1  0.16343943  0.07057573  0.76323128  1
  V  V12  1  0.61519071  0.75000000  0.23038143  1
  V  V13  1  0.38480929  0.25000000  0.76961857  1
  Cs  Cs14  1  0.95106774  0.75000000  0.90213547  1
  Cs  Cs15  1  0.04893226  0.25000000  0.09786453  1
  Cs  Cs16  1  0.26876707  0.75000000  0.53753414  1
  Cs  Cs17  1  0.73123293  0.25000000  0.46246586  1
