# generated using pymatgen
data_Rb2FeF5
_symmetry_space_group_name_H-M   'P 1'
_cell_length_a   5.91483370
_cell_length_b   7.73455195
_cell_length_c   12.23909397
_cell_angle_alpha   90.00000000
_cell_angle_beta   90.00000000
_cell_angle_gamma   90.00000000
_symmetry_Int_Tables_number   1
_chemical_formula_structural   Rb2FeF5
_chemical_formula_sum   'Rb8 Fe4 F20'
_cell_volume   559.92127399
_cell_formula_units_Z   4
loop_
 _symmetry_equiv_pos_site_id
 _symmetry_equiv_pos_as_xyz
  1  'x, y, z'
loop_
 _atom_site_type_symbol
 _atom_site_label
 _atom_site_symmetry_multiplicity
 _atom_site_fract_x
 _atom_site_fract_y
 _atom_site_fract_z
 _atom_site_occupancy
  F  F0  1  0.98722738  0.69074545  0.88486108  1
  F  F1  1  0.48722738  0.30925455  0.11513892  1
  F  F2  1  0.51277262  0.19074545  0.61513892  1
  F  F3  1  0.01277262  0.80925455  0.38486108  1
  F  F4  1  0.01277262  0.30925455  0.11513892  1
  F  F5  1  0.51277262  0.69074545  0.88486108  1
  F  F6  1  0.48722738  0.80925455  0.38486108  1
  F  F7  1  0.98722738  0.19074545  0.61513892  1
  F  F8  1  0.25000000  0.27584741  0.91899463  1
  F  F9  1  0.75000000  0.72415259  0.08100537  1
  F  F10  1  0.25000000  0.77584741  0.58100537  1
  F  F11  1  0.75000000  0.22415259  0.41899463  1
  F  F12  1  0.00000000  0.00000000  0.00000000  1
  F  F13  1  0.50000000  0.00000000  0.00000000  1
  F  F14  1  0.50000000  0.50000000  0.50000000  1
  F  F15  1  0.00000000  0.50000000  0.50000000  1
  F  F16  1  0.75000000  0.48205584  0.68972862  1
  F  F17  1  0.25000000  0.51794416  0.31027138  1
  F  F18  1  0.75000000  0.98205584  0.81027138  1
  F  F19  1  0.25000000  0.01794416  0.18972862  1
  Fe  Fe20  1  0.25000000  0.16171824  0.06198888  1
  Fe  Fe21  1  0.75000000  0.83828176  0.93801112  1
  Fe  Fe22  1  0.25000000  0.66171824  0.43801112  1
  Fe  Fe23  1  0.75000000  0.33828176  0.56198888  1
  Rb  Rb24  1  0.25000000  0.98690489  0.77457803  1
  Rb  Rb25  1  0.75000000  0.01309511  0.22542197  1
  Rb  Rb26  1  0.25000000  0.48690489  0.72542197  1
  Rb  Rb27  1  0.75000000  0.51309511  0.27457803  1
  Rb  Rb28  1  0.25000000  0.65357207  0.08434458  1
  Rb  Rb29  1  0.75000000  0.34642793  0.91565542  1
  Rb  Rb30  1  0.25000000  0.15357207  0.41565542  1
  Rb  Rb31  1  0.75000000  0.84642793  0.58434458  1
