# generated using pymatgen
data_La3S3N
_symmetry_space_group_name_H-M   'P 1'
_cell_length_a   4.17284867
_cell_length_b   12.22769333
_cell_length_c   13.25664395
_cell_angle_alpha   90.00000000
_cell_angle_beta   90.00000000
_cell_angle_gamma   90.00000000
_symmetry_Int_Tables_number   1
_chemical_formula_structural   La3S3N
_chemical_formula_sum   'La12 S12 N4'
_cell_volume   676.41116149
_cell_formula_units_Z   4
loop_
 _symmetry_equiv_pos_site_id
 _symmetry_equiv_pos_as_xyz
  1  'x, y, z'
loop_
 _atom_site_type_symbol
 _atom_site_label
 _atom_site_symmetry_multiplicity
 _atom_site_fract_x
 _atom_site_fract_y
 _atom_site_fract_z
 _atom_site_occupancy
  La  La0  1  0.75000000  0.90478866  0.37450724  1
  La  La1  1  0.75000000  0.77034465  0.13007003  1
  La  La2  1  0.25000000  0.72965535  0.63007003  1
  La  La3  1  0.25000000  0.59521134  0.87450724  1
  La  La4  1  0.75000000  0.46664960  0.65232535  1
  La  La5  1  0.75000000  0.96664960  0.84767465  1
  La  La6  1  0.25000000  0.22965535  0.86992997  1
  La  La7  1  0.75000000  0.27034465  0.36992997  1
  La  La8  1  0.25000000  0.03335040  0.15232535  1
  La  La9  1  0.75000000  0.40478866  0.12549276  1
  La  La10  1  0.25000000  0.09521134  0.62549276  1
  La  La11  1  0.25000000  0.53335040  0.34767465  1
  S  S12  1  0.25000000  0.76577393  0.29443833  1
  S  S13  1  0.25000000  0.07158604  0.39255705  1
  S  S14  1  0.25000000  0.35398036  0.50207840  1
  S  S15  1  0.75000000  0.23422607  0.70556167  1
  S  S16  1  0.75000000  0.64601964  0.49792160  1
  S  S17  1  0.75000000  0.42841396  0.89255705  1
  S  S18  1  0.25000000  0.26577393  0.20556167  1
  S  S19  1  0.75000000  0.14601964  0.00207840  1
  S  S20  1  0.25000000  0.85398036  0.99792160  1
  S  S21  1  0.75000000  0.92841396  0.60744295  1
  S  S22  1  0.25000000  0.57158604  0.10744295  1
  S  S23  1  0.75000000  0.73422607  0.79443833  1
  N  N24  1  0.75000000  0.44498414  0.29830124  1
  N  N25  1  0.25000000  0.05501586  0.79830124  1
  N  N26  1  0.75000000  0.94498414  0.20169876  1
  N  N27  1  0.25000000  0.55501586  0.70169876  1
