# generated using pymatgen
data_BaSi2(BO4)2
_symmetry_space_group_name_H-M   'P 1'
_cell_length_a   8.31845273
_cell_length_b   8.27354496
_cell_length_c   9.16686932
_cell_angle_alpha   90.00000000
_cell_angle_beta   90.00000000
_cell_angle_gamma   90.00000000
_symmetry_Int_Tables_number   1
_chemical_formula_structural   BaSi2(BO4)2
_chemical_formula_sum   'Ba4 Si8 B8 O32'
_cell_volume   630.89229661
_cell_formula_units_Z   4
loop_
 _symmetry_equiv_pos_site_id
 _symmetry_equiv_pos_as_xyz
  1  'x, y, z'
loop_
 _atom_site_type_symbol
 _atom_site_label
 _atom_site_symmetry_multiplicity
 _atom_site_fract_x
 _atom_site_fract_y
 _atom_site_fract_z
 _atom_site_occupancy
  Ba  Ba0  1  0.60848406  0.75000000  0.91863711  1
  Ba  Ba1  1  0.39151594  0.25000000  0.08136289  1
  Ba  Ba2  1  0.10848406  0.75000000  0.58136289  1
  Ba  Ba3  1  0.89151594  0.25000000  0.41863711  1
  Si  Si4  1  0.92570064  0.43459847  0.81092579  1
  Si  Si5  1  0.92570064  0.06540153  0.81092579  1
  Si  Si6  1  0.07429936  0.93459847  0.18907421  1
  Si  Si7  1  0.07429936  0.56540153  0.18907421  1
  Si  Si8  1  0.57429936  0.56540153  0.31092579  1
  Si  Si9  1  0.57429936  0.93459847  0.31092579  1
  Si  Si10  1  0.42570064  0.43459847  0.68907421  1
  Si  Si11  1  0.42570064  0.06540153  0.68907421  1
  B  B12  1  0.22575460  0.91399692  0.90970419  1
  B  B13  1  0.27424540  0.08600308  0.40970419  1
  B  B14  1  0.77424540  0.41399692  0.09029581  1
  B  B15  1  0.72575460  0.91399692  0.59029581  1
  B  B16  1  0.27424540  0.41399692  0.40970419  1
  B  B17  1  0.72575460  0.58600308  0.59029581  1
  B  B18  1  0.77424540  0.08600308  0.09029581  1
  B  B19  1  0.22575460  0.58600308  0.90970419  1
  O  O20  1  0.78574061  0.75000000  0.61863911  1
  O  O21  1  0.71425939  0.25000000  0.11863911  1
  O  O22  1  0.64823680  0.97122266  0.14815603  1
  O  O23  1  0.21573919  0.95639569  0.06704291  1
  O  O24  1  0.92914600  0.06371488  0.16507261  1
  O  O25  1  0.14823680  0.97122266  0.35184397  1
  O  O26  1  0.50152558  0.75000000  0.31008706  1
  O  O27  1  0.35176320  0.02877734  0.85184397  1
  O  O28  1  0.35176320  0.47122266  0.85184397  1
  O  O29  1  0.07085400  0.93628512  0.83492739  1
  O  O30  1  0.85176320  0.02877734  0.64815603  1
  O  O31  1  0.21573919  0.54360431  0.06704291  1
  O  O32  1  0.21425939  0.25000000  0.38136089  1
  O  O33  1  0.28426081  0.45639569  0.56704291  1
  O  O34  1  0.42914600  0.06371488  0.33492739  1
  O  O35  1  0.92914600  0.43628512  0.16507261  1
  O  O36  1  0.14823680  0.52877734  0.35184397  1
  O  O37  1  0.57085400  0.56371488  0.66507261  1
  O  O38  1  0.28574061  0.75000000  0.88136089  1
  O  O39  1  0.28426081  0.04360431  0.56704291  1
  O  O40  1  0.07085400  0.56371488  0.83492739  1
  O  O41  1  1.00152558  0.75000000  0.18991294  1
  O  O42  1  0.57085400  0.93628512  0.66507261  1
  O  O43  1  0.78426081  0.45639569  0.93295709  1
  O  O44  1  -0.00152558  0.25000000  0.81008706  1
  O  O45  1  0.78426081  0.04360431  0.93295709  1
  O  O46  1  0.42914600  0.43628512  0.33492739  1
  O  O47  1  0.71573919  0.95639569  0.43295709  1
  O  O48  1  0.85176320  0.47122266  0.64815603  1
  O  O49  1  0.64823680  0.52877734  0.14815603  1
  O  O50  1  0.49847442  0.25000000  0.68991294  1
  O  O51  1  0.71573919  0.54360431  0.43295709  1
