# generated using pymatgen
data_Hg3PO4
_symmetry_space_group_name_H-M   'P 1'
_cell_length_a   8.07624207
_cell_length_b   8.36854170
_cell_length_c   9.50002250
_cell_angle_alpha   90.00000000
_cell_angle_beta   109.36811037
_cell_angle_gamma   90.00000000
_symmetry_Int_Tables_number   1
_chemical_formula_structural   Hg3PO4
_chemical_formula_sum   'Hg12 P4 O16'
_cell_volume   605.73548750
_cell_formula_units_Z   4
loop_
 _symmetry_equiv_pos_site_id
 _symmetry_equiv_pos_as_xyz
  1  'x, y, z'
loop_
 _atom_site_type_symbol
 _atom_site_label
 _atom_site_symmetry_multiplicity
 _atom_site_fract_x
 _atom_site_fract_y
 _atom_site_fract_z
 _atom_site_occupancy
  Hg  Hg0  1  0.98924571  0.22505763  0.42724899  1
  Hg  Hg1  1  0.60587560  0.39706239  0.47056251  1
  Hg  Hg2  1  0.76235687  0.94639745  0.61155507  1
  Hg  Hg3  1  0.39412440  0.60293761  0.52943749  1
  Hg  Hg4  1  0.26235687  0.55360255  0.11155507  1
  Hg  Hg5  1  0.89412440  0.89706239  0.02943749  1
  Hg  Hg6  1  0.48924571  0.27494237  0.92724899  1
  Hg  Hg7  1  0.23764313  0.05360255  0.38844493  1
  Hg  Hg8  1  0.51075429  0.72505763  0.07275101  1
  Hg  Hg9  1  0.01075429  0.77494237  0.57275101  1
  Hg  Hg10  1  0.10587560  0.10293761  0.97056251  1
  Hg  Hg11  1  0.73764313  0.44639745  0.88844493  1
  P  P12  1  0.54268931  0.06758218  0.24621117  1
  P  P13  1  0.04268931  0.43241782  0.74621117  1
  P  P14  1  0.45731069  0.93241782  0.75378883  1
  P  P15  1  0.95731069  0.56758218  0.25378883  1
  O  O16  1  0.59265829  0.81692981  0.86183363  1
  O  O17  1  0.90734171  0.31692981  0.63816637  1
  O  O18  1  0.09265829  0.68307019  0.36183363  1
  O  O19  1  0.35002185  0.03024771  0.83070397  1
  O  O20  1  0.14997815  0.53024771  0.66929603  1
  O  O21  1  0.32553785  0.83035686  0.62419411  1
  O  O22  1  0.64997815  0.96975229  0.16929603  1
  O  O23  1  0.94484267  0.55174500  0.81996504  1
  O  O24  1  0.17446215  0.33035686  0.87580589  1
  O  O25  1  0.40734171  0.18307019  0.13816637  1
  O  O26  1  0.67446215  0.16964314  0.37580589  1
  O  O27  1  0.85002185  0.46975229  0.33070397  1
  O  O28  1  0.44484267  0.94825500  0.31996504  1
  O  O29  1  0.55515733  0.05174500  0.68003496  1
  O  O30  1  0.82553785  0.66964314  0.12419411  1
  O  O31  1  0.05515733  0.44825500  0.18003496  1
