# generated using pymatgen
data_Ba2UCu2S5
_symmetry_space_group_name_H-M   'P 1'
_cell_length_a   4.07365249
_cell_length_b   7.15756264
_cell_length_c   9.09166577
_cell_angle_alpha   69.37461937
_cell_angle_beta   77.01534958
_cell_angle_gamma   73.45118282
_symmetry_Int_Tables_number   1
_chemical_formula_structural   Ba2UCu2S5
_chemical_formula_sum   'Ba2 U1 Cu2 S5'
_cell_volume   235.52554917
_cell_formula_units_Z   1
loop_
 _symmetry_equiv_pos_site_id
 _symmetry_equiv_pos_as_xyz
  1  'x, y, z'
loop_
 _atom_site_type_symbol
 _atom_site_label
 _atom_site_symmetry_multiplicity
 _atom_site_fract_x
 _atom_site_fract_y
 _atom_site_fract_z
 _atom_site_occupancy
  Ba  Ba0  1  0.82385367  0.65178974  0.70059993  1
  Ba  Ba1  1  0.17614633  0.34821026  0.29940007  1
  U  U2  1  0.00000000  0.00000000  0.00000000  1
  Cu  Cu3  1  0.44638015  0.81058489  0.29663802  1
  Cu  Cu4  1  0.55361985  0.18941511  0.70336198  1
  S  S5  1  0.61030263  0.71613356  0.06346617  1
  S  S6  1  0.85581936  0.98269859  0.30551800  1
  S  S7  1  0.38969737  0.28386644  0.93653383  1
  S  S8  1  0.50000000  0.50000000  0.50000000  1
  S  S9  1  0.14418064  0.01730141  0.69448200  1
