# generated using pymatgen
data_HoTmO3
_symmetry_space_group_name_H-M   'P 1'
_cell_length_a   5.60680281
_cell_length_b   5.87771118
_cell_length_c   8.33322064
_cell_angle_alpha   90.00000000
_cell_angle_beta   90.00000000
_cell_angle_gamma   90.00000000
_symmetry_Int_Tables_number   1
_chemical_formula_structural   HoTmO3
_chemical_formula_sum   'Ho4 Tm4 O12'
_cell_volume   274.62268251
_cell_formula_units_Z   4
loop_
 _symmetry_equiv_pos_site_id
 _symmetry_equiv_pos_as_xyz
  1  'x, y, z'
loop_
 _atom_site_type_symbol
 _atom_site_label
 _atom_site_symmetry_multiplicity
 _atom_site_fract_x
 _atom_site_fract_y
 _atom_site_fract_z
 _atom_site_occupancy
  Ho  Ho0  1  0.01814705  0.94631362  0.75000000  1
  Ho  Ho1  1  0.48185295  0.44631362  0.75000000  1
  Ho  Ho2  1  0.51814705  0.55368638  0.25000000  1
  Ho  Ho3  1  0.98185295  0.05368638  0.25000000  1
  Tm  Tm4  1  0.00000000  0.50000000  0.00000000  1
  Tm  Tm5  1  0.00000000  0.50000000  0.50000000  1
  Tm  Tm6  1  0.50000000  0.00000000  0.00000000  1
  Tm  Tm7  1  0.50000000  0.00000000  0.50000000  1
  O  O8  1  0.14873197  0.42241850  0.25000000  1
  O  O9  1  0.18251144  0.18583526  0.57825881  1
  O  O10  1  0.18251144  0.18583526  0.92174119  1
  O  O11  1  0.31748856  0.68583526  0.92174119  1
  O  O12  1  0.31748856  0.68583526  0.57825881  1
  O  O13  1  0.35126803  0.92241850  0.25000000  1
  O  O14  1  0.64873197  0.07758150  0.75000000  1
  O  O15  1  0.68251144  0.31416474  0.07825881  1
  O  O16  1  0.68251144  0.31416474  0.42174119  1
  O  O17  1  0.81748856  0.81416474  0.07825881  1
  O  O18  1  0.81748856  0.81416474  0.42174119  1
  O  O19  1  0.85126803  0.57758150  0.75000000  1
