# generated using pymatgen
data_Hg(BiS2)2
_symmetry_space_group_name_H-M   'P 1'
_cell_length_a   4.10182823
_cell_length_b   7.56870084
_cell_length_c   12.70894060
_cell_angle_alpha   85.40507100
_cell_angle_beta   80.71324685
_cell_angle_gamma   74.27782499
_symmetry_Int_Tables_number   1
_chemical_formula_structural   Hg(BiS2)2
_chemical_formula_sum   'Hg2 Bi4 S8'
_cell_volume   374.54109995
_cell_formula_units_Z   2
loop_
 _symmetry_equiv_pos_site_id
 _symmetry_equiv_pos_as_xyz
  1  'x, y, z'
loop_
 _atom_site_type_symbol
 _atom_site_label
 _atom_site_symmetry_multiplicity
 _atom_site_fract_x
 _atom_site_fract_y
 _atom_site_fract_z
 _atom_site_occupancy
  Hg  Hg0  1  0.00000000  0.00000000  -0.00000000  1
  Hg  Hg1  1  0.00000000  0.50000000  0.50000000  1
  Bi  Bi2  1  0.22386574  0.92110397  0.63116454  1
  Bi  Bi3  1  0.77613426  0.07889603  0.36883546  1
  Bi  Bi4  1  0.34738927  0.44030707  0.86491439  1
  Bi  Bi5  1  0.65261073  0.55969293  0.13508561  1
  S  S6  1  0.15498385  0.35922001  0.33081230  1
  S  S7  1  0.84501615  0.64077999  0.66918770  1
  S  S8  1  0.69271432  0.67905581  0.93551556  1
  S  S9  1  0.30728568  0.32094419  0.06448444  1
  S  S10  1  0.99812513  0.17120333  0.83254640  1
  S  S11  1  0.00187487  0.82879667  0.16745360  1
  S  S12  1  0.36966814  0.83203928  0.42862443  1
  S  S13  1  0.63033186  0.16796072  0.57137557  1
