# generated using pymatgen
data_K6NaAu2IO8
_symmetry_space_group_name_H-M   'P 1'
_cell_length_a   7.17724526
_cell_length_b   9.97793412
_cell_length_c   10.21519551
_cell_angle_alpha   90.00000000
_cell_angle_beta   93.25418599
_cell_angle_gamma   90.00000000
_symmetry_Int_Tables_number   1
_chemical_formula_structural   K6NaAu2IO8
_chemical_formula_sum   'K12 Na2 Au4 I2 O16'
_cell_volume   730.37222346
_cell_formula_units_Z   2
loop_
 _symmetry_equiv_pos_site_id
 _symmetry_equiv_pos_as_xyz
  1  'x, y, z'
loop_
 _atom_site_type_symbol
 _atom_site_label
 _atom_site_symmetry_multiplicity
 _atom_site_fract_x
 _atom_site_fract_y
 _atom_site_fract_z
 _atom_site_occupancy
  K  K0  1  0.60137551  0.66073164  0.58934844  1
  K  K1  1  0.75000000  0.35711952  0.75000000  1
  K  K2  1  0.11467574  0.81623865  0.58796383  1
  K  K3  1  0.25000000  0.15720816  0.75000000  1
  K  K4  1  0.10137551  0.33926836  0.08934844  1
  K  K5  1  0.75000000  0.84279184  0.25000000  1
  K  K6  1  0.61467574  0.18376135  0.08796383  1
  K  K7  1  0.89862449  0.66073164  0.91065156  1
  K  K8  1  0.25000000  0.64288048  0.25000000  1
  K  K9  1  0.39862449  0.33926836  0.41065156  1
  K  K10  1  0.88532426  0.18376135  0.41203617  1
  K  K11  1  0.38532426  0.81623865  0.91203617  1
  Na  Na12  1  0.75000000  0.50602674  0.25000000  1
  Na  Na13  1  0.25000000  0.49397326  0.75000000  1
  Au  Au14  1  0.25000000  0.04333538  0.25000000  1
  Au  Au15  1  0.75000000  0.95666462  0.75000000  1
  Au  Au16  1  0.50000000  0.00000000  0.50000000  1
  Au  Au17  1  0.00000000  0.00000000  0.00000000  1
  I  I18  1  0.00000000  0.50000000  0.50000000  1
  I  I19  1  0.50000000  0.50000000  0.00000000  1
  O  O20  1  0.24982300  0.57235928  0.98683002  1
  O  O21  1  0.52641578  0.05263644  0.30966044  1
  O  O22  1  0.47358422  0.94736356  0.69033956  1
  O  O23  1  0.45592063  0.41998645  0.16645716  1
  O  O24  1  0.90976873  0.66002670  0.40905837  1
  O  O25  1  0.09023127  0.33997330  0.59094163  1
  O  O26  1  0.74982300  0.42764072  0.48683002  1
  O  O27  1  0.95592063  0.58001355  0.66645716  1
  O  O28  1  0.25017700  0.57235928  0.51316998  1
  O  O29  1  0.54407937  0.58001355  0.83354284  1
  O  O30  1  0.97358422  0.05263644  0.19033956  1
  O  O31  1  0.02641578  0.94736356  0.80966044  1
  O  O32  1  0.04407937  0.41998645  0.33354284  1
  O  O33  1  0.40976873  0.33997330  0.90905837  1
  O  O34  1  0.59023127  0.66002670  0.09094163  1
  O  O35  1  0.75017700  0.42764072  0.01316998  1
