# generated using pymatgen
data_Ba13Dy8Zn4Pt4O37
_symmetry_space_group_name_H-M   'P 1'
_cell_length_a   5.77838119
_cell_length_b   13.68853138
_cell_length_c   13.68853150
_cell_angle_alpha   87.44668297
_cell_angle_beta   77.81513851
_cell_angle_gamma   77.81514265
_symmetry_Int_Tables_number   1
_chemical_formula_structural   Ba13Dy8Zn4Pt4O37
_chemical_formula_sum   'Ba13 Dy8 Zn4 Pt4 O37'
_cell_volume   1034.49475111
_cell_formula_units_Z   1
loop_
 _symmetry_equiv_pos_site_id
 _symmetry_equiv_pos_as_xyz
  1  'x, y, z'
loop_
 _atom_site_type_symbol
 _atom_site_label
 _atom_site_symmetry_multiplicity
 _atom_site_fract_x
 _atom_site_fract_y
 _atom_site_fract_z
 _atom_site_occupancy
  Ba  Ba0  1  0.07170564  0.13228361  0.72430511  1
  Ba  Ba1  1  0.60842002  0.37491032  0.40824964  1
  Ba  Ba2  1  0.43602845  0.20111573  0.92682737  1
  Ba  Ba3  1  0.01666966  0.59175036  0.37491032  1
  Ba  Ba4  1  0.39157998  0.62508968  0.59175036  1
  Ba  Ba5  1  0.56397155  0.79888427  0.07317263  1
  Ba  Ba6  1  0.36285582  0.07317263  0.20111573  1
  Ba  Ba7  1  0.63714418  0.92682737  0.79888427  1
  Ba  Ba8  1  0.20398925  0.72430511  0.86771639  1
  Ba  Ba9  1  0.98333034  0.40824964  0.62508968  1
  Ba  Ba10  1  0.00000000  0.00000000  0.00000000  1
  Ba  Ba11  1  0.79601075  0.27569489  0.13228361  1
  Ba  Ba12  1  0.92829436  0.86771639  0.27569489  1
  Dy  Dy13  1  0.23799081  0.45489156  0.06912682  1
  Dy  Dy14  1  0.37847891  0.43750942  0.80553276  1
  Dy  Dy15  1  0.18401167  0.19446724  0.43750942  1
  Dy  Dy16  1  0.76200919  0.54510844  0.93087318  1
  Dy  Dy17  1  0.30711763  0.93087318  0.45489156  1
  Dy  Dy18  1  0.81598833  0.80553276  0.56249058  1
  Dy  Dy19  1  0.62152109  0.56249058  0.19446724  1
  Dy  Dy20  1  0.69288237  0.06912682  0.54510844  1
  Zn  Zn21  1  0.89750486  0.32085503  0.88413524  1
  Zn  Zn22  1  0.21835989  0.88413524  0.67914497  1
  Zn  Zn23  1  0.10249514  0.67914497  0.11586476  1
  Zn  Zn24  1  0.78164011  0.11586476  0.32085503  1
  Pt  Pt25  1  0.79974182  0.66257369  0.73794268  1
  Pt  Pt26  1  0.53768449  0.26205732  0.66257369  1
  Pt  Pt27  1  0.46231551  0.73794268  0.33742631  1
  Pt  Pt28  1  0.20025818  0.33742631  0.26205732  1
  O  O29  1  0.30135350  0.28127043  0.11602257  1
  O  O30  1  0.70700078  0.30545446  0.76599677  1
  O  O31  1  0.51610424  0.58644749  0.38134403  1
  O  O32  1  0.10255173  0.38134403  0.41355251  1
  O  O33  1  0.37022660  0.21518966  0.56079717  1
  O  O34  1  0.92516469  0.58896630  0.05678357  1
  O  O35  1  0.52700244  0.76599677  0.69454554  1
  O  O36  1  0.07483531  0.41103370  0.94321643  1
  O  O37  1  0.48389576  0.41355251  0.61865597  1
  O  O38  1  0.87596836  0.06181742  0.18624587  1
  O  O39  1  0.51413099  0.05678357  0.41103370  1
  O  O40  1  0.29299922  0.69454554  0.23400323  1
  O  O41  1  0.14621343  0.78481034  0.43920283  1
  O  O42  1  0.85378657  0.21518966  0.56079717  1
  O  O43  1  0.89744827  0.61865597  0.58644749  1
  O  O44  1  0.06221422  0.81375413  0.06181742  1
  O  O45  1  0.06897622  0.56079717  0.78481034  1
  O  O46  1  0.98754476  0.23400323  0.30545446  1
  O  O47  1  0.01805174  0.05678357  0.41103370  1
  O  O48  1  0.93102378  0.43920283  0.21518966  1
  O  O49  1  0.47299756  0.23400323  0.30545446  1
  O  O50  1  0.12403164  0.93818258  0.81375413  1
  O  O51  1  0.58541626  0.56079717  0.78481034  1
  O  O52  1  0.69864650  0.71872957  0.88397743  1
  O  O53  1  0.42908544  0.58896630  0.05678357  1
  O  O54  1  0.58262393  0.11602257  0.71872957  1
  O  O55  1  0.41458374  0.43920283  0.21518966  1
  O  O56  1  0.77845201  0.69454554  0.23400323  1
  O  O57  1  0.22154799  0.30545446  0.76599677  1
  O  O58  1  0.98194826  0.94321643  0.58896630  1
  O  O59  1  0.57091456  0.41103370  0.94321643  1
  O  O60  1  0.50000000  0.00000000  0.00000000  1
  O  O61  1  0.62977340  0.78481034  0.43920283  1
  O  O62  1  0.01245524  0.76599677  0.69454554  1
  O  O63  1  0.93778578  0.18624587  0.93818258  1
  O  O64  1  0.48586901  0.94321643  0.58896630  1
  O  O65  1  0.41737607  0.88397743  0.28127043  1
