# generated using pymatgen
data_CaNb2(P2O7)3
_symmetry_space_group_name_H-M   'P 1'
_cell_length_a   8.63247018
_cell_length_b   8.63247035
_cell_length_c   12.61150197
_cell_angle_alpha   85.22598537
_cell_angle_beta   85.22598528
_cell_angle_gamma   77.24132153
_symmetry_Int_Tables_number   1
_chemical_formula_structural   CaNb2(P2O7)3
_chemical_formula_sum   'Ca2 Nb4 P12 O42'
_cell_volume   911.38334242
_cell_formula_units_Z   2
loop_
 _symmetry_equiv_pos_site_id
 _symmetry_equiv_pos_as_xyz
  1  'x, y, z'
loop_
 _atom_site_type_symbol
 _atom_site_label
 _atom_site_symmetry_multiplicity
 _atom_site_fract_x
 _atom_site_fract_y
 _atom_site_fract_z
 _atom_site_occupancy
  Ca  Ca0  1  0.22470394  0.22470394  0.86257979  1
  Ca  Ca1  1  0.77529606  0.77529606  0.13742021  1
  Nb  Nb2  1  0.28554032  0.28554032  0.17905598  1
  Nb  Nb3  1  0.75503863  0.24496137  0.50000000  1
  Nb  Nb4  1  0.24496137  0.75503863  0.50000000  1
  Nb  Nb5  1  0.71445968  0.71445968  0.82094402  1
  P  P6  1  0.20266483  0.67786996  0.10269150  1
  P  P7  1  0.14049694  0.14049694  0.59004441  1
  P  P8  1  0.34326004  0.34326004  0.45697501  1
  P  P9  1  0.67786996  0.20266483  0.10269150  1
  P  P10  1  0.86991462  0.35035184  0.23360247  1
  P  P11  1  0.13008538  0.64964816  0.76639753  1
  P  P12  1  0.79733517  0.32213004  0.89730850  1
  P  P13  1  0.65673996  0.65673996  0.54302499  1
  P  P14  1  0.64964816  0.13008538  0.76639753  1
  P  P15  1  0.35035184  0.86991462  0.23360247  1
  P  P16  1  0.85950306  0.85950306  0.40995559  1
  P  P17  1  0.32213004  0.79733517  0.89730850  1
  O  O18  1  0.81643462  0.29658760  0.34980206  1
  O  O19  1  0.70341240  0.18356538  0.65019794  1
  O  O20  1  0.22004120  0.82856337  0.16229332  1
  O  O21  1  0.77995880  0.17143663  0.83770668  1
  O  O22  1  0.78549284  0.01677294  0.46490059  1
  O  O23  1  0.72594970  0.72594970  0.95849587  1
  O  O24  1  0.52896282  0.26696585  0.17354438  1
  O  O25  1  0.96255107  0.29650358  0.92961498  1
  O  O26  1  0.21450716  0.98322706  0.53509941  1
  O  O27  1  0.98322706  0.21450716  0.53509941  1
  O  O28  1  0.29658760  0.81643462  0.34980206  1
  O  O29  1  0.26696585  0.52896282  0.17354438  1
  O  O30  1  0.71302610  0.47715963  0.52669108  1
  O  O31  1  0.18356538  0.70341240  0.65019794  1
  O  O32  1  0.82856337  0.22004120  0.16229332  1
  O  O33  1  0.29650358  0.96255107  0.92961498  1
  O  O34  1  0.51490281  0.78848843  0.20072139  1
  O  O35  1  0.29890638  0.29890638  0.35386764  1
  O  O36  1  0.47103718  0.73303415  0.82645562  1
  O  O37  1  0.21151157  0.48509719  0.79927861  1
  O  O38  1  0.12788690  0.12788690  0.70850331  1
  O  O39  1  0.68496927  0.94811222  0.77592866  1
  O  O40  1  0.03744893  0.70349642  0.07038502  1
  O  O41  1  0.73303415  0.47103718  0.82645562  1
  O  O42  1  0.48509719  0.21151157  0.79927861  1
  O  O43  1  0.28697390  0.52284037  0.47330892  1
  O  O44  1  0.47715963  0.71302610  0.52669108  1
  O  O45  1  0.94811222  0.68496927  0.77592866  1
  O  O46  1  0.01677294  0.78549284  0.46490059  1
  O  O47  1  0.32862562  0.67137438  0.00000000  1
  O  O48  1  0.17143663  0.77995880  0.83770668  1
  O  O49  1  0.25908512  0.25908512  0.55610102  1
  O  O50  1  0.78848843  0.51490281  0.20072139  1
  O  O51  1  0.05188778  0.31503073  0.22407134  1
  O  O52  1  0.27405030  0.27405030  0.04150413  1
  O  O53  1  0.52284037  0.28697390  0.47330892  1
  O  O54  1  0.70349642  0.03744893  0.07038502  1
  O  O55  1  0.87211310  0.87211310  0.29149669  1
  O  O56  1  0.74091488  0.74091488  0.44389898  1
  O  O57  1  0.70109362  0.70109362  0.64613236  1
  O  O58  1  0.31503073  0.05188778  0.22407134  1
  O  O59  1  0.67137438  0.32862562  1.00000000  1
