# generated using pymatgen
data_Nd6Si4S17
_symmetry_space_group_name_H-M   'P 1'
_cell_length_a   8.99597344
_cell_length_b   10.01191983
_cell_length_c   14.30362321
_cell_angle_alpha   82.01086013
_cell_angle_beta   86.99543609
_cell_angle_gamma   89.22088141
_symmetry_Int_Tables_number   1
_chemical_formula_structural   Nd6Si4S17
_chemical_formula_sum   'Nd12 Si8 S34'
_cell_volume   1274.00070771
_cell_formula_units_Z   2
loop_
 _symmetry_equiv_pos_site_id
 _symmetry_equiv_pos_as_xyz
  1  'x, y, z'
loop_
 _atom_site_type_symbol
 _atom_site_label
 _atom_site_symmetry_multiplicity
 _atom_site_fract_x
 _atom_site_fract_y
 _atom_site_fract_z
 _atom_site_occupancy
  Nd  Nd0  1  0.63182256  0.93580564  0.32357713  1
  Nd  Nd1  1  0.36817744  0.06419436  0.67642287  1
  Nd  Nd2  1  0.55126821  0.26174867  0.99852190  1
  Nd  Nd3  1  0.91540075  0.91938088  0.83436738  1
  Nd  Nd4  1  0.44873179  0.73825133  0.00147810  1
  Nd  Nd5  1  0.98312590  0.23136902  0.53952566  1
  Nd  Nd6  1  0.89355086  0.61536581  0.18417826  1
  Nd  Nd7  1  0.66736374  0.58970843  0.65763821  1
  Nd  Nd8  1  0.01687410  0.76863098  0.46047434  1
  Nd  Nd9  1  0.10644914  0.38463419  0.81582174  1
  Nd  Nd10  1  0.08459925  0.08061912  0.16563262  1
  Nd  Nd11  1  0.33263626  0.41029157  0.34236179  1
  Si  Si12  1  0.27608642  0.05800636  0.39392698  1
  Si  Si13  1  0.76900425  0.56185321  0.90092056  1
  Si  Si14  1  0.72391358  0.94199364  0.60607302  1
  Si  Si15  1  0.24927253  0.49955685  0.58374247  1
  Si  Si16  1  0.75072747  0.50044315  0.41625753  1
  Si  Si17  1  0.25021282  0.05993843  0.92277459  1
  Si  Si18  1  0.23099575  0.43814679  0.09907944  1
  Si  Si19  1  0.74978718  0.94006157  0.07722541  1
  S  S20  1  0.35533351  0.53027029  0.70680993  1
  S  S21  1  0.10770740  0.20186157  0.34492099  1
  S  S22  1  0.30401706  0.91176178  0.30165500  1
  S  S23  1  0.38233746  0.21307727  0.83857857  1
  S  S24  1  0.04021236  0.14881192  0.95207306  1
  S  S25  1  0.64466649  0.46972971  0.29319007  1
  S  S26  1  0.32168117  0.48184951  0.95651799  1
  S  S27  1  0.89229260  0.79813843  0.65507901  1
  S  S28  1  0.29759499  0.30662742  0.54077162  1
  S  S29  1  0.65930483  0.99918641  0.94301518  1
  S  S30  1  0.30508312  0.63318024  0.46023262  1
  S  S31  1  0.99114321  0.62717149  0.88458958  1
  S  S32  1  0.74272956  0.11555381  0.14882903  1
  S  S33  1  0.98536925  0.50885008  0.37678146  1
  S  S34  1  0.75177093  0.38592024  0.83223150  1
  S  S35  1  0.69598294  0.08823822  0.69834500  1
  S  S36  1  0.81572166  0.01931197  0.46784065  1
  S  S37  1  0.70240501  0.69337258  0.45922838  1
  S  S38  1  0.06733000  0.14257263  0.72176982  1
  S  S39  1  0.18427834  0.98068803  0.53215935  1
  S  S40  1  0.61766254  0.78692273  0.16142143  1
  S  S41  1  0.00885679  0.37282851  0.11541042  1
  S  S42  1  0.34069517  0.00081359  0.05698482  1
  S  S43  1  0.25727044  0.88444619  0.85117097  1
  S  S44  1  0.36770960  0.28153771  0.16650507  1
  S  S45  1  0.24822907  0.61407976  0.16776850  1
  S  S46  1  0.95978764  0.85118808  0.04792694  1
  S  S47  1  0.48423340  0.15383301  0.39655900  1
  S  S48  1  0.69491688  0.36681976  0.53976738  1
  S  S49  1  0.51576660  0.84616699  0.60344100  1
  S  S50  1  0.01463075  0.49114992  0.62321854  1
  S  S51  1  0.63229040  0.71846229  0.83349493  1
  S  S52  1  0.67831883  0.51815049  0.04348201  1
  S  S53  1  0.93267000  0.85742737  0.27823018  1
