# generated using pymatgen
data_SbS7IF6
_symmetry_space_group_name_H-M   'P 1'
_cell_length_a   9.42226040
_cell_length_b   12.22649018
_cell_length_c   12.77359792
_cell_angle_alpha   90.00000000
_cell_angle_beta   90.00000000
_cell_angle_gamma   90.00000000
_symmetry_Int_Tables_number   1
_chemical_formula_structural   SbS7IF6
_chemical_formula_sum   'Sb4 S28 I4 F24'
_cell_volume   1471.53347983
_cell_formula_units_Z   4
loop_
 _symmetry_equiv_pos_site_id
 _symmetry_equiv_pos_as_xyz
  1  'x, y, z'
loop_
 _atom_site_type_symbol
 _atom_site_label
 _atom_site_symmetry_multiplicity
 _atom_site_fract_x
 _atom_site_fract_y
 _atom_site_fract_z
 _atom_site_occupancy
  Sb  Sb0  1  0.07107458  0.59592897  0.36408400  1
  Sb  Sb1  1  0.57107458  0.40407103  0.13591600  1
  Sb  Sb2  1  0.42892542  0.09592897  0.63591600  1
  Sb  Sb3  1  0.92892542  0.90407103  0.86408400  1
  S  S4  1  0.53262196  0.74382744  0.70930384  1
  S  S5  1  0.94248044  0.11160929  0.18478417  1
  S  S6  1  0.46737804  0.75617256  0.20930384  1
  S  S7  1  0.70635937  0.69102729  0.57088096  1
  S  S8  1  0.29364063  0.80897271  0.07088096  1
  S  S9  1  0.09608975  0.37077540  0.03899237  1
  S  S10  1  0.99329318  0.52599451  0.75372212  1
  S  S11  1  0.59608975  0.62922460  0.46100763  1
  S  S12  1  0.00670682  0.97400549  0.25372212  1
  S  S13  1  0.05751956  0.38839071  0.68478417  1
  S  S14  1  0.20635937  0.30897271  0.92911904  1
  S  S15  1  0.65654416  0.43240046  0.63305644  1
  S  S16  1  0.79364063  0.19102729  0.42911904  1
  S  S17  1  0.40391025  0.87077540  0.96100763  1
  S  S18  1  0.15654416  0.56759954  0.86694356  1
  S  S19  1  0.03262196  0.25617256  0.79069616  1
  S  S20  1  0.90391025  0.12922460  0.53899237  1
  S  S21  1  0.96737804  0.24382744  0.29069616  1
  S  S22  1  0.43367115  0.04839090  0.99620556  1
  S  S23  1  0.84345584  0.93240046  0.36694356  1
  S  S24  1  0.34345584  0.06759954  0.13305644  1
  S  S25  1  0.55751956  0.61160929  0.81521583  1
  S  S26  1  0.50670682  0.02599451  0.24627788  1
  S  S27  1  0.44248044  0.88839071  0.31521583  1
  S  S28  1  0.56632885  0.45160910  0.49620556  1
  S  S29  1  0.49329318  0.47400549  0.74627788  1
  S  S30  1  0.93367115  0.95160910  0.50379444  1
  S  S31  1  0.06632885  0.54839090  0.00379444  1
  I  I32  1  0.32117864  0.71766982  0.61416424  1
  I  I33  1  0.17882136  0.21766982  0.38583576  1
  I  I34  1  0.82117864  0.28233018  0.88583576  1
  I  I35  1  0.67882136  0.78233018  0.11416424  1
  F  F36  1  0.32794558  0.20861347  0.71137024  1
  F  F37  1  0.17205442  0.70861347  0.28862976  1
  F  F38  1  0.57426683  0.49754748  0.25658552  1
  F  F39  1  0.07204917  0.69000066  0.48739875  1
  F  F40  1  0.82794558  0.79138653  0.78862976  1
  F  F41  1  0.89563341  0.65972714  0.32011076  1
  F  F42  1  0.25179007  0.03670295  0.58843218  1
  F  F43  1  0.52973355  0.98642449  0.55757589  1
  F  F44  1  0.74820993  0.46329705  0.08843218  1
  F  F45  1  0.75179007  0.96329705  0.91156782  1
  F  F46  1  0.92795083  0.80999934  0.98739875  1
  F  F47  1  0.07426683  0.50245252  0.24341448  1
  F  F48  1  0.10436659  0.84027286  0.82011076  1
  F  F49  1  0.57204917  0.30999934  0.01260125  1
  F  F50  1  0.67205442  0.29138653  0.21137024  1
  F  F51  1  0.39563341  0.34027286  0.17988924  1
  F  F52  1  0.42573317  1.00245252  0.75658552  1
  F  F53  1  0.02973355  0.01357551  0.94242411  1
  F  F54  1  0.42795083  0.19000066  0.51260125  1
  F  F55  1  0.97026645  0.48642449  0.44242411  1
  F  F56  1  0.47026645  0.51357551  0.05757589  1
  F  F57  1  0.60436659  0.15972714  0.67988924  1
  F  F58  1  0.24820993  0.53670295  0.41156782  1
  F  F59  1  0.92573317  -0.00245252  0.74341448  1
