# generated using pymatgen
data_Ba3Sb4O
_symmetry_space_group_name_H-M   'P 1'
_cell_length_a   7.12705208
_cell_length_b   12.32936524
_cell_length_c   13.03024575
_cell_angle_alpha   90.00000000
_cell_angle_beta   90.00000000
_cell_angle_gamma   99.94495674
_symmetry_Int_Tables_number   1
_chemical_formula_structural   Ba3Sb4O
_chemical_formula_sum   'Ba12 Sb16 O4'
_cell_volume   1127.78957784
_cell_formula_units_Z   4
loop_
 _symmetry_equiv_pos_site_id
 _symmetry_equiv_pos_as_xyz
  1  'x, y, z'
loop_
 _atom_site_type_symbol
 _atom_site_label
 _atom_site_symmetry_multiplicity
 _atom_site_fract_x
 _atom_site_fract_y
 _atom_site_fract_z
 _atom_site_occupancy
  Ba  Ba0  1  0.66945953  0.47846116  0.76659574  1
  Ba  Ba1  1  0.24956619  0.45321737  0.55806194  1
  Ba  Ba2  1  0.33054047  0.52153884  0.23340426  1
  Ba  Ba3  1  0.88984431  0.27799456  0.05180866  1
  Ba  Ba4  1  0.74956619  0.95321737  0.94193806  1
  Ba  Ba5  1  0.16945953  0.97846116  0.73340426  1
  Ba  Ba6  1  0.25043381  0.04678263  0.05806194  1
  Ba  Ba7  1  0.11015569  0.72200544  0.94819134  1
  Ba  Ba8  1  0.38984431  0.77799456  0.44819134  1
  Ba  Ba9  1  0.83054047  0.02153884  0.26659574  1
  Ba  Ba10  1  0.61015569  0.22200544  0.55180866  1
  Ba  Ba11  1  0.75043381  0.54678263  0.44193806  1
  Sb  Sb12  1  0.58800199  0.65682742  0.01751146  1
  Sb  Sb13  1  0.91199801  0.84317258  0.51751146  1
  Sb  Sb14  1  0.33953896  0.06272958  0.34421183  1
  Sb  Sb15  1  0.03604246  0.68568782  0.65636466  1
  Sb  Sb16  1  0.41199801  0.34317258  0.98248854  1
  Sb  Sb17  1  0.16046104  0.43727042  0.84421183  1
  Sb  Sb18  1  0.96395754  0.31431218  0.34363534  1
  Sb  Sb19  1  0.06045463  0.76470194  0.23139816  1
  Sb  Sb20  1  0.46395754  0.81431218  0.15636466  1
  Sb  Sb21  1  0.66046104  0.93727042  0.65578817  1
  Sb  Sb22  1  0.56045463  0.26470194  0.26860184  1
  Sb  Sb23  1  0.83953896  0.56272958  0.15578817  1
  Sb  Sb24  1  0.08800199  0.15682742  0.48248854  1
  Sb  Sb25  1  0.43954537  0.73529806  0.73139816  1
  Sb  Sb26  1  0.93954537  0.23529806  0.76860184  1
  Sb  Sb27  1  0.53604246  0.18568782  0.84363534  1
  O  O28  1  0.91279917  0.07935543  0.08648693  1
  O  O29  1  0.08720083  0.92064457  0.91351307  1
  O  O30  1  0.58720083  0.42064457  0.58648693  1
  O  O31  1  0.41279917  0.57935543  0.41351307  1
