# generated using pymatgen
data_Sr5(ReO6)2
_symmetry_space_group_name_H-M   'P 1'
_cell_length_a   20.01019381
_cell_length_b   20.01019400
_cell_length_c   20.01019391
_cell_angle_alpha   29.20252483
_cell_angle_beta   29.20252386
_cell_angle_gamma   29.20252563
_symmetry_Int_Tables_number   1
_chemical_formula_structural   Sr5(ReO6)2
_chemical_formula_sum   'Sr30 Re12 O72'
_cell_volume   1687.45424793
_cell_formula_units_Z   6
loop_
 _symmetry_equiv_pos_site_id
 _symmetry_equiv_pos_as_xyz
  1  'x, y, z'
loop_
 _atom_site_type_symbol
 _atom_site_label
 _atom_site_symmetry_multiplicity
 _atom_site_fract_x
 _atom_site_fract_y
 _atom_site_fract_z
 _atom_site_occupancy
  Sr  Sr0  1  0.03488163  0.69678150  0.32946087  1
  Sr  Sr1  1  0.49001221  0.77807726  0.08432308  1
  Sr  Sr2  1  0.67053913  0.96511837  0.30321850  1
  Sr  Sr3  1  0.30321850  0.67053913  0.96511837  1
  Sr  Sr4  1  0.22192274  0.91567692  0.50998779  1
  Sr  Sr5  1  0.50998779  0.22192274  0.91567692  1
  Sr  Sr6  1  0.80321850  0.46511837  0.17053913  1
  Sr  Sr7  1  0.99001221  0.58432308  0.27807726  1
  Sr  Sr8  1  0.77807726  0.08432308  0.49001221  1
  Sr  Sr9  1  0.39618226  0.39618226  0.39618226  1
  Sr  Sr10  1  0.82946087  0.19678150  0.53488163  1
  Sr  Sr11  1  0.32946087  0.03488163  0.69678150  1
  Sr  Sr12  1  0.46511837  0.17053913  0.80321850  1
  Sr  Sr13  1  0.60381774  0.60381774  0.60381774  1
  Sr  Sr14  1  0.08432308  0.49001221  0.77807726  1
  Sr  Sr15  1  0.75000000  0.75000000  0.75000000  1
  Sr  Sr16  1  0.96511837  0.30321850  0.67053913  1
  Sr  Sr17  1  0.69678150  0.32946087  0.03488163  1
  Sr  Sr18  1  0.91567692  0.50998779  0.22192274  1
  Sr  Sr19  1  0.27807726  0.99001221  0.58432308  1
  Sr  Sr20  1  0.53488163  0.82946087  0.19678150  1
  Sr  Sr21  1  0.72192274  0.00998779  0.41567692  1
  Sr  Sr22  1  0.19678150  0.53488163  0.82946087  1
  Sr  Sr23  1  0.41567692  0.72192274  0.00998779  1
  Sr  Sr24  1  0.89618226  0.89618226  0.89618226  1
  Sr  Sr25  1  0.17053913  0.80321850  0.46511837  1
  Sr  Sr26  1  0.00998779  0.41567692  0.72192274  1
  Sr  Sr27  1  0.25000000  0.25000000  0.25000000  1
  Sr  Sr28  1  0.10381774  0.10381774  0.10381774  1
  Sr  Sr29  1  0.58432308  0.27807726  0.99001221  1
  Re  Re30  1  0.66173323  0.66173323  0.66173323  1
  Re  Re31  1  0.41788160  0.08211840  0.75000000  1
  Re  Re32  1  0.25000000  0.58211840  0.91788160  1
  Re  Re33  1  0.33826677  0.33826677  0.33826677  1
  Re  Re34  1  0.58211840  0.91788160  0.25000000  1
  Re  Re35  1  0.16173323  0.16173323  0.16173323  1
  Re  Re36  1  0.08211840  0.75000000  0.41788160  1
  Re  Re37  1  0.00000000  0.00000000  0.00000000  1
  Re  Re38  1  0.50000000  0.50000000  0.50000000  1
  Re  Re39  1  0.91788160  0.25000000  0.58211840  1
  Re  Re40  1  0.83826677  0.83826677  0.83826677  1
  Re  Re41  1  0.75000000  0.41788160  0.08211840  1
  O  O42  1  0.22445940  0.79117076  0.30306331  1
  O  O43  1  0.41480063  0.47683381  0.18499211  1
  O  O44  1  0.55290743  0.16283374  0.53605978  1
  O  O45  1  0.23166900  0.00105223  0.30345406  1
  O  O46  1  0.94709257  0.96394022  0.33716626  1
  O  O47  1  0.80306331  0.29117076  0.72445940  1
  O  O48  1  0.86018683  0.02123720  0.17440520  1
  O  O49  1  0.32559480  0.47876280  0.63981317  1
  O  O50  1  0.02316619  0.08519937  0.31500789  1
  O  O51  1  0.08519937  0.31500789  0.02316619  1
  O  O52  1  0.46394022  0.44709257  0.83716626  1
  O  O53  1  0.81500789  0.58519937  0.52316619  1
  O  O54  1  0.47683381  0.18499211  0.41480063  1
  O  O55  1  0.19654594  0.49894777  0.26833100  1
  O  O56  1  0.18499211  0.41480063  0.47683381  1
  O  O57  1  0.53605978  0.55290743  0.16283374  1
  O  O58  1  0.58519937  0.52316619  0.81500789  1
  O  O59  1  0.52707455  0.92191302  0.72573563  1
  O  O60  1  0.27426437  0.47292545  0.07808698  1
  O  O61  1  0.03605978  0.66283374  0.05290743  1
  O  O62  1  0.99894777  0.69654594  0.76833100  1
  O  O63  1  0.02707455  0.22573563  0.42191302  1
  O  O64  1  0.96394022  0.33716626  0.94709257  1
  O  O65  1  0.20882924  0.69693669  0.77554060  1
  O  O66  1  0.57808698  0.97292545  0.77426437  1
  O  O67  1  0.73166900  0.80345406  0.50105223  1
  O  O68  1  0.97876280  0.82559480  0.13981317  1
  O  O69  1  0.16283374  0.53605978  0.55290743  1
  O  O70  1  0.52123720  0.36018683  0.67440520  1
  O  O71  1  0.91480063  0.68499211  0.97683381  1
  O  O72  1  0.07808698  0.27426437  0.47292545  1
  O  O73  1  0.69693669  0.77554060  0.20882924  1
  O  O74  1  0.69654594  0.76833100  0.99894777  1
  O  O75  1  0.97683381  0.91480063  0.68499211  1
  O  O76  1  0.82559480  0.13981317  0.97876280  1
  O  O77  1  0.42191302  0.02707455  0.22573563  1
  O  O78  1  0.30345406  0.23166900  0.00105223  1
  O  O79  1  0.47876280  0.63981317  0.32559480  1
  O  O80  1  0.30306331  0.22445940  0.79117076  1
  O  O81  1  0.26833100  0.19654594  0.49894777  1
  O  O82  1  0.02123720  0.17440520  0.86018683  1
  O  O83  1  0.49894777  0.26833100  0.19654594  1
  O  O84  1  0.63981317  0.32559480  0.47876280  1
  O  O85  1  0.80345406  0.50105223  0.73166900  1
  O  O86  1  0.47292545  0.07808698  0.27426437  1
  O  O87  1  0.29117076  0.72445940  0.80306331  1
  O  O88  1  0.50105223  0.73166900  0.80345406  1
  O  O89  1  0.00105223  0.30345406  0.23166900  1
  O  O90  1  0.13981317  0.97876280  0.82559480  1
  O  O91  1  0.72573563  0.52707455  0.92191302  1
  O  O92  1  0.97292545  0.77426437  0.57808698  1
  O  O93  1  0.44709257  0.83716626  0.46394022  1
  O  O94  1  0.33716626  0.94709257  0.96394022  1
  O  O95  1  0.70882924  0.27554060  0.19693669  1
  O  O96  1  0.83716626  0.46394022  0.44709257  1
  O  O97  1  0.27554060  0.19693669  0.70882924  1
  O  O98  1  0.92191302  0.72573563  0.52707455  1
  O  O99  1  0.66283374  0.05290743  0.03605978  1
  O  O100  1  0.77426437  0.57808698  0.97292545  1
  O  O101  1  0.31500789  0.02316619  0.08519937  1
  O  O102  1  0.19693669  0.70882924  0.27554060  1
  O  O103  1  0.68499211  0.97683381  0.91480063  1
  O  O104  1  0.22573563  0.42191302  0.02707455  1
  O  O105  1  0.72445940  0.80306331  0.29117076  1
  O  O106  1  0.36018683  0.67440520  0.52123720  1
  O  O107  1  0.79117076  0.30306331  0.22445940  1
  O  O108  1  0.17440520  0.86018683  0.02123720  1
  O  O109  1  0.77554060  0.20882924  0.69693669  1
  O  O110  1  0.76833100  0.99894777  0.69654594  1
  O  O111  1  0.05290743  0.03605978  0.66283374  1
  O  O112  1  0.52316619  0.81500789  0.58519937  1
  O  O113  1  0.67440520  0.52123720  0.36018683  1
