# generated using pymatgen
data_As2O5
_symmetry_space_group_name_H-M   'P 1'
_cell_length_a   4.71234692
_cell_length_b   8.76446394
_cell_length_c   8.76446394
_cell_angle_alpha   90.00000000
_cell_angle_beta   90.00000000
_cell_angle_gamma   90.00000000
_symmetry_Int_Tables_number   1
_chemical_formula_structural   As2O5
_chemical_formula_sum   'As8 O20'
_cell_volume   361.98283122
_cell_formula_units_Z   4
loop_
 _symmetry_equiv_pos_site_id
 _symmetry_equiv_pos_as_xyz
  1  'x, y, z'
loop_
 _atom_site_type_symbol
 _atom_site_label
 _atom_site_symmetry_multiplicity
 _atom_site_fract_x
 _atom_site_fract_y
 _atom_site_fract_z
 _atom_site_occupancy
  As  As0  1  0.50000000  0.59735250  0.59735250  1
  As  As1  1  0.50000000  0.21604362  0.21604362  1
  As  As2  1  0.00000000  0.78395638  0.78395638  1
  As  As3  1  0.75000000  0.28395638  0.71604362  1
  As  As4  1  0.25000000  0.09735250  0.90264750  1
  As  As5  1  0.00000000  0.40264750  0.40264750  1
  As  As6  1  0.25000000  0.71604362  0.28395638  1
  As  As7  1  0.75000000  0.90264750  0.09735250  1
  O  O8  1  0.07692916  0.97589768  0.75375576  1
  O  O9  1  0.57692916  0.02410232  0.24624424  1
  O  O10  1  0.23003591  0.23447030  0.34582578  1
  O  O11  1  0.75000000  0.55656811  0.44343189  1
  O  O12  1  0.50000000  0.94343189  0.94343189  1
  O  O13  1  0.26996409  0.65417422  0.76552970  1
  O  O14  1  0.25000000  0.44343189  0.55656811  1
  O  O15  1  0.32692916  0.74624424  0.47589768  1
  O  O16  1  0.98003591  0.84582578  0.26552970  1
  O  O17  1  0.48003591  0.15417422  0.73447030  1
  O  O18  1  0.67307084  0.47589768  0.74624424  1
  O  O19  1  0.00000000  0.05656811  0.05656811  1
  O  O20  1  0.76996409  0.34582578  0.23447030  1
  O  O21  1  0.01996409  0.26552970  0.84582578  1
  O  O22  1  0.42307084  0.24624424  0.02410232  1
  O  O23  1  0.73003591  0.76552970  0.65417422  1
  O  O24  1  0.51996409  0.73447030  0.15417422  1
  O  O25  1  0.82692916  0.25375576  0.52410232  1
  O  O26  1  0.17307084  0.52410232  0.25375576  1
  O  O27  1  0.92307084  0.75375576  0.97589768  1
