# generated using pymatgen
data_CeZr6(PO4)9
_symmetry_space_group_name_H-M   'P 1'
_cell_length_a   8.96255043
_cell_length_b   8.96255000
_cell_length_c   23.18763472
_cell_angle_alpha   90.00000000
_cell_angle_beta   90.00000000
_cell_angle_gamma   120.00000164
_symmetry_Int_Tables_number   1
_chemical_formula_structural   CeZr6(PO4)9
_chemical_formula_sum   'Ce2 Zr12 P18 O72'
_cell_volume   1613.05909548
_cell_formula_units_Z   2
loop_
 _symmetry_equiv_pos_site_id
 _symmetry_equiv_pos_as_xyz
  1  'x, y, z'
loop_
 _atom_site_type_symbol
 _atom_site_label
 _atom_site_symmetry_multiplicity
 _atom_site_fract_x
 _atom_site_fract_y
 _atom_site_fract_z
 _atom_site_occupancy
  Ce  Ce0  1  0.00000000  0.00000000  0.50000000  1
  Ce  Ce1  1  0.00000000  0.00000000  0.00000000  1
  Zr  Zr2  1  0.33333300  0.66666700  0.52842355  1
  Zr  Zr3  1  0.33333300  0.66666700  0.02842355  1
  Zr  Zr4  1  0.66666700  0.33333300  0.18772377  1
  Zr  Zr5  1  0.66666700  0.33333300  0.68772377  1
  Zr  Zr6  1  0.00000000  0.00000000  0.65029371  1
  Zr  Zr7  1  0.00000000  0.00000000  0.84970629  1
  Zr  Zr8  1  0.00000000  0.00000000  0.15029371  1
  Zr  Zr9  1  0.66666700  0.33333300  0.97157645  1
  Zr  Zr10  1  0.33333300  0.66666700  0.81227623  1
  Zr  Zr11  1  0.00000000  0.00000000  0.34970629  1
  Zr  Zr12  1  0.66666700  0.33333300  0.47157645  1
  Zr  Zr13  1  0.33333300  0.66666700  0.31227623  1
  P  P14  1  0.00000000  0.70900786  0.75000000  1
  P  P15  1  0.05336557  0.67717830  0.42029523  1
  P  P16  1  0.32282170  0.37618727  0.42029523  1
  P  P17  1  0.67717830  0.62381273  0.57970477  1
  P  P18  1  1.00000000  0.29099214  0.25000000  1
  P  P19  1  0.94663443  0.62381273  0.07970477  1
  P  P20  1  0.37618727  0.05336557  0.57970477  1
  P  P21  1  0.94663443  0.32282170  0.57970477  1
  P  P22  1  0.29099214  0.00000000  0.25000000  1
  P  P23  1  0.37618727  0.32282170  0.07970477  1
  P  P24  1  0.70900786  0.70900786  0.25000000  1
  P  P25  1  0.67717830  0.05336557  0.07970477  1
  P  P26  1  0.70900786  0.00000000  0.75000000  1
  P  P27  1  0.32282170  0.94663443  0.92029523  1
  P  P28  1  0.62381273  0.67717830  0.92029523  1
  P  P29  1  0.62381273  0.94663443  0.42029523  1
  P  P30  1  0.05336557  0.37618727  0.92029523  1
  P  P31  1  0.29099214  0.29099214  0.75000000  1
  O  O32  1  0.16110263  0.18678961  0.41821398  1
  O  O33  1  0.02568698  0.83889737  0.41821398  1
  O  O34  1  0.51440422  0.63963870  0.57604327  1
  O  O35  1  0.36036130  0.87476551  0.57604327  1
  O  O36  1  0.32682554  0.47274417  0.36561760  1
  O  O37  1  0.15858263  0.69206035  0.76066388  1
  O  O38  1  0.79477836  0.82789741  0.19673985  1
  O  O39  1  0.17210259  0.96688095  0.19673985  1
  O  O40  1  0.47274417  0.14591863  0.63438240  1
  O  O41  1  0.81321039  0.83889737  0.91821398  1
  O  O42  1  0.96688095  0.17210259  0.30326015  1
  O  O43  1  0.45837339  0.29851357  0.02490379  1
  O  O44  1  0.36036130  0.48559578  0.07604327  1
  O  O45  1  0.83889737  0.81321039  0.58178602  1
  O  O46  1  0.63963870  0.12523449  0.42395673  1
  O  O47  1  0.20522164  0.17210259  0.80326015  1
  O  O48  1  0.15985982  0.45837339  0.97509621  1
  O  O49  1  0.45837339  0.15985982  0.52490379  1
  O  O50  1  0.84141737  0.53347772  0.73933612  1
  O  O51  1  0.69206035  0.53347772  0.23933612  1
  O  O52  1  0.18678961  0.16110263  0.08178602  1
  O  O53  1  0.53347772  0.69206035  0.26066388  1
  O  O54  1  0.30793965  0.84141737  0.26066388  1
  O  O55  1  0.70148643  0.54162661  0.52490379  1
  O  O56  1  0.84014018  0.29851357  0.52490379  1
  O  O57  1  0.85408137  0.32682554  0.63438240  1
  O  O58  1  0.63963870  0.51440422  0.92395673  1
  O  O59  1  0.97431302  0.81321039  0.08178602  1
  O  O60  1  0.03311905  0.20522164  0.19673985  1
  O  O61  1  0.14591863  0.47274417  0.86561760  1
  O  O62  1  0.84014018  0.54162661  0.02490379  1
  O  O63  1  0.52725583  0.67317446  0.86561760  1
  O  O64  1  0.54162661  0.84014018  0.47509621  1
  O  O65  1  0.52725583  0.85408137  0.36561760  1
  O  O66  1  0.79477836  0.96688095  0.69673985  1
  O  O67  1  0.29851357  0.45837339  0.47509621  1
  O  O68  1  0.18678961  0.02568698  0.58178602  1
  O  O69  1  0.82789741  0.03311905  0.80326015  1
  O  O70  1  0.84141737  0.30793965  0.23933612  1
  O  O71  1  0.46652228  0.15858263  0.23933612  1
  O  O72  1  0.70148643  0.15985982  0.02490379  1
  O  O73  1  0.20522164  0.03311905  0.30326015  1
  O  O74  1  0.97431302  0.16110263  0.58178602  1
  O  O75  1  0.82789741  0.79477836  0.30326015  1
  O  O76  1  0.46652228  0.30793965  0.73933612  1
  O  O77  1  0.17210259  0.20522164  0.69673985  1
  O  O78  1  0.85408137  0.52725583  0.13438240  1
  O  O79  1  0.81321039  0.97431302  0.41821398  1
  O  O80  1  0.53347772  0.84141737  0.76066388  1
  O  O81  1  0.03311905  0.82789741  0.69673985  1
  O  O82  1  0.30793965  0.46652228  0.76066388  1
  O  O83  1  0.67317446  0.52725583  0.63438240  1
  O  O84  1  0.15985982  0.70148643  0.47509621  1
  O  O85  1  0.32682554  0.85408137  0.86561760  1
  O  O86  1  0.48559578  0.12523449  0.92395673  1
  O  O87  1  0.12523449  0.63963870  0.07604327  1
  O  O88  1  0.12523449  0.48559578  0.57604327  1
  O  O89  1  0.87476551  0.51440422  0.42395673  1
  O  O90  1  0.96688095  0.79477836  0.80326015  1
  O  O91  1  0.48559578  0.36036130  0.42395673  1
  O  O92  1  0.51440422  0.87476551  0.07604327  1
  O  O93  1  0.67317446  0.14591863  0.13438240  1
  O  O94  1  0.54162661  0.70148643  0.97509621  1
  O  O95  1  0.14591863  0.67317446  0.36561760  1
  O  O96  1  0.15858263  0.46652228  0.26066388  1
  O  O97  1  0.47274417  0.32682554  0.13438240  1
  O  O98  1  0.16110263  0.97431302  0.91821398  1
  O  O99  1  0.29851357  0.84014018  0.97509621  1
  O  O100  1  0.83889737  0.02568698  0.08178602  1
  O  O101  1  0.69206035  0.15858263  0.73933612  1
  O  O102  1  0.87476551  0.36036130  0.92395673  1
  O  O103  1  0.02568698  0.18678961  0.91821398  1
