# generated using pymatgen
data_Na3TmSi2O7
_symmetry_space_group_name_H-M   'P 1'
_cell_length_a   9.45910734
_cell_length_b   9.45910693
_cell_length_c   13.83395283
_cell_angle_alpha   90.00000000
_cell_angle_beta   90.00000000
_cell_angle_gamma   120.00000147
_symmetry_Int_Tables_number   1
_chemical_formula_structural   Na3TmSi2O7
_chemical_formula_sum   'Na18 Tm6 Si12 O42'
_cell_volume   1071.95660456
_cell_formula_units_Z   6
loop_
 _symmetry_equiv_pos_site_id
 _symmetry_equiv_pos_as_xyz
  1  'x, y, z'
loop_
 _atom_site_type_symbol
 _atom_site_label
 _atom_site_symmetry_multiplicity
 _atom_site_fract_x
 _atom_site_fract_y
 _atom_site_fract_z
 _atom_site_occupancy
  Na  Na0  1  0.33194079  0.01558450  0.39279014  1
  Na  Na1  1  0.66805921  0.98441550  0.89279014  1
  Na  Na2  1  0.00000000  0.00000000  0.48139239  1
  Na  Na3  1  0.31568015  0.33100115  0.56986688  1
  Na  Na4  1  0.68364371  0.66805921  0.39279014  1
  Na  Na5  1  0.98441550  0.31635629  0.39279014  1
  Na  Na6  1  0.66899885  0.98467900  0.56986688  1
  Na  Na7  1  0.66666700  0.33333300  0.23158357  1
  Na  Na8  1  0.31635629  0.33194079  0.89279014  1
  Na  Na9  1  0.98467900  0.31568015  0.06986688  1
  Na  Na10  1  0.01532100  0.68431985  0.56986688  1
  Na  Na11  1  0.01558450  0.68364371  0.89279014  1
  Na  Na12  1  0.68431985  0.66899885  0.06986688  1
  Na  Na13  1  0.00000000  0.00000000  0.98139239  1
  Na  Na14  1  0.33333300  0.66666700  0.73158357  1
  Na  Na15  1  0.66666700  0.33333300  0.71455899  1
  Na  Na16  1  0.33100115  0.01532100  0.06986688  1
  Na  Na17  1  0.33333300  0.66666700  0.21455899  1
  Tm  Tm18  1  0.66666700  0.33333300  0.46289756  1
  Tm  Tm19  1  0.00000000  0.00000000  0.23184542  1
  Tm  Tm20  1  0.00000000  0.00000000  0.73184542  1
  Tm  Tm21  1  0.66666700  0.33333300  -0.00008006  1
  Tm  Tm22  1  0.33333300  0.66666700  0.96289756  1
  Tm  Tm23  1  0.33333300  0.66666700  0.49991994  1
  Si  Si24  1  0.01882493  0.67204924  0.34200295  1
  Si  Si25  1  0.65278979  0.98197459  0.12313776  1
  Si  Si26  1  0.67081519  0.65278979  0.62313776  1
  Si  Si27  1  0.34677569  0.01882493  0.84200295  1
  Si  Si28  1  0.32918481  0.34721021  0.12313776  1
  Si  Si29  1  0.98197459  0.32918481  0.62313776  1
  Si  Si30  1  0.32795076  0.34677569  0.34200295  1
  Si  Si31  1  0.98117507  0.32795076  0.84200295  1
  Si  Si32  1  0.01802541  0.67081519  0.12313776  1
  Si  Si33  1  0.67204924  0.65322431  0.84200295  1
  Si  Si34  1  0.34721021  0.01802541  0.62313776  1
  Si  Si35  1  0.65322431  0.98117507  0.34200295  1
  O  O36  1  0.15126678  0.95426035  0.62293258  1
  O  O37  1  0.55484984  0.82719054  0.04881443  1
  O  O38  1  0.27234070  0.44515016  0.04881443  1
  O  O39  1  0.72765930  0.55484984  0.54881443  1
  O  O40  1  0.90079441  0.32355161  0.73266630  1
  O  O41  1  0.82909949  0.26963608  0.91829476  1
  O  O42  1  0.80299356  0.84873322  0.62293258  1
  O  O43  1  0.04573965  0.19700644  0.62293258  1
  O  O44  1  0.48475398  0.61234455  0.60146968  1
  O  O45  1  0.09920559  0.67644839  0.23266630  1
  O  O46  1  0.87240943  0.48475398  0.10146968  1
  O  O47  1  0.87289996  0.48584664  0.36362507  1
  O  O48  1  0.80274802  0.84970352  0.84066682  1
  O  O49  1  0.51415336  0.38705332  0.36362507  1
  O  O50  1  0.84873322  0.04573965  0.12293258  1
  O  O51  1  0.73036392  0.55946341  0.91829476  1
  O  O52  1  0.61234455  0.12759057  0.10146968  1
  O  O53  1  0.42275720  0.09920559  0.73266630  1
  O  O54  1  0.61294668  0.12710004  0.36362507  1
  O  O55  1  0.44053659  0.17090051  0.91829476  1
  O  O56  1  0.04695550  0.19725198  0.84066682  1
  O  O57  1  0.67644839  0.57724280  0.73266630  1
  O  O58  1  0.38765545  0.87240943  0.60146968  1
  O  O59  1  0.84970352  0.04695550  0.34066682  1
  O  O60  1  0.17090051  0.73036392  0.41829476  1
  O  O61  1  0.82719054  0.27234070  0.54881443  1
  O  O62  1  0.38705332  0.87289996  0.86362507  1
  O  O63  1  0.12759057  0.51524602  0.60146968  1
  O  O64  1  0.19700644  0.15126678  0.12293258  1
  O  O65  1  0.17280946  0.72765930  0.04881443  1
  O  O66  1  0.51524602  0.38765545  0.10146968  1
  O  O67  1  0.26963608  0.44053659  0.41829476  1
  O  O68  1  0.55946341  0.82909949  0.41829476  1
  O  O69  1  0.95304450  0.80274802  0.34066682  1
  O  O70  1  0.57724280  0.90079441  0.23266630  1
  O  O71  1  0.44515016  0.17280946  0.54881443  1
  O  O72  1  0.48584664  0.61294668  0.86362507  1
  O  O73  1  0.19725198  0.15029648  0.34066682  1
  O  O74  1  0.12710004  0.51415336  0.86362507  1
  O  O75  1  0.32355161  0.42275720  0.23266630  1
  O  O76  1  0.95426035  0.80299356  0.12293258  1
  O  O77  1  0.15029648  0.95304450  0.84066682  1
