# generated using pymatgen
data_Ce3Si2S8I
_symmetry_space_group_name_H-M   'P 1'
_cell_length_a   7.89006672
_cell_length_b   8.95993037
_cell_length_c   10.91205916
_cell_angle_alpha   97.09863383
_cell_angle_beta   90.00000000
_cell_angle_gamma   116.12285308
_symmetry_Int_Tables_number   1
_chemical_formula_structural   Ce3Si2S8I
_chemical_formula_sum   'Ce6 Si4 S16 I2'
_cell_volume   686.03092233
_cell_formula_units_Z   2
loop_
 _symmetry_equiv_pos_site_id
 _symmetry_equiv_pos_as_xyz
  1  'x, y, z'
loop_
 _atom_site_type_symbol
 _atom_site_label
 _atom_site_symmetry_multiplicity
 _atom_site_fract_x
 _atom_site_fract_y
 _atom_site_fract_z
 _atom_site_occupancy
  Ce  Ce0  1  0.67897368  0.60208975  0.81902044  1
  Ce  Ce1  1  0.40464657  0.00000000  0.75000000  1
  Ce  Ce2  1  0.32102632  0.39791025  0.18097956  1
  Ce  Ce3  1  0.07688393  0.39791025  0.68097956  1
  Ce  Ce4  1  0.59535343  0.00000000  0.25000000  1
  Ce  Ce5  1  0.92311607  0.60208975  0.31902044  1
  Si  Si6  1  0.30332498  0.68029711  0.97018941  1
  Si  Si7  1  0.37697213  0.68029711  0.47018941  1
  Si  Si8  1  0.62302787  0.31970289  0.52981059  1
  Si  Si9  1  0.69667502  0.31970289  0.02981059  1
  S  S10  1  0.88898805  0.28920622  0.14809105  1
  S  S11  1  0.55018466  0.29997284  0.33891650  1
  S  S12  1  0.44981534  0.70002716  0.66108350  1
  S  S13  1  0.14960965  0.43673666  0.41411957  1
  S  S14  1  0.41477076  0.13737200  0.04343461  1
  S  S15  1  0.85039035  0.56326334  0.58588043  1
  S  S16  1  0.74978818  0.29997284  0.83891650  1
  S  S17  1  0.72260124  0.13737200  0.54343461  1
  S  S18  1  0.28712701  0.43673666  0.91411957  1
  S  S19  1  0.59978183  0.71079378  0.35190895  1
  S  S20  1  0.11101195  0.71079378  0.85190895  1
  S  S21  1  0.25021182  0.70002716  0.16108350  1
  S  S22  1  0.58522924  0.86262800  0.95656539  1
  S  S23  1  0.40021817  0.28920622  0.64809105  1
  S  S24  1  0.27739876  0.86262800  0.45656539  1
  S  S25  1  0.71287299  0.56326334  0.08588043  1
  I  I26  1  0.98631838  0.00000000  0.75000000  1
  I  I27  1  0.01368162  0.00000000  0.25000000  1
