# generated using pymatgen
data_Te2S(O2F3)2
_symmetry_space_group_name_H-M   'P 1'
_cell_length_a   9.06034247
_cell_length_b   9.08299302
_cell_length_c   10.14771772
_cell_angle_alpha   90.00000000
_cell_angle_beta   90.00000000
_cell_angle_gamma   90.00000000
_symmetry_Int_Tables_number   1
_chemical_formula_structural   Te2S(O2F3)2
_chemical_formula_sum   'Te8 S4 O16 F24'
_cell_volume   835.10670796
_cell_formula_units_Z   4
loop_
 _symmetry_equiv_pos_site_id
 _symmetry_equiv_pos_as_xyz
  1  'x, y, z'
loop_
 _atom_site_type_symbol
 _atom_site_label
 _atom_site_symmetry_multiplicity
 _atom_site_fract_x
 _atom_site_fract_y
 _atom_site_fract_z
 _atom_site_occupancy
  Te  Te0  1  0.04336405  0.14181758  0.04510610  1
  Te  Te1  1  0.55408790  0.83460648  0.08368766  1
  Te  Te2  1  0.44591210  0.33460648  0.41631234  1
  Te  Te3  1  0.54336405  0.35818242  0.95489390  1
  Te  Te4  1  0.94591210  0.16539352  0.58368766  1
  Te  Te5  1  0.05408790  0.66539352  0.91631234  1
  Te  Te6  1  0.95663595  0.64181758  0.45489390  1
  Te  Te7  1  0.45663595  0.85818242  0.54510610  1
  S  S8  1  0.83150378  0.95141028  0.29247477  1
  S  S9  1  0.33150378  0.54858972  0.70752523  1
  S  S10  1  0.16849622  0.45141028  0.20752523  1
  S  S11  1  0.66849622  0.04858972  0.79247477  1
  O  O12  1  0.55042757  0.15959694  0.82614879  1
  O  O13  1  0.36252251  0.48845693  0.84190435  1
  O  O14  1  0.13747749  0.51154307  0.34190435  1
  O  O15  1  0.44957243  0.65959694  0.67385121  1
  O  O16  1  0.68399894  0.87856290  0.28695737  1
  O  O17  1  0.82912882  0.07019779  0.39194235  1
  O  O18  1  0.67087118  0.92980221  0.89194235  1
  O  O19  1  0.81600106  0.12143710  0.78695737  1
  O  O20  1  0.17087118  0.57019779  0.10805765  1
  O  O21  1  0.05042757  0.34040306  0.17385121  1
  O  O22  1  0.63747749  0.98845693  0.65809565  1
  O  O23  1  0.94957243  0.84040306  0.32614879  1
  O  O24  1  0.86252251  0.01154307  0.15809565  1
  O  O25  1  0.18399894  0.62143710  0.71304263  1
  O  O26  1  0.31600106  0.37856290  0.21304263  1
  O  O27  1  0.32912882  0.42980221  0.60805765  1
  F  F28  1  0.50059628  0.53345959  0.39252739  1
  F  F29  1  0.34076575  0.93902771  0.68035271  1
  F  F30  1  0.89202258  0.68789549  0.03494157  1
  F  F31  1  1.00059628  0.96654041  0.60747261  1
  F  F32  1  0.10797742  0.18789549  0.46505843  1
  F  F33  1  0.49940372  0.03345959  0.10747261  1
  F  F34  1  0.57444831  0.54605966  0.04828550  1
  F  F35  1  0.92555169  0.45394034  0.54828550  1
  F  F36  1  -0.00059628  0.46654041  0.89252739  1
  F  F37  1  0.39202258  0.81210451  0.96505843  1
  F  F38  1  0.72434839  0.29211972  0.03250368  1
  F  F39  1  0.91817078  0.71977900  0.78260362  1
  F  F40  1  0.84076575  0.56097229  0.31964729  1
  F  F41  1  0.42555169  0.04605966  0.45171450  1
  F  F42  1  0.60797742  0.31210451  0.53494157  1
  F  F43  1  0.58182922  0.28022100  0.28260362  1
  F  F44  1  0.41817078  0.78022100  0.21739638  1
  F  F45  1  0.08182922  0.21977900  0.71739638  1
  F  F46  1  0.22434839  0.20788028  0.96749632  1
  F  F47  1  0.27565161  0.79211972  0.46749632  1
  F  F48  1  0.65923425  0.43902771  0.81964729  1
  F  F49  1  0.15923425  0.06097229  0.18035271  1
  F  F50  1  0.07444831  0.95394034  0.95171450  1
  F  F51  1  0.77565161  0.70788028  0.53250368  1
