# generated using pymatgen
data_Rb2GdGa(SiO3)4
_symmetry_space_group_name_H-M   'P 1'
_cell_length_a   7.41249198
_cell_length_b   14.14928250
_cell_length_c   14.19832026
_cell_angle_alpha   64.31174611
_cell_angle_beta   74.86857178
_cell_angle_gamma   74.81486576
_symmetry_Int_Tables_number   1
_chemical_formula_structural   Rb2GdGa(SiO3)4
_chemical_formula_sum   'Rb8 Gd4 Ga4 Si16 O48'
_cell_volume   1276.34776142
_cell_formula_units_Z   4
loop_
 _symmetry_equiv_pos_site_id
 _symmetry_equiv_pos_as_xyz
  1  'x, y, z'
loop_
 _atom_site_type_symbol
 _atom_site_label
 _atom_site_symmetry_multiplicity
 _atom_site_fract_x
 _atom_site_fract_y
 _atom_site_fract_z
 _atom_site_occupancy
  Rb  Rb0  1  0.80501903  0.91753364  0.96603334  1
  Rb  Rb1  1  0.19498097  0.08246636  0.03396666  1
  Rb  Rb2  1  0.18858600  0.58246636  0.53396666  1
  Rb  Rb3  1  0.81141400  0.41753364  0.46603334  1
  Rb  Rb4  1  0.79724730  0.38327668  0.04721074  1
  Rb  Rb5  1  0.72773471  0.11672332  0.45278926  1
  Rb  Rb6  1  0.20275270  0.61672332  0.95278926  1
  Rb  Rb7  1  0.27226529  0.88327668  0.54721074  1
  Gd  Gd8  1  0.44852726  0.78777888  0.24994871  1
  Gd  Gd9  1  0.55147274  0.21222112  0.75005129  1
  Gd  Gd10  1  0.98625485  0.71222112  0.25005129  1
  Gd  Gd11  1  0.01374515  0.28777888  0.74994871  1
  Ga  Ga12  1  0.26882932  0.08637853  0.27374615  1
  Ga  Ga13  1  0.87104600  0.58637853  0.77374615  1
  Ga  Ga14  1  0.73117068  0.91362147  0.72625385  1
  Ga  Ga15  1  0.12895400  0.41362147  0.22625385  1
  Si  Si16  1  0.02176145  0.07793711  0.66089102  1
  Si  Si17  1  0.97823855  0.92206289  0.33910898  1
  Si  Si18  1  0.36046865  0.32620429  0.50872562  1
  Si  Si19  1  0.20815675  0.20176815  0.42262769  1
  Si  Si20  1  0.33255259  0.29823185  0.07737231  1
  Si  Si21  1  0.68569266  0.97122393  0.20469401  1
  Si  Si22  1  0.79184325  0.79823185  0.57737231  1
  Si  Si23  1  0.63953135  0.67379571  0.49127438  1
  Si  Si24  1  0.73941042  0.57793711  0.16089102  1
  Si  Si25  1  0.31430734  0.02877607  0.79530599  1
  Si  Si26  1  0.26058958  0.42206289  0.83910898  1
  Si  Si27  1  0.63838940  0.47122393  0.70469401  1
  Si  Si28  1  0.69539856  0.17379571  0.99127438  1
  Si  Si29  1  0.66744741  0.70176815  0.92262769  1
  Si  Si30  1  0.36161060  0.52877607  0.29530599  1
  Si  Si31  1  0.30460144  0.82620429  0.00872562  1
  O  O32  1  0.57708040  0.14986412  0.92543557  1
  O  O33  1  0.42291960  0.85013588  0.07456443  1
  O  O34  1  0.24413849  0.35010999  0.96775349  1
  O  O35  1  0.23083517  0.94027343  0.91010418  1
  O  O36  1  0.41878721  0.44027343  0.41010418  1
  O  O37  1  0.93920184  0.97904515  0.66724047  1
  O  O38  1  0.73585148  0.64896425  0.22543289  1
  O  O39  1  0.45655453  0.47499024  0.79943275  1
  O  O40  1  0.76916483  0.05972657  0.08989582  1
  O  O41  1  0.12142995  0.77013825  0.07573818  1
  O  O42  1  0.79302682  0.79388836  0.84269824  1
  O  O43  1  0.91451254  0.47904515  0.16724047  1
  O  O44  1  0.36369235  0.25073147  0.44404864  1
  O  O45  1  0.23097752  0.02500976  0.70056725  1
  O  O46  1  0.06200197  0.14989001  0.53224651  1
  O  O47  1  0.25761164  0.14641799  0.79838418  1
  O  O48  1  0.46730638  0.72986175  0.42426182  1
  O  O49  1  0.54344547  0.52500976  0.20056725  1
  O  O50  1  0.88975138  0.14896425  0.72543289  1
  O  O51  1  0.58121279  0.55972657  0.58989582  1
  O  O52  1  0.82853396  0.48906970  0.72987696  1
  O  O53  1  0.87857005  0.22986175  0.92426182  1
  O  O54  1  0.68085870  0.61024086  0.87857351  1
  O  O55  1  0.07038658  0.29388836  0.34269824  1
  O  O56  1  0.06079816  0.02095485  0.33275953  1
  O  O57  1  0.66967307  0.88975914  0.62142649  1
  O  O58  1  0.45251939  0.98906970  0.22987696  1
  O  O59  1  0.70241381  0.35358201  0.70161582  1
  O  O60  1  0.31914130  0.38975914  0.12142649  1
  O  O61  1  0.08548746  0.52095485  0.83275953  1
  O  O62  1  0.15238009  0.35013588  0.57456443  1
  O  O63  1  0.84761991  0.64986412  0.42543557  1
  O  O64  1  0.11024862  0.85103575  0.27456711  1
  O  O65  1  0.20697318  0.20611164  0.15730176  1
  O  O66  1  0.26414852  0.35103575  0.77456711  1
  O  O67  1  0.63630765  0.74926853  0.55595136  1
  O  O68  1  0.93799803  0.85010999  0.46775349  1
  O  O69  1  0.54748061  0.01093030  0.77012304  1
  O  O70  1  0.53269362  0.27013825  0.57573818  1
  O  O71  1  0.92961342  0.70611164  0.65730176  1
  O  O72  1  0.33032693  0.11024086  0.37857351  1
  O  O73  1  0.74238836  0.85358201  0.20161582  1
  O  O74  1  0.44152754  0.75073147  0.94404864  1
  O  O75  1  0.55847246  0.24926853  0.05595136  1
  O  O76  1  0.75586151  0.64989001  0.03224651  1
  O  O77  1  0.76902248  0.97499024  0.29943275  1
  O  O78  1  0.17146604  0.51093030  0.27012304  1
  O  O79  1  0.29758619  0.64641799  0.29838418  1
