# generated using pymatgen
data_Na3OsO5
_symmetry_space_group_name_H-M   'P 1'
_cell_length_a   5.62429958
_cell_length_b   5.62429916
_cell_length_c   13.62615414
_cell_angle_alpha   90.00000000
_cell_angle_beta   90.00000000
_cell_angle_gamma   120.00000247
_symmetry_Int_Tables_number   1
_chemical_formula_structural   Na3OsO5
_chemical_formula_sum   'Na9 Os3 O15'
_cell_volume   373.28520465
_cell_formula_units_Z   3
loop_
 _symmetry_equiv_pos_site_id
 _symmetry_equiv_pos_as_xyz
  1  'x, y, z'
loop_
 _atom_site_type_symbol
 _atom_site_label
 _atom_site_symmetry_multiplicity
 _atom_site_fract_x
 _atom_site_fract_y
 _atom_site_fract_z
 _atom_site_occupancy
  Na  Na0  1  0.91416481  0.29523426  0.91502278  1
  Na  Na1  1  0.70476574  0.61893055  0.24835578  1
  Na  Na2  1  0.08583519  0.38106945  0.41831022  1
  Na  Na3  1  0.38106945  0.08583519  0.58168978  1
  Na  Na4  1  0.72341718  0.72341718  0.50000000  1
  Na  Na5  1  0.61893055  0.70476574  0.75164422  1
  Na  Na6  1  0.27658282  0.00000000  0.83333300  1
  Na  Na7  1  1.00000000  0.27658282  0.16666700  1
  Na  Na8  1  0.29523426  0.91416481  0.08497722  1
  Os  Os9  1  0.38433116  0.00000000  0.33333300  1
  Os  Os10  1  0.00000000  0.38433116  0.66666700  1
  Os  Os11  1  0.61566884  0.61566884  0.00000000  1
  O  O12  1  0.48411001  0.82347298  0.93509134  1
  O  O13  1  1.00000000  0.70199408  0.66666700  1
  O  O14  1  0.51588999  0.33936297  0.39824166  1
  O  O15  1  0.66063703  0.17652702  0.73157566  1
  O  O16  1  0.84037780  0.15631529  0.56120163  1
  O  O17  1  0.15962220  0.31593750  0.77213237  1
  O  O18  1  0.82347298  0.48411001  0.06490866  1
  O  O19  1  0.84368471  0.68406250  0.89453463  1
  O  O20  1  0.31593750  0.15962220  0.22786763  1
  O  O21  1  0.15631529  0.84037780  0.43879837  1
  O  O22  1  0.70199408  0.00000000  0.33333300  1
  O  O23  1  0.17652702  0.66063703  0.26842434  1
  O  O24  1  0.33936297  0.51588999  0.60175834  1
  O  O25  1  0.29800592  0.29800592  0.00000000  1
  O  O26  1  0.68406250  0.84368471  0.10546537  1
