# generated using pymatgen
data_Na5AlP2(O4F)2
_symmetry_space_group_name_H-M   'P 1'
_cell_length_a   10.58568173
_cell_length_b   10.58568145
_cell_length_c   6.67456815
_cell_angle_alpha   90.00000000
_cell_angle_beta   90.00000000
_cell_angle_gamma   120.00000085
_symmetry_Int_Tables_number   1
_chemical_formula_structural   Na5AlP2(O4F)2
_chemical_formula_sum   'Na15 Al3 P6 O24 F6'
_cell_volume   647.72618309
_cell_formula_units_Z   3
loop_
 _symmetry_equiv_pos_site_id
 _symmetry_equiv_pos_as_xyz
  1  'x, y, z'
loop_
 _atom_site_type_symbol
 _atom_site_label
 _atom_site_symmetry_multiplicity
 _atom_site_fract_x
 _atom_site_fract_y
 _atom_site_fract_z
 _atom_site_occupancy
  Na  Na0  1  0.66666700  0.33333300  0.91656542  1
  Na  Na1  1  0.33333300  0.66666700  0.52739504  1
  Na  Na2  1  0.16907737  0.85340868  0.26608097  1
  Na  Na3  1  0.14659132  0.31566870  0.26608097  1
  Na  Na4  1  0.83092263  0.14659132  0.73391903  1
  Na  Na5  1  0.85340868  0.68433130  0.73391903  1
  Na  Na6  1  0.68433130  0.83092263  0.26608097  1
  Na  Na7  1  0.00000000  0.50000000  0.00000000  1
  Na  Na8  1  0.66666700  0.33333300  0.47260496  1
  Na  Na9  1  0.31566870  0.16907737  0.73391903  1
  Na  Na10  1  0.00000000  0.00000000  0.00000000  1
  Na  Na11  1  0.33333300  0.66666700  0.08343458  1
  Na  Na12  1  0.50000000  0.00000000  0.00000000  1
  Na  Na13  1  0.00000000  0.00000000  0.50000000  1
  Na  Na14  1  0.50000000  0.50000000  0.00000000  1
  Al  Al15  1  0.50000000  0.50000000  0.50000000  1
  Al  Al16  1  0.50000000  0.00000000  0.50000000  1
  Al  Al17  1  0.00000000  0.50000000  0.50000000  1
  P  P18  1  0.81371805  0.18440457  0.25066490  1
  P  P19  1  0.37068652  0.18628195  0.25066490  1
  P  P20  1  0.62931348  0.81371805  0.74933510  1
  P  P21  1  0.18628195  0.81559543  0.74933510  1
  P  P22  1  0.81559543  0.62931348  0.25066490  1
  P  P23  1  0.18440457  0.37068652  0.74933510  1
  O  O24  1  0.56933722  0.69591527  0.57905935  1
  O  O25  1  0.42982747  0.08030392  0.29987978  1
  O  O26  1  0.12657806  0.43066278  0.57905935  1
  O  O27  1  0.69591527  0.12657806  0.42094065  1
  O  O28  1  0.57017253  0.91969608  0.70012022  1
  O  O29  1  0.90112764  0.79793480  0.25634869  1
  O  O30  1  0.43121718  0.25597338  0.04512247  1
  O  O31  1  0.08030392  0.65047644  0.70012022  1
  O  O32  1  0.56878282  0.74402662  0.95487753  1
  O  O33  1  0.89680716  0.09887236  0.25634869  1
  O  O34  1  0.10319284  0.90112764  0.74365131  1
  O  O35  1  0.65047644  0.57017253  0.29987978  1
  O  O36  1  0.20206520  0.10319284  0.25634869  1
  O  O37  1  0.87342194  0.56933722  0.42094065  1
  O  O38  1  0.91969608  0.34952356  0.29987978  1
  O  O39  1  0.30408473  0.87342194  0.57905935  1
  O  O40  1  0.74402662  0.17524380  0.04512247  1
  O  O41  1  0.43066278  0.30408473  0.42094065  1
  O  O42  1  0.25597338  0.82475620  0.95487753  1
  O  O43  1  0.09887236  0.20206520  0.74365131  1
  O  O44  1  0.82475620  0.56878282  0.04512247  1
  O  O45  1  0.79793480  0.89680716  0.74365131  1
  O  O46  1  0.34952356  0.42982747  0.70012022  1
  O  O47  1  0.17524380  0.43121718  0.95487753  1
  F  F48  1  0.86280592  0.38453316  0.68983051  1
  F  F49  1  0.61546684  0.47827276  0.68983051  1
  F  F50  1  0.38453316  0.52172724  0.31016949  1
  F  F51  1  0.47827276  0.86280592  0.31016949  1
  F  F52  1  0.52172724  0.13719408  0.68983051  1
  F  F53  1  0.13719408  0.61546684  0.31016949  1
