# generated using pymatgen
data_Ba6Er2Ga4O15
_symmetry_space_group_name_H-M   'P 1'
_cell_length_a   6.02479800
_cell_length_b   8.03237133
_cell_length_c   18.63054812
_cell_angle_alpha   91.31456830
_cell_angle_beta   90.00000000
_cell_angle_gamma   90.00000000
_symmetry_Int_Tables_number   1
_chemical_formula_structural   Ba6Er2Ga4O15
_chemical_formula_sum   'Ba12 Er4 Ga8 O30'
_cell_volume   901.35854867
_cell_formula_units_Z   2
loop_
 _symmetry_equiv_pos_site_id
 _symmetry_equiv_pos_as_xyz
  1  'x, y, z'
loop_
 _atom_site_type_symbol
 _atom_site_label
 _atom_site_symmetry_multiplicity
 _atom_site_fract_x
 _atom_site_fract_y
 _atom_site_fract_z
 _atom_site_occupancy
  Ba  Ba0  1  0.74805879  0.02656186  0.08953968  1
  Ba  Ba1  1  0.75500962  0.49888371  0.42136634  1
  Ba  Ba2  1  0.24499038  0.50111629  0.57863366  1
  Ba  Ba3  1  0.25194121  0.97343814  0.91046032  1
  Ba  Ba4  1  0.32949403  0.50000000  0.25000000  1
  Ba  Ba5  1  0.75500962  0.50111629  0.07863366  1
  Ba  Ba6  1  0.72449067  0.00000000  0.75000000  1
  Ba  Ba7  1  0.27550933  0.00000000  0.25000000  1
  Ba  Ba8  1  0.24499038  0.49888371  0.92136634  1
  Ba  Ba9  1  0.67050597  0.50000000  0.75000000  1
  Ba  Ba10  1  0.25194121  0.02656186  0.58953968  1
  Ba  Ba11  1  0.74805879  0.97343814  0.41046032  1
  Er  Er12  1  0.74658397  0.24749779  0.91033339  1
  Er  Er13  1  0.74658397  0.75250221  0.58966661  1
  Er  Er14  1  0.25341603  0.75250221  0.08966661  1
  Er  Er15  1  0.25341603  0.24749779  0.41033339  1
  Ga  Ga16  1  0.25193580  0.75407275  0.44211143  1
  Ga  Ga17  1  0.77340981  0.77001909  0.23301722  1
  Ga  Ga18  1  0.77340981  0.22998091  0.26698278  1
  Ga  Ga19  1  0.25193580  0.24592725  0.05788857  1
  Ga  Ga20  1  0.74806420  0.75407275  0.94211143  1
  Ga  Ga21  1  0.22659019  0.22998091  0.76698278  1
  Ga  Ga22  1  0.22659019  0.77001909  0.73301722  1
  Ga  Ga23  1  0.74806420  0.24592725  0.55788857  1
  O  O24  1  0.24504761  0.53132203  0.40938850  1
  O  O25  1  0.50907654  0.76578814  0.49960893  1
  O  O26  1  0.95715307  0.27470553  0.81130887  1
  O  O27  1  0.00895099  0.23454863  0.99270773  1
  O  O28  1  0.79933718  0.00000000  0.25000000  1
  O  O29  1  0.32856357  0.68753766  0.81708421  1
  O  O30  1  0.04284693  0.27470553  0.31130887  1
  O  O31  1  0.54614524  0.75125357  0.16332111  1
  O  O32  1  0.54614524  0.24874643  0.33667889  1
  O  O33  1  0.32856357  0.31246234  0.68291579  1
  O  O34  1  0.49092346  0.76578814  -0.00039107  1
  O  O35  1  0.23734930  0.95440813  0.39236574  1
  O  O36  1  0.95715307  0.72529447  0.68869113  1
  O  O37  1  0.45385476  0.75125357  0.66332111  1
  O  O38  1  0.67143643  0.68753766  0.31708421  1
  O  O39  1  0.20066282  0.00000000  0.75000000  1
  O  O40  1  0.76265070  0.04559187  0.60763426  1
  O  O41  1  0.75495239  0.46867797  0.59061150  1
  O  O42  1  0.99104901  0.76545137  0.00729227  1
  O  O43  1  0.75495239  0.53132203  0.90938850  1
  O  O44  1  0.23734930  0.04559187  0.10763426  1
  O  O45  1  0.76265070  0.95440813  0.89236574  1
  O  O46  1  0.50907654  0.23421186  1.00039107  1
  O  O47  1  0.45385476  0.24874643  0.83667889  1
  O  O48  1  0.00895099  0.76545137  0.50729227  1
  O  O49  1  0.67143643  0.31246234  0.18291579  1
  O  O50  1  0.04284693  0.72529447  0.18869113  1
  O  O51  1  0.99104901  0.23454863  0.49270773  1
  O  O52  1  0.24504761  0.46867797  0.09061150  1
  O  O53  1  0.49092346  0.23421186  0.50039107  1
