# generated using pymatgen
data_Sr3U(Te2O7)2
_symmetry_space_group_name_H-M   'P 1'
_cell_length_a   5.73725416
_cell_length_b   10.89485720
_cell_length_c   13.24355407
_cell_angle_alpha   93.63924325
_cell_angle_beta   90.00000000
_cell_angle_gamma   105.26602390
_symmetry_Int_Tables_number   1
_chemical_formula_structural   Sr3U(Te2O7)2
_chemical_formula_sum   'Sr6 U2 Te8 O28'
_cell_volume   796.86829716
_cell_formula_units_Z   2
loop_
 _symmetry_equiv_pos_site_id
 _symmetry_equiv_pos_as_xyz
  1  'x, y, z'
loop_
 _atom_site_type_symbol
 _atom_site_label
 _atom_site_symmetry_multiplicity
 _atom_site_fract_x
 _atom_site_fract_y
 _atom_site_fract_z
 _atom_site_occupancy
  Sr  Sr0  1  0.17247763  0.87862227  0.94191368  1
  Sr  Sr1  1  0.70614463  0.87862227  0.44191368  1
  Sr  Sr2  1  0.29385537  0.12137773  0.55808632  1
  Sr  Sr3  1  0.72145147  0.00000000  0.75000000  1
  Sr  Sr4  1  0.82752237  0.12137773  0.05808632  1
  Sr  Sr5  1  0.27854853  0.00000000  0.25000000  1
  U  U6  1  0.50000000  0.50000000  0.50000000  1
  U  U7  1  0.00000000  0.50000000  0.00000000  1
  Te  Te8  1  0.88684849  0.34870923  0.66351711  1
  Te  Te9  1  0.62441062  0.79879794  0.12733684  1
  Te  Te10  1  0.11315151  0.65129077  0.33648289  1
  Te  Te11  1  0.17438732  0.79879794  0.62733684  1
  Te  Te12  1  0.82561268  0.20120206  0.37266316  1
  Te  Te13  1  0.46186074  0.34870923  0.16351711  1
  Te  Te14  1  0.37558938  0.20120206  0.87266316  1
  Te  Te15  1  0.53813926  0.65129077  0.83648289  1
  O  O16  1  0.74004208  0.81462129  0.86514975  1
  O  O17  1  0.54178842  0.81867042  0.26497064  1
  O  O18  1  0.69574732  0.34281630  0.05912397  1
  O  O19  1  0.25995792  0.18537871  0.13485025  1
  O  O20  1  0.54594197  0.08030621  0.41368538  1
  O  O21  1  0.35293101  0.65718370  0.44087603  1
  O  O22  1  0.02278731  0.08677011  0.38418878  1
  O  O23  1  0.73391568  0.56258738  0.90425534  1
  O  O24  1  0.97721269  0.91322989  0.61581122  1
  O  O25  1  0.45405803  0.91969379  0.58631462  1
  O  O26  1  0.72311800  0.18132958  0.23502936  1
  O  O27  1  0.34596836  0.38412101  0.39630080  1
  O  O28  1  0.27688200  0.81867042  0.76497064  1
  O  O29  1  0.96184736  0.61587899  0.10369920  1
  O  O30  1  0.03815264  0.38412101  0.89630080  1
  O  O31  1  0.07457921  0.81462129  0.36514975  1
  O  O32  1  0.06398281  0.08677011  0.88418878  1
  O  O33  1  0.30425268  0.65718370  0.94087603  1
  O  O34  1  0.92542079  0.18537871  0.63485025  1
  O  O35  1  0.46563575  0.91969379  0.08631462  1
  O  O36  1  0.53436425  0.08030621  0.91368538  1
  O  O37  1  0.64706899  0.34281630  0.55912397  1
  O  O38  1  0.26608432  0.43741262  0.09574466  1
  O  O39  1  0.17132830  0.43741262  0.59574466  1
  O  O40  1  0.93601719  0.91322989  0.11581122  1
  O  O41  1  0.82867170  0.56258738  0.40425534  1
  O  O42  1  0.45821158  0.18132958  0.73502936  1
  O  O43  1  0.65403164  0.61587899  0.60369920  1
