# generated using pymatgen
data_Sr2AlCO3F5
_symmetry_space_group_name_H-M   'P 1'
_cell_length_a   5.51977319
_cell_length_b   8.85456836
_cell_length_c   13.31269808
_cell_angle_alpha   90.00000000
_cell_angle_beta   98.28791898
_cell_angle_gamma   90.00000000
_symmetry_Int_Tables_number   1
_chemical_formula_structural   Sr2AlCO3F5
_chemical_formula_sum   'Sr8 Al4 C4 O12 F20'
_cell_volume   643.86553315
_cell_formula_units_Z   4
loop_
 _symmetry_equiv_pos_site_id
 _symmetry_equiv_pos_as_xyz
  1  'x, y, z'
loop_
 _atom_site_type_symbol
 _atom_site_label
 _atom_site_symmetry_multiplicity
 _atom_site_fract_x
 _atom_site_fract_y
 _atom_site_fract_z
 _atom_site_occupancy
  Sr  Sr0  1  0.71640574  0.14076454  0.41148540  1
  Sr  Sr1  1  0.78359426  0.64076454  0.08851460  1
  Sr  Sr2  1  0.29056204  0.39113858  0.59847361  1
  Sr  Sr3  1  0.20943796  0.89113858  0.90152639  1
  Sr  Sr4  1  0.70943796  0.60886142  0.40152639  1
  Sr  Sr5  1  0.28359426  0.85923546  0.58851460  1
  Sr  Sr6  1  0.79056204  0.10886142  0.09847361  1
  Sr  Sr7  1  0.21640574  0.35923546  0.91148540  1
  Al  Al8  1  0.13345925  0.87195714  0.33035745  1
  Al  Al9  1  0.86654075  0.12804286  0.66964255  1
  Al  Al10  1  0.63345925  0.62804286  0.83035745  1
  Al  Al11  1  0.36654075  0.37195714  0.16964255  1
  C  C12  1  0.18721403  0.37530435  0.36144695  1
  C  C13  1  0.68721403  0.12469565  0.86144695  1
  C  C14  1  0.31278597  0.87530435  0.13855305  1
  C  C15  1  0.81278597  0.62469565  0.63855305  1
  O  O16  1  0.09236929  0.87620170  0.08879463  1
  O  O17  1  0.90763071  0.12379830  0.91120537  1
  O  O18  1  0.35475029  0.87101099  0.23672085  1
  O  O19  1  0.49753254  0.87890636  0.08759298  1
  O  O20  1  0.00246746  0.37890636  0.41240702  1
  O  O21  1  0.59236929  0.62379830  0.58879463  1
  O  O22  1  0.64524971  0.12898901  0.76327915  1
  O  O23  1  0.14524971  0.37101099  0.26327915  1
  O  O24  1  0.85475029  0.62898901  0.73672085  1
  O  O25  1  0.50246746  0.12109364  0.91240702  1
  O  O26  1  0.99753254  0.62109364  0.58759298  1
  O  O27  1  0.40763071  0.37620170  0.41120537  1
  F  F28  1  0.06404121  0.27340206  0.73393370  1
  F  F29  1  0.19726468  0.22437882  0.09127319  1
  F  F30  1  0.08018822  0.12867458  0.57003598  1
  F  F31  1  0.58018822  0.37132542  0.07003598  1
  F  F32  1  0.91981178  0.87132542  0.42996402  1
  F  F33  1  0.05164428  0.97250596  0.72629084  1
  F  F34  1  0.56404121  0.22659794  0.23393370  1
  F  F35  1  0.67517972  0.99374930  0.58877319  1
  F  F36  1  0.80273532  0.77562118  0.90872681  1
  F  F37  1  0.82482028  0.49374930  0.91122681  1
  F  F38  1  0.94835572  0.02749404  0.27370916  1
  F  F39  1  0.43595879  0.77340206  0.76606630  1
  F  F40  1  0.93595879  0.72659794  0.26606630  1
  F  F41  1  0.30273532  0.72437882  0.40872681  1
  F  F42  1  0.69726468  0.27562118  0.59127319  1
  F  F43  1  0.32482028  0.00625070  0.41122681  1
  F  F44  1  0.41981178  0.62867458  0.92996402  1
  F  F45  1  0.17517972  0.50625070  0.08877319  1
  F  F46  1  0.55164428  0.52749404  0.22629084  1
  F  F47  1  0.44835572  0.47250596  0.77370916  1
