# generated using pymatgen
data_LiEu(PO3)4
_symmetry_space_group_name_H-M   'P 1'
_cell_length_a   7.18894324
_cell_length_b   9.07438457
_cell_length_c   9.08393019
_cell_angle_alpha   65.99236094
_cell_angle_beta   66.69063648
_cell_angle_gamma   66.66466384
_symmetry_Int_Tables_number   1
_chemical_formula_structural   LiEu(PO3)4
_chemical_formula_sum   'Li2 Eu2 P8 O24'
_cell_volume   477.22205617
_cell_formula_units_Z   2
loop_
 _symmetry_equiv_pos_site_id
 _symmetry_equiv_pos_as_xyz
  1  'x, y, z'
loop_
 _atom_site_type_symbol
 _atom_site_label
 _atom_site_symmetry_multiplicity
 _atom_site_fract_x
 _atom_site_fract_y
 _atom_site_fract_z
 _atom_site_occupancy
  Eu  Eu0  1  0.69955211  0.75000000  0.25000000  1
  Eu  Eu1  1  0.30044789  0.25000000  0.75000000  1
  Li  Li2  1  0.79764660  0.25000000  0.75000000  1
  Li  Li3  1  0.20235340  0.75000000  0.25000000  1
  P  P4  1  0.19386879  0.38519580  0.33775144  1
  P  P5  1  0.80613121  0.61480420  0.66224856  1
  P  P6  1  0.50944523  0.19765265  0.09756884  1
  P  P7  1  0.49055477  0.80234735  0.90243116  1
  P  P8  1  0.91681603  0.11480420  0.16224856  1
  P  P9  1  0.80466672  0.30234735  0.40243116  1
  P  P10  1  0.19533328  0.69765265  0.59756884  1
  P  P11  1  0.08318397  0.88519580  0.83775144  1
  O  O12  1  0.03844296  0.26839197  0.41252475  1
  O  O13  1  0.71935969  0.23160803  0.08747525  1
  O  O14  1  0.48781259  0.03160488  0.22423823  1
  O  O15  1  0.10062572  0.18247407  0.04601142  1
  O  O16  1  0.92526829  0.43061392  0.70360729  1
  O  O17  1  0.32911122  0.31752593  0.45398858  1
  O  O18  1  0.67088878  0.68247407  0.54601142  1
  O  O19  1  0.84012262  0.14813640  0.34157055  1
  O  O20  1  0.32982957  0.35186360  0.15842945  1
  O  O21  1  0.51218741  0.96839512  0.77576177  1
  O  O22  1  0.28064031  0.76839197  0.91252475  1
  O  O23  1  0.74365570  0.46839512  0.27576177  1
  O  O24  1  0.52162043  0.22937492  0.91857688  1
  O  O25  1  0.15987738  0.85186360  0.65842945  1
  O  O26  1  0.66957223  0.27062508  0.58142312  1
  O  O27  1  0.94051050  0.93061392  0.20360729  1
  O  O28  1  0.33042777  0.72937492  0.41857688  1
  O  O29  1  0.47837957  0.77062508  0.08142312  1
  O  O30  1  0.25634430  0.53160488  0.72423823  1
  O  O31  1  0.07473171  0.56938608  0.29639271  1
  O  O32  1  0.67017043  0.64813640  0.84157055  1
  O  O33  1  0.96155704  0.73160803  0.58747525  1
  O  O34  1  0.89937428  0.81752593  0.95398858  1
  O  O35  1  0.05948950  0.06938608  0.79639271  1
