# generated using pymatgen
data_Fe5O7F3
_symmetry_space_group_name_H-M   'P 1'
_cell_length_a   4.64844351
_cell_length_b   4.64830244
_cell_length_c   15.28741677
_cell_angle_alpha   90.00000000
_cell_angle_beta   90.00000000
_cell_angle_gamma   90.00000000
_symmetry_Int_Tables_number   1
_chemical_formula_structural   Fe5O7F3
_chemical_formula_sum   'Fe10 O14 F6'
_cell_volume   330.32089052
_cell_formula_units_Z   2
loop_
 _symmetry_equiv_pos_site_id
 _symmetry_equiv_pos_as_xyz
  1  'x, y, z'
loop_
 _atom_site_type_symbol
 _atom_site_label
 _atom_site_symmetry_multiplicity
 _atom_site_fract_x
 _atom_site_fract_y
 _atom_site_fract_z
 _atom_site_occupancy
  Fe  Fe0  1  0.03270765  0.01581866  0.00647348  1
  Fe  Fe1  1  0.97622194  0.97422972  0.20000000  1
  Fe  Fe2  1  0.03270765  0.01581866  0.39352652  1
  Fe  Fe3  1  0.99651990  0.99586272  0.59902958  1
  Fe  Fe4  1  0.99651990  0.99586272  0.80097042  1
  Fe  Fe5  1  0.50348010  0.49586272  0.09902958  1
  Fe  Fe6  1  0.46729235  0.51581866  0.50647348  1
  Fe  Fe7  1  0.50348010  0.49586272  0.30097042  1
  Fe  Fe8  1  0.52377806  0.47422972  0.70000000  1
  Fe  Fe9  1  0.46729235  0.51581866  0.89352652  1
  O  O10  1  0.19728577  0.79440161  0.10330798  1
  O  O11  1  0.19728577  0.79440161  0.29669202  1
  O  O12  1  0.18465072  0.82417514  0.49958540  1
  O  O13  1  0.18465072  0.82417514  0.90041460  1
  O  O14  1  0.31534928  0.32417514  0.99958540  1
  O  O15  1  0.31534928  0.32417514  0.40041460  1
  O  O16  1  0.30271423  0.29440161  0.60330798  1
  O  O17  1  0.30271423  0.29440161  0.79669202  1
  O  O18  1  0.68308231  0.67390852  0.20000000  1
  O  O19  1  0.69848014  0.69095238  0.60136443  1
  O  O20  1  0.69848014  0.69095238  0.79863557  1
  O  O21  1  0.80151986  0.19095238  0.10136443  1
  O  O22  1  0.80151986  0.19095238  0.29863557  1
  O  O23  1  0.81691769  0.17390852  0.70000000  1
  F  F24  1  0.20435283  0.78894237  0.70000000  1
  F  F25  1  0.29564717  0.28894237  0.20000000  1
  F  F26  1  0.70081003  0.71024919  0.99671766  1
  F  F27  1  0.70081003  0.71024919  0.40328234  1
  F  F28  1  0.79918997  0.21024919  0.49671766  1
  F  F29  1  0.79918997  0.21024919  0.90328234  1
