# generated using pymatgen
data_Rb3Pr3(PS4)4
_symmetry_space_group_name_H-M   'P 1'
_cell_length_a   9.43163060
_cell_length_b   10.77865444
_cell_length_c   14.81909939
_cell_angle_alpha   85.70929359
_cell_angle_beta   87.89052063
_cell_angle_gamma   80.69887504
_symmetry_Int_Tables_number   1
_chemical_formula_structural   Rb3Pr3(PS4)4
_chemical_formula_sum   'Rb6 Pr6 P8 S32'
_cell_volume   1482.07255376
_cell_formula_units_Z   2
loop_
 _symmetry_equiv_pos_site_id
 _symmetry_equiv_pos_as_xyz
  1  'x, y, z'
loop_
 _atom_site_type_symbol
 _atom_site_label
 _atom_site_symmetry_multiplicity
 _atom_site_fract_x
 _atom_site_fract_y
 _atom_site_fract_z
 _atom_site_occupancy
  Rb  Rb0  1  0.61848407  0.19824079  0.25473139  1
  Rb  Rb1  1  0.73562246  0.42366778  0.64619587  1
  Rb  Rb2  1  0.20849275  0.07863152  0.08492795  1
  Rb  Rb3  1  0.38151593  0.80175921  0.74526861  1
  Rb  Rb4  1  0.79150725  0.92136848  0.91507205  1
  Rb  Rb5  1  0.26437754  0.57633222  0.35380413  1
  Pr  Pr6  1  0.76609946  0.98480541  0.52477824  1
  Pr  Pr7  1  0.74685489  0.46952150  0.99709271  1
  Pr  Pr8  1  0.25314511  0.53047850  0.00290729  1
  Pr  Pr9  1  0.23390054  0.01519459  0.47522176  1
  Pr  Pr10  1  0.24463724  0.27840708  0.73701516  1
  Pr  Pr11  1  0.75536276  0.72159292  0.26298484  1
  P  P12  1  0.44765542  0.24900938  0.51386954  1
  P  P13  1  0.00331244  0.93444140  0.31851976  1
  P  P14  1  0.99183414  0.43371156  0.18010116  1
  P  P15  1  0.47233653  0.71758210  0.09625222  1
  P  P16  1  0.99668756  0.06555860  0.68148024  1
  P  P17  1  0.52766347  0.28241790  0.90374778  1
  P  P18  1  0.00816586  0.56628844  0.81989884  1
  P  P19  1  0.55234458  0.75099062  0.48613046  1
  S  S20  1  0.07566946  0.52491049  0.69286896  1
  S  S21  1  0.05492348  0.40007897  0.90450554  1
  S  S22  1  0.10705559  0.06036434  0.79881163  1
  S  S23  1  0.94507652  0.59992103  0.09549446  1
  S  S24  1  0.67756009  0.75436342  0.59620336  1
  S  S25  1  0.62658416  0.59679011  0.41717131  1
  S  S26  1  0.57967390  0.56249758  0.17070360  1
  S  S27  1  0.89230111  0.29609894  0.13264659  1
  S  S28  1  0.50281375  0.67493287  0.96189843  1
  S  S29  1  0.65539666  0.24617609  0.47016857  1
  S  S30  1  0.32243991  0.24563658  0.40379664  1
  S  S31  1  0.37341584  0.40320989  0.58282869  1
  S  S32  1  0.94417175  0.78944351  0.40389657  1
  S  S33  1  0.79128549  0.62439591  0.83227820  1
  S  S34  1  0.22012663  0.91679645  0.29942915  1
  S  S35  1  0.05076460  0.90285202  0.61406733  1
  S  S36  1  0.34460334  0.75382391  0.52983143  1
  S  S37  1  0.44179349  0.08813953  0.60224877  1
  S  S38  1  0.74380617  0.26198487  0.88322999  1
  S  S39  1  0.55820651  0.91186047  0.39775123  1
  S  S40  1  0.25619383  0.73801513  0.11677001  1
  S  S41  1  0.56379965  0.86948880  0.12447181  1
  S  S42  1  0.10769889  0.70390106  0.86735341  1
  S  S43  1  0.94923540  0.09714798  0.38593267  1
  S  S44  1  0.49718625  0.32506713  0.03810157  1
  S  S45  1  0.77987337  0.08320355  0.70057085  1
  S  S46  1  0.43620035  0.13051120  0.87552819  1
  S  S47  1  0.89294441  0.93963566  0.20118837  1
  S  S48  1  0.92433054  0.47508951  0.30713104  1
  S  S49  1  0.05582825  0.21055649  0.59610343  1
  S  S50  1  0.20871451  0.37560409  0.16772180  1
  S  S51  1  0.42032610  0.43750242  0.82929640  1
