# generated using pymatgen
data_NaScB2O5
_symmetry_space_group_name_H-M   'P 1'
_cell_length_a   5.99960835
_cell_length_b   7.29569997
_cell_length_c   9.88385445
_cell_angle_alpha   90.00000000
_cell_angle_beta   90.00000000
_cell_angle_gamma   108.54735159
_symmetry_Int_Tables_number   1
_chemical_formula_structural   NaScB2O5
_chemical_formula_sum   'Na4 Sc4 B8 O20'
_cell_volume   410.15927253
_cell_formula_units_Z   4
loop_
 _symmetry_equiv_pos_site_id
 _symmetry_equiv_pos_as_xyz
  1  'x, y, z'
loop_
 _atom_site_type_symbol
 _atom_site_label
 _atom_site_symmetry_multiplicity
 _atom_site_fract_x
 _atom_site_fract_y
 _atom_site_fract_z
 _atom_site_occupancy
  Na  Na0  1  0.69912662  0.22064972  0.41866158  1
  Na  Na1  1  0.19912662  0.22064972  0.08133842  1
  Na  Na2  1  0.80087338  0.77935028  0.91866158  1
  Na  Na3  1  0.30087338  0.77935028  0.58133842  1
  Sc  Sc4  1  0.21678834  0.75401919  0.17217035  1
  Sc  Sc5  1  0.78321166  0.24598081  0.82782965  1
  Sc  Sc6  1  0.71678834  0.75401919  0.32782965  1
  Sc  Sc7  1  0.28321166  0.24598081  0.67217035  1
  B  B8  1  0.16968609  0.09024158  0.38024768  1
  B  B9  1  0.33031391  0.90975842  0.88024768  1
  B  B10  1  0.83031391  0.90975842  0.61975232  1
  B  B11  1  0.74583458  0.44549161  0.09515662  1
  B  B12  1  0.24583458  0.44549161  0.40484338  1
  B  B13  1  0.66968609  0.09024158  0.11975232  1
  B  B14  1  0.25416542  0.55450839  0.90484338  1
  B  B15  1  0.75416542  0.55450839  0.59515662  1
  O  O16  1  0.84288940  0.73041511  0.66919885  1
  O  O17  1  0.72126787  0.92057603  0.50094632  1
  O  O18  1  0.07465534  0.93432506  0.29534004  1
  O  O19  1  0.65711060  0.26958489  0.16919885  1
  O  O20  1  0.65939243  0.38670267  0.66898064  1
  O  O21  1  0.26690278  0.55278856  0.04137202  1
  O  O22  1  0.15939243  0.38670267  0.83101936  1
  O  O23  1  0.22126787  0.92057603  0.99905368  1
  O  O24  1  0.15711060  0.26958489  0.33080115  1
  O  O25  1  0.57465534  0.93432506  0.20465996  1
  O  O26  1  0.34060757  0.61329733  0.33101936  1
  O  O27  1  0.73309722  0.44721144  0.95862798  1
  O  O28  1  0.76690278  0.55278856  0.45862798  1
  O  O29  1  0.27873213  0.07942397  0.49905368  1
  O  O30  1  0.23309722  0.44721144  0.54137202  1
  O  O31  1  0.42534466  0.06567494  0.79534004  1
  O  O32  1  0.92534466  0.06567494  0.70465996  1
  O  O33  1  0.77873213  0.07942397  0.00094632  1
  O  O34  1  0.34288940  0.73041511  0.83080115  1
  O  O35  1  0.84060757  0.61329733  0.16898064  1
