# generated using pymatgen
data_Tl5Te3
_symmetry_space_group_name_H-M   'P 1'
_cell_length_a   9.25458725
_cell_length_b   9.25458725
_cell_length_c   9.35922298
_cell_angle_alpha   119.63085388
_cell_angle_beta   119.63085394
_cell_angle_gamma   90.00000000
_symmetry_Int_Tables_number   1
_chemical_formula_structural   Tl5Te3
_chemical_formula_sum   'Tl10 Te6'
_cell_volume   573.07869520
_cell_formula_units_Z   2
loop_
 _symmetry_equiv_pos_site_id
 _symmetry_equiv_pos_as_xyz
  1  'x, y, z'
loop_
 _atom_site_type_symbol
 _atom_site_label
 _atom_site_symmetry_multiplicity
 _atom_site_fract_x
 _atom_site_fract_y
 _atom_site_fract_z
 _atom_site_occupancy
  Te  Te0  1  0.80841233  0.59988543  0.98894449  1
  Te  Te1  1  0.61094095  0.19158767  0.01105551  1
  Te  Te2  1  0.40011457  0.81946784  0.01105551  1
  Te  Te3  1  0.18053216  0.38905905  0.98894449  1
  Te  Te4  1  0.00000000  0.00000000  0.00000000  1
  Te  Te5  1  0.50000000  0.50000000  0.00000000  1
  Tl  Tl6  1  0.44530630  0.25924623  0.27507952  1
  Tl  Tl7  1  0.98416671  0.55469370  0.72492048  1
  Tl  Tl8  1  0.74075377  0.17022678  0.72492048  1
  Tl  Tl9  1  0.82977322  0.01583329  0.27507952  1
  Tl  Tl10  1  0.55245877  0.75074011  0.72916551  1
  Tl  Tl11  1  0.02157460  0.44754123  0.27083449  1
  Tl  Tl12  1  0.24925989  0.82329327  0.27083449  1
  Tl  Tl13  1  0.17670673  0.97842540  0.72916551  1
  Tl  Tl14  1  0.25824154  0.25824154  0.51648309  1
  Tl  Tl15  1  0.74175846  0.74175846  0.48351691  1
