# generated using pymatgen
data_Sr2YbRuO6
_symmetry_space_group_name_H-M   'P 1'
_cell_length_a   5.77899696
_cell_length_b   5.86198841
_cell_length_c   8.19950751
_cell_angle_alpha   90.00000000
_cell_angle_beta   90.39461414
_cell_angle_gamma   90.00000000
_symmetry_Int_Tables_number   1
_chemical_formula_structural   Sr2YbRuO6
_chemical_formula_sum   'Sr4 Yb2 Ru2 O12'
_cell_volume   277.76331648
_cell_formula_units_Z   2
loop_
 _symmetry_equiv_pos_site_id
 _symmetry_equiv_pos_as_xyz
  1  'x, y, z'
loop_
 _atom_site_type_symbol
 _atom_site_label
 _atom_site_symmetry_multiplicity
 _atom_site_fract_x
 _atom_site_fract_y
 _atom_site_fract_z
 _atom_site_occupancy
  Yb  Yb0  1  0.50000000  0.00000000  0.00000000  1
  Yb  Yb1  1  0.00000000  0.50000000  0.50000000  1
  Sr  Sr2  1  0.49098357  0.54211385  0.24984228  1
  Sr  Sr3  1  0.00901643  0.04211385  0.25015772  1
  Sr  Sr4  1  0.99098357  0.95788615  0.74984228  1
  Sr  Sr5  1  0.50901643  0.45788615  0.75015772  1
  Ru  Ru6  1  0.00000000  0.50000000  0.00000000  1
  Ru  Ru7  1  0.50000000  0.00000000  0.50000000  1
  O  O8  1  0.68948590  0.73041615  0.54272162  1
  O  O9  1  0.42372159  0.02043667  0.73000658  1
  O  O10  1  0.07627841  0.52043667  0.76999342  1
  O  O11  1  0.57627841  0.97956333  0.26999342  1
  O  O12  1  0.31051410  0.26958385  0.45727838  1
  O  O13  1  0.76847343  0.19370382  0.53978962  1
  O  O14  1  0.73152657  0.69370382  0.96021038  1
  O  O15  1  0.18948590  0.76958385  0.04272162  1
  O  O16  1  0.92372159  0.47956333  0.23000658  1
  O  O17  1  0.81051410  0.23041615  0.95727838  1
  O  O18  1  0.26847343  0.30629618  0.03978962  1
  O  O19  1  0.23152657  0.80629618  0.46021038  1
