# generated using pymatgen
data_RbAg(NO3)2
_symmetry_space_group_name_H-M   'P 1'
_cell_length_a   5.13311053
_cell_length_b   8.53448009
_cell_length_c   14.64608591
_cell_angle_alpha   98.19635914
_cell_angle_beta   90.00000000
_cell_angle_gamma   90.00000000
_symmetry_Int_Tables_number   1
_chemical_formula_structural   RbAg(NO3)2
_chemical_formula_sum   'Rb4 Ag4 N8 O24'
_cell_volume   635.06804255
_cell_formula_units_Z   4
loop_
 _symmetry_equiv_pos_site_id
 _symmetry_equiv_pos_as_xyz
  1  'x, y, z'
loop_
 _atom_site_type_symbol
 _atom_site_label
 _atom_site_symmetry_multiplicity
 _atom_site_fract_x
 _atom_site_fract_y
 _atom_site_fract_z
 _atom_site_occupancy
  Rb  Rb0  1  0.95282481  0.26629477  0.06172162  1
  Rb  Rb1  1  0.45282481  0.73370523  0.43827838  1
  Rb  Rb2  1  0.54717519  0.26629477  0.56172162  1
  Rb  Rb3  1  0.04717519  0.73370523  0.93827838  1
  Ag  Ag4  1  0.07078071  0.19253428  0.77953455  1
  Ag  Ag5  1  0.57078071  0.80746572  0.72046545  1
  Ag  Ag6  1  0.92921929  0.80746572  0.22046545  1
  Ag  Ag7  1  0.42921929  0.19253428  0.27953455  1
  N  N8  1  0.86685076  0.43134425  0.33338252  1
  N  N9  1  0.53105683  0.05950804  0.89516234  1
  N  N10  1  0.13314924  0.56865575  0.66661748  1
  N  N11  1  0.36685076  0.56865575  0.16661748  1
  N  N12  1  0.03105683  0.94049196  0.60483766  1
  N  N13  1  0.63314924  0.43134425  0.83338252  1
  N  N14  1  0.96894317  0.05950804  0.39516234  1
  N  N15  1  0.46894317  0.94049196  0.10483766  1
  O  O16  1  0.73348122  0.01622932  0.38875489  1
  O  O17  1  0.13923513  0.59161893  0.13318214  1
  O  O18  1  0.86076487  0.40838107  0.86681786  1
  O  O19  1  0.52016491  0.56066659  0.85869829  1
  O  O20  1  0.95681310  0.83119558  0.54381464  1
  O  O21  1  0.76651878  0.01622932  0.88875489  1
  O  O22  1  0.63641179  0.00987251  0.16308401  1
  O  O23  1  0.47983509  0.43933341  0.14130171  1
  O  O24  1  0.63923513  0.40838107  0.36681786  1
  O  O25  1  0.26651878  0.98377068  0.61124511  1
  O  O26  1  0.46738831  0.67650093  0.22414932  1
  O  O27  1  0.54318690  0.83119558  0.04381464  1
  O  O28  1  0.36076487  0.59161893  0.63318214  1
  O  O29  1  0.96738831  0.32349907  0.27585068  1
  O  O30  1  0.13641179  0.99012749  0.33691599  1
  O  O31  1  0.97983509  0.56066659  0.35869829  1
  O  O32  1  0.04318690  0.16880442  0.45618536  1
  O  O33  1  0.03261169  0.67650093  0.72414932  1
  O  O34  1  0.02016491  0.43933341  0.64130171  1
  O  O35  1  0.86358821  0.00987251  0.66308401  1
  O  O36  1  0.45681310  0.16880442  0.95618536  1
  O  O37  1  0.53261169  0.32349907  0.77585068  1
  O  O38  1  0.36358821  0.99012749  0.83691599  1
  O  O39  1  0.23348122  0.98377068  0.11124511  1
