# generated using pymatgen
data_KRe2O4F7
_symmetry_space_group_name_H-M   'P 1'
_cell_length_a   5.31460289
_cell_length_b   5.68977420
_cell_length_c   15.28655579
_cell_angle_alpha   95.21067726
_cell_angle_beta   90.00000000
_cell_angle_gamma   90.00000000
_symmetry_Int_Tables_number   1
_chemical_formula_structural   KRe2O4F7
_chemical_formula_sum   'K2 Re4 O8 F14'
_cell_volume   460.33823951
_cell_formula_units_Z   2
loop_
 _symmetry_equiv_pos_site_id
 _symmetry_equiv_pos_as_xyz
  1  'x, y, z'
loop_
 _atom_site_type_symbol
 _atom_site_label
 _atom_site_symmetry_multiplicity
 _atom_site_fract_x
 _atom_site_fract_y
 _atom_site_fract_z
 _atom_site_occupancy
  K  K0  1  0.69314092  0.25000000  0.75000000  1
  K  K1  1  0.30685908  0.75000000  0.25000000  1
  Re  Re2  1  0.24713431  0.76144984  0.88667570  1
  Re  Re3  1  0.24713431  0.73855016  0.61332430  1
  Re  Re4  1  0.75286569  0.26144984  0.38667570  1
  Re  Re5  1  0.75286569  0.23855016  0.11332430  1
  O  O6  1  0.59152422  0.97463230  0.10379542  1
  O  O7  1  0.86567591  0.25620941  0.00967739  1
  O  O8  1  0.40847578  0.02536770  0.89620458  1
  O  O9  1  0.13432409  0.75620941  0.50967739  1
  O  O10  1  0.59152422  0.52536770  0.39620458  1
  O  O11  1  0.13432409  0.74379059  0.99032261  1
  O  O12  1  0.40847578  0.47463230  0.60379542  1
  O  O13  1  0.86567591  0.24379059  0.49032261  1
  F  F14  1  0.53974196  0.57486719  0.89597689  1
  F  F15  1  0.37814200  0.75000000  0.75000000  1
  F  F16  1  0.95399493  0.61245091  0.66139293  1
  F  F17  1  0.62185800  0.25000000  0.25000000  1
  F  F18  1  0.11283676  0.46223001  0.83245401  1
  F  F19  1  0.46025804  0.07486719  0.39597689  1
  F  F20  1  0.88716324  0.53776999  0.16754599  1
  F  F21  1  0.95399493  0.88754909  0.83860707  1
  F  F22  1  0.88716324  0.96223001  0.33245401  1
  F  F23  1  0.46025804  0.42513281  0.10402311  1
  F  F24  1  0.04600507  0.38754909  0.33860707  1
  F  F25  1  0.11283676  0.03776999  0.66754599  1
  F  F26  1  0.04600507  0.11245091  0.16139293  1
  F  F27  1  0.53974196  0.92513281  0.60402311  1
