# generated using pymatgen
data_K3Y(BO3)2
_symmetry_space_group_name_H-M   'P 1'
_cell_length_a   5.58181698
_cell_length_b   6.90723721
_cell_length_c   9.44738339
_cell_angle_alpha   90.00000000
_cell_angle_beta   90.00000000
_cell_angle_gamma   90.00000000
_symmetry_Int_Tables_number   1
_chemical_formula_structural   K3Y(BO3)2
_chemical_formula_sum   'K6 Y2 B4 O12'
_cell_volume   364.24324254
_cell_formula_units_Z   2
loop_
 _symmetry_equiv_pos_site_id
 _symmetry_equiv_pos_as_xyz
  1  'x, y, z'
loop_
 _atom_site_type_symbol
 _atom_site_label
 _atom_site_symmetry_multiplicity
 _atom_site_fract_x
 _atom_site_fract_y
 _atom_site_fract_z
 _atom_site_occupancy
  K  K0  1  0.00000000  0.23253681  0.33267483  1
  K  K1  1  0.00000000  0.76746319  0.66732517  1
  K  K2  1  0.50000000  0.73253681  0.16732517  1
  K  K3  1  0.50000000  0.50000000  0.50000000  1
  K  K4  1  0.50000000  0.26746319  0.83267483  1
  K  K5  1  0.00000000  0.00000000  0.00000000  1
  Y  Y6  1  0.00000000  0.50000000  0.00000000  1
  Y  Y7  1  0.50000000  0.00000000  0.50000000  1
  B  B8  1  0.00000000  0.76346594  0.33398733  1
  B  B9  1  0.00000000  0.23653406  0.66601267  1
  B  B10  1  0.50000000  0.73653406  0.83398733  1
  B  B11  1  0.50000000  0.26346594  0.16601267  1
  O  O12  1  0.71633087  0.29975503  0.09683079  1
  O  O13  1  0.21633087  0.20024497  0.59683079  1
  O  O14  1  0.50000000  0.19231891  0.30419457  1
  O  O15  1  0.71633087  0.70024497  0.90316921  1
  O  O16  1  0.28366913  0.29975503  0.09683079  1
  O  O17  1  0.21633087  0.79975503  0.40316921  1
  O  O18  1  0.78366913  0.20024497  0.59683079  1
  O  O19  1  0.28366913  0.70024497  0.90316921  1
  O  O20  1  0.78366913  0.79975503  0.40316921  1
  O  O21  1  0.00000000  0.30768109  0.80419457  1
  O  O22  1  0.00000000  0.69231891  0.19580543  1
  O  O23  1  0.50000000  0.80768109  0.69580543  1
