# generated using pymatgen
data_K5Tl3O
_symmetry_space_group_name_H-M   'P 1'
_cell_length_a   8.48478639
_cell_length_b   8.97190403
_cell_length_c   17.32240069
_cell_angle_alpha   90.00000000
_cell_angle_beta   104.16594592
_cell_angle_gamma   90.00000000
_symmetry_Int_Tables_number   1
_chemical_formula_structural   K5Tl3O
_chemical_formula_sum   'K20 Tl12 O4'
_cell_volume   1278.56313698
_cell_formula_units_Z   4
loop_
 _symmetry_equiv_pos_site_id
 _symmetry_equiv_pos_as_xyz
  1  'x, y, z'
loop_
 _atom_site_type_symbol
 _atom_site_label
 _atom_site_symmetry_multiplicity
 _atom_site_fract_x
 _atom_site_fract_y
 _atom_site_fract_z
 _atom_site_occupancy
  K  K0  1  0.04441549  0.25000000  0.53524517  1
  K  K1  1  0.31972441  0.53257018  0.63953254  1
  K  K2  1  0.54942192  0.46760160  0.10013413  1
  K  K3  1  0.50906721  0.75000000  0.46473383  1
  K  K4  1  0.12453513  0.25000000  0.74592057  1
  K  K5  1  0.19623511  0.25000000  0.98621878  1
  K  K6  1  0.54942192  0.03239840  0.10013413  1
  K  K7  1  0.80376489  0.75000000  0.01378122  1
  K  K8  1  0.45057808  0.53239840  0.89986587  1
  K  K9  1  0.68027559  0.46742982  0.36046746  1
  K  K10  1  0.95558451  0.75000000  0.46475483  1
  K  K11  1  0.49093279  0.25000000  0.53526617  1
  K  K12  1  0.68027559  0.03257018  0.36046746  1
  K  K13  1  0.62163302  0.25000000  0.74587490  1
  K  K14  1  0.45057808  0.96760160  0.89986587  1
  K  K15  1  0.37836698  0.75000000  0.25412510  1
  K  K16  1  0.87546487  0.75000000  0.25407943  1
  K  K17  1  0.31972441  0.96742982  0.63953254  1
  K  K18  1  0.78977456  0.25000000  0.98644093  1
  K  K19  1  0.21022544  0.75000000  0.01355907  1
  Tl  Tl20  1  0.18456832  0.05497867  0.36914664  1
  Tl  Tl21  1  0.92390796  0.96289653  0.84793207  1
  Tl  Tl22  1  0.33805171  0.25000000  0.25160113  1
  Tl  Tl23  1  0.66194829  0.75000000  0.74839887  1
  Tl  Tl24  1  0.91349985  0.25000000  0.25156101  1
  Tl  Tl25  1  0.07609204  0.03710347  0.15206793  1
  Tl  Tl26  1  0.92390796  0.53710347  0.84793207  1
  Tl  Tl27  1  0.81543168  0.55497867  0.63085336  1
  Tl  Tl28  1  0.08650015  0.75000000  0.74843899  1
  Tl  Tl29  1  0.81543168  0.94502133  0.63085336  1
  Tl  Tl30  1  0.18456832  0.44502133  0.36914664  1
  Tl  Tl31  1  0.07609204  0.46289653  0.15206793  1
  O  O32  1  0.48768023  0.25000000  0.97551949  1
  O  O33  1  0.51231977  0.75000000  0.02448051  1
  O  O34  1  0.32449722  0.25000000  0.64904722  1
  O  O35  1  0.67550278  0.75000000  0.35095278  1
