# generated using pymatgen
data_KGa(PO3)4
_symmetry_space_group_name_H-M   'P 1'
_cell_length_a   5.22101792
_cell_length_b   10.52658030
_cell_length_c   10.52658084
_cell_angle_alpha   72.35620894
_cell_angle_beta   81.25249432
_cell_angle_gamma   81.25249095
_symmetry_Int_Tables_number   1
_chemical_formula_structural   KGa(PO3)4
_chemical_formula_sum   'K2 Ga2 P8 O24'
_cell_volume   541.44683673
_cell_formula_units_Z   2
loop_
 _symmetry_equiv_pos_site_id
 _symmetry_equiv_pos_as_xyz
  1  'x, y, z'
loop_
 _atom_site_type_symbol
 _atom_site_label
 _atom_site_symmetry_multiplicity
 _atom_site_fract_x
 _atom_site_fract_y
 _atom_site_fract_z
 _atom_site_occupancy
  K  K0  1  0.73973797  0.40705179  0.40705179  1
  K  K1  1  0.26026203  0.59294821  0.59294821  1
  Ga  Ga2  1  0.00000000  0.00000000  0.50000000  1
  Ga  Ga3  1  0.00000000  0.50000000  0.00000000  1
  P  P4  1  0.83614959  0.35499248  0.79934450  1
  P  P5  1  0.53353440  0.30884169  0.06860025  1
  P  P6  1  0.53353440  0.06860025  0.30884169  1
  P  P7  1  0.16385041  0.20065550  0.64500752  1
  P  P8  1  0.83614959  0.79934450  0.35499248  1
  P  P9  1  0.46646560  0.93139975  0.69115831  1
  P  P10  1  0.46646560  0.69115831  0.93139975  1
  P  P11  1  0.16385041  0.64500752  0.20065550  1
  O  O12  1  0.01419838  0.84940124  0.42679742  1
  O  O13  1  0.69860094  0.10038998  0.39929689  1
  O  O14  1  0.71106943  0.67729273  0.43032714  1
  O  O15  1  0.98580162  0.57320258  0.15059876  1
  O  O16  1  0.98580162  0.15059876  0.57320258  1
  O  O17  1  0.75714284  0.65672410  0.91239364  1
  O  O18  1  0.00000000  0.78456955  0.21543045  1
  O  O19  1  0.28893057  0.32270727  0.56967286  1
  O  O20  1  0.30139906  0.89961002  0.60070311  1
  O  O21  1  0.37806045  0.07735829  0.70842208  1
  O  O22  1  0.28893057  0.56967286  0.32270727  1
  O  O23  1  0.30139906  0.60070311  0.89961002  1
  O  O24  1  0.01419838  0.42679742  0.84940124  1
  O  O25  1  0.37806045  0.70842208  0.07735829  1
  O  O26  1  0.60245615  0.15718810  0.15718810  1
  O  O27  1  0.69860094  0.39929689  0.10038998  1
  O  O28  1  0.71106943  0.43032714  0.67729273  1
  O  O29  1  0.62193955  0.92264171  0.29157792  1
  O  O30  1  1.00000000  0.21543045  0.78456955  1
  O  O31  1  0.24285716  0.08760636  0.34327590  1
  O  O32  1  0.75714284  0.91239364  0.65672410  1
  O  O33  1  0.39754385  0.84281190  0.84281190  1
  O  O34  1  0.62193955  0.29157792  0.92264171  1
  O  O35  1  0.24285716  0.34327590  0.08760636  1
