# generated using pymatgen
data_Fe6O5F7
_symmetry_space_group_name_H-M   'P 1'
_cell_length_a   7.25005270
_cell_length_b   5.69042979
_cell_length_c   5.70234926
_cell_angle_alpha   74.91739576
_cell_angle_beta   73.49080928
_cell_angle_gamma   73.41316934
_symmetry_Int_Tables_number   1
_chemical_formula_structural   Fe6O5F7
_chemical_formula_sum   'Fe6 O5 F7'
_cell_volume   212.02567048
_cell_formula_units_Z   1
loop_
 _symmetry_equiv_pos_site_id
 _symmetry_equiv_pos_as_xyz
  1  'x, y, z'
loop_
 _atom_site_type_symbol
 _atom_site_label
 _atom_site_symmetry_multiplicity
 _atom_site_fract_x
 _atom_site_fract_y
 _atom_site_fract_z
 _atom_site_occupancy
  Fe  Fe0  1  0.81853322  0.67081163  0.70025640  1
  Fe  Fe1  1  0.67138038  0.37402800  0.32628839  1
  Fe  Fe2  1  0.33069120  0.64594792  0.65006144  1
  Fe  Fe3  1  0.16538884  0.32714397  0.32833539  1
  Fe  Fe4  1  0.50770382  0.98871385  0.99809769  1
  Fe  Fe5  1  0.99975122  0.99331621  0.00334572  1
  O  O6  1  0.97296307  0.22261671  0.22455550  1
  O  O7  1  0.62455154  0.57586983  0.57372898  1
  O  O8  1  0.03852613  0.77323911  0.77208552  1
  O  O9  1  0.36462211  0.42528797  0.42843168  1
  O  O10  1  0.67091116  0.63354183  0.03233438  1
  F  F11  1  0.67240048  0.03874863  0.62132309  1
  F  F12  1  0.33269302  0.36282620  0.97090419  1
  F  F13  1  0.29624222  0.90003174  0.89490270  1
  F  F14  1  0.70495970  0.10374982  0.10294363  1
  F  F15  1  0.33044920  0.96868989  0.36972388  1
  F  F16  1  0.99898007  0.30298126  0.69601567  1
  F  F17  1  0.99925363  0.69245541  0.30666976  1
