# generated using pymatgen
data_Sm3Si2S8Br
_symmetry_space_group_name_H-M   'P 1'
_cell_length_a   7.65636660
_cell_length_b   8.75913982
_cell_length_c   10.88117185
_cell_angle_alpha   97.63391670
_cell_angle_beta   90.00000000
_cell_angle_gamma   115.91581950
_symmetry_Int_Tables_number   1
_chemical_formula_structural   Sm3Si2S8Br
_chemical_formula_sum   'Sm6 Si4 S16 Br2'
_cell_volume   649.14448867
_cell_formula_units_Z   2
loop_
 _symmetry_equiv_pos_site_id
 _symmetry_equiv_pos_as_xyz
  1  'x, y, z'
loop_
 _atom_site_type_symbol
 _atom_site_label
 _atom_site_symmetry_multiplicity
 _atom_site_fract_x
 _atom_site_fract_y
 _atom_site_fract_z
 _atom_site_occupancy
  Sm  Sm0  1  0.07462527  0.39766965  0.68313330  1
  Sm  Sm1  1  0.38141178  0.00000000  0.75000000  1
  Sm  Sm2  1  0.61858822  0.00000000  0.25000000  1
  Sm  Sm3  1  0.92537473  0.60233035  0.31686670  1
  Sm  Sm4  1  0.32304438  0.39766965  0.18313330  1
  Sm  Sm5  1  0.67695562  0.60233035  0.81686670  1
  Si  Si6  1  0.37640220  0.68235640  0.47257052  1
  Si  Si7  1  0.69404579  0.31764360  0.02742948  1
  Si  Si8  1  0.30595421  0.68235640  0.97257052  1
  Si  Si9  1  0.62359780  0.31764360  0.52742948  1
  S  S10  1  0.72846366  0.13311670  0.54231527  1
  S  S11  1  0.55277374  0.29365812  0.33469034  1
  S  S12  1  0.85337171  0.56737967  0.58657820  1
  S  S13  1  0.71400796  0.56737967  0.08657820  1
  S  S14  1  0.10360588  0.71168843  0.85606731  1
  S  S15  1  0.28599204  0.43262033  0.91342180  1
  S  S16  1  0.74088438  0.29365812  0.83469034  1
  S  S17  1  0.60808255  0.71168843  0.35606731  1
  S  S18  1  0.25911562  0.70634188  0.16530966  1
  S  S19  1  0.59534696  0.86688330  0.95768473  1
  S  S20  1  0.44722626  0.70634188  0.66530966  1
  S  S21  1  0.14662829  0.43262033  0.41342180  1
  S  S22  1  0.39191745  0.28831157  0.64393269  1
  S  S23  1  0.27153634  0.86688330  0.45768473  1
  S  S24  1  0.40465304  0.13311670  0.04231527  1
  S  S25  1  0.89639412  0.28831157  0.14393269  1
  Br  Br26  1  0.99370964  0.00000000  0.75000000  1
  Br  Br27  1  0.00629036  0.00000000  0.25000000  1
