# generated using pymatgen
data_Sm3RuO7
_symmetry_space_group_name_H-M   'P 1'
_cell_length_a   7.49696608
_cell_length_b   10.80074626
_cell_length_c   14.92838287
_cell_angle_alpha   90.00000000
_cell_angle_beta   90.00000000
_cell_angle_gamma   90.00000000
_symmetry_Int_Tables_number   1
_chemical_formula_structural   Sm3RuO7
_chemical_formula_sum   'Sm24 Ru8 O56'
_cell_volume   1208.79338367
_cell_formula_units_Z   8
loop_
 _symmetry_equiv_pos_site_id
 _symmetry_equiv_pos_as_xyz
  1  'x, y, z'
loop_
 _atom_site_type_symbol
 _atom_site_label
 _atom_site_symmetry_multiplicity
 _atom_site_fract_x
 _atom_site_fract_y
 _atom_site_fract_z
 _atom_site_occupancy
  Sm  Sm0  1  0.74918255  0.95215493  0.47080365  1
  Sm  Sm1  1  0.75507451  0.90870051  0.72117760  1
  Sm  Sm2  1  0.50421097  0.67245274  0.38955973  1
  Sm  Sm3  1  0.25081745  0.45215493  0.52919635  1
  Sm  Sm4  1  0.73428751  0.39731226  0.97588368  1
  Sm  Sm5  1  0.49596855  0.68855918  0.86042888  1
  Sm  Sm6  1  0.74277337  0.46335071  0.22550570  1
  Sm  Sm7  1  0.24492549  0.40870051  0.27882240  1
  Sm  Sm8  1  0.49578903  0.17245274  0.61044027  1
  Sm  Sm9  1  0.26571249  0.89731226  0.02411632  1
  Sm  Sm10  1  0.24277337  0.96335071  0.27449430  1
  Sm  Sm11  1  0.25722663  0.96335071  0.77449430  1
  Sm  Sm12  1  0.75722663  0.46335071  0.72550570  1
  Sm  Sm13  1  0.23428751  0.89731226  0.52411632  1
  Sm  Sm14  1  0.99578903  0.67245274  0.88955973  1
  Sm  Sm15  1  0.00421097  0.17245274  0.11044027  1
  Sm  Sm16  1  0.74492549  0.90870051  0.22117760  1
  Sm  Sm17  1  0.75081745  0.95215493  0.97080365  1
  Sm  Sm18  1  0.50403145  0.18855918  0.13957112  1
  Sm  Sm19  1  0.25507451  0.40870051  0.77882240  1
  Sm  Sm20  1  0.00403145  0.68855918  0.36042888  1
  Sm  Sm21  1  0.99596855  0.18855918  0.63957112  1
  Sm  Sm22  1  0.24918255  0.45215493  0.02919635  1
  Sm  Sm23  1  0.76571249  0.39731226  0.47588368  1
  Ru  Ru24  1  0.49834392  0.67935758  0.12638944  1
  Ru  Ru25  1  0.00165608  0.67935758  0.62638944  1
  Ru  Ru26  1  0.99869784  0.68142464  0.12478142  1
  Ru  Ru27  1  0.50130216  0.68142464  0.62478142  1
  Ru  Ru28  1  0.49869784  0.18142464  0.37521858  1
  Ru  Ru29  1  0.99834392  0.17935758  0.37361056  1
  Ru  Ru30  1  0.00130216  0.18142464  0.87521858  1
  Ru  Ru31  1  0.50165608  0.17935758  0.87361056  1
  O  O32  1  0.53379368  0.80894664  0.53197158  1
  O  O33  1  0.53569029  0.05633464  0.28055905  1
  O  O34  1  0.74932924  0.68797584  0.16825579  1
  O  O35  1  0.45076781  0.83034025  0.19141471  1
  O  O36  1  0.73511215  0.31145057  0.61836793  1
  O  O37  1  0.04347597  0.02408077  0.43832091  1
  O  O38  1  0.54161670  0.55450755  0.53178655  1
  O  O39  1  0.54347597  0.52408077  0.06167909  1
  O  O40  1  0.76488785  0.31145057  0.11836793  1
  O  O41  1  0.54923219  0.33034025  0.80858529  1
  O  O42  1  0.95076781  0.33034025  0.30858529  1
  O  O43  1  0.96345046  0.31049710  0.78017691  1
  O  O44  1  0.74900629  0.17243555  0.41756713  1
  O  O45  1  0.26365684  0.31335431  0.64357529  1
  O  O46  1  0.24072950  0.04923820  0.63152815  1
  O  O47  1  0.96430971  0.05633464  0.78055905  1
  O  O48  1  0.45838330  0.05450755  0.46821345  1
  O  O49  1  0.03654954  0.81049710  0.21982309  1
  O  O50  1  0.95652403  0.52408077  0.56167909  1
  O  O51  1  0.04092560  0.28228779  0.48402369  1
  O  O52  1  0.25927050  0.04923820  0.13152815  1
  O  O53  1  0.23407705  0.54663392  0.39427412  1
  O  O54  1  0.54092560  0.78228779  0.01597631  1
  O  O55  1  0.74072950  0.54923820  0.86847185  1
  O  O56  1  0.75927050  0.54923820  0.36847185  1
  O  O57  1  0.24900629  0.67243555  0.08243287  1
  O  O58  1  0.53995409  0.07478431  0.76398676  1
  O  O59  1  0.25067076  0.18797584  0.83174421  1
  O  O60  1  0.76592295  0.04663392  0.60572588  1
  O  O61  1  0.24932924  0.18797584  0.33174421  1
  O  O62  1  0.03995409  0.57478431  0.73601324  1
  O  O63  1  0.26488785  0.81145057  0.38163207  1
  O  O64  1  0.53654954  0.31049710  0.28017691  1
  O  O65  1  0.25099371  0.67243555  0.58243287  1
  O  O66  1  0.76365684  0.81335431  0.85642471  1
  O  O67  1  0.04161670  0.05450755  0.96821345  1
  O  O68  1  0.46620632  0.30894664  0.46802842  1
  O  O69  1  0.96620632  0.80894664  0.03197158  1
  O  O70  1  0.75067076  0.68797584  0.66825579  1
  O  O71  1  0.46345046  0.81049710  0.71982309  1
  O  O72  1  0.03569029  0.55633464  0.21944095  1
  O  O73  1  0.45907440  0.28228779  0.98402369  1
  O  O74  1  0.45652403  0.02408077  0.93832091  1
  O  O75  1  0.75099371  0.17243555  0.91756713  1
  O  O76  1  0.73407705  0.04663392  0.10572588  1
  O  O77  1  0.23634316  0.31335431  0.14357529  1
  O  O78  1  0.46004591  0.57478431  0.23601324  1
  O  O79  1  0.95907440  0.78228779  0.51597631  1
  O  O80  1  0.26592295  0.54663392  0.89427412  1
  O  O81  1  0.46430971  0.55633464  0.71944095  1
  O  O82  1  0.03379368  0.30894664  0.96802842  1
  O  O83  1  0.95838330  0.55450755  0.03178655  1
  O  O84  1  0.96004591  0.07478431  0.26398676  1
  O  O85  1  0.23511215  0.81145057  0.88163207  1
  O  O86  1  0.04923219  0.83034025  0.69141471  1
  O  O87  1  0.73634316  0.81335431  0.35642471  1
