# generated using pymatgen
data_Na4Ti5O12
_symmetry_space_group_name_H-M   'P 1'
_cell_length_a   5.37207226
_cell_length_b   5.37207227
_cell_length_c   9.65302954
_cell_angle_alpha   90.00000000
_cell_angle_beta   90.00000000
_cell_angle_gamma   119.99999749
_symmetry_Int_Tables_number   1
_chemical_formula_structural   Na4Ti5O12
_chemical_formula_sum   'Na4 Ti5 O12'
_cell_volume   241.25591525
_cell_formula_units_Z   1
loop_
 _symmetry_equiv_pos_site_id
 _symmetry_equiv_pos_as_xyz
  1  'x, y, z'
loop_
 _atom_site_type_symbol
 _atom_site_label
 _atom_site_symmetry_multiplicity
 _atom_site_fract_x
 _atom_site_fract_y
 _atom_site_fract_z
 _atom_site_occupancy
  Na  Na0  1  0.66666700  0.33333400  0.39100821  1
  Na  Na1  1  0.33333300  0.66666600  0.59041131  1
  Na  Na2  1  0.00000000  0.00000000  0.80240091  1
  Na  Na3  1  -0.00000000  -0.00000000  0.17769339  1
  Ti  Ti4  1  0.33333300  0.66666600  0.96369190  1
  Ti  Ti5  1  -0.00000000  0.00000000  0.49116018  1
  Ti  Ti6  1  0.33333300  0.66666600  0.27411995  1
  Ti  Ti7  1  0.66666700  0.33333400  0.02031189  1
  Ti  Ti8  1  0.66666700  0.33333400  0.70898758  1
  O  O9  1  0.42954362  0.01580082  0.87039907  1
  O  O10  1  0.58625820  0.57045638  0.87039907  1
  O  O11  1  0.98419918  0.41374180  0.87039907  1
  O  O12  1  0.76765581  0.10030357  0.61294653  1
  O  O13  1  0.89969643  0.66735224  0.61294653  1
  O  O14  1  0.01556302  0.58352735  0.11465784  1
  O  O15  1  0.66758271  0.76867241  0.37073412  1
  O  O16  1  0.10108970  0.33241729  0.37073412  1
  O  O17  1  0.56796434  0.98443698  0.11465784  1
  O  O18  1  0.33264776  0.23234419  0.61294653  1
  O  O19  1  0.41647265  0.43203566  0.11465784  1
  O  O20  1  0.23132759  0.89891030  0.37073412  1
