# generated using pymatgen
data_RbCO2
_symmetry_space_group_name_H-M   'P 1'
_cell_length_a   6.47876929
_cell_length_b   8.34540706
_cell_length_c   10.65006215
_cell_angle_alpha   90.00000000
_cell_angle_beta   90.00000000
_cell_angle_gamma   97.66291770
_symmetry_Int_Tables_number   1
_chemical_formula_structural   RbCO2
_chemical_formula_sum   'Rb8 C8 O16'
_cell_volume   570.68490429
_cell_formula_units_Z   8
loop_
 _symmetry_equiv_pos_site_id
 _symmetry_equiv_pos_as_xyz
  1  'x, y, z'
loop_
 _atom_site_type_symbol
 _atom_site_label
 _atom_site_symmetry_multiplicity
 _atom_site_fract_x
 _atom_site_fract_y
 _atom_site_fract_z
 _atom_site_occupancy
  Rb  Rb0  1  0.23073449  0.33406498  0.58413365  1
  Rb  Rb1  1  0.71641303  0.01995716  0.70539631  1
  Rb  Rb2  1  0.23073449  0.83406498  0.91586635  1
  Rb  Rb3  1  0.76926551  0.16593502  0.08413365  1
  Rb  Rb4  1  0.28358697  0.48004284  0.20539631  1
  Rb  Rb5  1  0.76926551  0.66593502  0.41586635  1
  Rb  Rb6  1  0.28358697  0.98004284  0.29460369  1
  Rb  Rb7  1  0.71641303  0.51995716  0.79460369  1
  C  C8  1  0.83307162  0.65847811  0.10656969  1
  C  C9  1  0.68703972  0.27290621  0.44539204  1
  C  C10  1  0.31296028  0.72709379  0.55460796  1
  C  C11  1  0.16692838  0.84152189  0.60656969  1
  C  C12  1  0.16692838  0.34152189  0.89343031  1
  C  C13  1  0.31296028  0.22709379  0.94539204  1
  C  C14  1  0.68703972  0.77290621  0.05460796  1
  C  C15  1  0.83307162  0.15847811  0.39343031  1
  O  O16  1  0.27534114  0.67029490  0.44430341  1
  O  O17  1  0.72465886  0.32970510  0.55569659  1
  O  O18  1  0.54056002  0.80477539  0.12621282  1
  O  O19  1  0.00170913  0.72596043  0.15647753  1
  O  O20  1  0.54056002  0.30477539  0.37378718  1
  O  O21  1  0.77437201  0.50758836  0.09767096  1
  O  O22  1  0.00170913  0.22596043  0.34352247  1
  O  O23  1  0.99829087  0.27403957  0.84352247  1
  O  O24  1  0.22562799  0.99241164  0.59767096  1
  O  O25  1  0.22562799  0.49241164  0.90232904  1
  O  O26  1  0.45943998  0.69522461  0.62621282  1
  O  O27  1  0.99829087  0.77403957  0.65647753  1
  O  O28  1  0.45943998  0.19522461  0.87378718  1
  O  O29  1  0.72465886  0.82970510  0.94430341  1
  O  O30  1  0.27534114  0.17029490  0.05569659  1
  O  O31  1  0.77437201  0.00758836  0.40232904  1
