# generated using pymatgen
data_K4AsH5S3O16
_symmetry_space_group_name_H-M   'P 1'
_cell_length_a   9.03189728
_cell_length_b   10.31274871
_cell_length_c   10.94105332
_cell_angle_alpha   72.55112359
_cell_angle_beta   66.75677966
_cell_angle_gamma   65.27875074
_symmetry_Int_Tables_number   1
_chemical_formula_structural   K4AsH5S3O16
_chemical_formula_sum   'K8 As2 H10 S6 O32'
_cell_volume   839.39282108
_cell_formula_units_Z   2
loop_
 _symmetry_equiv_pos_site_id
 _symmetry_equiv_pos_as_xyz
  1  'x, y, z'
loop_
 _atom_site_type_symbol
 _atom_site_label
 _atom_site_symmetry_multiplicity
 _atom_site_fract_x
 _atom_site_fract_y
 _atom_site_fract_z
 _atom_site_occupancy
  K  K0  1  0.73258572  0.02159096  0.98924147  1
  K  K1  1  0.76773083  0.92900766  0.40450107  1
  K  K2  1  0.78272210  0.45460737  0.49569475  1
  K  K3  1  0.21727790  0.54539263  0.50430525  1
  K  K4  1  0.75515354  0.57228517  0.10084077  1
  K  K5  1  0.26741428  0.97840904  0.01075853  1
  K  K6  1  0.23226917  0.07099234  0.59549893  1
  K  K7  1  0.24484646  0.42771483  0.89915923  1
  As  As8  1  0.47150265  0.31729754  0.22058504  1
  As  As9  1  0.52849735  0.68270246  0.77941496  1
  H  H10  1  0.67160944  0.76084624  0.86854749  1
  H  H11  1  0.80977995  0.09068637  0.64790335  1
  H  H12  1  0.74261155  0.23810563  0.24528661  1
  H  H13  1  0.32244841  0.61350197  0.14432538  1
  H  H14  1  0.32839056  0.23915376  0.13145251  1
  H  H15  1  0.19022005  0.90931363  0.35209665  1
  H  H16  1  0.67755159  0.38649803  0.85567462  1
  H  H17  1  0.25738845  0.76189437  0.75471339  1
  H  H18  1  0.21787385  0.27445855  0.36221892  1
  H  H19  1  0.78212615  0.72554145  0.63778108  1
  S  S20  1  0.03594648  0.19602320  0.27051467  1
  S  S21  1  0.96405352  0.80397680  0.72948533  1
  S  S22  1  0.46815262  0.82120441  0.31645497  1
  S  S23  1  0.95635938  0.31441518  0.81456619  1
  S  S24  1  0.04364062  0.68558482  0.18543381  1
  S  S25  1  0.53184738  0.17879559  0.68354503  1
  O  O26  1  0.66658589  0.19086868  0.23763439  1
  O  O27  1  0.55655080  0.74294703  0.89874835  1
  O  O28  1  0.13720557  0.70220209  0.73717756  1
  O  O29  1  0.05060595  0.57157435  0.12673457  1
  O  O30  1  0.72350839  0.18323058  0.61599154  1
  O  O31  1  0.42857367  0.32756620  0.64185457  1
  O  O32  1  0.52550902  0.51406511  0.81751076  1
  O  O33  1  0.92910482  0.77369265  0.62003039  1
  O  O34  1  0.33341411  0.80913132  0.76236561  1
  O  O35  1  0.92751067  0.82976266  0.14777645  1
  O  O36  1  0.47479012  0.93035718  0.37280979  1
  O  O37  1  0.57142633  0.67243380  0.35814543  1
  O  O38  1  0.22708318  0.70500047  0.11833889  1
  O  O39  1  0.83052955  0.78176906  0.86131044  1
  O  O40  1  0.07248933  0.17023734  0.85222355  1
  O  O41  1  0.16947045  0.21823094  0.13868956  1
  O  O42  1  0.98644783  0.35433161  0.66769456  1
  O  O43  1  0.52520988  0.06964282  0.62719021  1
  O  O44  1  0.01355217  0.64566839  0.33230544  1
  O  O45  1  0.68806379  0.70264472  0.62629378  1
  O  O46  1  0.47449098  0.48593489  0.18248924  1
  O  O47  1  0.94939405  0.42842565  0.87326543  1
  O  O48  1  0.44344920  0.25705297  0.10125165  1
  O  O49  1  0.95993413  0.95586979  0.70095333  1
  O  O50  1  0.27649161  0.81676942  0.38400846  1
  O  O51  1  0.50002349  0.14122318  0.83053952  1
  O  O52  1  0.49997651  0.85877682  0.16946048  1
  O  O53  1  0.07089518  0.22630735  0.37996961  1
  O  O54  1  0.31193621  0.29735528  0.37370622  1
  O  O55  1  0.86279443  0.29779791  0.26282244  1
  O  O56  1  0.04006587  0.04413021  0.29904667  1
  O  O57  1  0.77291682  0.29499953  0.88166111  1
