# generated using pymatgen
data_LiLa2S2O8F3
_symmetry_space_group_name_H-M   'P 1'
_cell_length_a   7.02154994
_cell_length_b   8.33305655
_cell_length_c   8.66106124
_cell_angle_alpha   114.27457513
_cell_angle_beta   113.91316266
_cell_angle_gamma   90.00000101
_symmetry_Int_Tables_number   1
_chemical_formula_structural   LiLa2S2O8F3
_chemical_formula_sum   'Li2 La4 S4 O16 F6'
_cell_volume   413.77736270
_cell_formula_units_Z   2
loop_
 _symmetry_equiv_pos_site_id
 _symmetry_equiv_pos_as_xyz
  1  'x, y, z'
loop_
 _atom_site_type_symbol
 _atom_site_label
 _atom_site_symmetry_multiplicity
 _atom_site_fract_x
 _atom_site_fract_y
 _atom_site_fract_z
 _atom_site_occupancy
  Li  Li0  1  0.40699733  0.25000000  1.00000000  1
  Li  Li1  1  0.59300267  0.75000000  0.00000000  1
  La  La2  1  0.21339787  0.96573616  0.24009613  1
  La  La3  1  0.02669826  0.46573616  0.24009613  1
  La  La4  1  0.97330174  0.53426384  0.75990387  1
  La  La5  1  0.78660213  0.03426384  0.75990387  1
  S  S6  1  0.75813852  0.15525430  0.34719116  1
  S  S7  1  0.24186148  0.84474570  0.65280884  1
  S  S8  1  0.58905263  0.65525430  0.34719116  1
  S  S9  1  0.41094737  0.34474570  0.65280884  1
  O  O10  1  0.81841050  0.17011517  0.53906056  1
  O  O11  1  0.72065006  0.67011517  0.53906056  1
  O  O12  1  0.39592357  0.51096350  0.24094520  1
  O  O13  1  0.60407643  0.48903650  0.75905480  1
  O  O14  1  0.84502163  0.01096350  0.24094520  1
  O  O15  1  0.28982898  0.38022960  0.76571013  1
  O  O16  1  0.15497837  0.98903650  0.75905480  1
  O  O17  1  0.52411885  0.11977040  0.23428987  1
  O  O18  1  0.71017102  0.61977040  0.23428987  1
  O  O19  1  0.85162330  0.33733702  0.38529285  1
  O  O20  1  0.53366955  0.83733702  0.38529285  1
  O  O21  1  0.18158950  0.82988483  0.46093944  1
  O  O22  1  0.46633045  0.16266298  0.61470715  1
  O  O23  1  0.27934994  0.32988483  0.46093944  1
  O  O24  1  0.47588115  0.88022960  0.76571013  1
  O  O25  1  0.14837670  0.66266298  0.61470715  1
  F  F26  1  0.99437936  0.33570775  0.90513845  1
  F  F27  1  0.91075909  0.83570775  0.90513845  1
  F  F28  1  0.00562064  0.66429225  0.09486155  1
  F  F29  1  0.08924091  0.16429225  0.09486155  1
  F  F30  1  0.69373212  0.25000000  0.00000000  1
  F  F31  1  0.30626788  0.75000000  1.00000000  1
