# generated using pymatgen
data_InTeClO3
_symmetry_space_group_name_H-M   'P 1'
_cell_length_a   7.03173270
_cell_length_b   7.19600260
_cell_length_c   8.64328565
_cell_angle_alpha   102.76299292
_cell_angle_beta   90.00000000
_cell_angle_gamma   90.00000000
_symmetry_Int_Tables_number   1
_chemical_formula_structural   InTeClO3
_chemical_formula_sum   'In4 Te4 Cl4 O12'
_cell_volume   426.54740423
_cell_formula_units_Z   4
loop_
 _symmetry_equiv_pos_site_id
 _symmetry_equiv_pos_as_xyz
  1  'x, y, z'
loop_
 _atom_site_type_symbol
 _atom_site_label
 _atom_site_symmetry_multiplicity
 _atom_site_fract_x
 _atom_site_fract_y
 _atom_site_fract_z
 _atom_site_occupancy
  In  In0  1  0.24999220  0.20299227  0.32287591  1
  In  In1  1  0.75000780  0.79700773  0.67712409  1
  In  In2  1  0.74999220  0.29700773  0.67712409  1
  In  In3  1  0.25000780  0.70299227  0.32287591  1
  Te  Te4  1  0.27424357  0.05325210  0.69967366  1
  Te  Te5  1  0.77424357  0.44674790  0.30032634  1
  Te  Te6  1  0.22575643  0.55325210  0.69967366  1
  Te  Te7  1  0.72575643  0.94674790  0.30032634  1
  Cl  Cl8  1  0.29299167  0.39388414  0.10261189  1
  Cl  Cl9  1  0.70700833  0.60611586  0.89738811  1
  Cl  Cl10  1  0.20700833  0.89388414  0.10261189  1
  Cl  Cl11  1  0.79299167  0.10611586  0.89738811  1
  O  O12  1  0.22223773  0.99262602  0.47234230  1
  O  O13  1  0.55354753  0.74382817  0.31528791  1
  O  O14  1  0.94645247  0.24382817  0.31528791  1
  O  O15  1  0.44666548  0.84306486  0.68741416  1
  O  O16  1  0.05333452  0.34306486  0.68741416  1
  O  O17  1  0.94666548  0.65693514  0.31258584  1
  O  O18  1  0.55333452  0.15693514  0.31258584  1
  O  O19  1  0.44645247  0.25617183  0.68471209  1
  O  O20  1  0.27776227  0.49262602  0.47234230  1
  O  O21  1  0.77776227  0.00737398  0.52765770  1
  O  O22  1  0.72223773  0.50737398  0.52765770  1
  O  O23  1  0.05354753  0.75617183  0.68471209  1
