# generated using pymatgen
data_Zn3(PO4)2
_symmetry_space_group_name_H-M   'P 1'
_cell_length_a   5.03684260
_cell_length_b   5.03637817
_cell_length_c   15.28877793
_cell_angle_alpha   95.22457599
_cell_angle_beta   96.75693523
_cell_angle_gamma   111.48888386
_symmetry_Int_Tables_number   1
_chemical_formula_structural   Zn3(PO4)2
_chemical_formula_sum   'Zn6 P4 O16'
_cell_volume   354.57412566
_cell_formula_units_Z   2
loop_
 _symmetry_equiv_pos_site_id
 _symmetry_equiv_pos_as_xyz
  1  'x, y, z'
loop_
 _atom_site_type_symbol
 _atom_site_label
 _atom_site_symmetry_multiplicity
 _atom_site_fract_x
 _atom_site_fract_y
 _atom_site_fract_z
 _atom_site_occupancy
  Zn  Zn0  1  0.34212128  0.82898833  0.06702748  1
  Zn  Zn1  1  1.00190638  0.75207241  0.24999414  1
  Zn  Zn2  1  0.73821115  0.72485978  0.56699097  1
  Zn  Zn3  1  0.26178885  0.27514022  0.43300903  1
  Zn  Zn4  1  -0.00190638  0.24792759  0.75000586  1
  Zn  Zn5  1  0.65787872  0.17101167  0.93297252  1
  P  P6  1  0.60529407  0.90494724  0.37207542  1
  P  P7  1  0.39470593  0.09505276  0.62792458  1
  P  P8  1  0.03273827  0.23338688  0.12793088  1
  P  P9  1  0.96726173  0.76661312  0.87206912  1
  O  O10  1  0.87964844  0.02961894  0.85329688  1
  O  O11  1  0.00715472  0.63064282  0.78360733  1
  O  O12  1  0.73784945  0.56715419  0.91982738  1
  O  O13  1  0.32355084  0.97389821  0.35324119  1
  O  O14  1  0.12035156  0.97038106  0.14670312  1
  O  O15  1  0.65284358  0.77658439  0.28360343  1
  O  O16  1  0.67644916  0.02610179  0.64675881  1
  O  O17  1  0.26215055  0.43284581  0.08017262  1
  O  O18  1  0.34715642  0.22341561  0.71639657  1
  O  O19  1  0.54516788  0.67637288  0.43870679  1
  O  O20  1  0.14749741  0.81790693  0.58017933  1
  O  O21  1  0.45483212  0.32362712  0.56129321  1
  O  O22  1  0.26245047  0.89319105  0.93869546  1
  O  O23  1  0.85250259  0.18209307  0.41982067  1
  O  O24  1  0.73754953  0.10680895  0.06130454  1
  O  O25  1  0.99284528  0.36935718  0.21639267  1
