# generated using pymatgen
data_KNd(CO3)2
_symmetry_space_group_name_H-M   'P 1'
_cell_length_a   6.55326219
_cell_length_b   8.68716140
_cell_length_c   9.83339399
_cell_angle_alpha   90.00000000
_cell_angle_beta   90.00000000
_cell_angle_gamma   90.00000000
_symmetry_Int_Tables_number   1
_chemical_formula_structural   KNd(CO3)2
_chemical_formula_sum   'K4 Nd4 C8 O24'
_cell_volume   559.80770883
_cell_formula_units_Z   4
loop_
 _symmetry_equiv_pos_site_id
 _symmetry_equiv_pos_as_xyz
  1  'x, y, z'
loop_
 _atom_site_type_symbol
 _atom_site_label
 _atom_site_symmetry_multiplicity
 _atom_site_fract_x
 _atom_site_fract_y
 _atom_site_fract_z
 _atom_site_occupancy
  K  K0  1  0.46619361  0.69261957  0.24134705  1
  K  K1  1  0.46619361  0.69261957  0.75865295  1
  K  K2  1  0.53380639  0.19261957  0.25865295  1
  K  K3  1  0.53380639  0.19261957  0.74134705  1
  Nd  Nd4  1  0.96760262  0.95186450  0.00000000  1
  Nd  Nd5  1  0.03399884  0.45411113  0.00000000  1
  Nd  Nd6  1  0.03239738  0.45186450  0.50000000  1
  Nd  Nd7  1  0.96600116  0.95411113  0.50000000  1
  C  C8  1  0.96706132  0.75965822  0.75020894  1
  C  C9  1  0.03293868  0.25965822  0.74979106  1
  C  C10  1  0.47522885  0.44386608  0.50000000  1
  C  C11  1  0.03293868  0.25965822  0.25020894  1
  C  C12  1  0.40904135  0.95645617  0.50000000  1
  C  C13  1  0.96706132  0.75965822  0.24979106  1
  C  C14  1  0.59095865  0.45645617  0.00000000  1
  C  C15  1  0.52477115  0.94386608  0.00000000  1
  O  O16  1  0.39426581  0.46780809  0.00000000  1
  O  O17  1  0.36902971  0.31691754  0.50000000  1
  O  O18  1  0.32843834  0.94024426  0.00000000  1
  O  O19  1  0.02503556  0.19349851  0.13309552  1
  O  O20  1  0.03802073  0.70141632  0.86176807  1
  O  O21  1  0.88929760  0.89820745  0.75439572  1
  O  O22  1  0.97496444  0.69349851  0.36690448  1
  O  O23  1  0.60573419  0.96780809  0.50000000  1
  O  O24  1  0.69302315  0.45190467  0.88624580  1
  O  O25  1  0.11070240  0.39820745  0.74560428  1
  O  O26  1  0.96197927  0.20141632  0.63823193  1
  O  O27  1  0.63097029  0.81691754  0.00000000  1
  O  O28  1  0.11070240  0.39820745  0.25439572  1
  O  O29  1  0.96197927  0.20141632  0.36176807  1
  O  O30  1  0.62413395  0.07432275  0.00000000  1
  O  O31  1  0.88929760  0.89820745  0.24560428  1
  O  O32  1  0.69302315  0.45190467  0.11375420  1
  O  O33  1  0.97496444  0.69349851  0.63309552  1
  O  O34  1  0.37586605  0.57432275  0.50000000  1
  O  O35  1  0.30697685  0.95190467  0.38624580  1
  O  O36  1  0.03802073  0.70141632  0.13823193  1
  O  O37  1  0.02503556  0.19349851  0.86690448  1
  O  O38  1  0.30697685  0.95190467  0.61375420  1
  O  O39  1  0.67156166  0.44024426  0.50000000  1
