# generated using pymatgen
data_SrCu(TeO3)2
_symmetry_space_group_name_H-M   'P 1'
_cell_length_a   12.62958302
_cell_length_b   12.62958302
_cell_length_c   12.62958302
_cell_angle_alpha   90.00000000
_cell_angle_beta   90.00000000
_cell_angle_gamma   90.00000000
_symmetry_Int_Tables_number   1
_chemical_formula_structural   SrCu(TeO3)2
_chemical_formula_sum   'Sr12 Cu12 Te24 O72'
_cell_volume   2014.49890752
_cell_formula_units_Z   12
loop_
 _symmetry_equiv_pos_site_id
 _symmetry_equiv_pos_as_xyz
  1  'x, y, z'
loop_
 _atom_site_type_symbol
 _atom_site_label
 _atom_site_symmetry_multiplicity
 _atom_site_fract_x
 _atom_site_fract_y
 _atom_site_fract_z
 _atom_site_occupancy
  Sr  Sr0  1  0.69555828  0.69555828  0.69555828  1
  Sr  Sr1  1  0.80444172  0.30444172  0.19555828  1
  Sr  Sr2  1  0.44555828  0.94555828  0.55444172  1
  Sr  Sr3  1  0.94555828  0.55444172  0.44555828  1
  Sr  Sr4  1  0.55444172  0.44555828  0.94555828  1
  Sr  Sr5  1  0.12500000  0.37500000  0.62500000  1
  Sr  Sr6  1  0.05444172  0.05444172  0.05444172  1
  Sr  Sr7  1  0.30444172  0.19555828  0.80444172  1
  Sr  Sr8  1  0.37500000  0.62500000  0.12500000  1
  Sr  Sr9  1  0.62500000  0.12500000  0.37500000  1
  Sr  Sr10  1  0.87500000  0.87500000  0.87500000  1
  Sr  Sr11  1  0.19555828  0.80444172  0.30444172  1
  Cu  Cu12  1  0.77411740  0.02411740  0.12500000  1
  Cu  Cu13  1  0.52411740  0.37500000  0.22588260  1
  Cu  Cu14  1  0.47588260  0.87500000  0.27411740  1
  Cu  Cu15  1  0.02411740  0.12500000  0.77411740  1
  Cu  Cu16  1  0.97588260  0.62500000  0.72588260  1
  Cu  Cu17  1  0.27411740  0.47588260  0.87500000  1
  Cu  Cu18  1  0.37500000  0.22588260  0.52411740  1
  Cu  Cu19  1  0.62500000  0.72588260  0.97588260  1
  Cu  Cu20  1  0.22588260  0.52411740  0.37500000  1
  Cu  Cu21  1  0.72588260  0.97588260  0.62500000  1
  Cu  Cu22  1  0.12500000  0.77411740  0.02411740  1
  Cu  Cu23  1  0.87500000  0.27411740  0.47588260  1
  Te  Te24  1  0.57913220  0.93939810  0.83748101  1
  Te  Te25  1  0.93939810  0.83748101  0.57913220  1
  Te  Te26  1  0.58748101  0.18939810  0.67086780  1
  Te  Te27  1  0.56060190  0.16251899  0.07913220  1
  Te  Te28  1  0.82913220  0.41251899  0.68939810  1
  Te  Te29  1  0.83748101  0.57913220  0.93939810  1
  Te  Te30  1  0.07913220  0.56060190  0.16251899  1
  Te  Te31  1  0.91251899  0.81060190  0.17086780  1
  Te  Te32  1  0.67086780  0.58748101  0.18939810  1
  Te  Te33  1  0.42086780  0.43939810  0.66251899  1
  Te  Te34  1  0.41251899  0.68939810  0.82913220  1
  Te  Te35  1  0.43939810  0.66251899  0.42086780  1
  Te  Te36  1  0.92086780  0.06060190  0.33748101  1
  Te  Te37  1  0.06060190  0.33748101  0.92086780  1
  Te  Te38  1  0.68939810  0.82913220  0.41251899  1
  Te  Te39  1  0.31060190  0.32913220  0.08748101  1
  Te  Te40  1  0.16251899  0.07913220  0.56060190  1
  Te  Te41  1  0.33748101  0.92086780  0.06060190  1
  Te  Te42  1  0.81060190  0.17086780  0.91251899  1
  Te  Te43  1  0.66251899  0.42086780  0.43939810  1
  Te  Te44  1  0.18939810  0.67086780  0.58748101  1
  Te  Te45  1  0.17086780  0.91251899  0.81060190  1
  Te  Te46  1  0.32913220  0.08748101  0.31060190  1
  Te  Te47  1  0.08748101  0.31060190  0.32913220  1
  O  O48  1  0.77223733  0.93685459  0.48415440  1
  O  O49  1  0.37836098  0.57790534  0.92929609  1
  O  O50  1  0.13111193  0.22128025  0.98021695  1
  O  O51  1  0.62163902  0.07790534  0.57070391  1
  O  O52  1  0.81314541  0.97776267  0.26584560  1
  O  O53  1  0.87163902  0.67929609  0.82790534  1
  O  O54  1  0.92929609  0.37836098  0.57790534  1
  O  O55  1  0.36888807  0.77871975  0.48021695  1
  O  O56  1  0.92209466  0.07070391  0.87836098  1
  O  O57  1  0.42929609  0.12163902  0.42209466  1
  O  O58  1  0.76978305  0.52871975  0.61888807  1
  O  O59  1  0.73415440  0.31314541  0.52223733  1
  O  O60  1  0.11888807  0.73021695  0.47128025  1
  O  O61  1  0.26584560  0.81314541  0.97776267  1
  O  O62  1  0.52871975  0.61888807  0.76978305  1
  O  O63  1  0.86888807  0.72128025  0.51978305  1
  O  O64  1  0.38111193  0.26978305  0.97128025  1
  O  O65  1  0.93685459  0.48415440  0.77223733  1
  O  O66  1  0.18685459  0.47776267  0.23415440  1
  O  O67  1  0.27871975  0.01978305  0.63111193  1
  O  O68  1  0.97776267  0.26584560  0.81314541  1
  O  O69  1  0.73021695  0.47128025  0.11888807  1
  O  O70  1  0.57790534  0.92929609  0.37836098  1
  O  O71  1  0.42209466  0.42929609  0.12163902  1
  O  O72  1  0.23415440  0.18685459  0.47776267  1
  O  O73  1  0.37163902  0.82070391  0.17209466  1
  O  O74  1  0.56314541  0.51584560  0.27223733  1
  O  O75  1  0.23021695  0.02871975  0.88111193  1
  O  O76  1  0.06314541  0.98415440  0.72776267  1
  O  O77  1  0.17209466  0.37163902  0.82070391  1
  O  O78  1  0.02223733  0.76584560  0.68685459  1
  O  O79  1  0.12163902  0.42209466  0.42929609  1
  O  O80  1  0.22128025  0.98021695  0.13111193  1
  O  O81  1  0.27223733  0.56314541  0.51584560  1
  O  O82  1  0.72128025  0.51978305  0.86888807  1
  O  O83  1  0.26978305  0.97128025  0.38111193  1
  O  O84  1  0.77871975  0.48021695  0.36888807  1
  O  O85  1  0.07070391  0.87836098  0.92209466  1
  O  O86  1  0.01978305  0.63111193  0.27871975  1
  O  O87  1  0.31314541  0.52223733  0.73415440  1
  O  O88  1  0.98021695  0.13111193  0.22128025  1
  O  O89  1  0.02871975  0.88111193  0.23021695  1
  O  O90  1  0.17929609  0.67209466  0.12836098  1
  O  O91  1  0.72776267  0.06314541  0.98415440  1
  O  O92  1  0.43685459  0.01584560  0.22776267  1
  O  O93  1  0.68685459  0.02223733  0.76584560  1
  O  O94  1  0.52223733  0.73415440  0.31314541  1
  O  O95  1  0.61888807  0.76978305  0.52871975  1
  O  O96  1  0.22776267  0.43685459  0.01584560  1
  O  O97  1  0.32790534  0.62836098  0.32070391  1
  O  O98  1  0.01584560  0.22776267  0.43685459  1
  O  O99  1  0.32070391  0.32790534  0.62836098  1
  O  O100  1  0.07790534  0.57070391  0.62163902  1
  O  O101  1  0.47776267  0.23415440  0.18685459  1
  O  O102  1  0.63111193  0.27871975  0.01978305  1
  O  O103  1  0.82070391  0.17209466  0.37163902  1
  O  O104  1  0.67209466  0.12836098  0.17929609  1
  O  O105  1  0.62836098  0.32070391  0.32790534  1
  O  O106  1  0.51978305  0.86888807  0.72128025  1
  O  O107  1  0.57070391  0.62163902  0.07790534  1
  O  O108  1  0.47128025  0.11888807  0.73021695  1
  O  O109  1  0.97128025  0.38111193  0.26978305  1
  O  O110  1  0.67929609  0.82790534  0.87163902  1
  O  O111  1  0.98415440  0.72776267  0.06314541  1
  O  O112  1  0.87836098  0.92209466  0.07070391  1
  O  O113  1  0.88111193  0.23021695  0.02871975  1
  O  O114  1  0.82790534  0.87163902  0.67929609  1
  O  O115  1  0.51584560  0.27223733  0.56314541  1
  O  O116  1  0.48021695  0.36888807  0.77871975  1
  O  O117  1  0.12836098  0.17929609  0.67209466  1
  O  O118  1  0.48415440  0.77223733  0.93685459  1
  O  O119  1  0.76584560  0.68685459  0.02223733  1
