# generated using pymatgen
data_Li2MnF5
_symmetry_space_group_name_H-M   'P 1'
_cell_length_a   5.05484991
_cell_length_b   5.69933457
_cell_length_c   7.51524108
_cell_angle_alpha   109.76134061
_cell_angle_beta   90.00000000
_cell_angle_gamma   116.32483016
_symmetry_Int_Tables_number   1
_chemical_formula_structural   Li2MnF5
_chemical_formula_sum   'Li4 Mn2 F10'
_cell_volume   179.71915425
_cell_formula_units_Z   2
loop_
 _symmetry_equiv_pos_site_id
 _symmetry_equiv_pos_as_xyz
  1  'x, y, z'
loop_
 _atom_site_type_symbol
 _atom_site_label
 _atom_site_symmetry_multiplicity
 _atom_site_fract_x
 _atom_site_fract_y
 _atom_site_fract_z
 _atom_site_occupancy
  Li  Li0  1  0.62887553  0.27183721  0.24549147  1
  Li  Li1  1  0.64296168  0.27183721  0.74549147  1
  Li  Li2  1  0.37112447  0.72816279  0.75450853  1
  Li  Li3  1  0.35703832  0.72816279  0.25450853  1
  Mn  Mn4  1  0.00000000  0.00000000  0.50000000  1
  Mn  Mn5  1  0.00000000  0.00000000  0.00000000  1
  F  F6  1  0.21550114  0.00000000  0.75000000  1
  F  F7  1  0.78449886  0.00000000  0.25000000  1
  F  F8  1  0.77669095  0.17261161  0.95526703  1
  F  F9  1  0.60407934  0.82738839  0.54473297  1
  F  F10  1  0.22330905  0.82738839  0.04473297  1
  F  F11  1  0.39592066  0.17261161  0.45526703  1
  F  F12  1  0.32849785  0.35549522  0.14764561  1
  F  F13  1  0.97300263  0.64450478  0.35235439  1
  F  F14  1  0.67150215  0.64450478  0.85235439  1
  F  F15  1  0.02699737  0.35549522  0.64764561  1
