# generated using pymatgen
data_Fe4O3F5
_symmetry_space_group_name_H-M   'P 1'
_cell_length_a   4.73827726
_cell_length_b   10.67704718
_cell_length_c   5.64804645
_cell_angle_alpha   82.98773905
_cell_angle_beta   90.00000000
_cell_angle_gamma   90.00000000
_symmetry_Int_Tables_number   1
_chemical_formula_structural   Fe4O3F5
_chemical_formula_sum   'Fe8 O6 F10'
_cell_volume   283.60192848
_cell_formula_units_Z   2
loop_
 _symmetry_equiv_pos_site_id
 _symmetry_equiv_pos_as_xyz
  1  'x, y, z'
loop_
 _atom_site_type_symbol
 _atom_site_label
 _atom_site_symmetry_multiplicity
 _atom_site_fract_x
 _atom_site_fract_y
 _atom_site_fract_z
 _atom_site_occupancy
  Fe  Fe0  1  0.48090188  0.26526206  0.75610377  1
  Fe  Fe1  1  0.55004246  0.73491767  0.24192646  1
  Fe  Fe2  1  0.48605577  0.00207577  0.50378846  1
  Fe  Fe3  1  0.51764740  0.48808954  0.00371378  1
  Fe  Fe4  1  0.01909812  0.76526206  0.75610377  1
  Fe  Fe5  1  0.01394423  0.50207577  0.50378846  1
  Fe  Fe6  1  0.94995754  0.23491767  0.24192646  1
  Fe  Fe7  1  0.98235260  0.98808954  0.00371378  1
  O  O8  1  0.79317827  0.06757663  0.27234663  1
  O  O9  1  0.79384520  0.82961031  0.02992110  1
  O  O10  1  0.70682173  0.56757663  0.27234663  1
  O  O11  1  0.70615480  0.32961031  0.02992110  1
  O  O12  1  0.29186829  0.44170420  0.73106747  1
  O  O13  1  0.20813171  0.94170420  0.73106747  1
  F  F14  1  0.79995859  0.58247787  0.76152753  1
  F  F15  1  0.81767116  0.32289741  0.52475984  1
  F  F16  1  0.68232884  0.82289741  0.52475984  1
  F  F17  1  0.70004141  0.08247787  0.76152753  1
  F  F18  1  0.30137300  0.91814451  0.23559554  1
  F  F19  1  0.31070030  0.66844035  0.98313524  1
  F  F20  1  0.29862855  0.17880367  0.45611517  1
  F  F21  1  0.18929970  0.16844035  0.98313524  1
  F  F22  1  0.20137145  0.67880367  0.45611517  1
  F  F23  1  0.19862700  0.41814451  0.23559554  1
