# generated using pymatgen
data_RbInP2O7
_symmetry_space_group_name_H-M   'P 1'
_cell_length_a   7.64976407
_cell_length_b   8.64723038
_cell_length_c   10.57180731
_cell_angle_alpha   90.00000000
_cell_angle_beta   90.00000000
_cell_angle_gamma   105.43809118
_symmetry_Int_Tables_number   1
_chemical_formula_structural   RbInP2O7
_chemical_formula_sum   'Rb4 In4 P8 O28'
_cell_volume   674.08504207
_cell_formula_units_Z   4
loop_
 _symmetry_equiv_pos_site_id
 _symmetry_equiv_pos_as_xyz
  1  'x, y, z'
loop_
 _atom_site_type_symbol
 _atom_site_label
 _atom_site_symmetry_multiplicity
 _atom_site_fract_x
 _atom_site_fract_y
 _atom_site_fract_z
 _atom_site_occupancy
  Rb  Rb0  1  0.31395357  0.94813945  0.31530712  1
  Rb  Rb1  1  0.68604643  0.05186055  0.68469288  1
  Rb  Rb2  1  0.68604643  0.55186055  0.81530712  1
  Rb  Rb3  1  0.31395357  0.44813945  0.18469288  1
  In  In4  1  0.73657888  0.75654338  0.40011657  1
  In  In5  1  0.73657888  0.25654338  0.09988343  1
  In  In6  1  0.26342112  0.24345662  0.59988343  1
  In  In7  1  0.26342112  0.74345662  0.90011657  1
  P  P8  1  0.93763474  0.68731299  0.13596925  1
  P  P9  1  0.36790169  0.17464788  0.90325227  1
  P  P10  1  0.63209831  0.82535212  0.09674773  1
  P  P11  1  0.93763474  0.18731299  0.36403075  1
  P  P12  1  0.06236526  0.81268701  0.63596925  1
  P  P13  1  0.63209831  0.32535212  0.40325227  1
  P  P14  1  0.36790169  0.67464788  0.59674773  1
  P  P15  1  0.06236526  0.31268701  0.86403075  1
  O  O16  1  0.35831588  0.49865070  0.58768278  1
  O  O17  1  0.49190341  0.77799199  0.49654642  1
  O  O18  1  0.04640010  0.76931539  0.77744942  1
  O  O19  1  0.95359990  0.23068461  0.22255058  1
  O  O20  1  0.86986612  0.76881367  0.58101803  1
  O  O21  1  0.86986612  0.26881367  0.91898197  1
  O  O22  1  0.49190341  0.27799199  0.00345358  1
  O  O23  1  0.13013388  0.73118633  0.08101803  1
  O  O24  1  0.82489031  0.01842639  0.39520400  1
  O  O25  1  0.42349529  0.74527055  0.72920171  1
  O  O26  1  0.57650471  0.75472945  0.22920171  1
  O  O27  1  0.95359990  0.73068461  0.27744942  1
  O  O28  1  0.83513769  0.80770052  0.06639437  1
  O  O29  1  0.16486231  0.19229948  0.93360563  1
  O  O30  1  0.35831588  0.99865070  0.91231722  1
  O  O31  1  0.04640010  0.26931539  0.72255058  1
  O  O32  1  0.42349529  0.24527055  0.77079829  1
  O  O33  1  0.83513769  0.30770052  0.43360563  1
  O  O34  1  0.50809659  0.72200801  0.99654642  1
  O  O35  1  0.17510969  0.48157361  0.89520400  1
  O  O36  1  0.64168412  0.50134930  0.41231722  1
  O  O37  1  0.16486231  0.69229948  0.56639437  1
  O  O38  1  0.64168412  0.00134930  0.08768278  1
  O  O39  1  0.17510969  0.98157361  0.60479600  1
  O  O40  1  0.57650471  0.25472945  0.27079829  1
  O  O41  1  0.50809659  0.22200801  0.50345358  1
  O  O42  1  0.82489031  0.51842639  0.10479600  1
  O  O43  1  0.13013388  0.23118633  0.41898197  1
