# generated using pymatgen
data_K2LiBO3
_symmetry_space_group_name_H-M   'P 1'
_cell_length_a   5.39578261
_cell_length_b   5.39578210
_cell_length_c   7.43993716
_cell_angle_alpha   79.78317056
_cell_angle_beta   79.78317152
_cell_angle_gamma   69.68550021
_symmetry_Int_Tables_number   1
_chemical_formula_structural   K2LiBO3
_chemical_formula_sum   'K4 Li2 B2 O6'
_cell_volume   198.33619060
_cell_formula_units_Z   2
loop_
 _symmetry_equiv_pos_site_id
 _symmetry_equiv_pos_as_xyz
  1  'x, y, z'
loop_
 _atom_site_type_symbol
 _atom_site_label
 _atom_site_symmetry_multiplicity
 _atom_site_fract_x
 _atom_site_fract_y
 _atom_site_fract_z
 _atom_site_occupancy
  K  K0  1  0.84056577  0.50647580  0.32494027  1
  K  K1  1  0.16463093  0.83536907  0.50000000  1
  K  K2  1  0.99765255  0.00234745  1.00000000  1
  K  K3  1  0.49352420  0.15943423  0.67505973  1
  Li  Li4  1  0.26921080  0.45890445  0.96829502  1
  Li  Li5  1  0.54109555  0.73078920  0.03170498  1
  B  B6  1  0.49039993  0.21378437  0.21654980  1
  B  B7  1  0.78621563  0.50960007  0.78345020  1
  O  O8  1  0.37157372  0.49324778  0.21280276  1
  O  O9  1  0.50675222  0.62842628  0.78719724  1
  O  O10  1  0.67556739  0.06300342  0.33380790  1
  O  O11  1  0.90487311  0.57785840  0.91346970  1
  O  O12  1  0.42214160  0.09512689  0.08653030  1
  O  O13  1  0.93699658  0.32443261  0.66619210  1
