# generated using pymatgen
data_Dy3CuSiS7
_symmetry_space_group_name_H-M   'P 1'
_cell_length_a   9.88713374
_cell_length_b   9.88713365
_cell_length_c   5.70317130
_cell_angle_alpha   90.00000000
_cell_angle_beta   90.00000000
_cell_angle_gamma   120.00000034
_symmetry_Int_Tables_number   1
_chemical_formula_structural   Dy3CuSiS7
_chemical_formula_sum   'Dy6 Si2 Cu2 S14'
_cell_volume   482.82289959
_cell_formula_units_Z   2
loop_
 _symmetry_equiv_pos_site_id
 _symmetry_equiv_pos_as_xyz
  1  'x, y, z'
loop_
 _atom_site_type_symbol
 _atom_site_label
 _atom_site_symmetry_multiplicity
 _atom_site_fract_x
 _atom_site_fract_y
 _atom_site_fract_z
 _atom_site_occupancy
  Dy  Dy0  1  0.13076247  0.35732308  0.74556025  1
  Dy  Dy1  1  0.64267692  0.77343938  0.74556025  1
  Dy  Dy2  1  0.77343940  0.13076240  0.24555904  1
  Dy  Dy3  1  0.35732301  0.22656060  0.24555904  1
  Dy  Dy4  1  0.22656062  0.86923753  0.74556025  1
  Dy  Dy5  1  0.86923760  0.64267699  0.24555904  1
  Si  Si6  1  0.66666700  0.33333300  0.83407313  1
  Cu  Cu7  1  0.00000000  0.00000000  0.70151972  1
  Si  Si8  1  0.33333300  0.66666700  0.33407360  1
  Cu  Cu9  1  0.00000000  0.00000000  0.20144032  1
  S  S10  1  0.66666700  0.33333300  0.46340019  1
  S  S11  1  0.90413569  0.74154340  0.71856259  1
  S  S12  1  0.16259129  0.90413649  0.21856362  1
  S  S13  1  0.83740771  0.09586431  0.71856259  1
  S  S14  1  0.89420315  0.41781170  0.98332506  1
  S  S15  1  0.74154520  0.83740871  0.21856362  1
  S  S16  1  0.25845660  0.16259229  0.71856259  1
  S  S17  1  0.10579678  0.58218798  0.48332683  1
  S  S18  1  0.47639119  0.89420322  0.48332683  1
  S  S19  1  0.58218830  0.47639145  0.98332506  1
  S  S20  1  0.33333300  0.66666700  0.96340086  1
  S  S21  1  0.09586351  0.25845480  0.21856362  1
  S  S22  1  0.41781202  0.52360881  0.48332683  1
  S  S23  1  0.52360855  0.10579685  0.98332506  1
