# generated using pymatgen
data_K2Cr2O7
_symmetry_space_group_name_H-M   'P 1'
_cell_length_a   7.59042522
_cell_length_b   7.64621301
_cell_length_c   13.66442979
_cell_angle_alpha   95.21704412
_cell_angle_beta   97.49818572
_cell_angle_gamma   90.92919511
_symmetry_Int_Tables_number   1
_chemical_formula_structural   K2Cr2O7
_chemical_formula_sum   'K8 Cr8 O28'
_cell_volume   782.70084371
_cell_formula_units_Z   4
loop_
 _symmetry_equiv_pos_site_id
 _symmetry_equiv_pos_as_xyz
  1  'x, y, z'
loop_
 _atom_site_type_symbol
 _atom_site_label
 _atom_site_symmetry_multiplicity
 _atom_site_fract_x
 _atom_site_fract_y
 _atom_site_fract_z
 _atom_site_occupancy
  K  K0  1  0.10567302  0.66453433  0.63874631  1
  K  K1  1  0.89432698  0.33546567  0.36125369  1
  K  K2  1  0.25444603  0.75860205  0.34894204  1
  K  K3  1  0.74555397  0.24139795  0.65105796  1
  K  K4  1  0.66088699  0.91430345  0.15945933  1
  K  K5  1  0.33911301  0.08569655  0.84054067  1
  K  K6  1  0.68928014  0.65213346  0.86356575  1
  K  K7  1  0.31071986  0.34786654  0.13643425  1
  Cr  Cr8  1  0.59455367  0.77204888  0.60714171  1
  Cr  Cr9  1  0.40544633  0.22795112  0.39285829  1
  Cr  Cr10  1  0.79359999  0.80967750  0.41345173  1
  Cr  Cr11  1  0.20640001  0.19032250  0.58654827  1
  Cr  Cr12  1  0.81736488  0.42167879  0.11330726  1
  Cr  Cr13  1  0.18263512  0.57832121  0.88669274  1
  Cr  Cr14  1  0.81183206  0.15317799  0.91691575  1
  Cr  Cr15  1  0.18816794  0.84682201  0.08308425  1
  O  O16  1  0.71768468  0.61421721  0.64967900  1
  O  O17  1  0.28231532  0.38578279  0.35032100  1
  O  O18  1  0.56089087  0.91254906  0.69994497  1
  O  O19  1  0.43910913  0.08745094  0.30005503  1
  O  O20  1  0.40604240  0.69271526  0.54772523  1
  O  O21  1  0.59395760  0.30728474  0.45227477  1
  O  O22  1  0.71019543  0.89010203  0.52568534  1
  O  O23  1  0.28980457  0.10989797  0.47431466  1
  O  O24  1  0.95848477  0.67845063  0.44108241  1
  O  O25  1  0.04151523  0.32154937  0.55891759  1
  O  O26  1  0.86582660  0.97481203  0.36043909  1
  O  O27  1  0.13417340  0.02518797  0.63956091  1
  O  O28  1  0.63739516  0.70142599  0.33795115  1
  O  O29  1  0.36260484  0.29857401  0.66204885  1
  O  O30  1  0.68655020  0.29570973  0.16552453  1
  O  O31  1  0.31344980  0.70429027  0.83447547  1
  O  O32  1  0.97785093  0.50466485  0.19694881  1
  O  O33  1  0.02214907  0.49533515  0.80305119  1
  O  O34  1  0.70296013  0.57655086  0.06252366  1
  O  O35  1  0.29703987  0.42344914  0.93747634  1
  O  O36  1  0.91943446  0.29126464  0.02217575  1
  O  O37  1  0.08056554  0.70873536  0.97782425  1
  O  O38  1  0.69279632  0.99762032  0.95438659  1
  O  O39  1  0.30720368  0.00237968  0.04561341  1
  O  O40  1  0.96189740  0.06843440  0.85371211  1
  O  O41  1  0.03810260  0.93156560  0.14628789  1
  O  O42  1  0.67860689  0.27378250  0.84826684  1
  O  O43  1  0.32139311  0.72621750  0.15173316  1
