# generated using pymatgen
data_Sr2HoSbO6
_symmetry_space_group_name_H-M   'P 1'
_cell_length_a   5.85920448
_cell_length_b   5.90807003
_cell_length_c   8.30974904
_cell_angle_alpha   90.00000000
_cell_angle_beta   90.19088736
_cell_angle_gamma   90.00000000
_symmetry_Int_Tables_number   1
_chemical_formula_structural   Sr2HoSbO6
_chemical_formula_sum   'Sr4 Ho2 Sb2 O12'
_cell_volume   287.65358221
_cell_formula_units_Z   2
loop_
 _symmetry_equiv_pos_site_id
 _symmetry_equiv_pos_as_xyz
  1  'x, y, z'
loop_
 _atom_site_type_symbol
 _atom_site_label
 _atom_site_symmetry_multiplicity
 _atom_site_fract_x
 _atom_site_fract_y
 _atom_site_fract_z
 _atom_site_occupancy
  Sr  Sr0  1  0.50721327  0.46884571  0.74964032  1
  Sr  Sr1  1  0.99278673  0.96884571  0.75035968  1
  Sr  Sr2  1  0.49278673  0.53115429  0.25035968  1
  Sr  Sr3  1  0.00721327  0.03115429  0.24964032  1
  Ho  Ho4  1  0.00000000  0.50000000  0.50000000  1
  Ho  Ho5  1  0.50000000  0.00000000  0.00000000  1
  Sb  Sb6  1  0.50000000  0.00000000  0.50000000  1
  Sb  Sb7  1  0.00000000  0.50000000  0.00000000  1
  O  O8  1  0.42512394  0.01981715  0.73641531  1
  O  O9  1  0.57487606  0.98018285  0.26358469  1
  O  O10  1  0.80050038  0.22670422  0.95941034  1
  O  O11  1  0.77182868  0.20238795  0.53868019  1
  O  O12  1  0.69949962  0.72670422  0.54058966  1
  O  O13  1  0.92512394  0.48018285  0.23641531  1
  O  O14  1  0.19949962  0.77329578  0.04058966  1
  O  O15  1  0.27182868  0.29761205  0.03868019  1
  O  O16  1  0.72817132  0.70238795  0.96131981  1
  O  O17  1  0.07487606  0.51981715  0.76358469  1
  O  O18  1  0.30050038  0.27329578  0.45941034  1
  O  O19  1  0.22817132  0.79761205  0.46131981  1
