# generated using pymatgen
data_Cd2H2SO6
_symmetry_space_group_name_H-M   'P 1'
_cell_length_a   7.11330919
_cell_length_b   7.62434725
_cell_length_c   10.18362701
_cell_angle_alpha   90.00000000
_cell_angle_beta   97.60614174
_cell_angle_gamma   90.00000000
_symmetry_Int_Tables_number   1
_chemical_formula_structural   Cd2H2SO6
_chemical_formula_sum   'Cd8 H8 S4 O24'
_cell_volume   547.44277274
_cell_formula_units_Z   4
loop_
 _symmetry_equiv_pos_site_id
 _symmetry_equiv_pos_as_xyz
  1  'x, y, z'
loop_
 _atom_site_type_symbol
 _atom_site_label
 _atom_site_symmetry_multiplicity
 _atom_site_fract_x
 _atom_site_fract_y
 _atom_site_fract_z
 _atom_site_occupancy
  Cd  Cd0  1  0.01516164  0.53609701  0.66755723  1
  Cd  Cd1  1  0.32701104  0.16754076  0.49473521  1
  Cd  Cd2  1  0.67298896  0.83245924  0.50526479  1
  Cd  Cd3  1  0.82701104  0.33245924  0.99473521  1
  Cd  Cd4  1  0.48483836  0.03609701  0.83244277  1
  Cd  Cd5  1  0.98483836  0.46390299  0.33244277  1
  Cd  Cd6  1  0.51516164  0.96390299  0.16755723  1
  Cd  Cd7  1  0.17298896  0.66754076  0.00526479  1
  H  H8  1  0.86943072  0.67347343  0.13223085  1
  H  H9  1  0.36943072  0.82652657  0.63223085  1
  H  H10  1  0.47602779  0.28648890  0.04555248  1
  H  H11  1  0.52397221  0.71351110  0.95444752  1
  H  H12  1  0.97602779  0.21351110  0.54555248  1
  H  H13  1  0.02397221  0.78648890  0.45444752  1
  H  H14  1  0.63056928  0.17347343  0.36776915  1
  H  H15  1  0.13056928  0.32652657  0.86776915  1
  S  S16  1  0.47251289  0.50675356  0.28107687  1
  S  S17  1  0.02748711  0.00675356  0.21892313  1
  S  S18  1  0.97251289  0.99324644  0.78107687  1
  S  S19  1  0.52748711  0.49324644  0.71892313  1
  O  O20  1  0.65141863  0.40569929  0.31418175  1
  O  O21  1  0.94227215  0.68909192  0.47572540  1
  O  O22  1  0.15141863  0.09430071  0.81418175  1
  O  O23  1  0.10218984  0.98352627  0.36155654  1
  O  O24  1  0.55772785  0.18909192  0.02427460  1
  O  O25  1  0.94460956  0.56636402  0.12486952  1
  O  O26  1  0.05539044  0.43363598  0.87513048  1
  O  O27  1  0.89781016  0.01647373  0.63844346  1
  O  O28  1  0.05772785  0.31090808  0.52427460  1
  O  O29  1  0.49296787  0.30176267  0.69151390  1
  O  O30  1  0.39781016  0.48352627  0.13844346  1
  O  O31  1  0.44460956  0.93363598  0.62486952  1
  O  O32  1  0.84858137  0.90569929  0.18581825  1
  O  O33  1  0.55539044  0.06636402  0.37513048  1
  O  O34  1  0.00703213  0.80176267  0.80848610  1
  O  O35  1  0.60218984  0.51647373  0.86155654  1
  O  O36  1  0.66989663  0.55875811  0.63415540  1
  O  O37  1  0.83010337  0.05875811  0.86584460  1
  O  O38  1  0.34858137  0.59430071  0.68581825  1
  O  O39  1  0.50703213  0.69823733  0.30848610  1
  O  O40  1  0.44227215  0.81090808  0.97572540  1
  O  O41  1  0.16989663  0.94124189  0.13415540  1
  O  O42  1  0.33010337  0.44124189  0.36584460  1
  O  O43  1  0.99296787  0.19823733  0.19151390  1
