# generated using pymatgen
data_Sm(IO3)3
_symmetry_space_group_name_H-M   'P 1'
_cell_length_a   7.34740755
_cell_length_b   8.73374301
_cell_length_c   13.70298083
_cell_angle_alpha   90.00000000
_cell_angle_beta   99.71694414
_cell_angle_gamma   90.00000000
_symmetry_Int_Tables_number   1
_chemical_formula_structural   Sm(IO3)3
_chemical_formula_sum   'Sm4 I12 O36'
_cell_volume   866.71018630
_cell_formula_units_Z   4
loop_
 _symmetry_equiv_pos_site_id
 _symmetry_equiv_pos_as_xyz
  1  'x, y, z'
loop_
 _atom_site_type_symbol
 _atom_site_label
 _atom_site_symmetry_multiplicity
 _atom_site_fract_x
 _atom_site_fract_y
 _atom_site_fract_z
 _atom_site_occupancy
  Sm  Sm0  1  0.17437725  0.25618914  0.14461195  1
  Sm  Sm1  1  0.17437725  0.24381086  0.64461195  1
  Sm  Sm2  1  0.82562275  0.75618914  0.35538805  1
  Sm  Sm3  1  0.82562275  0.74381086  0.85538805  1
  I  I4  1  0.16566001  0.70266359  0.60804956  1
  I  I5  1  0.32763208  0.95031969  0.85455136  1
  I  I6  1  0.83433999  0.29733641  0.39195044  1
  I  I7  1  0.16566001  0.79733641  0.10804956  1
  I  I8  1  0.73497644  0.97618795  0.60931768  1
  I  I9  1  0.26502356  0.47618795  0.89068232  1
  I  I10  1  0.26502356  0.02381205  0.39068232  1
  I  I11  1  0.32763208  0.54968031  0.35455136  1
  I  I12  1  0.67236792  0.04968031  0.14544864  1
  I  I13  1  0.83433999  0.20266359  0.89195044  1
  I  I14  1  0.73497644  0.52381205  0.10931768  1
  I  I15  1  0.67236792  0.45031969  0.64544864  1
  O  O16  1  0.51989217  0.81981775  0.85574929  1
  O  O17  1  0.77172056  0.79231058  0.67566648  1
  O  O18  1  0.14289442  0.69140045  0.32257792  1
  O  O19  1  0.83466033  0.47418138  0.32000416  1
  O  O20  1  0.83466033  0.02581862  0.82000416  1
  O  O21  1  0.33048985  0.47157807  0.23068071  1
  O  O22  1  0.22827944  0.20768942  0.32433352  1
  O  O23  1  0.67856848  0.58444419  0.98069750  1
  O  O24  1  0.14289442  0.80859955  0.82257792  1
  O  O25  1  0.22827944  0.29231058  0.82433352  1
  O  O26  1  0.85710558  0.19140045  0.17742208  1
  O  O27  1  0.97684198  0.02651807  0.61071181  1
  O  O28  1  0.48010783  0.31981775  0.64425071  1
  O  O29  1  0.51989217  0.68018225  0.35574929  1
  O  O30  1  0.16533967  0.52581862  0.67999584  1
  O  O31  1  0.77172056  0.70768942  0.17566648  1
  O  O32  1  0.02315802  0.97348193  0.38928819  1
  O  O33  1  0.35459088  0.83477601  0.04010722  1
  O  O34  1  0.33048985  0.02842193  0.73068071  1
  O  O35  1  0.02315802  0.52651807  0.88928819  1
  O  O36  1  0.96476498  0.66623028  0.51267209  1
  O  O37  1  0.66951015  0.97157807  0.26931929  1
  O  O38  1  0.66951015  0.52842193  0.76931929  1
  O  O39  1  0.32143152  0.41555581  0.01930250  1
  O  O40  1  0.03523502  0.16623028  0.98732791  1
  O  O41  1  0.64540912  0.16522399  0.95989278  1
  O  O42  1  0.97684198  0.47348193  0.11071181  1
  O  O43  1  0.32143152  0.08444419  0.51930250  1
  O  O44  1  0.85710558  0.30859955  0.67742208  1
  O  O45  1  0.35459088  0.66522399  0.54010722  1
  O  O46  1  0.64540912  0.33477601  0.45989278  1
  O  O47  1  0.67856848  0.91555581  0.48069750  1
  O  O48  1  0.03523502  0.33376972  0.48732791  1
  O  O49  1  0.48010783  0.18018225  0.14425071  1
  O  O50  1  0.96476498  0.83376972  0.01267209  1
  O  O51  1  0.16533967  0.97418138  0.17999584  1
