# generated using pymatgen
data_CaSeO3
_symmetry_space_group_name_H-M   'P 1'
_cell_length_a   6.53335865
_cell_length_b   6.79547604
_cell_length_c   6.85965805
_cell_angle_alpha   90.00000000
_cell_angle_beta   90.00000000
_cell_angle_gamma   103.23819223
_symmetry_Int_Tables_number   1
_chemical_formula_structural   CaSeO3
_chemical_formula_sum   'Ca4 Se4 O12'
_cell_volume   296.45720135
_cell_formula_units_Z   4
loop_
 _symmetry_equiv_pos_site_id
 _symmetry_equiv_pos_as_xyz
  1  'x, y, z'
loop_
 _atom_site_type_symbol
 _atom_site_label
 _atom_site_symmetry_multiplicity
 _atom_site_fract_x
 _atom_site_fract_y
 _atom_site_fract_z
 _atom_site_occupancy
  Ca  Ca0  1  0.72700708  0.87648737  0.87413809  1
  Ca  Ca1  1  0.22700708  0.37648737  0.62586191  1
  Ca  Ca2  1  0.77299292  0.62351263  0.37413809  1
  Ca  Ca3  1  0.27299292  0.12351263  0.12586191  1
  Se  Se4  1  0.74306681  0.09529776  0.33852563  1
  Se  Se5  1  0.24306681  0.59529776  0.16147437  1
  Se  Se6  1  0.75693319  0.40470224  0.83852563  1
  Se  Se7  1  0.25693319  0.90470224  0.66147437  1
  O  O8  1  0.91365589  0.31357368  0.41885597  1
  O  O9  1  0.58634411  0.18642632  0.91885597  1
  O  O10  1  0.60394016  0.51916946  0.68593278  1
  O  O11  1  0.41365589  0.81357368  0.08114403  1
  O  O12  1  0.78183374  0.57313866  0.02946138  1
  O  O13  1  0.08634411  0.68642632  0.58114403  1
  O  O14  1  0.21816626  0.42686134  0.97053862  1
  O  O15  1  0.10394016  0.01916946  0.81406722  1
  O  O16  1  0.28183374  0.07313866  0.47053862  1
  O  O17  1  0.39605984  0.48083054  0.31406722  1
  O  O18  1  0.89605984  0.98083054  0.18593278  1
  O  O19  1  0.71816626  0.92686134  0.52946138  1
