# generated using pymatgen
data_SbSe(IF2)3
_symmetry_space_group_name_H-M   'P 1'
_cell_length_a   8.85150958
_cell_length_b   10.54241337
_cell_length_c   13.09297227
_cell_angle_alpha   90.00000000
_cell_angle_beta   98.01954889
_cell_angle_gamma   90.00000000
_symmetry_Int_Tables_number   1
_chemical_formula_structural   SbSe(IF2)3
_chemical_formula_sum   'Sb4 Se4 I12 F24'
_cell_volume   1209.83893676
_cell_formula_units_Z   4
loop_
 _symmetry_equiv_pos_site_id
 _symmetry_equiv_pos_as_xyz
  1  'x, y, z'
loop_
 _atom_site_type_symbol
 _atom_site_label
 _atom_site_symmetry_multiplicity
 _atom_site_fract_x
 _atom_site_fract_y
 _atom_site_fract_z
 _atom_site_occupancy
  Sb  Sb0  1  0.19999412  0.77893161  0.06716828  1
  Sb  Sb1  1  0.19999412  0.72106839  0.56716828  1
  Sb  Sb2  1  0.80000588  0.22106839  0.93283172  1
  Sb  Sb3  1  0.80000588  0.27893161  0.43283172  1
  Se  Se4  1  0.19976207  0.30848430  0.70761047  1
  Se  Se5  1  0.19976207  0.19151570  0.20761047  1
  Se  Se6  1  0.80023793  0.69151570  0.29238953  1
  Se  Se7  1  0.80023793  0.80848430  0.79238953  1
  I  I8  1  0.43920573  0.31875330  0.62007679  1
  I  I9  1  0.43920573  0.18124670  0.12007679  1
  I  I10  1  0.25806526  0.04849540  0.36489065  1
  I  I11  1  0.21033996  0.41534538  0.27961717  1
  I  I12  1  0.56079427  0.68124670  0.37992321  1
  I  I13  1  0.78966004  0.91534538  0.22038283  1
  I  I14  1  0.78966004  0.58465462  0.72038283  1
  I  I15  1  0.25806526  0.45150460  0.86489065  1
  I  I16  1  0.21033996  0.08465462  0.77961717  1
  I  I17  1  0.74193474  0.95150460  0.63510935  1
  I  I18  1  0.56079427  0.81875330  0.87992321  1
  I  I19  1  0.74193474  0.54849540  0.13510935  1
  F  F20  1  1.00368431  0.76512461  0.49412243  1
  F  F21  1  0.85860455  0.28498074  0.80679108  1
  F  F22  1  0.14139545  0.78498074  0.69320892  1
  F  F23  1  0.72383199  0.11291805  0.46381696  1
  F  F24  1  0.39927745  0.67865125  0.63510878  1
  F  F25  1  0.14139545  0.71501926  0.19320892  1
  F  F26  1  0.12742871  0.94527000  0.09536739  1
  F  F27  1  0.27616801  0.88708195  0.53618304  1
  F  F28  1  0.74005938  0.15937288  0.06102677  1
  F  F29  1  0.25994062  0.65937288  0.43897323  1
  F  F30  1  0.87257129  0.05473000  0.90463261  1
  F  F31  1  0.87257129  0.44527000  0.40463261  1
  F  F32  1  0.74005938  0.34062712  0.56102677  1
  F  F33  1  0.85860455  0.21501926  0.30679108  1
  F  F34  1  0.60072255  0.17865125  0.86489122  1
  F  F35  1  0.27616801  0.61291805  0.03618304  1
  F  F36  1  0.60072255  0.32134875  0.36489122  1
  F  F37  1  0.25994062  0.84062712  0.93897323  1
  F  F38  1  0.72383199  0.38708195  0.96381696  1
  F  F39  1  0.12742871  0.55473000  0.59536739  1
  F  F40  1  1.00368431  0.73487539  0.99412243  1
  F  F41  1  -0.00368431  0.23487539  0.50587757  1
  F  F42  1  -0.00368431  0.26512461  0.00587757  1
  F  F43  1  0.39927745  0.82134875  0.13510878  1
