# generated using pymatgen
data_Fe3(O2F)2
_symmetry_space_group_name_H-M   'P 1'
_cell_length_a   4.66076630
_cell_length_b   4.66117904
_cell_length_c   9.22272346
_cell_angle_alpha   90.00000000
_cell_angle_beta   90.00000000
_cell_angle_gamma   90.00000000
_symmetry_Int_Tables_number   1
_chemical_formula_structural   Fe3(O2F)2
_chemical_formula_sum   'Fe6 O8 F4'
_cell_volume   200.36058851
_cell_formula_units_Z   2
loop_
 _symmetry_equiv_pos_site_id
 _symmetry_equiv_pos_as_xyz
  1  'x, y, z'
loop_
 _atom_site_type_symbol
 _atom_site_label
 _atom_site_symmetry_multiplicity
 _atom_site_fract_x
 _atom_site_fract_y
 _atom_site_fract_z
 _atom_site_occupancy
  Fe  Fe0  1  0.02747093  0.00729179  0.00817011  1
  Fe  Fe1  1  0.02747093  0.00729179  0.32516389  1
  Fe  Fe2  1  0.01235098  0.97255853  0.66666700  1
  Fe  Fe3  1  0.48764902  0.47255853  0.16666700  1
  Fe  Fe4  1  0.47252907  0.50729179  0.82516389  1
  Fe  Fe5  1  0.47252907  0.50729179  0.50817011  1
  O  O6  1  0.21040223  0.79834498  0.16666700  1
  O  O7  1  0.18593144  0.81114137  0.49612803  1
  O  O8  1  0.18593144  0.81114137  0.83720497  1
  O  O9  1  0.31406856  0.31114137  0.99612803  1
  O  O10  1  0.31406856  0.31114137  0.33720497  1
  O  O11  1  0.28959777  0.29834498  0.66666700  1
  O  O12  1  0.69021755  0.69482998  0.66666700  1
  O  O13  1  0.80978245  0.19482998  0.16666700  1
  F  F14  1  0.70103688  0.69869959  0.99835374  1
  F  F15  1  0.70103688  0.69869959  0.33497926  1
  F  F16  1  0.79896312  0.19869959  0.83497926  1
  F  F17  1  0.79896312  0.19869959  0.49835374  1
