# generated using pymatgen
data_Ba2Cu(PO3)6
_symmetry_space_group_name_H-M   'P 1'
_cell_length_a   7.44073271
_cell_length_b   9.68960588
_cell_length_c   21.70218221
_cell_angle_alpha   98.03310143
_cell_angle_beta   90.00000000
_cell_angle_gamma   90.00000000
_symmetry_Int_Tables_number   1
_chemical_formula_structural   Ba2Cu(PO3)6
_chemical_formula_sum   'Ba8 Cu4 P24 O72'
_cell_volume   1549.32547272
_cell_formula_units_Z   4
loop_
 _symmetry_equiv_pos_site_id
 _symmetry_equiv_pos_as_xyz
  1  'x, y, z'
loop_
 _atom_site_type_symbol
 _atom_site_label
 _atom_site_symmetry_multiplicity
 _atom_site_fract_x
 _atom_site_fract_y
 _atom_site_fract_z
 _atom_site_occupancy
  Ba  Ba0  1  0.85172105  0.72188778  0.98887964  1
  Ba  Ba1  1  0.64827895  0.72188778  0.48887964  1
  Ba  Ba2  1  0.35172105  0.27811222  0.51112036  1
  Ba  Ba3  1  0.61314555  0.12459261  0.11565495  1
  Ba  Ba4  1  0.11314555  0.87540739  0.38434505  1
  Ba  Ba5  1  0.14827895  0.27811222  0.01112036  1
  Ba  Ba6  1  0.38685445  0.87540739  0.88434505  1
  Ba  Ba7  1  0.88685445  0.12459261  0.61565495  1
  Cu  Cu8  1  0.66953502  0.37773169  0.74617954  1
  Cu  Cu9  1  0.16953502  0.62226831  0.75382046  1
  Cu  Cu10  1  0.83046498  0.37773169  0.24617954  1
  Cu  Cu11  1  0.33046498  0.62226831  0.25382046  1
  P  P12  1  0.54146729  0.46090395  0.89405846  1
  P  P13  1  0.38974612  0.97392964  0.61303627  1
  P  P14  1  0.44301123  0.10070716  0.74264169  1
  P  P15  1  0.45853271  0.53909605  0.10594154  1
  P  P16  1  0.55698877  0.89929284  0.25735831  1
  P  P17  1  0.88974612  0.02607036  0.88696373  1
  P  P18  1  0.64264206  0.68049956  0.74695808  1
  P  P19  1  0.64572435  0.52277478  0.62134634  1
  P  P20  1  0.85427565  0.52277478  0.12134634  1
  P  P21  1  0.61025388  0.02607036  0.38696373  1
  P  P22  1  0.14572435  0.47722522  0.87865366  1
  P  P23  1  0.94301123  0.89929284  0.75735831  1
  P  P24  1  0.85735794  0.68049956  0.24695808  1
  P  P25  1  0.95853271  0.46090395  0.39405846  1
  P  P26  1  0.35735794  0.31950044  0.25304192  1
  P  P27  1  0.65896991  0.22626338  0.96062522  1
  P  P28  1  0.15896991  0.77373662  0.53937478  1
  P  P29  1  0.05698877  0.10070716  0.24264169  1
  P  P30  1  0.34103009  0.77373662  0.03937478  1
  P  P31  1  0.11025388  0.97392964  0.11303627  1
  P  P32  1  0.84103009  0.22626338  0.46062522  1
  P  P33  1  0.35427565  0.47722522  0.37865366  1
  P  P34  1  0.14264206  0.31950044  0.75304192  1
  P  P35  1  0.04146729  0.53909605  0.60594154  1
  O  O36  1  0.42829427  0.04946474  0.41736563  1
  O  O37  1  0.92021690  0.37824289  0.33171973  1
  O  O38  1  0.63006151  0.38588897  0.94886202  1
  O  O39  1  0.96331128  0.29468948  0.72273599  1
  O  O40  1  0.23669731  0.43512539  0.23601000  1
  O  O41  1  0.83106871  0.56494806  0.58912172  1
  O  O42  1  0.08972404  0.97435219  0.18719185  1
  O  O43  1  0.61096241  0.65754599  0.67225047  1
  O  O44  1  0.72147991  0.90537670  0.40277724  1
  O  O45  1  0.42021690  0.62175711  0.16828027  1
  O  O46  1  0.74894529  0.82194812  0.25837522  1
  O  O47  1  0.07978310  0.62175711  0.66828027  1
  O  O48  1  0.73669731  0.56487461  0.26399000  1
  O  O49  1  0.01907007  0.15294534  0.46303318  1
  O  O50  1  0.59101302  0.18800484  0.71901950  1
  O  O51  1  0.76330269  0.56487461  0.76399000  1
  O  O52  1  0.88903759  0.65754599  0.17225047  1
  O  O53  1  0.53868953  0.95523953  0.19763535  1
  O  O54  1  0.72795962  0.16780821  0.39916040  1
  O  O55  1  0.46131047  0.04476047  0.80236465  1
  O  O56  1  0.49145287  0.47676422  0.42901694  1
  O  O57  1  0.21913061  0.77008723  0.98363361  1
  O  O58  1  0.53668872  0.29468948  0.22273599  1
  O  O59  1  0.07170573  0.04946474  0.91736563  1
  O  O60  1  0.96131047  0.95523953  0.69763535  1
  O  O61  1  0.17026802  0.60661709  0.84783297  1
  O  O62  1  0.82973198  0.39338291  0.15216703  1
  O  O63  1  0.00854713  0.47676422  0.92901694  1
  O  O64  1  0.86993849  0.38588897  0.44886202  1
  O  O65  1  0.33106871  0.43505194  0.91087828  1
  O  O66  1  0.57978310  0.37824289  0.83171973  1
  O  O67  1  0.77852009  0.90537670  0.90277724  1
  O  O68  1  0.24894529  0.17805188  0.24162478  1
  O  O69  1  0.46331128  0.70531052  0.77726401  1
  O  O70  1  0.08452111  0.38709471  0.59075633  1
  O  O71  1  0.09101302  0.81199516  0.78098050  1
  O  O72  1  0.58452111  0.61290529  0.90924367  1
  O  O73  1  0.38903759  0.34245401  0.32774953  1
  O  O74  1  0.03868953  0.04476047  0.30236465  1
  O  O75  1  0.51907007  0.84705466  0.03696682  1
  O  O76  1  0.90898698  0.18800484  0.21901950  1
  O  O77  1  0.13006151  0.61411103  0.55113798  1
  O  O78  1  0.25105471  0.17805188  0.74162478  1
  O  O79  1  0.40898698  0.81199516  0.28098050  1
  O  O80  1  0.41027596  0.97435219  0.68719185  1
  O  O81  1  0.32973198  0.60661709  0.34783297  1
  O  O82  1  0.16893129  0.43505194  0.41087828  1
  O  O83  1  0.58972404  0.02564781  0.31280815  1
  O  O84  1  0.48092993  0.15294534  0.96303318  1
  O  O85  1  0.26330269  0.43512539  0.73601000  1
  O  O86  1  0.03668872  0.70531052  0.27726401  1
  O  O87  1  0.11096241  0.34245401  0.82774953  1
  O  O88  1  0.27204038  0.83219179  0.60083960  1
  O  O89  1  0.71913061  0.22991277  0.51636639  1
  O  O90  1  0.91547889  0.61290529  0.40924367  1
  O  O91  1  0.91027596  0.02564781  0.81280815  1
  O  O92  1  0.92829427  0.95053526  0.08263437  1
  O  O93  1  0.57170573  0.95053526  0.58263437  1
  O  O94  1  0.27852009  0.09462330  0.59722276  1
  O  O95  1  0.99145287  0.52323578  0.07098306  1
  O  O96  1  0.36993849  0.61411103  0.05113798  1
  O  O97  1  0.66893129  0.56494806  0.08912172  1
  O  O98  1  0.28086939  0.77008723  0.48363361  1
  O  O99  1  0.67026802  0.39338291  0.65216703  1
  O  O100  1  0.22795962  0.83219179  0.10083960  1
  O  O101  1  0.22147991  0.09462330  0.09722276  1
  O  O102  1  0.75105471  0.82194812  0.75837522  1
  O  O103  1  0.78086939  0.22991277  0.01636639  1
  O  O104  1  0.41547889  0.38709471  0.09075633  1
  O  O105  1  0.50854713  0.52323578  0.57098306  1
  O  O106  1  0.98092993  0.84705466  0.53696682  1
  O  O107  1  0.77204038  0.16780821  0.89916040  1
