# generated using pymatgen
data_Rb2Sb4O11
_symmetry_space_group_name_H-M   'P 1'
_cell_length_a   7.34175450
_cell_length_b   7.70840520
_cell_length_c   10.64961345
_cell_angle_alpha   111.21716119
_cell_angle_beta   95.10263921
_cell_angle_gamma   90.00115113
_symmetry_Int_Tables_number   1
_chemical_formula_structural   Rb2Sb4O11
_chemical_formula_sum   'Rb4 Sb8 O22'
_cell_volume   559.27906144
_cell_formula_units_Z   2
loop_
 _symmetry_equiv_pos_site_id
 _symmetry_equiv_pos_as_xyz
  1  'x, y, z'
loop_
 _atom_site_type_symbol
 _atom_site_label
 _atom_site_symmetry_multiplicity
 _atom_site_fract_x
 _atom_site_fract_y
 _atom_site_fract_z
 _atom_site_occupancy
  Rb  Rb0  1  0.74525526  0.49191882  0.98383563  1
  Rb  Rb1  1  0.00596675  0.73463949  0.46927127  1
  Rb  Rb2  1  0.25474474  0.50808118  0.01616437  1
  Rb  Rb3  1  0.99403325  0.26536051  0.53072873  1
  Sb  Sb4  1  0.09822707  0.07161509  0.14321757  1
  Sb  Sb5  1  0.56330799  0.08243584  0.65122121  1
  Sb  Sb6  1  0.43671355  0.43119913  0.34878302  1
  Sb  Sb7  1  0.56328645  0.56880087  0.65121698  1
  Sb  Sb8  1  0.61717722  0.07590150  0.15186142  1
  Sb  Sb9  1  0.90177293  0.92838491  0.85678243  1
  Sb  Sb10  1  0.38282278  0.92409850  0.84813858  1
  Sb  Sb11  1  0.43669201  0.91756416  0.34877879  1
  O  O12  1  0.66683576  0.52394197  0.47355858  1
  O  O13  1  0.13136502  0.88241975  0.76476533  1
  O  O14  1  0.66683946  0.94961833  0.47355908  1
  O  O15  1  0.57080740  0.34327678  0.17778189  1
  O  O16  1  0.51001754  0.16647142  0.33297091  1
  O  O17  1  0.35822058  0.66002200  0.32005888  1
  O  O18  1  0.81048711  0.06971549  0.74268071  1
  O  O19  1  0.99999259  0.82910303  -0.00000035  1
  O  O20  1  0.57079580  0.83446682  0.17777206  1
  O  O21  1  0.18951289  0.93028451  0.25731929  1
  O  O22  1  0.48998246  0.83352858  0.66702909  1
  O  O23  1  0.42919260  0.65672322  0.82221811  1
  O  O24  1  0.18951287  0.32703882  0.25731903  1
  O  O25  1  0.00000741  0.17089697  1.00000035  1
  O  O26  1  0.33316054  0.05038167  0.52644092  1
  O  O27  1  0.81048713  0.67296118  0.74268097  1
  O  O28  1  0.64177942  0.33997800  0.67994112  1
  O  O29  1  0.34578903  0.02331762  0.04663009  1
  O  O30  1  0.33316424  0.47605803  0.52644142  1
  O  O31  1  0.42920420  0.16553318  0.82222794  1
  O  O32  1  0.65421097  0.97668238  0.95336991  1
  O  O33  1  0.86863498  0.11758025  0.23523467  1
