# generated using pymatgen
data_Sr4NbAlO8
_symmetry_space_group_name_H-M   'P 1'
_cell_length_a   5.89666907
_cell_length_b   7.25734058
_cell_length_c   19.93450583
_cell_angle_alpha   97.52347017
_cell_angle_beta   90.00000000
_cell_angle_gamma   90.00000000
_symmetry_Int_Tables_number   1
_chemical_formula_structural   Sr4NbAlO8
_chemical_formula_sum   'Sr16 Nb4 Al4 O32'
_cell_volume   845.73604721
_cell_formula_units_Z   4
loop_
 _symmetry_equiv_pos_site_id
 _symmetry_equiv_pos_as_xyz
  1  'x, y, z'
loop_
 _atom_site_type_symbol
 _atom_site_label
 _atom_site_symmetry_multiplicity
 _atom_site_fract_x
 _atom_site_fract_y
 _atom_site_fract_z
 _atom_site_occupancy
  Sr  Sr0  1  0.74942890  0.49892641  0.13504825  1
  Sr  Sr1  1  0.27999393  0.71185773  0.04613479  1
  Sr  Sr2  1  0.24944928  0.02468335  0.40299965  1
  Sr  Sr3  1  0.77999393  0.28814227  0.45386521  1
  Sr  Sr4  1  0.24942890  0.50107359  0.36495175  1
  Sr  Sr5  1  0.71498675  0.85957542  0.79098497  1
  Sr  Sr6  1  0.22000607  0.71185773  0.54613479  1
  Sr  Sr7  1  0.78501325  0.85957542  0.29098497  1
  Sr  Sr8  1  0.75057110  0.49892641  0.63504825  1
  Sr  Sr9  1  0.75055072  0.97531665  0.59700035  1
  Sr  Sr10  1  0.25057110  0.50107359  0.86495175  1
  Sr  Sr11  1  0.25055072  0.02468335  0.90299965  1
  Sr  Sr12  1  0.72000607  0.28814227  0.95386521  1
  Sr  Sr13  1  0.21498675  0.14042458  0.70901503  1
  Sr  Sr14  1  0.74944928  0.97531665  0.09700035  1
  Sr  Sr15  1  0.28501325  0.14042458  0.20901503  1
  Nb  Nb16  1  0.25819247  0.66129513  0.21069029  1
  Nb  Nb17  1  0.24180753  0.66129513  0.71069029  1
  Nb  Nb18  1  0.74180753  0.33870487  0.78930971  1
  Nb  Nb19  1  0.75819247  0.33870487  0.28930971  1
  Al  Al20  1  0.78485413  0.73305273  0.94290130  1
  Al  Al21  1  0.71514587  0.73305273  0.44290130  1
  Al  Al22  1  0.28485413  0.26694727  0.55709870  1
  Al  Al23  1  0.21514587  0.26694727  0.05709870  1
  O  O24  1  0.83909035  0.93908388  0.42086812  1
  O  O25  1  0.58543352  0.24828142  0.55703037  1
  O  O26  1  0.51240389  0.50186763  0.74380169  1
  O  O27  1  0.72001343  0.17737584  0.20540058  1
  O  O28  1  0.01240389  0.49813237  0.75619831  1
  O  O29  1  0.33909035  0.06091612  0.07913188  1
  O  O30  1  0.53122336  0.21222302  0.33942434  1
  O  O31  1  0.03122336  0.78777698  0.16057566  1
  O  O32  1  0.69755389  0.66421301  0.02200900  1
  O  O33  1  0.20915666  0.45057958  0.62459292  1
  O  O34  1  0.49004439  0.20323609  0.82164262  1
  O  O35  1  0.08543352  0.75171858  0.94296963  1
  O  O36  1  0.96877664  0.21222302  0.83942434  1
  O  O37  1  0.27998657  0.82262416  0.79459942  1
  O  O38  1  0.48759611  0.49813237  0.25619831  1
  O  O39  1  0.80244611  0.66421301  0.52200900  1
  O  O40  1  0.66090965  0.93908388  0.92086812  1
  O  O41  1  0.00995561  0.20323609  0.32164262  1
  O  O42  1  0.41456648  0.75171858  0.44296963  1
  O  O43  1  0.70915666  0.54942042  0.87540708  1
  O  O44  1  0.79084334  0.54942042  0.37540708  1
  O  O45  1  0.99004439  0.79676391  0.67835738  1
  O  O46  1  0.16090965  0.06091612  0.57913188  1
  O  O47  1  0.91456648  0.24828142  0.05703037  1
  O  O48  1  0.98759611  0.50186763  0.24380169  1
  O  O49  1  0.19755389  0.33578699  0.47799100  1
  O  O50  1  0.30244611  0.33578699  0.97799100  1
  O  O51  1  0.46877664  0.78777698  0.66057566  1
  O  O52  1  0.50995561  0.79676391  0.17835738  1
  O  O53  1  0.22001343  0.82262416  0.29459942  1
  O  O54  1  0.29084334  0.45057958  0.12459292  1
  O  O55  1  0.77998657  0.17737584  0.70540058  1
