# generated using pymatgen
data_NaLi2PO4
_symmetry_space_group_name_H-M   'P 1'
_cell_length_a   4.99234151
_cell_length_b   6.94566931
_cell_length_c   10.12336771
_cell_angle_alpha   90.00000000
_cell_angle_beta   90.00000000
_cell_angle_gamma   90.00000000
_symmetry_Int_Tables_number   1
_chemical_formula_structural   NaLi2PO4
_chemical_formula_sum   'Na4 Li8 P4 O16'
_cell_volume   351.02932636
_cell_formula_units_Z   4
loop_
 _symmetry_equiv_pos_site_id
 _symmetry_equiv_pos_as_xyz
  1  'x, y, z'
loop_
 _atom_site_type_symbol
 _atom_site_label
 _atom_site_symmetry_multiplicity
 _atom_site_fract_x
 _atom_site_fract_y
 _atom_site_fract_z
 _atom_site_occupancy
  Na  Na0  1  0.23623485  0.75000000  0.88734995  1
  Na  Na1  1  0.26376515  0.75000000  0.38734995  1
  Na  Na2  1  0.76376515  0.25000000  0.11265005  1
  Na  Na3  1  0.73623485  0.25000000  0.61265005  1
  Li  Li4  1  0.79140071  0.50052324  0.34538063  1
  Li  Li5  1  0.29140071  0.00052324  0.15461937  1
  Li  Li6  1  0.70859929  0.99947676  0.84538063  1
  Li  Li7  1  0.20859929  0.49947676  0.65461937  1
  Li  Li8  1  0.70859929  0.50052324  0.84538063  1
  Li  Li9  1  0.20859929  0.00052324  0.65461937  1
  Li  Li10  1  0.79140071  0.99947676  0.34538063  1
  Li  Li11  1  0.29140071  0.49947676  0.15461937  1
  P  P12  1  0.29788683  0.25000000  0.40218464  1
  P  P13  1  0.20211317  0.25000000  0.90218464  1
  P  P14  1  0.70211317  0.75000000  0.59781536  1
  P  P15  1  0.79788683  0.75000000  0.09781536  1
  O  O16  1  0.75809796  0.75000000  0.44571697  1
  O  O17  1  0.32369190  0.43361263  0.83792076  1
  O  O18  1  0.67630810  0.93361263  0.16207924  1
  O  O19  1  0.32369190  0.06638737  0.83792076  1
  O  O20  1  0.60834302  0.25000000  0.38081054  1
  O  O21  1  0.39165698  0.75000000  0.61918946  1
  O  O22  1  0.74190204  0.75000000  0.94571697  1
  O  O23  1  0.17630810  0.43361263  0.33792076  1
  O  O24  1  0.82369190  0.56638737  0.66207924  1
  O  O25  1  0.67630810  0.56638737  0.16207924  1
  O  O26  1  0.89165698  0.25000000  0.88081054  1
  O  O27  1  0.10834302  0.75000000  0.11918946  1
  O  O28  1  0.25809796  0.25000000  0.05428303  1
  O  O29  1  0.24190204  0.25000000  0.55428303  1
  O  O30  1  0.17630810  0.06638737  0.33792076  1
  O  O31  1  0.82369190  0.93361263  0.66207924  1
