# generated using pymatgen
data_LiB6O9F
_symmetry_space_group_name_H-M   'P 1'
_cell_length_a   7.88270016
_cell_length_b   8.65136978
_cell_length_c   10.95802784
_cell_angle_alpha   90.00000000
_cell_angle_beta   90.00000000
_cell_angle_gamma   90.00000000
_symmetry_Int_Tables_number   1
_chemical_formula_structural   LiB6O9F
_chemical_formula_sum   'Li4 B24 O36 F4'
_cell_volume   747.29535355
_cell_formula_units_Z   4
loop_
 _symmetry_equiv_pos_site_id
 _symmetry_equiv_pos_as_xyz
  1  'x, y, z'
loop_
 _atom_site_type_symbol
 _atom_site_label
 _atom_site_symmetry_multiplicity
 _atom_site_fract_x
 _atom_site_fract_y
 _atom_site_fract_z
 _atom_site_occupancy
  Li  Li0  1  0.23754366  0.30076758  0.22646629  1
  Li  Li1  1  0.76245634  0.69923242  0.72646629  1
  Li  Li2  1  0.73754366  0.19923242  0.22646629  1
  Li  Li3  1  0.26245634  0.80076758  0.72646629  1
  B  B4  1  0.87164346  0.39741185  0.65413093  1
  B  B5  1  0.05813977  0.34844860  0.48695277  1
  B  B6  1  0.59435612  0.91291957  0.60299326  1
  B  B7  1  0.12835654  0.60258815  0.15413093  1
  B  B8  1  0.36302611  0.60648785  0.31308687  1
  B  B9  1  0.94186023  0.65155140  0.98695277  1
  B  B10  1  0.04665540  0.84186750  0.48313591  1
  B  B11  1  0.54665540  0.65813250  0.48313591  1
  B  B12  1  0.63697389  0.39351215  0.81308687  1
  B  B13  1  0.53859113  0.40405067  0.39438631  1
  B  B14  1  0.90564388  0.41291957  0.10299326  1
  B  B15  1  0.55813977  0.15155140  0.48695277  1
  B  B16  1  0.37164346  0.10258815  0.65413093  1
  B  B17  1  0.44186023  0.84844860  0.98695277  1
  B  B18  1  0.95334460  0.15813250  0.98313591  1
  B  B19  1  0.09435612  0.58708043  0.60299326  1
  B  B20  1  0.13697389  0.10648785  0.81308687  1
  B  B21  1  0.45334460  0.34186750  0.98313591  1
  B  B22  1  0.62835654  0.89741185  0.15413093  1
  B  B23  1  0.40564388  0.08708043  0.10299326  1
  B  B24  1  0.03859113  0.09594933  0.39438631  1
  B  B25  1  0.86302611  0.89351215  0.31308687  1
  B  B26  1  0.96140887  0.90405067  0.89438631  1
  B  B27  1  0.46140887  0.59594933  0.89438631  1
  O  O28  1  0.74980238  0.33831694  0.73067641  1
  O  O29  1  0.93239917  0.79148606  0.39557947  1
  O  O30  1  0.63271668  0.01140392  0.49826124  1
  O  O31  1  0.39509557  0.49449822  0.97752015  1
  O  O32  1  0.93545767  0.29620164  0.56800862  1
  O  O33  1  0.06831994  0.45445242  0.16301580  1
  O  O34  1  0.93168006  0.54554758  0.66301580  1
  O  O35  1  0.56760083  0.29148606  0.89557947  1
  O  O36  1  0.43239917  0.70851394  0.39557947  1
  O  O37  1  0.10490443  0.99449822  0.47752015  1
  O  O38  1  0.89787769  0.24750157  0.07554210  1
  O  O39  1  0.56454233  0.79620164  0.06800862  1
  O  O40  1  0.89509557  0.00550178  0.97752015  1
  O  O41  1  0.60490443  0.50550178  0.47752015  1
  O  O42  1  0.75019762  0.83831694  0.23067641  1
  O  O43  1  0.09524421  0.24821747  0.39053193  1
  O  O44  1  0.40475579  0.74821747  0.89053193  1
  O  O45  1  0.86728332  0.51140392  0.99826124  1
  O  O46  1  0.43545767  0.20379836  0.56800862  1
  O  O47  1  0.06760083  0.20851394  0.89557947  1
  O  O48  1  0.06454233  0.70379836  0.06800862  1
  O  O49  1  0.59524421  0.25178253  0.39053193  1
  O  O50  1  0.91493873  0.04898336  0.31156860  1
  O  O51  1  0.08506127  0.95101664  0.81156860  1
  O  O52  1  0.41493873  0.45101664  0.31156860  1
  O  O53  1  0.24980238  0.16168306  0.73067641  1
  O  O54  1  0.58506127  0.54898336  0.81156860  1
  O  O55  1  0.56831994  0.04554758  0.16301580  1
  O  O56  1  0.10212231  0.75249843  0.57554210  1
  O  O57  1  0.39787769  0.25249843  0.07554210  1
  O  O58  1  0.60212231  0.74750157  0.57554210  1
  O  O59  1  0.90475579  0.75178253  0.89053193  1
  O  O60  1  0.13271668  0.48859608  0.49826124  1
  O  O61  1  0.43168006  0.95445242  0.66301580  1
  O  O62  1  0.25019762  0.66168306  0.23067641  1
  O  O63  1  0.36728332  0.98859608  0.99826124  1
  F  F64  1  0.72843531  0.92814649  0.69484334  1
  F  F65  1  0.77156469  0.42814649  0.19484334  1
  F  F66  1  0.22843531  0.57185351  0.69484334  1
  F  F67  1  0.27156469  0.07185351  0.19484334  1
