# generated using pymatgen
data_EuTmO3
_symmetry_space_group_name_H-M   'P 1'
_cell_length_a   6.01765024
_cell_length_b   8.24291141
_cell_length_c   5.80432175
_cell_angle_alpha   90.00000000
_cell_angle_beta   90.00000000
_cell_angle_gamma   90.00000000
_symmetry_Int_Tables_number   1
_chemical_formula_structural   EuTmO3
_chemical_formula_sum   'Eu4 Tm4 O12'
_cell_volume   287.91152697
_cell_formula_units_Z   4
loop_
 _symmetry_equiv_pos_site_id
 _symmetry_equiv_pos_as_xyz
  1  'x, y, z'
loop_
 _atom_site_type_symbol
 _atom_site_label
 _atom_site_symmetry_multiplicity
 _atom_site_fract_x
 _atom_site_fract_y
 _atom_site_fract_z
 _atom_site_occupancy
  Eu  Eu0  1  0.05271691  0.25000000  0.99031130  1
  Eu  Eu1  1  0.44728309  0.75000000  0.49031130  1
  Eu  Eu2  1  0.55271691  0.25000000  0.50968870  1
  Eu  Eu3  1  0.94728309  0.75000000  0.00968870  1
  Tm  Tm4  1  0.00000000  -0.00000000  0.50000000  1
  Tm  Tm5  1  0.00000000  0.50000000  0.50000000  1
  Tm  Tm6  1  0.50000000  -0.00000000  -0.00000000  1
  Tm  Tm7  1  0.50000000  0.50000000  -0.00000000  1
  O  O8  1  0.06493772  0.75000000  0.62801211  1
  O  O9  1  0.18480404  0.56593848  0.18135138  1
  O  O10  1  0.18480404  0.93406152  0.18135138  1
  O  O11  1  0.31519596  0.06593848  0.68135138  1
  O  O12  1  0.31519596  0.43406152  0.68135138  1
  O  O13  1  0.43506228  0.25000000  0.12801211  1
  O  O14  1  0.56493772  0.75000000  0.87198789  1
  O  O15  1  0.68480404  0.93406152  0.31864862  1
  O  O16  1  0.68480404  0.56593848  0.31864862  1
  O  O17  1  0.81519596  0.06593848  0.81864862  1
  O  O18  1  0.81519596  0.43406152  0.81864862  1
  O  O19  1  0.93506228  0.25000000  0.37198789  1
