# generated using pymatgen
data_SrLi2Ta2O7
_symmetry_space_group_name_H-M   'P 1'
_cell_length_a   5.63089294
_cell_length_b   5.63716642
_cell_length_c   9.62729259
_cell_angle_alpha   107.02387173
_cell_angle_beta   90.00000000
_cell_angle_gamma   90.00000000
_symmetry_Int_Tables_number   1
_chemical_formula_structural   SrLi2Ta2O7
_chemical_formula_sum   'Sr2 Li4 Ta4 O14'
_cell_volume   292.20204559
_cell_formula_units_Z   2
loop_
 _symmetry_equiv_pos_site_id
 _symmetry_equiv_pos_as_xyz
  1  'x, y, z'
loop_
 _atom_site_type_symbol
 _atom_site_label
 _atom_site_symmetry_multiplicity
 _atom_site_fract_x
 _atom_site_fract_y
 _atom_site_fract_z
 _atom_site_occupancy
  Sr  Sr0  1  0.75000000  0.25480117  1.00000000  1
  Sr  Sr1  1  0.25000000  0.74519883  0.00000000  1
  Li  Li2  1  0.50000000  0.25829814  0.51659629  1
  Li  Li3  1  0.50000000  0.74170186  0.48340371  1
  Li  Li4  1  0.00000000  0.74170186  0.48340371  1
  Li  Li5  1  0.00000000  0.25829814  0.51659629  1
  Ta  Ta6  1  0.25000000  0.36200186  0.22927631  1
  Ta  Ta7  1  0.25000000  0.13272555  0.77072369  1
  Ta  Ta8  1  0.75000000  0.86727445  0.22927631  1
  Ta  Ta9  1  0.75000000  0.63799814  0.77072369  1
  O  O10  1  0.00000000  0.09691535  0.19383070  1
  O  O11  1  0.75000000  0.55582423  0.56602889  1
  O  O12  1  0.00000000  0.38761993  0.77523985  1
  O  O13  1  0.50000000  0.09691535  0.19383070  1
  O  O14  1  0.75000000  0.98979533  0.43397111  1
  O  O15  1  0.00000000  0.90308465  0.80616930  1
  O  O16  1  0.50000000  0.38761993  0.77523985  1
  O  O17  1  0.50000000  0.61238007  0.22476015  1
  O  O18  1  0.50000000  0.90308465  0.80616930  1
  O  O19  1  0.25000000  0.01020467  0.56602889  1
  O  O20  1  0.25000000  0.28479102  1.00000000  1
  O  O21  1  0.25000000  0.44417577  0.43397111  1
  O  O22  1  0.00000000  0.61238007  0.22476015  1
  O  O23  1  0.75000000  0.71520898  0.00000000  1
