# generated using pymatgen
data_BaLi2Ti6O14
_symmetry_space_group_name_H-M   'P 1'
_cell_length_a   10.13311295
_cell_length_b   10.13311268
_cell_length_c   11.67974277
_cell_angle_alpha   90.00000000
_cell_angle_beta   90.00000000
_cell_angle_gamma   111.47901199
_symmetry_Int_Tables_number   1
_chemical_formula_structural   BaLi2Ti6O14
_chemical_formula_sum   'Ba4 Li8 Ti24 O56'
_cell_volume   1115.98811098
_cell_formula_units_Z   4
loop_
 _symmetry_equiv_pos_site_id
 _symmetry_equiv_pos_as_xyz
  1  'x, y, z'
loop_
 _atom_site_type_symbol
 _atom_site_label
 _atom_site_symmetry_multiplicity
 _atom_site_fract_x
 _atom_site_fract_y
 _atom_site_fract_z
 _atom_site_occupancy
  Ba  Ba0  1  0.85494787  0.85494787  0.37932292  1
  Ba  Ba1  1  0.35494787  0.35494787  0.12067708  1
  Ba  Ba2  1  0.64505213  0.64505213  0.87932292  1
  Ba  Ba3  1  0.14505213  0.14505213  0.62067708  1
  Li  Li4  1  0.43445435  0.05564671  0.12107961  1
  Li  Li5  1  0.93445435  0.55564671  0.37892039  1
  Li  Li6  1  0.44435329  0.06554565  0.62107961  1
  Li  Li7  1  0.55564671  0.93445435  0.37892039  1
  Li  Li8  1  0.94435329  0.56554565  0.87892039  1
  Li  Li9  1  0.56554565  0.94435329  0.87892039  1
  Li  Li10  1  0.06554565  0.44435329  0.62107961  1
  Li  Li11  1  0.05564671  0.43445435  0.12107961  1
  Ti  Ti12  1  0.26252055  0.73747945  0.00000000  1
  Ti  Ti13  1  0.01934516  0.24052418  0.35696544  1
  Ti  Ti14  1  0.24349015  0.74349015  0.25000000  1
  Ti  Ti15  1  0.98065484  0.75947582  0.64303456  1
  Ti  Ti16  1  0.72450182  0.50632907  0.61361430  1
  Ti  Ti17  1  0.75650985  0.25650985  0.75000000  1
  Ti  Ti18  1  0.25947582  0.48065484  0.85696544  1
  Ti  Ti19  1  0.25650985  0.75650985  0.75000000  1
  Ti  Ti20  1  0.74052418  0.51934516  0.14303456  1
  Ti  Ti21  1  0.99367093  0.77549818  0.11361430  1
  Ti  Ti22  1  0.23747945  0.76252055  0.50000000  1
  Ti  Ti23  1  0.48065484  0.25947582  0.85696544  1
  Ti  Ti24  1  0.77549818  0.99367093  0.11361430  1
  Ti  Ti25  1  0.49367093  0.27549818  0.38638570  1
  Ti  Ti26  1  0.27549818  0.49367093  0.38638570  1
  Ti  Ti27  1  0.75947582  0.98065484  0.64303456  1
  Ti  Ti28  1  0.00632907  0.22450182  0.88638570  1
  Ti  Ti29  1  0.76252055  0.23747945  0.50000000  1
  Ti  Ti30  1  0.24052418  0.01934516  0.35696544  1
  Ti  Ti31  1  0.50632907  0.72450182  0.61361430  1
  Ti  Ti32  1  0.22450182  0.00632907  0.88638570  1
  Ti  Ti33  1  0.74349015  0.24349015  0.25000000  1
  Ti  Ti34  1  0.51934516  0.74052418  0.14303456  1
  Ti  Ti35  1  0.73747945  0.26252055  0.00000000  1
  O  O36  1  0.34718178  0.87883268  0.37218957  1
  O  O37  1  0.59614490  0.59614490  0.12656571  1
  O  O38  1  0.63282708  0.36717292  0.50000000  1
  O  O39  1  0.15281822  0.62116732  0.87218957  1
  O  O40  1  0.63161254  0.85876166  0.74016191  1
  O  O41  1  0.36379688  0.13701802  0.97999392  1
  O  O42  1  0.63392495  0.36960886  0.74871944  1
  O  O43  1  0.64761789  0.12436616  0.12197275  1
  O  O44  1  0.59578666  0.59578666  0.63002485  1
  O  O45  1  0.37563384  0.85238211  0.62197275  1
  O  O46  1  0.90421334  0.90421334  0.13002485  1
  O  O47  1  0.13620312  0.36298198  0.47999392  1
  O  O48  1  0.13392495  0.86960886  0.75128056  1
  O  O49  1  0.86607505  0.13039114  0.24871944  1
  O  O50  1  0.63039114  0.36607505  0.25128056  1
  O  O51  1  0.36717292  0.63282708  0.50000000  1
  O  O52  1  0.14123834  0.36838746  0.25983809  1
  O  O53  1  0.64123834  0.86838746  0.24016191  1
  O  O54  1  0.86298198  0.63620312  0.02000608  1
  O  O55  1  0.87219899  0.12780101  0.50000000  1
  O  O56  1  0.12436616  0.64761789  0.12197275  1
  O  O57  1  0.62780101  0.37219899  0.00000000  1
  O  O58  1  0.65281822  0.12116732  0.62781043  1
  O  O59  1  0.62116732  0.15281822  0.87218957  1
  O  O60  1  0.35876166  0.13161254  0.75983809  1
  O  O61  1  0.86379688  0.63701802  0.52000608  1
  O  O62  1  0.84718178  0.37883268  0.12781043  1
  O  O63  1  0.63620312  0.86298198  0.02000608  1
  O  O64  1  0.37883268  0.84718178  0.12781043  1
  O  O65  1  0.86960886  0.13392495  0.75128056  1
  O  O66  1  0.86717292  0.13282708  0.00000000  1
  O  O67  1  0.40421334  0.40421334  0.36997515  1
  O  O68  1  0.09578666  0.09578666  0.86997515  1
  O  O69  1  0.13701802  0.36379688  0.97999392  1
  O  O70  1  0.87563384  0.35238211  0.87802725  1
  O  O71  1  0.14761789  0.62436616  0.37802725  1
  O  O72  1  0.85876166  0.63161254  0.74016191  1
  O  O73  1  0.36960886  0.63392495  0.74871944  1
  O  O74  1  0.12116732  0.65281822  0.62781043  1
  O  O75  1  0.35238211  0.87563384  0.87802725  1
  O  O76  1  0.12780101  0.87219899  0.50000000  1
  O  O77  1  0.37219899  0.62780101  0.00000000  1
  O  O78  1  0.36298198  0.13620312  0.47999392  1
  O  O79  1  0.85238211  0.37563384  0.62197275  1
  O  O80  1  0.86838746  0.64123834  0.24016191  1
  O  O81  1  0.40385510  0.40385510  0.87343429  1
  O  O82  1  0.09614490  0.09614490  0.37343429  1
  O  O83  1  0.13282708  0.86717292  0.00000000  1
  O  O84  1  0.36607505  0.63039114  0.25128056  1
  O  O85  1  0.90385510  0.90385510  0.62656571  1
  O  O86  1  0.36838746  0.14123834  0.25983809  1
  O  O87  1  0.13039114  0.86607505  0.24871944  1
  O  O88  1  0.87883268  0.34718178  0.37218957  1
  O  O89  1  0.63701802  0.86379688  0.52000608  1
  O  O90  1  0.13161254  0.35876166  0.75983809  1
  O  O91  1  0.62436616  0.14761789  0.37802725  1
