# generated using pymatgen
data_LiMnF4
_symmetry_space_group_name_H-M   'P 1'
_cell_length_a   4.73684255
_cell_length_b   5.53378314
_cell_length_c   5.82388550
_cell_angle_alpha   113.47015626
_cell_angle_beta   90.00000000
_cell_angle_gamma   90.00000000
_symmetry_Int_Tables_number   1
_chemical_formula_structural   LiMnF4
_chemical_formula_sum   'Li2 Mn2 F8'
_cell_volume   140.02964551
_cell_formula_units_Z   2
loop_
 _symmetry_equiv_pos_site_id
 _symmetry_equiv_pos_as_xyz
  1  'x, y, z'
loop_
 _atom_site_type_symbol
 _atom_site_label
 _atom_site_symmetry_multiplicity
 _atom_site_fract_x
 _atom_site_fract_y
 _atom_site_fract_z
 _atom_site_occupancy
  Li  Li0  1  0.50000000  0.50000000  0.00000000  1
  Li  Li1  1  0.00000000  0.50000000  0.50000000  1
  Mn  Mn2  1  0.00000000  0.00000000  0.00000000  1
  Mn  Mn3  1  0.50000000  0.00000000  0.50000000  1
  F  F4  1  0.21833306  0.14804935  0.35899931  1
  F  F5  1  0.18084754  0.67382721  0.85779990  1
  F  F6  1  0.78166694  0.85195065  0.64099969  1
  F  F7  1  0.71833306  0.85195065  0.14099969  1
  F  F8  1  0.28166694  0.14804935  0.85900031  1
  F  F9  1  0.81915246  0.32617279  0.14220010  1
  F  F10  1  0.31915246  0.67382721  0.35779990  1
  F  F11  1  0.68084754  0.32617279  0.64220010  1
