# generated using pymatgen
data_BF3
_symmetry_space_group_name_H-M   'P 1'
_cell_length_a   4.84553383
_cell_length_b   7.52756350
_cell_length_c   14.27171454
_cell_angle_alpha   90.00000000
_cell_angle_beta   90.00000000
_cell_angle_gamma   107.55562373
_symmetry_Int_Tables_number   1
_chemical_formula_structural   BF3
_chemical_formula_sum   'B8 F24'
_cell_volume   496.31631059
_cell_formula_units_Z   8
loop_
 _symmetry_equiv_pos_site_id
 _symmetry_equiv_pos_as_xyz
  1  'x, y, z'
loop_
 _atom_site_type_symbol
 _atom_site_label
 _atom_site_symmetry_multiplicity
 _atom_site_fract_x
 _atom_site_fract_y
 _atom_site_fract_z
 _atom_site_occupancy
  B  B0  1  0.86315929  0.23342200  0.13583557  1
  B  B1  1  0.13684071  0.26657800  0.63583557  1
  B  B2  1  0.52371910  0.27889582  0.88387313  1
  B  B3  1  0.52371910  0.77889582  0.61612687  1
  B  B4  1  0.47628090  0.22110418  0.38387313  1
  B  B5  1  0.86315929  0.73342200  0.36416443  1
  B  B6  1  0.47628090  0.72110418  0.11612687  1
  B  B7  1  0.13684071  0.76657800  0.86416443  1
  F  F8  1  0.74942836  0.76980673  0.28410251  1
  F  F9  1  0.07093935  0.65277215  0.36303984  1
  F  F10  1  0.92906065  0.84722785  0.86303984  1
  F  F11  1  0.76655051  0.78013955  0.44488678  1
  F  F12  1  0.25057164  0.73019327  0.78410251  1
  F  F13  1  0.73931122  0.42314361  0.85369996  1
  F  F14  1  0.26068878  0.07685639  0.35369996  1
  F  F15  1  0.29513693  0.80633139  0.57496986  1
  F  F16  1  0.70486307  0.69366861  0.07496986  1
  F  F17  1  0.74942836  0.26980673  0.21589749  1
  F  F18  1  0.53991028  0.60684895  0.62823026  1
  F  F19  1  0.76655051  0.28013955  0.05511322  1
  F  F20  1  0.23344949  0.71986045  0.94488678  1
  F  F21  1  0.26068878  0.57685639  0.14630004  1
  F  F22  1  0.92906065  0.34722785  0.63696016  1
  F  F23  1  0.46008972  0.39315105  0.37176974  1
  F  F24  1  0.23344949  0.21986045  0.55511322  1
  F  F25  1  0.07093935  0.15277215  0.13696016  1
  F  F26  1  0.46008972  0.89315105  0.12823026  1
  F  F27  1  0.25057164  0.23019327  0.71589749  1
  F  F28  1  0.70486307  0.19366861  0.42503014  1
  F  F29  1  0.53991028  0.10684895  0.87176974  1
  F  F30  1  0.73931122  0.92314361  0.64630004  1
  F  F31  1  0.29513693  0.30633139  0.92503014  1
