# generated using pymatgen
data_CoOF
_symmetry_space_group_name_H-M   'P 1'
_cell_length_a   4.64884868
_cell_length_b   13.87583100
_cell_length_c   2.99359533
_cell_angle_alpha   90.00000000
_cell_angle_beta   90.00000000
_cell_angle_gamma   95.28367943
_symmetry_Int_Tables_number   1
_chemical_formula_structural   CoOF
_chemical_formula_sum   'Co6 O6 F6'
_cell_volume   192.28625567
_cell_formula_units_Z   6
loop_
 _symmetry_equiv_pos_site_id
 _symmetry_equiv_pos_as_xyz
  1  'x, y, z'
loop_
 _atom_site_type_symbol
 _atom_site_label
 _atom_site_symmetry_multiplicity
 _atom_site_fract_x
 _atom_site_fract_y
 _atom_site_fract_z
 _atom_site_occupancy
  Co  Co0  1  0.05681060  0.00078471  -0.00000000  1
  Co  Co1  1  0.00982619  0.33357714  0.00000000  1
  Co  Co2  1  0.96730951  0.66659658  -0.00000000  1
  Co  Co3  1  0.52868667  0.16820623  0.50000000  1
  Co  Co4  1  0.49292769  0.49911145  0.50000000  1
  Co  Co5  1  0.44192456  0.83307507  0.50000000  1
  O  O6  1  0.21260641  0.93498074  0.50000000  1
  O  O7  1  0.26939620  0.76665370  0.00000000  1
  O  O8  1  0.33919205  0.10315903  -0.00000000  1
  O  O9  1  0.31033520  0.43575462  0.00000000  1
  O  O10  1  0.66982297  0.56507086  -0.00000000  1
  O  O11  1  0.71569141  0.23072969  0.00000000  1
  F  F12  1  0.21171640  0.26875303  0.50000000  1
  F  F13  1  0.16286149  0.60145756  0.50000000  1
  F  F14  1  0.70238878  0.89813786  0.00000000  1
  F  F15  1  0.83486029  0.06138638  0.50000000  1
  F  F16  1  0.80877324  0.39819571  0.50000000  1
  F  F17  1  0.76487132  0.73436864  0.50000000  1
