# generated using pymatgen
data_Ti4S8Cl6O
_symmetry_space_group_name_H-M   'P 1'
_cell_length_a   9.65969731
_cell_length_b   9.82662817
_cell_length_c   13.38672057
_cell_angle_alpha   81.53844790
_cell_angle_beta   72.57980505
_cell_angle_gamma   60.56036854
_symmetry_Int_Tables_number   1
_chemical_formula_structural   Ti4S8Cl6O
_chemical_formula_sum   'Ti8 S16 Cl12 O2'
_cell_volume   1055.86246929
_cell_formula_units_Z   2
loop_
 _symmetry_equiv_pos_site_id
 _symmetry_equiv_pos_as_xyz
  1  'x, y, z'
loop_
 _atom_site_type_symbol
 _atom_site_label
 _atom_site_symmetry_multiplicity
 _atom_site_fract_x
 _atom_site_fract_y
 _atom_site_fract_z
 _atom_site_occupancy
  Ti  Ti0  1  0.86614792  0.36918879  0.85122416  1
  Ti  Ti1  1  0.20744384  0.92807074  0.21318113  1
  Ti  Ti2  1  0.13551459  0.07192926  0.71318113  1
  Ti  Ti3  1  0.13385208  0.63081121  0.14877584  1
  Ti  Ti4  1  0.23533671  0.63081121  0.35122416  1
  Ti  Ti5  1  0.86448541  0.92807074  0.28681887  1
  Ti  Ti6  1  0.79255616  0.07192926  0.78681887  1
  Ti  Ti7  1  0.76466329  0.36918879  0.64877584  1
  S  S8  1  0.13395086  0.14202836  0.87922868  1
  S  S9  1  0.93086888  0.11683497  0.17614351  1
  S  S10  1  0.54831453  0.30217323  0.73402274  1
  S  S11  1  0.04770384  0.88316503  0.67614351  1
  S  S12  1  0.86604914  0.85797164  0.12077132  1
  S  S13  1  0.82954777  0.55809039  0.71085196  1
  S  S14  1  0.95229616  0.11683497  0.32385649  1
  S  S15  1  0.72402078  0.14202836  0.62077132  1
  S  S16  1  0.38763816  0.44190961  0.21085196  1
  S  S17  1  0.06913112  0.88316503  0.82385649  1
  S  S18  1  0.85048776  0.69782677  0.23402274  1
  S  S19  1  0.17045223  0.44190961  0.28914804  1
  S  S20  1  0.61236184  0.55809039  0.78914804  1
  S  S21  1  0.27597922  0.85797164  0.37922868  1
  S  S22  1  0.14951224  0.30217323  0.76597726  1
  S  S23  1  0.45168547  0.69782677  0.26597726  1
  Cl  Cl24  1  0.71445809  0.21788317  0.95361912  1
  Cl  Cl25  1  0.93234126  0.78211683  0.45361912  1
  Cl  Cl26  1  0.69105023  0.50753822  0.50867097  1
  Cl  Cl27  1  0.19858845  0.49246178  0.00867097  1
  Cl  Cl28  1  0.66151097  0.93497131  0.86189706  1
  Cl  Cl29  1  0.30894977  0.49246178  0.49132903  1
  Cl  Cl30  1  0.40351771  0.93497131  0.63810294  1
  Cl  Cl31  1  0.06765874  0.21788317  0.54638088  1
  Cl  Cl32  1  0.33848903  0.06502869  0.13810294  1
  Cl  Cl33  1  0.80141155  0.50753822  0.99132903  1
  Cl  Cl34  1  0.59648229  0.06502869  0.36189706  1
  Cl  Cl35  1  0.28554191  0.78211683  0.04638088  1
  O  O36  1  0.11031734  0.77936532  0.25000000  1
  O  O37  1  0.88968266  0.22063468  0.75000000  1
