# generated using pymatgen
data_KMnF4
_symmetry_space_group_name_H-M   'P 1'
_cell_length_a   5.91195852
_cell_length_b   7.84839067
_cell_length_c   7.88665888
_cell_angle_alpha   90.00000000
_cell_angle_beta   90.62742045
_cell_angle_gamma   90.00000000
_symmetry_Int_Tables_number   1
_chemical_formula_structural   KMnF4
_chemical_formula_sum   'K4 Mn4 F16'
_cell_volume   365.91398496
_cell_formula_units_Z   4
loop_
 _symmetry_equiv_pos_site_id
 _symmetry_equiv_pos_as_xyz
  1  'x, y, z'
loop_
 _atom_site_type_symbol
 _atom_site_label
 _atom_site_symmetry_multiplicity
 _atom_site_fract_x
 _atom_site_fract_y
 _atom_site_fract_z
 _atom_site_occupancy
  K  K0  1  0.50768246  0.69331858  0.25425207  1
  K  K1  1  0.49231754  0.19331858  0.24574793  1
  K  K2  1  0.49231754  0.30668142  0.74574793  1
  K  K3  1  0.50768246  0.80668142  0.75425207  1
  Mn  Mn4  1  0.00000000  0.00000000  0.50000000  1
  Mn  Mn5  1  0.00000000  0.50000000  0.00000000  1
  Mn  Mn6  1  0.00000000  0.50000000  0.50000000  1
  Mn  Mn7  1  0.00000000  0.00000000  0.00000000  1
  F  F8  1  0.71027048  0.07584594  0.94630391  1
  F  F9  1  0.29066100  0.55821543  0.93541524  1
  F  F10  1  0.29066100  0.94178457  0.43541524  1
  F  F11  1  0.70933900  0.44178457  0.06458476  1
  F  F12  1  0.88491232  0.77019092  0.99702809  1
  F  F13  1  0.11508768  0.27019092  0.50297191  1
  F  F14  1  0.11508768  0.22980908  0.00297191  1
  F  F15  1  0.88491232  0.72980908  0.49702809  1
  F  F16  1  0.09482740  0.98159187  0.73267819  1
  F  F17  1  0.71027048  0.42415406  0.44630391  1
  F  F18  1  0.90517260  0.01840813  0.26732181  1
  F  F19  1  0.09482740  0.51840813  0.23267819  1
  F  F20  1  0.90517260  0.48159187  0.76732181  1
  F  F21  1  0.28972952  0.57584594  0.55369609  1
  F  F22  1  0.28972952  0.92415406  0.05369609  1
  F  F23  1  0.70933900  0.05821543  0.56458476  1
