# generated using pymatgen
data_LaH4S2NO8
_symmetry_space_group_name_H-M   'P 1'
_cell_length_a   5.54970833
_cell_length_b   7.17009613
_cell_length_c   9.35530956
_cell_angle_alpha   98.54874948
_cell_angle_beta   90.00000000
_cell_angle_gamma   90.00000000
_symmetry_Int_Tables_number   1
_chemical_formula_structural   LaH4S2NO8
_chemical_formula_sum   'La2 H8 S4 N2 O16'
_cell_volume   368.12996760
_cell_formula_units_Z   2
loop_
 _symmetry_equiv_pos_site_id
 _symmetry_equiv_pos_as_xyz
  1  'x, y, z'
loop_
 _atom_site_type_symbol
 _atom_site_label
 _atom_site_symmetry_multiplicity
 _atom_site_fract_x
 _atom_site_fract_y
 _atom_site_fract_z
 _atom_site_occupancy
  La  La0  1  0.75000000  0.80215507  0.72390132  1
  La  La1  1  0.25000000  0.19784493  0.27609868  1
  H  H2  1  0.75000000  0.83002762  0.19740583  1
  H  H3  1  0.89963165  0.62375096  0.14653982  1
  H  H4  1  0.25000000  0.16997238  0.80259417  1
  H  H5  1  0.25000000  0.34270195  0.69584740  1
  H  H6  1  0.10036835  0.37624904  0.85346018  1
  H  H7  1  0.39963165  0.37624904  0.85346018  1
  H  H8  1  0.60036835  0.62375096  0.14653982  1
  H  H9  1  0.75000000  0.65729805  0.30415260  1
  S  S10  1  0.75000000  0.27612165  0.56592150  1
  S  S11  1  0.75000000  0.18870462  0.07317082  1
  S  S12  1  0.25000000  0.81129538  0.92682918  1
  S  S13  1  0.25000000  0.72387835  0.43407850  1
  N  N14  1  0.25000000  0.31538107  0.80064175  1
  N  N15  1  0.75000000  0.68461893  0.19935825  1
  O  O16  1  0.25000000  0.93438796  0.06754212  1
  O  O17  1  0.25000000  0.90017207  0.36846234  1
  O  O18  1  0.75000000  0.44048026  0.68371287  1
  O  O19  1  0.02938933  0.71818260  0.52331584  1
  O  O20  1  0.52958571  0.31010450  0.08752286  1
  O  O21  1  0.75000000  0.09982793  0.63153766  1
  O  O22  1  0.97061067  0.28181740  0.47668416  1
  O  O23  1  0.75000000  0.07745558  0.19754435  1
  O  O24  1  0.02958571  0.68989550  0.91247714  1
  O  O25  1  0.47061067  0.71818260  0.52331584  1
  O  O26  1  0.75000000  0.06561204  0.93245788  1
  O  O27  1  0.25000000  0.55951974  0.31628713  1
  O  O28  1  0.52938933  0.28181740  0.47668416  1
  O  O29  1  0.47041429  0.68989550  0.91247714  1
  O  O30  1  0.25000000  0.92254442  0.80245565  1
  O  O31  1  0.97041429  0.31010450  0.08752286  1
