# generated using pymatgen
data_GdSClO4
_symmetry_space_group_name_H-M   'P 1'
_cell_length_a   6.63951049
_cell_length_b   6.88483903
_cell_length_c   9.54909196
_cell_angle_alpha   105.06510693
_cell_angle_beta   90.00000000
_cell_angle_gamma   90.00000000
_symmetry_Int_Tables_number   1
_chemical_formula_structural   GdSClO4
_chemical_formula_sum   'Gd4 S4 Cl4 O16'
_cell_volume   421.50542847
_cell_formula_units_Z   4
loop_
 _symmetry_equiv_pos_site_id
 _symmetry_equiv_pos_as_xyz
  1  'x, y, z'
loop_
 _atom_site_type_symbol
 _atom_site_label
 _atom_site_symmetry_multiplicity
 _atom_site_fract_x
 _atom_site_fract_y
 _atom_site_fract_z
 _atom_site_occupancy
  Gd  Gd0  1  0.90461291  0.17321983  0.23651286  1
  Gd  Gd1  1  0.40461291  0.32678017  0.76348714  1
  Gd  Gd2  1  0.09538709  0.82678017  0.76348714  1
  Gd  Gd3  1  0.59538709  0.67321983  0.23651286  1
  S  S4  1  0.94067406  0.29150873  0.64365052  1
  S  S5  1  0.44067406  0.20849127  0.35634948  1
  S  S6  1  0.55932594  0.79150873  0.64365052  1
  S  S7  1  0.05932594  0.70849127  0.35634948  1
  Cl  Cl8  1  0.86045990  0.81087662  0.03023170  1
  Cl  Cl9  1  0.63954010  0.31087662  0.03023170  1
  Cl  Cl10  1  0.36045990  0.68912338  0.96976830  1
  Cl  Cl11  1  0.13954010  0.18912338  0.96976830  1
  O  O12  1  0.57209674  0.03207714  0.27873605  1
  O  O13  1  0.92790326  0.53207714  0.27873605  1
  O  O14  1  0.05785756  0.11261652  0.65581828  1
  O  O15  1  0.75388716  0.80469151  0.71882890  1
  O  O16  1  0.58758982  0.79584074  0.49250748  1
  O  O17  1  0.94214244  0.88738348  0.34418172  1
  O  O18  1  0.55785756  0.38738348  0.34418172  1
  O  O19  1  0.74611284  0.30469151  0.71882890  1
  O  O20  1  0.08758982  0.70415926  0.50749252  1
  O  O21  1  0.41241018  0.20415926  0.50749252  1
  O  O22  1  0.44214244  0.61261652  0.65581828  1
  O  O23  1  0.42790326  0.96792286  0.72126395  1
  O  O24  1  0.07209674  0.46792286  0.72126395  1
  O  O25  1  0.91241018  0.29584074  0.49250748  1
  O  O26  1  0.25388716  0.69530849  0.28117110  1
  O  O27  1  0.24611284  0.19530849  0.28117110  1
