# generated using pymatgen
data_Ba4Nb2(OF4)3
_symmetry_space_group_name_H-M   'P 1'
_cell_length_a   13.33047424
_cell_length_b   13.32919409
_cell_length_c   15.25237904
_cell_angle_alpha   110.79651665
_cell_angle_beta   90.00000000
_cell_angle_gamma   120.00317706
_symmetry_Int_Tables_number   1
_chemical_formula_structural   Ba4Nb2(OF4)3
_chemical_formula_sum   'Ba24 Nb12 O18 F72'
_cell_volume   2140.62984095
_cell_formula_units_Z   6
loop_
 _symmetry_equiv_pos_site_id
 _symmetry_equiv_pos_as_xyz
  1  'x, y, z'
loop_
 _atom_site_type_symbol
 _atom_site_label
 _atom_site_symmetry_multiplicity
 _atom_site_fract_x
 _atom_site_fract_y
 _atom_site_fract_z
 _atom_site_occupancy
  Ba  Ba0  1  0.23651749  0.15352063  0.38999934  1
  Ba  Ba1  1  0.42194308  0.83161706  0.11282051  1
  Ba  Ba2  1  0.43792656  0.52190666  0.16942192  1
  Ba  Ba3  1  0.59032602  0.16838294  0.38717949  1
  Ba  Ba4  1  0.76348251  0.84647937  0.61000066  1
  Ba  Ba5  1  0.08398010  0.52190666  0.66942192  1
  Ba  Ba6  1  0.43065573  0.18873589  0.15898716  1
  Ba  Ba7  1  0.09139686  0.17339099  0.64258665  1
  Ba  Ba8  1  0.91700313  0.15352063  0.88999934  1
  Ba  Ba9  1  0.74900522  0.83432755  0.11146201  1
  Ba  Ba10  1  0.91467767  0.16567245  0.38853799  1
  Ba  Ba11  1  0.57805692  0.16838294  0.88717949  1
  Ba  Ba12  1  0.75808016  0.18873589  0.65898716  1
  Ba  Ba13  1  0.40967398  0.83161706  0.61282051  1
  Ba  Ba14  1  0.08199414  0.17339099  0.14258665  1
  Ba  Ba15  1  0.56934427  0.81126411  0.84101284  1
  Ba  Ba16  1  0.24191984  0.81126411  0.34101284  1
  Ba  Ba17  1  0.91800586  0.82660901  0.85741335  1
  Ba  Ba18  1  0.91601990  0.47809334  0.33057808  1
  Ba  Ba19  1  0.56207344  0.47809334  0.83057808  1
  Ba  Ba20  1  0.08532233  0.83432755  0.61146201  1
  Ba  Ba21  1  0.90860314  0.82660901  0.35741335  1
  Ba  Ba22  1  0.25099478  0.16567245  0.88853799  1
  Ba  Ba23  1  0.08299687  0.84647937  0.11000066  1
  Nb  Nb24  1  0.80420389  0.52202015  0.61112495  1
  Nb  Nb25  1  0.28218374  0.47797985  0.88887505  1
  Nb  Nb26  1  0.87513398  0.47469397  0.91323291  1
  Nb  Nb27  1  0.39487317  0.12166216  0.60210409  1
  Nb  Nb28  1  0.60512683  0.87833784  0.39789591  1
  Nb  Nb29  1  0.19579611  0.47797985  0.38887505  1
  Nb  Nb30  1  0.27321101  0.87833784  0.89789591  1
  Nb  Nb31  1  0.12486602  0.52530603  0.08676709  1
  Nb  Nb32  1  0.40044001  0.52530603  0.58676709  1
  Nb  Nb33  1  0.59955999  0.47469397  0.41323291  1
  Nb  Nb34  1  0.71781626  0.52202015  0.11112495  1
  Nb  Nb35  1  0.72678899  0.12166216  0.10210409  1
  O  O36  1  0.46528658  0.28792123  0.65360914  1
  O  O37  1  0.18977546  0.61002854  0.39185708  1
  O  O38  1  0.08283091  0.36702441  0.06484648  1
  O  O39  1  0.23183764  0.55838150  0.99360869  1
  O  O40  1  0.67345614  0.44161850  0.50639131  1
  O  O41  1  0.17736534  0.71207877  0.84639086  1
  O  O42  1  0.81022454  0.38997146  0.60814292  1
  O  O43  1  0.57974692  0.38997146  0.10814292  1
  O  O44  1  0.82263466  0.28792123  0.15360914  1
  O  O45  1  0.76816236  0.44161850  0.00639131  1
  O  O46  1  0.32654386  0.55838150  0.49360869  1
  O  O47  1  0.50000000  0.50000000  0.50000000  1
  O  O48  1  0.42025308  0.61002854  0.89185708  1
  O  O49  1  0.71580650  0.63297559  0.43515352  1
  O  O50  1  0.53471342  0.71207877  0.34639086  1
  O  O51  1  0.28419350  0.36702441  0.56484648  1
  O  O52  1  0.00000000  0.50000000  0.00000000  1
  O  O53  1  0.91716909  0.63297559  0.93515352  1
  F  F54  1  0.95209939  0.91480622  0.04731727  1
  F  F55  1  0.96270683  0.91480622  0.54731727  1
  F  F56  1  0.81273266  0.29082821  0.38220895  1
  F  F57  1  0.03262754  0.73553972  0.40851667  1
  F  F58  1  0.08023880  0.42912682  0.47498886  1
  F  F59  1  0.47809555  0.29082821  0.88220895  1
  F  F60  1  0.71040220  0.08841091  0.46192434  1
  F  F61  1  0.03729317  0.08519378  0.45268273  1
  F  F62  1  0.70291218  0.73553972  0.90851667  1
  F  F63  1  0.15811685  0.28672890  0.35692980  1
  F  F64  1  0.19215264  0.73317267  0.13861402  1
  F  F65  1  0.62362136  0.91943402  0.54474654  1
  F  F66  1  0.87138794  0.71327110  0.14307020  1
  F  F67  1  0.21477407  0.09776282  0.19969353  1
  F  F68  1  0.84188315  0.71327110  0.64307020  1
  F  F69  1  0.45897996  0.26682733  0.36138598  1
  F  F70  1  0.88298875  0.09776282  0.69969353  1
  F  F71  1  0.41111056  0.86179519  0.93877138  1
  F  F72  1  0.95116806  0.00000000  0.25000000  1
  F  F73  1  0.38499890  0.90899248  0.80429234  1
  F  F74  1  0.29708782  0.26446028  0.09148333  1
  F  F75  1  0.33711908  0.62088961  0.68479255  1
  F  F76  1  0.96737246  0.26446028  0.59148333  1
  F  F77  1  0.49659095  0.43670479  0.29391665  1
  F  F78  1  0.12861206  0.28672890  0.85692980  1
  F  F79  1  0.62199129  0.91158909  0.03807566  1
  F  F80  1  0.65111197  0.57087318  0.02501114  1
  F  F81  1  0.47600642  0.09100752  0.69570766  1
  F  F82  1  0.78522593  0.90223718  0.80030647  1
  F  F83  1  0.96491223  0.65012861  0.71292705  1
  F  F84  1  0.76547281  0.90544940  0.45047177  1
  F  F85  1  0.54102004  0.73317267  0.63861402  1
  F  F86  1  0.13997659  0.90544940  0.95047177  1
  F  F87  1  0.04790061  0.08519378  0.95268273  1
  F  F88  1  0.04883194  0.00000000  0.75000000  1
  F  F89  1  0.23452719  0.09455060  0.54952823  1
  F  F90  1  0.80784736  0.26682733  0.86138598  1
  F  F91  1  0.28959780  0.91158909  0.53807566  1
  F  F92  1  0.28377054  0.62088961  0.18479255  1
  F  F93  1  0.28834656  0.08745310  0.69866378  1
  F  F94  1  0.37800871  0.08841091  0.96192434  1
  F  F95  1  0.20089346  0.91254690  0.80133622  1
  F  F96  1  0.18039741  0.44982614  0.77628282  1
  F  F97  1  0.03508777  0.34987139  0.28707295  1
  F  F98  1  0.73057127  0.55017386  0.72371718  1
  F  F99  1  0.37637864  0.08056598  0.45525346  1
  F  F100  1  0.71165344  0.91254690  0.30133622  1
  F  F101  1  0.54931538  0.13820481  0.56122862  1
  F  F102  1  0.26942873  0.44982614  0.27628282  1
  F  F103  1  0.18726734  0.70917179  0.61779105  1
  F  F104  1  0.61500110  0.09100752  0.19570766  1
  F  F105  1  0.61100052  0.00000000  0.75000000  1
  F  F106  1  0.70418734  0.08056598  0.95525346  1
  F  F107  1  0.86002341  0.09455060  0.04952823  1
  F  F108  1  0.71622946  0.37911039  0.81520745  1
  F  F109  1  0.79910654  0.08745310  0.19866378  1
  F  F110  1  0.52399358  0.90899248  0.30429234  1
  F  F111  1  0.66288092  0.37911039  0.31520745  1
  F  F112  1  0.91976120  0.57087318  0.52501114  1
  F  F113  1  0.34888803  0.42912682  0.97498886  1
  F  F114  1  0.50340905  0.56329521  0.70608335  1
  F  F115  1  0.58888944  0.13820481  0.06122862  1
  F  F116  1  0.31478362  0.34987139  0.78707295  1
  F  F117  1  0.68521638  0.65012861  0.21292705  1
  F  F118  1  0.45068462  0.86179519  0.43877138  1
  F  F119  1  0.11701125  0.90223718  0.30030647  1
  F  F120  1  0.38899948  0.00000000  0.25000000  1
  F  F121  1  0.94011384  0.43670479  0.79391665  1
  F  F122  1  0.29581266  0.91943402  0.04474654  1
  F  F123  1  0.52190445  0.70917179  0.11779105  1
  F  F124  1  0.05988616  0.56329521  0.20608335  1
  F  F125  1  0.81960259  0.55017386  0.22371718  1
