# generated using pymatgen
data_Cs4Ni3F10
_symmetry_space_group_name_H-M   'P 1'
_cell_length_a   6.23597657
_cell_length_b   7.94742807
_cell_length_c   13.93144978
_cell_angle_alpha   90.00000000
_cell_angle_beta   90.00000000
_cell_angle_gamma   113.09935154
_symmetry_Int_Tables_number   1
_chemical_formula_structural   Cs4Ni3F10
_chemical_formula_sum   'Cs8 Ni6 F20'
_cell_volume   635.08674192
_cell_formula_units_Z   2
loop_
 _symmetry_equiv_pos_site_id
 _symmetry_equiv_pos_as_xyz
  1  'x, y, z'
loop_
 _atom_site_type_symbol
 _atom_site_label
 _atom_site_symmetry_multiplicity
 _atom_site_fract_x
 _atom_site_fract_y
 _atom_site_fract_z
 _atom_site_occupancy
  F  F0  1  0.81134679  0.19721443  0.46088366  1
  F  F1  1  0.61413237  0.80278557  0.53911634  1
  F  F2  1  0.68865321  0.80278557  0.96088366  1
  F  F3  1  0.88586763  0.19721443  0.03911634  1
  F  F4  1  0.18865321  0.80278557  0.53911634  1
  F  F5  1  0.38586763  0.19721443  0.46088366  1
  F  F6  1  0.31134679  0.19721443  0.03911634  1
  F  F7  1  0.11413237  0.80278557  0.96088366  1
  F  F8  1  0.52670448  0.05340896  0.64349266  1
  F  F9  1  0.47329552  0.94659104  0.35650734  1
  F  F10  1  0.97329552  0.94659104  0.14349266  1
  F  F11  1  0.02670448  0.05340896  0.85650734  1
  F  F12  1  0.24861744  0.49723488  0.65089689  1
  F  F13  1  0.75138256  0.50276512  0.34910311  1
  F  F14  1  0.13873626  0.77747251  0.75000000  1
  F  F15  1  0.36126374  0.22252749  0.25000000  1
  F  F16  1  0.86126374  0.22252749  0.25000000  1
  F  F17  1  0.63873626  0.77747251  0.75000000  1
  F  F18  1  0.74861744  0.49723488  0.84910311  1
  F  F19  1  0.25138256  0.50276512  0.15089689  1
  Ni  Ni20  1  0.38276892  0.76553783  0.65426479  1
  Ni  Ni21  1  0.61723108  0.23446217  0.34573521  1
  Ni  Ni22  1  0.11723108  0.23446217  0.15426479  1
  Ni  Ni23  1  0.88276892  0.76553783  0.84573521  1
  Ni  Ni24  1  0.50000000  0.00000000  0.50000000  1
  Ni  Ni25  1  0.00000000  0.00000000  0.00000000  1
  Cs  Cs26  1  0.74613112  0.49226224  0.61289980  1
  Cs  Cs27  1  0.25386888  0.50773776  0.38710020  1
  Cs  Cs28  1  0.75386888  0.50773776  0.11289980  1
  Cs  Cs29  1  0.24613112  0.49226224  0.88710020  1
  Cs  Cs30  1  0.04718379  0.09436758  0.63903117  1
  Cs  Cs31  1  0.95281621  0.90563242  0.36096883  1
  Cs  Cs32  1  0.45281621  0.90563242  0.13903117  1
  Cs  Cs33  1  0.54718379  0.09436758  0.86096883  1
