# generated using pymatgen
data_K4Ba(VS4)2
_symmetry_space_group_name_H-M   'P 1'
_cell_length_a   9.09398538
_cell_length_b   10.03209803
_cell_length_c   11.52454089
_cell_angle_alpha   115.80116345
_cell_angle_beta   113.23783156
_cell_angle_gamma   89.99999816
_symmetry_Int_Tables_number   1
_chemical_formula_structural   K4Ba(VS4)2
_chemical_formula_sum   'K8 Ba2 V4 S16'
_cell_volume   850.85116763
_cell_formula_units_Z   2
loop_
 _symmetry_equiv_pos_site_id
 _symmetry_equiv_pos_as_xyz
  1  'x, y, z'
loop_
 _atom_site_type_symbol
 _atom_site_label
 _atom_site_symmetry_multiplicity
 _atom_site_fract_x
 _atom_site_fract_y
 _atom_site_fract_z
 _atom_site_occupancy
  K  K0  1  0.24851425  0.99851425  0.49702849  1
  K  K1  1  0.75148575  0.50148575  0.50297151  1
  K  K2  1  0.70309245  0.57714224  0.15428449  1
  K  K3  1  0.29690755  0.42285776  0.84571551  1
  K  K4  1  0.75148575  0.00148575  0.50297151  1
  K  K5  1  0.45119204  0.07714224  0.15428449  1
  K  K6  1  0.54880796  0.92285776  0.84571551  1
  K  K7  1  0.24851425  0.49851425  0.49702849  1
  Ba  Ba8  1  0.00000000  0.75000000  0.00000000  1
  Ba  Ba9  1  0.00000000  0.25000000  0.00000000  1
  V  V10  1  0.92546329  0.13404510  0.26809020  1
  V  V11  1  0.07453671  0.86595490  0.73190980  1
  V  V12  1  0.65737309  0.36595490  0.73190980  1
  V  V13  1  0.34262691  0.63404510  0.26809020  1
  S  S14  1  0.60378104  0.23567998  0.82321034  1
  S  S15  1  0.98350225  0.75137488  0.50274977  1
  S  S16  1  0.86847618  0.89238430  0.78476859  1
  S  S17  1  0.39621896  0.41246963  0.17678966  1
  S  S18  1  0.21942930  0.08753037  0.82321034  1
  S  S19  1  0.48075248  0.74862512  0.49725023  1
  S  S20  1  0.01649775  0.24862512  0.49725023  1
  S  S21  1  0.60378104  0.58753037  0.82321034  1
  S  S22  1  0.51924752  0.25137488  0.50274977  1
  S  S23  1  0.78057070  0.91246963  0.17678966  1
  S  S24  1  0.13152382  0.10761570  0.21523141  1
  S  S25  1  0.78057070  0.26432002  0.17678966  1
  S  S26  1  0.21942930  0.73567998  0.82321034  1
  S  S27  1  0.08370759  0.60761570  0.21523141  1
  S  S28  1  0.39621896  0.76432002  0.17678966  1
  S  S29  1  0.91629241  0.39238430  0.78476859  1
