# generated using pymatgen
data_Pr4S3NCl3
_symmetry_space_group_name_H-M   'P 1'
_cell_length_a   9.43712127
_cell_length_b   9.43712084
_cell_length_c   6.93573069
_cell_angle_alpha   90.00000000
_cell_angle_beta   90.00000000
_cell_angle_gamma   120.00000149
_symmetry_Int_Tables_number   1
_chemical_formula_structural   Pr4S3NCl3
_chemical_formula_sum   'Pr8 S6 N2 Cl6'
_cell_volume   534.93608932
_cell_formula_units_Z   2
loop_
 _symmetry_equiv_pos_site_id
 _symmetry_equiv_pos_as_xyz
  1  'x, y, z'
loop_
 _atom_site_type_symbol
 _atom_site_label
 _atom_site_symmetry_multiplicity
 _atom_site_fract_x
 _atom_site_fract_y
 _atom_site_fract_z
 _atom_site_occupancy
  Pr  Pr0  1  0.33333300  0.66666700  0.78667619  1
  Pr  Pr1  1  0.79818909  0.59637819  0.75243823  1
  Pr  Pr2  1  0.20181091  0.40362181  0.25243823  1
  Pr  Pr3  1  0.40362181  0.20181091  0.75243823  1
  Pr  Pr4  1  0.20181091  0.79818909  0.25243823  1
  Pr  Pr5  1  0.59637819  0.79818909  0.25243823  1
  Pr  Pr6  1  0.66666700  0.33333300  0.28667619  1
  Pr  Pr7  1  0.79818909  0.20181091  0.75243823  1
  S  S8  1  0.93567036  0.46783518  0.03071310  1
  S  S9  1  0.46783518  0.93567036  0.53071310  1
  S  S10  1  0.53216482  0.46783518  0.03071310  1
  S  S11  1  0.46783518  0.53216482  0.53071310  1
  S  S12  1  0.06432964  0.53216482  0.53071310  1
  S  S13  1  0.53216482  0.06432964  0.03071310  1
  N  N14  1  0.33333300  0.66666700  0.13173161  1
  N  N15  1  0.66666700  0.33333300  0.63173161  1
  Cl  Cl16  1  0.13128041  0.26256082  0.86153274  1
  Cl  Cl17  1  0.13128041  0.86871959  0.86153274  1
  Cl  Cl18  1  0.73743918  0.86871959  0.86153274  1
  Cl  Cl19  1  0.86871959  0.13128041  0.36153274  1
  Cl  Cl20  1  0.26256082  0.13128041  0.36153274  1
  Cl  Cl21  1  0.86871959  0.73743918  0.36153274  1
