# generated using pymatgen
data_KNd2NbO6
_symmetry_space_group_name_H-M   'P 1'
_cell_length_a   5.76204655
_cell_length_b   6.96699869
_cell_length_c   8.84191282
_cell_angle_alpha   104.41064368
_cell_angle_beta   90.00000000
_cell_angle_gamma   114.42641918
_symmetry_Int_Tables_number   1
_chemical_formula_structural   KNd2NbO6
_chemical_formula_sum   'K2 Nd4 Nb2 O12'
_cell_volume   310.87357152
_cell_formula_units_Z   2
loop_
 _symmetry_equiv_pos_site_id
 _symmetry_equiv_pos_as_xyz
  1  'x, y, z'
loop_
 _atom_site_type_symbol
 _atom_site_label
 _atom_site_symmetry_multiplicity
 _atom_site_fract_x
 _atom_site_fract_y
 _atom_site_fract_z
 _atom_site_occupancy
  K  K0  1  0.11565746  0.23131492  0.47874380  1
  K  K1  1  0.88434254  0.76868508  0.52125620  1
  Nd  Nd2  1  0.12930462  0.25860925  0.92974619  1
  Nd  Nd3  1  0.58801785  0.17603570  0.20244329  1
  Nd  Nd4  1  0.41198215  0.82396430  0.79755671  1
  Nd  Nd5  1  0.87069538  0.74139075  0.07025381  1
  Nb  Nb6  1  0.65884919  0.31769838  0.70253594  1
  Nb  Nb7  1  0.34115081  0.68230162  0.29746406  1
  O  O8  1  -0.00049846  0.53006435  0.83321754  1
  O  O9  1  0.21861004  0.90459592  0.29113134  1
  O  O10  1  0.25060393  0.00000000  0.00000000  1
  O  O11  1  0.78138996  0.09540408  0.70886866  1
  O  O12  1  0.68598587  0.90459592  0.29113134  1
  O  O13  1  0.74939607  0.00000000  0.00000000  1
  O  O14  1  0.31401413  0.09540408  0.70886866  1
  O  O15  1  1.00049846  0.46993565  0.16678246  1
  O  O16  1  0.67436519  0.34873038  0.49885261  1
  O  O17  1  0.32563481  0.65126962  0.50114739  1
  O  O18  1  0.46943719  0.46993565  0.16678246  1
  O  O19  1  0.53056281  0.53006435  0.83321754  1
