# generated using pymatgen
data_NaYCO3F2
_symmetry_space_group_name_H-M   'P 1'
_cell_length_a   6.37191436
_cell_length_b   7.08344299
_cell_length_c   9.30130116
_cell_angle_alpha   90.00000000
_cell_angle_beta   90.00000000
_cell_angle_gamma   90.00000000
_symmetry_Int_Tables_number   1
_chemical_formula_structural   NaYCO3F2
_chemical_formula_sum   'Na4 Y4 C4 O12 F8'
_cell_volume   419.81508456
_cell_formula_units_Z   4
loop_
 _symmetry_equiv_pos_site_id
 _symmetry_equiv_pos_as_xyz
  1  'x, y, z'
loop_
 _atom_site_type_symbol
 _atom_site_label
 _atom_site_symmetry_multiplicity
 _atom_site_fract_x
 _atom_site_fract_y
 _atom_site_fract_z
 _atom_site_occupancy
  Na  Na0  1  0.17129367  0.25000000  0.21780357  1
  Na  Na1  1  0.67129367  0.25000000  0.28219643  1
  Na  Na2  1  0.82870633  0.75000000  0.78219643  1
  Na  Na3  1  0.32870633  0.75000000  0.71780357  1
  Y  Y4  1  0.51253531  0.25000000  0.92222731  1
  Y  Y5  1  0.98746469  0.75000000  0.42222731  1
  Y  Y6  1  0.48746469  0.75000000  0.07777269  1
  Y  Y7  1  0.01253531  0.25000000  0.57777269  1
  C  C8  1  0.54007799  0.75000000  0.44026916  1
  C  C9  1  0.45992201  0.25000000  0.55973084  1
  C  C10  1  0.95992201  0.25000000  0.94026916  1
  C  C11  1  0.04007799  0.75000000  0.05973084  1
  O  O12  1  0.84110856  0.75000000  0.04387209  1
  O  O13  1  0.83579232  0.25000000  0.05075799  1
  O  O14  1  0.13060785  0.75000000  0.18640112  1
  O  O15  1  0.86939215  0.25000000  0.81359888  1
  O  O16  1  0.33579232  0.25000000  0.44924201  1
  O  O17  1  0.15889144  0.25000000  0.95612791  1
  O  O18  1  0.66420768  0.75000000  0.55075799  1
  O  O19  1  0.65889144  0.25000000  0.54387209  1
  O  O20  1  0.36939215  0.25000000  0.68640112  1
  O  O21  1  0.34110856  0.75000000  0.45612791  1
  O  O22  1  0.63060785  0.75000000  0.31359888  1
  O  O23  1  0.16420768  0.75000000  0.94924201  1
  F  F24  1  0.04205280  0.94036888  0.63004580  1
  F  F25  1  0.54205280  0.94036888  0.86995420  1
  F  F26  1  0.45794720  0.05963112  0.13004580  1
  F  F27  1  0.95794720  0.05963112  0.36995420  1
  F  F28  1  0.04205280  0.55963112  0.63004580  1
  F  F29  1  0.95794720  0.44036888  0.36995420  1
  F  F30  1  0.45794720  0.44036888  0.13004580  1
  F  F31  1  0.54205280  0.55963112  0.86995420  1
