# generated using pymatgen
data_Ba(AuF6)2
_symmetry_space_group_name_H-M   'P 1'
_cell_length_a   10.61239559
_cell_length_b   10.61239559
_cell_length_c   10.61239559
_cell_angle_alpha   90.00000000
_cell_angle_beta   90.00000000
_cell_angle_gamma   90.00000000
_symmetry_Int_Tables_number   1
_chemical_formula_structural   Ba(AuF6)2
_chemical_formula_sum   'Ba4 Au8 F48'
_cell_volume   1195.19919347
_cell_formula_units_Z   4
loop_
 _symmetry_equiv_pos_site_id
 _symmetry_equiv_pos_as_xyz
  1  'x, y, z'
loop_
 _atom_site_type_symbol
 _atom_site_label
 _atom_site_symmetry_multiplicity
 _atom_site_fract_x
 _atom_site_fract_y
 _atom_site_fract_z
 _atom_site_occupancy
  Ba  Ba0  1  0.50000000  0.00000000  0.00000000  1
  Ba  Ba1  1  0.00000000  0.00000000  0.00000000  1
  Ba  Ba2  1  0.00000000  0.50000000  0.00000000  1
  Ba  Ba3  1  0.00000000  0.00000000  0.50000000  1
  Au  Au4  1  0.25265452  0.74734548  0.74734548  1
  Au  Au5  1  0.74734548  0.74734548  0.25265452  1
  Au  Au6  1  0.24858982  0.75141018  0.24858982  1
  Au  Au7  1  0.75141018  0.75141018  0.75141018  1
  Au  Au8  1  0.74734548  0.25265452  0.74734548  1
  Au  Au9  1  0.75141018  0.24858982  0.24858982  1
  Au  Au10  1  0.24858982  0.24858982  0.75141018  1
  Au  Au11  1  0.25265452  0.25265452  0.25265452  1
  F  F12  1  0.12309553  0.87690447  0.30639128  1
  F  F13  1  0.36832577  0.18486593  0.63167423  1
  F  F14  1  0.12746429  0.68827323  0.87253571  1
  F  F15  1  0.62768359  0.18866169  0.62768359  1
  F  F16  1  0.87690447  0.12309553  0.30639128  1
  F  F17  1  0.87253571  0.12746429  0.68827323  1
  F  F18  1  0.18486593  0.63167423  0.36832577  1
  F  F19  1  0.36832577  0.63167423  0.18486593  1
  F  F20  1  0.87690447  0.69360872  0.87690447  1
  F  F21  1  0.68827323  0.87253571  0.12746429  1
  F  F22  1  0.87690447  0.30639128  0.12309553  1
  F  F23  1  0.37231641  0.62768359  0.81133831  1
  F  F24  1  0.81513407  0.36832577  0.36832577  1
  F  F25  1  0.62768359  0.62768359  0.18866169  1
  F  F26  1  0.12746429  0.87253571  0.68827323  1
  F  F27  1  0.31172677  0.12746429  0.12746429  1
  F  F28  1  0.12309553  0.12309553  0.69360872  1
  F  F29  1  0.31172677  0.87253571  0.87253571  1
  F  F30  1  0.69360872  0.87690447  0.87690447  1
  F  F31  1  0.62768359  0.81133831  0.37231641  1
  F  F32  1  0.68827323  0.12746429  0.87253571  1
  F  F33  1  0.36832577  0.36832577  0.81513407  1
  F  F34  1  0.63167423  0.18486593  0.36832577  1
  F  F35  1  0.18866169  0.37231641  0.37231641  1
  F  F36  1  0.63167423  0.81513407  0.63167423  1
  F  F37  1  0.37231641  0.81133831  0.62768359  1
  F  F38  1  0.87253571  0.68827323  0.12746429  1
  F  F39  1  0.12309553  0.30639128  0.87690447  1
  F  F40  1  0.81133831  0.62768359  0.37231641  1
  F  F41  1  0.30639128  0.87690447  0.12309553  1
  F  F42  1  0.12746429  0.12746429  0.31172677  1
  F  F43  1  0.87690447  0.87690447  0.69360872  1
  F  F44  1  0.30639128  0.12309553  0.87690447  1
  F  F45  1  0.37231641  0.18866169  0.37231641  1
  F  F46  1  0.18486593  0.36832577  0.63167423  1
  F  F47  1  0.62768359  0.37231641  0.81133831  1
  F  F48  1  0.87253571  0.31172677  0.87253571  1
  F  F49  1  0.37231641  0.37231641  0.18866169  1
  F  F50  1  0.81513407  0.63167423  0.63167423  1
  F  F51  1  0.18866169  0.62768359  0.62768359  1
  F  F52  1  0.63167423  0.63167423  0.81513407  1
  F  F53  1  0.87253571  0.87253571  0.31172677  1
  F  F54  1  0.81133831  0.37231641  0.62768359  1
  F  F55  1  0.36832577  0.81513407  0.36832577  1
  F  F56  1  0.12746429  0.31172677  0.12746429  1
  F  F57  1  0.63167423  0.36832577  0.18486593  1
  F  F58  1  0.69360872  0.12309553  0.12309553  1
  F  F59  1  0.12309553  0.69360872  0.12309553  1
