# generated using pymatgen
data_AgHg2AsO4
_symmetry_space_group_name_H-M   'P 1'
_cell_length_a   6.37460931
_cell_length_b   8.97024286
_cell_length_c   9.85700958
_cell_angle_alpha   90.00000000
_cell_angle_beta   90.00000000
_cell_angle_gamma   90.00000000
_symmetry_Int_Tables_number   1
_chemical_formula_structural   AgHg2AsO4
_chemical_formula_sum   'Ag4 Hg8 As4 O16'
_cell_volume   563.64148779
_cell_formula_units_Z   4
loop_
 _symmetry_equiv_pos_site_id
 _symmetry_equiv_pos_as_xyz
  1  'x, y, z'
loop_
 _atom_site_type_symbol
 _atom_site_label
 _atom_site_symmetry_multiplicity
 _atom_site_fract_x
 _atom_site_fract_y
 _atom_site_fract_z
 _atom_site_occupancy
  Ag  Ag0  1  0.50000000  0.02961317  0.85629431  1
  Ag  Ag1  1  0.50000000  0.47038683  0.35629431  1
  Ag  Ag2  1  0.50000000  0.52961317  0.64370569  1
  Ag  Ag3  1  0.50000000  0.97038683  0.14370569  1
  Hg  Hg4  1  0.28853289  0.74191136  0.46800017  1
  Hg  Hg5  1  0.71146711  0.25808864  0.53199983  1
  Hg  Hg6  1  0.28853289  0.24191136  0.03199983  1
  Hg  Hg7  1  0.28853289  0.25808864  0.53199983  1
  Hg  Hg8  1  0.71146711  0.24191136  0.03199983  1
  Hg  Hg9  1  0.71146711  0.75808864  0.96800017  1
  Hg  Hg10  1  0.28853289  0.75808864  0.96800017  1
  Hg  Hg11  1  0.71146711  0.74191136  0.46800017  1
  As  As12  1  0.00000000  0.96236279  0.71239950  1
  As  As13  1  0.00000000  0.46236279  0.78760050  1
  As  As14  1  0.00000000  0.03763721  0.28760050  1
  As  As15  1  0.00000000  0.53763721  0.21239950  1
  O  O16  1  0.00000000  0.67558267  0.08730111  1
  O  O17  1  0.23208867  0.44044396  0.19599791  1
  O  O18  1  0.00000000  0.88316052  0.87252562  1
  O  O19  1  0.00000000  0.38316052  0.62747438  1
  O  O20  1  0.00000000  0.32441733  0.91269889  1
  O  O21  1  0.23208867  0.55955604  0.80400209  1
  O  O22  1  0.00000000  0.11683948  0.12747438  1
  O  O23  1  0.23208867  0.94044396  0.30400209  1
  O  O24  1  0.00000000  0.61683948  0.37252562  1
  O  O25  1  0.23208867  0.05955604  0.69599791  1
  O  O26  1  0.76791133  0.05955604  0.69599791  1
  O  O27  1  0.00000000  0.17558267  0.41269889  1
  O  O28  1  0.76791133  0.44044396  0.19599791  1
  O  O29  1  0.00000000  0.82441733  0.58730111  1
  O  O30  1  0.76791133  0.55955604  0.80400209  1
  O  O31  1  0.76791133  0.94044396  0.30400209  1
