# generated using pymatgen
data_Ce2Y2O7
_symmetry_space_group_name_H-M   'P 1'
_cell_length_a   3.85038904
_cell_length_b   3.85038904
_cell_length_c   10.89999597
_cell_angle_alpha   90.00000000
_cell_angle_beta   90.00000000
_cell_angle_gamma   90.00000000
_symmetry_Int_Tables_number   1
_chemical_formula_structural   Ce2Y2O7
_chemical_formula_sum   'Ce2 Y2 O7'
_cell_volume   161.59784398
_cell_formula_units_Z   1
loop_
 _symmetry_equiv_pos_site_id
 _symmetry_equiv_pos_as_xyz
  1  'x, y, z'
loop_
 _atom_site_type_symbol
 _atom_site_label
 _atom_site_symmetry_multiplicity
 _atom_site_fract_x
 _atom_site_fract_y
 _atom_site_fract_z
 _atom_site_occupancy
  Ce  Ce0  1  0.00000000  -0.00000000  0.49954346  1
  Ce  Ce1  1  0.50000000  0.50000000  0.75045654  1
  Y  Y2  1  0.00000000  0.00000000  0.98459016  1
  Y  Y3  1  0.50000000  0.50000000  0.26540984  1
  O  O4  1  -0.00000000  0.50000000  0.12500000  1
  O  O5  1  0.50000000  0.00000000  0.35959979  1
  O  O6  1  -0.00000000  0.50000000  0.38493261  1
  O  O7  1  -0.00000000  0.50000000  0.62500000  1
  O  O8  1  0.50000000  -0.00000000  0.62500000  1
  O  O9  1  0.50000000  0.00000000  0.89040021  1
  O  O10  1  -0.00000000  0.50000000  0.86506739  1
