# generated using pymatgen
data_BaTi2O5
_symmetry_space_group_name_H-M   'P 1'
_cell_length_a   3.94525054
_cell_length_b   10.52300339
_cell_length_c   11.00939889
_cell_angle_alpha   90.00000000
_cell_angle_beta   90.00000000
_cell_angle_gamma   90.00000000
_symmetry_Int_Tables_number   1
_chemical_formula_structural   BaTi2O5
_chemical_formula_sum   'Ba4 Ti8 O20'
_cell_volume   457.06493611
_cell_formula_units_Z   4
loop_
 _symmetry_equiv_pos_site_id
 _symmetry_equiv_pos_as_xyz
  1  'x, y, z'
loop_
 _atom_site_type_symbol
 _atom_site_label
 _atom_site_symmetry_multiplicity
 _atom_site_fract_x
 _atom_site_fract_y
 _atom_site_fract_z
 _atom_site_occupancy
  Ba  Ba0  1  0.25000000  0.05094138  0.82183558  1
  Ba  Ba1  1  0.75000000  0.44905862  0.32183558  1
  Ba  Ba2  1  0.25000000  0.55094138  0.67816442  1
  Ba  Ba3  1  0.75000000  0.94905862  0.17816442  1
  Ti  Ti4  1  0.75000000  0.23571413  0.60229207  1
  Ti  Ti5  1  0.75000000  0.85206671  0.59266158  1
  Ti  Ti6  1  0.25000000  0.14793329  0.40733842  1
  Ti  Ti7  1  0.75000000  0.35206671  0.90733842  1
  Ti  Ti8  1  0.75000000  0.73571413  0.89770793  1
  Ti  Ti9  1  0.25000000  0.26428587  0.10229207  1
  Ti  Ti10  1  0.25000000  0.76428587  0.39770793  1
  Ti  Ti11  1  0.25000000  0.64793329  0.09266158  1
  O  O12  1  0.75000000  0.23421167  0.77940908  1
  O  O13  1  0.25000000  0.32456144  0.93103810  1
  O  O14  1  0.75000000  0.30065319  0.08321776  1
  O  O15  1  0.75000000  0.50735911  0.85009579  1
  O  O16  1  0.25000000  0.49264089  0.14990421  1
  O  O17  1  0.25000000  0.69934681  0.91678224  1
  O  O18  1  0.25000000  0.99264089  0.35009579  1
  O  O19  1  0.25000000  0.26578833  0.27940908  1
  O  O20  1  0.75000000  0.80065319  0.41678224  1
  O  O21  1  0.25000000  0.59964997  0.42427726  1
  O  O22  1  0.75000000  0.73421167  0.72059092  1
  O  O23  1  0.25000000  0.82456144  0.56896190  1
  O  O24  1  0.75000000  0.67543856  0.06896190  1
  O  O25  1  0.75000000  0.90035003  0.92427726  1
  O  O26  1  0.75000000  0.40035003  0.57572274  1
  O  O27  1  0.75000000  0.17543856  0.43103810  1
  O  O28  1  0.25000000  0.19934681  0.58321776  1
  O  O29  1  0.75000000  0.00735911  0.64990421  1
  O  O30  1  0.25000000  0.09964997  0.07572274  1
  O  O31  1  0.25000000  0.76578833  0.22059092  1
