# generated using pymatgen
data_K2Mo(I2O7)2
_symmetry_space_group_name_H-M   'P 1'
_cell_length_a   6.33904350
_cell_length_b   7.29486039
_cell_length_c   17.81875240
_cell_angle_alpha   100.63761553
_cell_angle_beta   90.00000000
_cell_angle_gamma   115.75265750
_symmetry_Int_Tables_number   1
_chemical_formula_structural   K2Mo(I2O7)2
_chemical_formula_sum   'K4 Mo2 I8 O28'
_cell_volume   726.38868081
_cell_formula_units_Z   2
loop_
 _symmetry_equiv_pos_site_id
 _symmetry_equiv_pos_as_xyz
  1  'x, y, z'
loop_
 _atom_site_type_symbol
 _atom_site_label
 _atom_site_symmetry_multiplicity
 _atom_site_fract_x
 _atom_site_fract_y
 _atom_site_fract_z
 _atom_site_occupancy
  K  K0  1  0.18301381  0.36216979  0.46154001  1
  K  K1  1  0.82084403  0.63783021  0.03845999  1
  K  K2  1  0.81698619  0.63783021  0.53845999  1
  K  K3  1  0.17915597  0.36216979  0.96154001  1
  Mo  Mo4  1  0.10983851  1.00000000  0.75000000  1
  Mo  Mo5  1  0.89016149  0.00000000  0.25000000  1
  I  I6  1  0.45243006  0.07171541  0.59039077  1
  I  I7  1  0.38071465  0.92828459  0.90960923  1
  I  I8  1  0.54756994  0.92828459  0.40960923  1
  I  I9  1  0.61928535  0.07171541  0.09039077  1
  I  I10  1  0.69570912  0.42275625  0.32033421  1
  I  I11  1  0.27295387  0.57724375  0.17966579  1
  I  I12  1  0.30429088  0.57724375  0.67966579  1
  I  I13  1  0.72704613  0.42275625  0.82033421  1
  O  O14  1  0.15941349  0.96086351  0.63950887  1
  O  O15  1  0.19855098  0.03913649  0.86049113  1
  O  O16  1  0.84058651  0.03913649  0.36049113  1
  O  O17  1  0.80144902  0.96086351  0.13950887  1
  O  O18  1  0.27254222  0.89737781  0.50001255  1
  O  O19  1  0.37516441  0.10262219  -0.00001255  1
  O  O20  1  0.72745778  0.10262219  0.49998745  1
  O  O21  1  0.62483559  0.89737781  1.00001255  1
  O  O22  1  0.43656388  0.30881614  0.58000805  1
  O  O23  1  0.12774674  0.69118386  0.91999195  1
  O  O24  1  0.56343612  0.69118386  0.41999195  1
  O  O25  1  0.87225326  0.30881614  0.08000805  1
  O  O26  1  0.71915071  0.21703919  0.24533749  1
  O  O27  1  0.50211152  0.78296081  0.25466251  1
  O  O28  1  0.28084929  0.78296081  0.75466251  1
  O  O29  1  0.49788848  0.21703919  0.74533749  1
  O  O30  1  0.53615726  0.26999715  0.39040816  1
  O  O31  1  0.26616011  0.73000285  0.10959184  1
  O  O32  1  0.46384274  0.73000285  0.60959184  1
  O  O33  1  0.73383989  0.26999715  0.89040816  1
  O  O34  1  0.98832465  0.54924902  0.36904596  1
  O  O35  1  0.43907563  0.45075098  0.13095404  1
  O  O36  1  0.01167535  0.45075098  0.63095404  1
  O  O37  1  0.56092437  0.54924902  0.86904596  1
  O  O38  1  0.83292881  0.78680635  0.73955453  1
  O  O39  1  0.04612346  0.21319365  0.76044547  1
  O  O40  1  0.16707119  0.21319365  0.26044547  1
  O  O41  1  0.95387654  0.78680635  0.23955453  1
