# generated using pymatgen
data_Rb3PO4
_symmetry_space_group_name_H-M   'P 1'
_cell_length_a   6.26599967
_cell_length_b   8.57574029
_cell_length_c   11.88276347
_cell_angle_alpha   90.00000000
_cell_angle_beta   90.00000000
_cell_angle_gamma   90.00000000
_symmetry_Int_Tables_number   1
_chemical_formula_structural   Rb3PO4
_chemical_formula_sum   'Rb12 P4 O16'
_cell_volume   638.52725631
_cell_formula_units_Z   4
loop_
 _symmetry_equiv_pos_site_id
 _symmetry_equiv_pos_as_xyz
  1  'x, y, z'
loop_
 _atom_site_type_symbol
 _atom_site_label
 _atom_site_symmetry_multiplicity
 _atom_site_fract_x
 _atom_site_fract_y
 _atom_site_fract_z
 _atom_site_occupancy
  Rb  Rb0  1  0.13979628  0.25000000  0.92663136  1
  Rb  Rb1  1  0.69112141  0.49233812  0.85614611  1
  Rb  Rb2  1  0.86020372  0.75000000  0.07336864  1
  Rb  Rb3  1  0.19112141  0.50766188  0.64385389  1
  Rb  Rb4  1  0.69112141  0.00766188  0.85614611  1
  Rb  Rb5  1  0.19112141  0.99233812  0.64385389  1
  Rb  Rb6  1  0.63979628  0.75000000  0.57336864  1
  Rb  Rb7  1  0.30887859  0.99233812  0.14385389  1
  Rb  Rb8  1  0.30887859  0.50766188  0.14385389  1
  Rb  Rb9  1  0.80887859  0.00766188  0.35614611  1
  Rb  Rb10  1  0.80887859  0.49233812  0.35614611  1
  Rb  Rb11  1  0.36020372  0.25000000  0.42663136  1
  P  P12  1  0.77833178  0.25000000  0.61497679  1
  P  P13  1  0.27833178  0.75000000  0.88502321  1
  P  P14  1  0.22166822  0.75000000  0.38502321  1
  P  P15  1  0.72166822  0.25000000  0.11497679  1
  O  O16  1  0.36357903  0.59995392  0.39069300  1
  O  O17  1  0.41015111  0.75000000  0.77257035  1
  O  O18  1  0.86357903  0.40004608  0.10930700  1
  O  O19  1  0.13642097  0.90004608  0.89069300  1
  O  O20  1  0.86357903  0.09995392  0.10930700  1
  O  O21  1  0.56000729  0.25000000  0.01362670  1
  O  O22  1  0.06000729  0.75000000  0.48637330  1
  O  O23  1  0.93999271  0.25000000  0.51362670  1
  O  O24  1  0.63642097  0.09995392  0.60930700  1
  O  O25  1  0.36357903  0.90004608  0.39069300  1
  O  O26  1  0.43999271  0.75000000  0.98637330  1
  O  O27  1  0.63642097  0.40004608  0.60930700  1
  O  O28  1  0.08984889  0.75000000  0.27257035  1
  O  O29  1  0.91015111  0.25000000  0.72742965  1
  O  O30  1  0.58984889  0.25000000  0.22742965  1
  O  O31  1  0.13642097  0.59995392  0.89069300  1
