# generated using pymatgen
data_RbLu3F10
_symmetry_space_group_name_H-M   'P 1'
_cell_length_a   7.87167073
_cell_length_b   7.87167023
_cell_length_c   16.14132820
_cell_angle_alpha   90.00000000
_cell_angle_beta   90.00000000
_cell_angle_gamma   114.67485559
_symmetry_Int_Tables_number   1
_chemical_formula_structural   RbLu3F10
_chemical_formula_sum   'Rb4 Lu12 F40'
_cell_volume   908.84439129
_cell_formula_units_Z   4
loop_
 _symmetry_equiv_pos_site_id
 _symmetry_equiv_pos_as_xyz
  1  'x, y, z'
loop_
 _atom_site_type_symbol
 _atom_site_label
 _atom_site_symmetry_multiplicity
 _atom_site_fract_x
 _atom_site_fract_y
 _atom_site_fract_z
 _atom_site_occupancy
  Rb  Rb0  1  0.00000000  0.00000000  0.50000000  1
  Rb  Rb1  1  0.50000000  0.50000000  0.50000000  1
  Rb  Rb2  1  0.50000000  0.50000000  0.00000000  1
  Rb  Rb3  1  0.00000000  0.00000000  0.00000000  1
  Lu  Lu4  1  0.97993725  0.52346196  0.61289117  1
  Lu  Lu5  1  0.47653804  0.02006275  0.61289117  1
  Lu  Lu6  1  0.25104290  0.24895710  0.25000000  1
  Lu  Lu7  1  0.52346196  0.97993725  0.38710883  1
  Lu  Lu8  1  0.75104290  0.74895710  0.25000000  1
  Lu  Lu9  1  0.02006275  0.47653804  0.38710883  1
  Lu  Lu10  1  0.24895710  0.25104290  0.75000000  1
  Lu  Lu11  1  0.47993725  0.02346196  0.88710883  1
  Lu  Lu12  1  0.74895710  0.75104290  0.75000000  1
  Lu  Lu13  1  0.97653804  0.52006275  0.88710883  1
  Lu  Lu14  1  0.02346196  0.47993725  0.11289117  1
  Lu  Lu15  1  0.52006275  0.97653804  0.11289117  1
  F  F16  1  0.93054202  0.56945798  0.75000000  1
  F  F17  1  0.73192486  0.26807514  0.61349346  1
  F  F18  1  0.49514998  0.50485002  0.23218254  1
  F  F19  1  0.58910960  0.90748057  0.98752250  1
  F  F20  1  0.79170099  0.20829901  0.39424468  1
  F  F21  1  0.20222418  0.32994255  0.37287791  1
  F  F22  1  0.91089040  0.59251943  0.48752250  1
  F  F23  1  0.59251943  0.91089040  0.51247750  1
  F  F24  1  0.43054202  0.06945798  0.75000000  1
  F  F25  1  0.20829901  0.79170099  0.60575532  1
  F  F26  1  0.41089040  0.09251943  0.01247750  1
  F  F27  1  0.70829901  0.29170099  0.89424468  1
  F  F28  1  0.58194291  0.84326922  0.67221987  1
  F  F29  1  0.34326922  0.08194291  0.17221987  1
  F  F30  1  0.26807514  0.73192486  0.38650654  1
  F  F31  1  0.32994255  0.20222418  0.62712209  1
  F  F32  1  0.00485002  0.99514998  0.73218254  1
  F  F33  1  0.08194291  0.34326922  0.82778013  1
  F  F34  1  0.50485002  0.49514998  0.76781746  1
  F  F35  1  0.06945798  0.43054202  0.25000000  1
  F  F36  1  0.41805709  0.15673078  0.32778013  1
  F  F37  1  0.29777582  0.17005745  0.87287791  1
  F  F38  1  0.56945798  0.93054202  0.25000000  1
  F  F39  1  0.99514998  0.00485002  0.26781746  1
  F  F40  1  0.70222418  0.82994255  0.12712209  1
  F  F41  1  0.09251943  0.41089040  0.98752250  1
  F  F42  1  0.08910960  0.40748057  0.51247750  1
  F  F43  1  0.76807514  0.23192486  0.11349346  1
  F  F44  1  0.82994255  0.70222418  0.87287791  1
  F  F45  1  0.90748057  0.58910960  0.01247750  1
  F  F46  1  0.67005745  0.79777582  0.37287791  1
  F  F47  1  0.23192486  0.76807514  0.88650654  1
  F  F48  1  0.65673078  0.91805709  0.82778013  1
  F  F49  1  0.15673078  0.41805709  0.67221987  1
  F  F50  1  0.29170099  0.70829901  0.10575532  1
  F  F51  1  0.84326922  0.58194291  0.32778013  1
  F  F52  1  0.17005745  0.29777582  0.12712209  1
  F  F53  1  0.40748057  0.08910960  0.48752250  1
  F  F54  1  0.91805709  0.65673078  0.17221987  1
  F  F55  1  0.79777582  0.67005745  0.62712209  1
