# generated using pymatgen
data_Na2ZrSi2O7
_symmetry_space_group_name_H-M   'P 1'
_cell_length_a   5.52997288
_cell_length_b   6.67475711
_cell_length_c   9.00019815
_cell_angle_alpha   70.84752451
_cell_angle_beta   87.69456924
_cell_angle_gamma   86.01152317
_symmetry_Int_Tables_number   1
_chemical_formula_structural   Na2ZrSi2O7
_chemical_formula_sum   'Na4 Zr2 Si4 O14'
_cell_volume   313.00676106
_cell_formula_units_Z   2
loop_
 _symmetry_equiv_pos_site_id
 _symmetry_equiv_pos_as_xyz
  1  'x, y, z'
loop_
 _atom_site_type_symbol
 _atom_site_label
 _atom_site_symmetry_multiplicity
 _atom_site_fract_x
 _atom_site_fract_y
 _atom_site_fract_z
 _atom_site_occupancy
  Na  Na0  1  0.73734284  0.88019643  0.10420213  1
  Na  Na1  1  0.26265716  0.11980357  0.89579787  1
  Na  Na2  1  0.23957767  0.34223384  0.49101793  1
  Na  Na3  1  0.76042233  0.65776616  0.50898207  1
  Zr  Zr4  1  0.22282694  0.70991410  0.72842115  1
  Zr  Zr5  1  0.77717306  0.29008590  0.27157885  1
  Si  Si6  1  0.31162868  0.93672154  0.33454373  1
  Si  Si7  1  0.77280155  0.35326036  0.85425067  1
  Si  Si8  1  0.68837132  0.06327846  0.66545627  1
  Si  Si9  1  0.22719845  0.64673964  0.14574933  1
  O  O10  1  0.88957227  0.87561565  0.66524964  1
  O  O11  1  0.71782297  0.27929240  0.51395824  1
  O  O12  1  0.27935059  0.88306707  0.16557478  1
  O  O13  1  0.81673277  0.28715462  0.04196542  1
  O  O14  1  0.40642276  0.99543030  0.67651971  1
  O  O15  1  0.59357724  0.00456970  0.32348029  1
  O  O16  1  0.02384698  0.43232063  0.75524836  1
  O  O17  1  0.11042773  0.12438435  0.33475036  1
  O  O18  1  0.53648810  0.50909320  0.78530898  1
  O  O19  1  0.46351190  0.49090680  0.21469102  1
  O  O20  1  0.28217703  0.72070760  0.48604176  1
  O  O21  1  0.18326723  0.71284538  0.95803458  1
  O  O22  1  0.97615302  0.56767937  0.24475164  1
  O  O23  1  0.72064941  0.11693293  0.83442522  1
