# generated using pymatgen
data_NaSiBO4
_symmetry_space_group_name_H-M   'P 1'
_cell_length_a   7.79146881
_cell_length_b   8.08283227
_cell_length_c   14.12551877
_cell_angle_alpha   90.07585138
_cell_angle_beta   90.00000000
_cell_angle_gamma   90.00000000
_symmetry_Int_Tables_number   1
_chemical_formula_structural   NaSiBO4
_chemical_formula_sum   'Na12 Si12 B12 O48'
_cell_volume   889.58393077
_cell_formula_units_Z   12
loop_
 _symmetry_equiv_pos_site_id
 _symmetry_equiv_pos_as_xyz
  1  'x, y, z'
loop_
 _atom_site_type_symbol
 _atom_site_label
 _atom_site_symmetry_multiplicity
 _atom_site_fract_x
 _atom_site_fract_y
 _atom_site_fract_z
 _atom_site_occupancy
  Na  Na0  1  0.98908261  0.75350144  0.75036314  1
  Na  Na1  1  0.48908261  0.74649856  0.74963686  1
  Na  Na2  1  0.52932426  0.27120416  0.91202739  1
  Na  Na3  1  0.02932426  0.22879584  0.58797261  1
  Na  Na4  1  0.46623361  0.27326693  0.56764954  1
  Na  Na5  1  0.53376639  0.72673307  0.43235046  1
  Na  Na6  1  0.51091739  0.25350144  0.25036314  1
  Na  Na7  1  0.96623361  0.22673307  0.93235046  1
  Na  Na8  1  0.03376639  0.77326693  0.06764954  1
  Na  Na9  1  0.47067574  0.72879584  0.08797261  1
  Na  Na10  1  0.01091739  0.24649856  0.24963686  1
  Na  Na11  1  0.97067574  0.77120416  0.41202739  1
  Si  Si12  1  0.21061511  0.08005266  0.76134194  1
  Si  Si13  1  0.70372673  0.93151430  0.59256531  1
  Si  Si14  1  0.71061511  0.41994734  0.73865806  1
  Si  Si15  1  0.78938489  0.91994734  0.23865806  1
  Si  Si16  1  0.29712392  0.10585162  0.08091520  1
  Si  Si17  1  0.28938489  0.58005266  0.26134194  1
  Si  Si18  1  0.79627327  0.43151430  0.09256531  1
  Si  Si19  1  0.70287608  0.89414838  0.91908480  1
  Si  Si20  1  0.20287608  0.60585162  0.58091520  1
  Si  Si21  1  0.29627327  0.06848570  0.40743469  1
  Si  Si22  1  0.79712392  0.39414838  0.41908480  1
  Si  Si23  1  0.20372673  0.56848570  0.90743469  1
  B  B24  1  0.67241477  0.10013014  0.08166058  1
  B  B25  1  0.17006452  0.92117239  0.23960848  1
  B  B26  1  0.17241477  0.39986986  0.41833942  1
  B  B27  1  0.32694923  0.93201999  0.59035376  1
  B  B28  1  0.82758523  0.60013014  0.58166058  1
  B  B29  1  0.32993548  0.42117239  0.73960848  1
  B  B30  1  0.32758523  0.89986986  0.91833942  1
  B  B31  1  0.82993548  0.07882761  0.76039152  1
  B  B32  1  0.17305077  0.43201999  0.09035376  1
  B  B33  1  0.82694923  0.56798001  0.90964624  1
  B  B34  1  0.67006452  0.57882761  0.26039152  1
  B  B35  1  0.67305077  0.06798001  0.40964624  1
  O  O36  1  0.32870026  0.44944890  0.84320089  1
  O  O37  1  0.72365388  0.73573026  0.62272355  1
  O  O38  1  0.25631821  0.25854167  0.71344070  1
  O  O39  1  0.74845934  0.45111757  0.97958764  1
  O  O40  1  0.51029094  0.42720572  0.70334664  1
  O  O41  1  0.67129974  0.55055110  0.15679911  1
  O  O42  1  0.99489071  0.48727024  0.11170234  1
  O  O43  1  0.75154066  0.95111757  0.47958764  1
  O  O44  1  0.49489071  0.01272976  0.38829766  1
  O  O45  1  0.16722407  0.54373687  0.35369988  1
  O  O46  1  0.50405692  0.83411668  0.93307744  1
  O  O47  1  0.49594308  0.16588332  0.06692256  1
  O  O48  1  0.48970906  0.57279428  0.29665336  1
  O  O49  1  0.50510929  0.98727024  0.61170234  1
  O  O50  1  0.25288309  0.94735748  0.01208080  1
  O  O51  1  0.22365388  0.76426974  0.87727645  1
  O  O52  1  0.00405692  0.66588332  0.56692256  1
  O  O53  1  0.82795467  0.73870145  0.94834836  1
  O  O54  1  0.77634612  0.23573026  0.12272355  1
  O  O55  1  0.75288309  0.55264252  0.48791920  1
  O  O56  1  0.00510929  0.51272976  0.88829766  1
  O  O57  1  0.77133648  0.06368528  0.32056601  1
  O  O58  1  0.32795467  0.76129855  0.55165164  1
  O  O59  1  0.82870026  0.05055110  0.65679911  1
  O  O60  1  0.75631821  0.24145833  0.78655930  1
  O  O61  1  0.99594308  0.33411668  0.43307744  1
  O  O62  1  0.24368179  0.75854167  0.21344070  1
  O  O63  1  0.76692102  0.44495471  0.30798729  1
  O  O64  1  0.26692102  0.05504529  0.19201271  1
  O  O65  1  0.22866352  0.93631472  0.67943399  1
  O  O66  1  0.01029094  0.07279428  0.79665336  1
  O  O67  1  0.98970906  0.92720572  0.20334664  1
  O  O68  1  0.27634612  0.26426974  0.37727645  1
  O  O69  1  0.66722407  0.95626313  0.14630012  1
  O  O70  1  0.27133648  0.43631472  0.17943399  1
  O  O71  1  0.67204533  0.23870145  0.44834836  1
  O  O72  1  0.24711691  0.44735748  0.51208080  1
  O  O73  1  0.25154066  0.54888243  0.02041236  1
  O  O74  1  0.83277593  0.45626313  0.64630012  1
  O  O75  1  0.72866352  0.56368528  0.82056601  1
  O  O76  1  0.74711691  0.05264252  0.98791920  1
  O  O77  1  0.74368179  0.74145833  0.28655930  1
  O  O78  1  0.17129974  0.94944890  0.34320089  1
  O  O79  1  0.24845934  0.04888243  0.52041236  1
  O  O80  1  0.33277593  0.04373687  0.85369988  1
  O  O81  1  0.23307898  0.55504529  0.69201271  1
  O  O82  1  0.73307898  0.94495471  0.80798729  1
  O  O83  1  0.17204533  0.26129855  0.05165164  1
