# generated using pymatgen
data_RbP(OF)2
_symmetry_space_group_name_H-M   'P 1'
_cell_length_a   6.57867615
_cell_length_b   7.92402271
_cell_length_c   8.33900111
_cell_angle_alpha   90.00000000
_cell_angle_beta   90.00000000
_cell_angle_gamma   90.00000000
_symmetry_Int_Tables_number   1
_chemical_formula_structural   RbP(OF)2
_chemical_formula_sum   'Rb4 P4 O8 F8'
_cell_volume   434.70861893
_cell_formula_units_Z   4
loop_
 _symmetry_equiv_pos_site_id
 _symmetry_equiv_pos_as_xyz
  1  'x, y, z'
loop_
 _atom_site_type_symbol
 _atom_site_label
 _atom_site_symmetry_multiplicity
 _atom_site_fract_x
 _atom_site_fract_y
 _atom_site_fract_z
 _atom_site_occupancy
  Rb  Rb0  1  0.25000000  0.35596473  0.64207882  1
  Rb  Rb1  1  0.75000000  0.85596473  0.85792118  1
  Rb  Rb2  1  0.75000000  0.64403527  0.35792118  1
  Rb  Rb3  1  0.25000000  0.14403527  0.14207882  1
  P  P4  1  0.75000000  0.31306745  0.89687451  1
  P  P5  1  0.25000000  0.68693255  0.10312549  1
  P  P6  1  0.25000000  0.81306745  0.60312549  1
  P  P7  1  0.75000000  0.18693255  0.39687451  1
  O  O8  1  0.94860956  0.27674582  0.39359018  1
  O  O9  1  0.44860956  0.77674582  0.10640982  1
  O  O10  1  0.55139044  0.22325418  0.89359018  1
  O  O11  1  0.94860956  0.22325418  0.89359018  1
  O  O12  1  0.55139044  0.27674582  0.39359018  1
  O  O13  1  0.44860956  0.72325418  0.60640982  1
  O  O14  1  0.05139044  0.77674582  0.10640982  1
  O  O15  1  0.05139044  0.72325418  0.60640982  1
  F  F16  1  0.75000000  0.45215195  0.75739426  1
  F  F17  1  0.75000000  0.05626851  0.54310814  1
  F  F18  1  0.25000000  0.95215195  0.74260574  1
  F  F19  1  0.25000000  0.54784805  0.24260574  1
  F  F20  1  0.75000000  0.04784805  0.25739426  1
  F  F21  1  0.25000000  0.94373149  0.45689186  1
  F  F22  1  0.75000000  0.44373149  0.04310814  1
  F  F23  1  0.25000000  0.55626851  0.95689186  1
