# generated using pymatgen
data_Na2Cd(SO4)2
_symmetry_space_group_name_H-M   'P 1'
_cell_length_a   6.59680183
_cell_length_b   6.59680109
_cell_length_c   8.82700741
_cell_angle_alpha   71.16311580
_cell_angle_beta   71.16311809
_cell_angle_gamma   78.39429721
_symmetry_Int_Tables_number   1
_chemical_formula_structural   Na2Cd(SO4)2
_chemical_formula_sum   'Na4 Cd2 S4 O16'
_cell_volume   342.06640018
_cell_formula_units_Z   2
loop_
 _symmetry_equiv_pos_site_id
 _symmetry_equiv_pos_as_xyz
  1  'x, y, z'
loop_
 _atom_site_type_symbol
 _atom_site_label
 _atom_site_symmetry_multiplicity
 _atom_site_fract_x
 _atom_site_fract_y
 _atom_site_fract_z
 _atom_site_occupancy
  Na  Na0  1  0.30622700  0.41852522  0.43924869  1
  Na  Na1  1  0.69377300  0.58147478  0.56075131  1
  Na  Na2  1  0.58147478  0.69377300  0.06075131  1
  Na  Na3  1  0.41852522  0.30622700  0.93924869  1
  Cd  Cd4  1  0.93031005  0.06968995  0.25000000  1
  Cd  Cd5  1  0.06968995  0.93031005  0.75000000  1
  S  S6  1  0.40075223  0.97626003  0.31369007  1
  S  S7  1  0.02373997  0.59924777  0.18630993  1
  S  S8  1  0.59924777  0.02373997  0.68630993  1
  S  S9  1  0.97626003  0.40075223  0.81369007  1
  O  O10  1  0.57682427  0.11933041  0.25199628  1
  O  O11  1  0.77139701  0.95502561  0.54958724  1
  O  O12  1  0.69188853  0.99007326  0.82928844  1
  O  O13  1  0.42317573  0.88066959  0.74800372  1
  O  O14  1  0.95502561  0.77139701  0.04958724  1
  O  O15  1  0.25477522  0.51634247  0.13464223  1
  O  O16  1  0.48365753  0.74522478  0.36535777  1
  O  O17  1  0.51634247  0.25477522  0.63464223  1
  O  O18  1  0.04497439  0.22860299  0.95041276  1
  O  O19  1  0.00992674  0.30811147  0.67071156  1
  O  O20  1  0.88066959  0.42317573  0.24800372  1
  O  O21  1  0.30811147  0.00992674  0.17071156  1
  O  O22  1  0.11933041  0.57682427  0.75199628  1
  O  O23  1  0.99007326  0.69188853  0.32928844  1
  O  O24  1  0.74522478  0.48365753  0.86535777  1
  O  O25  1  0.22860299  0.04497439  0.45041276  1
