# generated using pymatgen
data_K2RbMn2F7
_symmetry_space_group_name_H-M   'P 1'
_cell_length_a   4.28354809
_cell_length_b   4.28354809
_cell_length_c   11.40713045
_cell_angle_alpha   100.82194198
_cell_angle_beta   100.82194201
_cell_angle_gamma   89.99999998
_symmetry_Int_Tables_number   1
_chemical_formula_structural   K2RbMn2F7
_chemical_formula_sum   'K2 Rb1 Mn2 F7'
_cell_volume   201.79344649
_cell_formula_units_Z   1
loop_
 _symmetry_equiv_pos_site_id
 _symmetry_equiv_pos_as_xyz
  1  'x, y, z'
loop_
 _atom_site_type_symbol
 _atom_site_label
 _atom_site_symmetry_multiplicity
 _atom_site_fract_x
 _atom_site_fract_y
 _atom_site_fract_z
 _atom_site_occupancy
  F  F0  1  0.90127275  0.40127275  0.80254551  1
  F  F1  1  0.40127275  0.90127275  0.80254551  1
  F  F2  1  0.19534311  0.19534311  0.39068623  1
  F  F3  1  0.80465689  0.80465689  0.60931377  1
  F  F4  1  0.00000000  0.00000000  0.00000000  1
  F  F5  1  0.59872725  0.09872725  0.19745449  1
  F  F6  1  0.09872725  0.59872725  0.19745449  1
  K  K7  1  0.31379539  0.31379539  0.62759078  1
  K  K8  1  0.68620461  0.68620461  0.37240922  1
  Mn  Mn9  1  0.90082999  0.90082999  0.80165997  1
  Mn  Mn10  1  0.09917001  0.09917001  0.19834003  1
  Rb  Rb11  1  0.50000000  0.50000000  0.00000000  1
