# generated using pymatgen
data_K3Al4P2O8F9
_symmetry_space_group_name_H-M   'P 1'
_cell_length_a   6.82581437
_cell_length_b   7.38640104
_cell_length_c   14.02641095
_cell_angle_alpha   90.00000000
_cell_angle_beta   90.00000000
_cell_angle_gamma   106.10889825
_symmetry_Int_Tables_number   1
_chemical_formula_structural   K3Al4P2O8F9
_chemical_formula_sum   'K6 Al8 P4 O16 F18'
_cell_volume   679.41951116
_cell_formula_units_Z   2
loop_
 _symmetry_equiv_pos_site_id
 _symmetry_equiv_pos_as_xyz
  1  'x, y, z'
loop_
 _atom_site_type_symbol
 _atom_site_label
 _atom_site_symmetry_multiplicity
 _atom_site_fract_x
 _atom_site_fract_y
 _atom_site_fract_z
 _atom_site_occupancy
  K  K0  1  0.18813875  0.79075388  0.50972230  1
  K  K1  1  0.81186125  0.20924612  0.49027770  1
  K  K2  1  0.91971228  0.45893277  0.75000000  1
  K  K3  1  0.81186125  0.20924612  0.00972230  1
  K  K4  1  0.18813875  0.79075388  0.99027770  1
  K  K5  1  0.08028772  0.54106723  0.25000000  1
  Al  Al6  1  0.67205195  0.68095263  0.37790985  1
  Al  Al7  1  0.02691178  0.05213664  0.25000000  1
  Al  Al8  1  0.51585959  0.03855635  0.25000000  1
  Al  Al9  1  0.32794805  0.31904737  0.87790985  1
  Al  Al10  1  0.32794805  0.31904737  0.62209015  1
  Al  Al11  1  0.67205195  0.68095263  0.12209015  1
  Al  Al12  1  0.97308822  0.94786336  0.75000000  1
  Al  Al13  1  0.48414041  0.96144365  0.75000000  1
  P  P14  1  0.34723686  0.28471576  0.10225599  1
  P  P15  1  0.65276314  0.71528424  0.89774401  1
  P  P16  1  0.34723686  0.28471576  0.39774401  1
  P  P17  1  0.65276314  0.71528424  0.60225599  1
  O  O18  1  0.86239615  0.77653020  0.84597579  1
  O  O19  1  0.42313600  0.50182358  0.10523121  1
  O  O20  1  0.49914958  0.80495207  0.65032206  1
  O  O21  1  0.57686400  0.49817642  0.89476879  1
  O  O22  1  0.68331197  0.78862622  0.00150476  1
  O  O23  1  0.57686400  0.49817642  0.60523121  1
  O  O24  1  0.13760385  0.22346980  0.34597579  1
  O  O25  1  0.50085042  0.19504793  0.15032206  1
  O  O26  1  0.86239615  0.77653020  0.65402421  1
  O  O27  1  0.13760385  0.22346980  0.15402421  1
  O  O28  1  0.50085042  0.19504793  0.34967794  1
  O  O29  1  0.42313600  0.50182358  0.39476879  1
  O  O30  1  0.68331197  0.78862622  0.49849524  1
  O  O31  1  0.49914958  0.80495207  0.84967794  1
  O  O32  1  0.31668803  0.21137378  0.99849524  1
  O  O33  1  0.31668803  0.21137378  0.50150476  1
  F  F34  1  0.79545970  0.13208853  0.25000000  1
  F  F35  1  0.84517389  0.54619245  0.09193074  1
  F  F36  1  0.20454030  0.86791147  0.75000000  1
  F  F37  1  0.90881338  0.87889191  0.15609797  1
  F  F38  1  0.67734275  0.60994251  0.25000000  1
  F  F39  1  0.90881338  0.87889191  0.34390203  1
  F  F40  1  0.23446206  0.93518128  0.25000000  1
  F  F41  1  0.47315954  0.14716362  0.66101252  1
  F  F42  1  0.76553794  0.06481872  0.75000000  1
  F  F43  1  0.32265725  0.39005749  0.75000000  1
  F  F44  1  0.52684046  0.85283638  0.16101252  1
  F  F45  1  0.84517389  0.54619245  0.40806926  1
  F  F46  1  0.15482611  0.45380755  0.90806926  1
  F  F47  1  0.47315954  0.14716362  0.83898748  1
  F  F48  1  0.52684046  0.85283638  0.33898748  1
  F  F49  1  0.15482611  0.45380755  0.59193074  1
  F  F50  1  0.09118662  0.12110809  0.84390203  1
  F  F51  1  0.09118662  0.12110809  0.65609797  1
