# generated using pymatgen
data_CsAg(NO3)2
_symmetry_space_group_name_H-M   'P 1'
_cell_length_a   5.59171335
_cell_length_b   5.76187597
_cell_length_c   10.81457201
_cell_angle_alpha   105.44561619
_cell_angle_beta   93.17080422
_cell_angle_gamma   90.01304505
_symmetry_Int_Tables_number   1
_chemical_formula_structural   CsAg(NO3)2
_chemical_formula_sum   'Cs2 Ag2 N4 O12'
_cell_volume   335.29333519
_cell_formula_units_Z   2
loop_
 _symmetry_equiv_pos_site_id
 _symmetry_equiv_pos_as_xyz
  1  'x, y, z'
loop_
 _atom_site_type_symbol
 _atom_site_label
 _atom_site_symmetry_multiplicity
 _atom_site_fract_x
 _atom_site_fract_y
 _atom_site_fract_z
 _atom_site_occupancy
  Cs  Cs0  1  0.73028348  0.40965353  0.81920038  1
  Cs  Cs1  1  0.26971652  0.59034647  0.18079962  1
  Ag  Ag2  1  0.18824564  0.82035984  0.64052151  1
  Ag  Ag3  1  0.81175436  0.17964016  0.35947849  1
  N  N4  1  0.68077189  0.75961007  0.51923713  1
  N  N5  1  0.31922811  0.24038993  0.48076287  1
  N  N6  1  0.23985555  0.96001168  0.92003758  1
  N  N7  1  0.76014445  0.03998832  0.07996242  1
  O  O8  1  0.15101826  0.27864638  0.55716708  1
  O  O9  1  0.27252446  0.17999871  0.36003498  1
  O  O10  1  0.23141007  0.73769025  0.85732933  1
  O  O11  1  0.74413106  0.97984486  0.95967180  1
  O  O12  1  0.76858993  0.26230975  0.14267067  1
  O  O13  1  0.76865111  0.88036378  0.14267586  1
  O  O14  1  0.84898174  0.72135362  0.44283292  1
  O  O15  1  0.23134889  0.11963622  0.85732414  1
  O  O16  1  0.25586894  0.02015514  0.04032820  1
  O  O17  1  0.72747554  0.82000129  0.63996502  1
  O  O18  1  0.46352059  0.73733690  0.47464474  1
  O  O19  1  0.53647941  0.26266310  0.52535526  1
