# generated using pymatgen
data_CaTaF7
_symmetry_space_group_name_H-M   'P 1'
_cell_length_a   9.98607483
_cell_length_b   11.79176881
_cell_length_c   13.64818819
_cell_angle_alpha   90.00000000
_cell_angle_beta   90.75297945
_cell_angle_gamma   90.00000000
_symmetry_Int_Tables_number   1
_chemical_formula_structural   CaTaF7
_chemical_formula_sum   'Ca12 Ta12 F84'
_cell_volume   1606.98295080
_cell_formula_units_Z   12
loop_
 _symmetry_equiv_pos_site_id
 _symmetry_equiv_pos_as_xyz
  1  'x, y, z'
loop_
 _atom_site_type_symbol
 _atom_site_label
 _atom_site_symmetry_multiplicity
 _atom_site_fract_x
 _atom_site_fract_y
 _atom_site_fract_z
 _atom_site_occupancy
  Ca  Ca0  1  0.26291370  0.60068982  0.03813015  1
  Ca  Ca1  1  0.42204927  0.40511710  0.33481412  1
  Ca  Ca2  1  0.73708630  0.39931018  0.96186985  1
  Ca  Ca3  1  0.54434411  0.08281448  0.67923990  1
  Ca  Ca4  1  0.57795073  0.59488290  0.66518588  1
  Ca  Ca5  1  0.45565589  0.91718552  0.32076010  1
  Ca  Ca6  1  0.76291370  0.89931018  0.03813015  1
  Ca  Ca7  1  0.95565589  0.58281448  0.32076010  1
  Ca  Ca8  1  0.04434411  0.41718552  0.67923990  1
  Ca  Ca9  1  0.23708630  0.10068982  0.96186985  1
  Ca  Ca10  1  0.92204927  0.09488290  0.33481412  1
  Ca  Ca11  1  0.07795073  0.90511710  0.66518588  1
  Ta  Ta12  1  0.58018721  0.14837482  0.15487989  1
  Ta  Ta13  1  0.91057781  0.12055485  0.82312906  1
  Ta  Ta14  1  0.58942219  0.62055485  0.17687094  1
  Ta  Ta15  1  0.41057781  0.37944515  0.82312906  1
  Ta  Ta16  1  0.24073169  0.64702909  0.48587581  1
  Ta  Ta17  1  0.25926831  0.14702909  0.51412419  1
  Ta  Ta18  1  0.41981279  0.85162518  0.84512011  1
  Ta  Ta19  1  0.74073169  0.85297091  0.48587581  1
  Ta  Ta20  1  0.91981279  0.64837482  0.84512011  1
  Ta  Ta21  1  0.08942219  0.87944515  0.17687094  1
  Ta  Ta22  1  0.08018721  0.35162518  0.15487989  1
  Ta  Ta23  1  0.75926831  0.35297091  0.51412419  1
  F  F24  1  0.17851429  0.52219845  0.56861094  1
  F  F25  1  0.18408893  0.55183900  0.36784882  1
  F  F26  1  0.18967405  0.74986151  0.12313604  1
  F  F27  1  0.49849515  0.28954994  0.20688239  1
  F  F28  1  0.20489635  0.25940390  0.60862590  1
  F  F29  1  0.90694011  0.95853475  0.18747897  1
  F  F30  1  0.23020998  0.35357374  0.24584406  1
  F  F31  1  0.30989286  0.91658286  0.95314418  1
  F  F32  1  0.41664716  0.02456467  0.83204139  1
  F  F33  1  0.68598026  0.71797304  0.56341908  1
  F  F34  1  0.80989286  0.58341714  0.95314418  1
  F  F35  1  0.67851429  0.97780155  0.56861094  1
  F  F36  1  0.67345485  0.27569435  0.09167538  1
  F  F37  1  0.89679937  0.94601829  0.44425957  1
  F  F38  1  0.29510365  0.75940390  0.39137410  1
  F  F39  1  0.03244186  0.60439166  0.73097175  1
  F  F40  1  0.09305989  0.04146525  0.81252103  1
  F  F41  1  0.46755814  0.10439166  0.26902825  1
  F  F42  1  0.81591107  0.44816100  0.63215118  1
  F  F43  1  0.61854355  0.33261861  0.41181195  1
  F  F44  1  0.71770103  0.09233747  0.79294332  1
  F  F45  1  0.39679937  0.55398171  0.44425957  1
  F  F46  1  0.26979002  0.85357374  0.75415594  1
  F  F47  1  0.00150485  0.78954994  0.79311761  1
  F  F48  1  0.52943261  0.31597443  0.92650682  1
  F  F49  1  0.11854355  0.16738139  0.41181195  1
  F  F50  1  0.57080658  0.86881329  0.93476630  1
  F  F51  1  0.58335284  0.97543533  0.16795861  1
  F  F52  1  0.32654515  0.72430565  0.90832462  1
  F  F53  1  0.97056739  0.81597443  0.07349318  1
  F  F54  1  0.11995121  0.99522672  0.07875118  1
  F  F55  1  0.99849515  0.21045006  0.20688239  1
  F  F56  1  0.53244186  0.89560834  0.73097175  1
  F  F57  1  0.97676363  0.23810473  0.73585487  1
  F  F58  1  0.92919342  0.36881329  0.06523370  1
  F  F59  1  0.08335284  0.52456467  0.16795861  1
  F  F60  1  0.32148571  0.02219845  0.43138906  1
  F  F61  1  0.68408893  0.94816100  0.36784882  1
  F  F62  1  0.10320063  0.05398171  0.55574043  1
  F  F63  1  0.88004879  0.00477328  0.92124882  1
  F  F64  1  0.88145645  0.83261861  0.58818805  1
  F  F65  1  0.42919342  0.13118671  0.06523370  1
  F  F66  1  0.50150485  0.71045006  0.79311761  1
  F  F67  1  0.47676363  0.26189527  0.73585487  1
  F  F68  1  0.54427902  0.83380331  0.46337912  1
  F  F69  1  0.78229897  0.59233747  0.20705668  1
  F  F70  1  0.73020998  0.14642626  0.24584406  1
  F  F71  1  0.02943261  0.18402557  0.92650682  1
  F  F72  1  0.31591107  0.05183900  0.63215118  1
  F  F73  1  0.76979002  0.64642626  0.75415594  1
  F  F74  1  0.45572098  0.16619669  0.53662088  1
  F  F75  1  0.70489635  0.24059610  0.60862590  1
  F  F76  1  0.31401974  0.28202696  0.43658092  1
  F  F77  1  0.07080658  0.63118671  0.93476630  1
  F  F78  1  0.04427902  0.66619669  0.46337912  1
  F  F79  1  0.69010714  0.08341714  0.04685582  1
  F  F80  1  0.31032595  0.24986151  0.87686396  1
  F  F81  1  0.81032595  0.25013849  0.87686396  1
  F  F82  1  0.40694011  0.54146525  0.18747897  1
  F  F83  1  0.68967405  0.75013849  0.12313604  1
  F  F84  1  0.60320063  0.44601829  0.55574043  1
  F  F85  1  0.61995121  0.50477328  0.07875118  1
  F  F86  1  0.19010714  0.41658286  0.04685582  1
  F  F87  1  0.82148571  0.47780155  0.43138906  1
  F  F88  1  0.91664716  0.47543533  0.83204139  1
  F  F89  1  0.81401974  0.21797304  0.43658092  1
  F  F90  1  0.52323637  0.73810473  0.26414513  1
  F  F91  1  0.38145645  0.66738139  0.58818805  1
  F  F92  1  0.59305989  0.45853475  0.81252103  1
  F  F93  1  0.38004879  0.49522672  0.92124882  1
  F  F94  1  0.40542339  0.47186055  0.70344631  1
  F  F95  1  0.28229897  0.90766253  0.20705668  1
  F  F96  1  0.17345485  0.22430565  0.09167538  1
  F  F97  1  0.09457661  0.97186055  0.29655369  1
  F  F98  1  0.21770103  0.40766253  0.79294332  1
  F  F99  1  0.47056739  0.68402557  0.07349318  1
  F  F100  1  0.59457661  0.52813945  0.29655369  1
  F  F101  1  0.95572098  0.33380331  0.53662088  1
  F  F102  1  0.18598026  0.78202696  0.56341908  1
  F  F103  1  0.02323637  0.76189527  0.26414513  1
  F  F104  1  0.82654515  0.77569435  0.90832462  1
  F  F105  1  0.79510365  0.74059610  0.39137410  1
  F  F106  1  0.96755814  0.39560834  0.26902825  1
  F  F107  1  0.90542339  0.02813945  0.70344631  1
