# generated using pymatgen
data_BaCaI4
_symmetry_space_group_name_H-M   'P 1'
_cell_length_a   8.06167188
_cell_length_b   9.96086934
_cell_length_c   8.06167188
_cell_angle_alpha   66.12973346
_cell_angle_beta   90.00000000
_cell_angle_gamma   113.87026654
_symmetry_Int_Tables_number   1
_chemical_formula_structural   BaCaI4
_chemical_formula_sum   'Ba2 Ca2 I8'
_cell_volume   530.87234866
_cell_formula_units_Z   2
loop_
 _symmetry_equiv_pos_site_id
 _symmetry_equiv_pos_as_xyz
  1  'x, y, z'
loop_
 _atom_site_type_symbol
 _atom_site_label
 _atom_site_symmetry_multiplicity
 _atom_site_fract_x
 _atom_site_fract_y
 _atom_site_fract_z
 _atom_site_occupancy
  Ba  Ba0  1  0.50000000  -0.00000000  0.00000000  1
  Ba  Ba1  1  0.00000000  0.00000000  0.50000000  1
  Ca  Ca2  1  0.75000000  0.50000000  0.25000000  1
  Ca  Ca3  1  0.25000000  0.50000000  0.75000000  1
  I  I4  1  0.87997810  0.26463825  0.11533985  1
  I  I5  1  0.37997810  0.26463825  0.12002190  1
  I  I6  1  0.88466015  0.26463825  0.61533985  1
  I  I7  1  0.61533985  0.73536175  0.37997810  1
  I  I8  1  0.11533985  0.73536175  0.38466015  1
  I  I9  1  0.38466015  0.26463825  0.62002190  1
  I  I10  1  0.62002190  0.73536175  0.87997810  1
  I  I11  1  0.12002190  0.73536175  0.88466015  1
