# generated using pymatgen
data_La10S19
_symmetry_space_group_name_H-M   'P 1'
_cell_length_a   9.14949893
_cell_length_b   9.14949893
_cell_length_c   16.36936022
_cell_angle_alpha   90.00000000
_cell_angle_beta   90.00000000
_cell_angle_gamma   90.00000000
_symmetry_Int_Tables_number   1
_chemical_formula_structural   La10S19
_chemical_formula_sum   'La20 S38'
_cell_volume   1370.33366495
_cell_formula_units_Z   2
loop_
 _symmetry_equiv_pos_site_id
 _symmetry_equiv_pos_as_xyz
  1  'x, y, z'
loop_
 _atom_site_type_symbol
 _atom_site_label
 _atom_site_symmetry_multiplicity
 _atom_site_fract_x
 _atom_site_fract_y
 _atom_site_fract_z
 _atom_site_occupancy
  La  La0  1  0.54108375  0.84818468  0.87727750  1
  La  La1  1  0.15181532  0.04108375  0.37727750  1
  La  La2  1  0.44418856  0.14639013  0.60146247  1
  La  La3  1  0.65181532  0.54108375  0.62272250  1
  La  La4  1  0.45891625  0.15181532  0.12272250  1
  La  La5  1  0.14639013  0.05581144  0.89853753  1
  La  La6  1  0.75000000  0.25000000  0.88701709  1
  La  La7  1  0.55581144  0.85360987  0.39853753  1
  La  La8  1  0.95891625  0.65181532  0.87727750  1
  La  La9  1  0.75000000  0.25000000  0.38701709  1
  La  La10  1  0.34818468  0.45891625  0.37727750  1
  La  La11  1  0.25000000  0.75000000  0.61298291  1
  La  La12  1  0.04108375  0.34818468  0.12272250  1
  La  La13  1  0.35360987  0.44418856  0.89853753  1
  La  La14  1  0.25000000  0.75000000  0.11298291  1
  La  La15  1  0.84818468  0.95891625  0.62272250  1
  La  La16  1  0.64639013  0.55581144  0.10146247  1
  La  La17  1  0.85360987  0.94418856  0.10146247  1
  La  La18  1  0.94418856  0.64639013  0.39853753  1
  La  La19  1  0.05581144  0.35360987  0.60146247  1
  S  S20  1  0.14791183  0.05372489  0.56226014  1
  S  S21  1  0.05372489  0.35208817  0.93773986  1
  S  S22  1  0.45131375  0.15108737  0.42448964  1
  S  S23  1  0.41881446  0.60947929  0.75004907  1
  S  S24  1  0.75000000  0.25000000  0.56718468  1
  S  S25  1  0.19858410  0.53039873  0.74892019  1
  S  S26  1  0.96960127  0.19858410  0.75107981  1
  S  S27  1  0.03039873  0.80141590  0.24892019  1
  S  S28  1  0.60947929  0.08118554  0.74995093  1
  S  S29  1  0.95131375  0.65108737  0.57551036  1
  S  S30  1  0.65108737  0.54868625  0.92448964  1
  S  S31  1  0.35208817  0.44627511  0.56226014  1
  S  S32  1  0.89052071  0.41881446  0.74995093  1
  S  S33  1  0.15108737  0.04868625  0.07551036  1
  S  S34  1  0.75000000  0.25000000  0.06718468  1
  S  S35  1  0.58118554  0.39052071  0.24995093  1
  S  S36  1  0.55372489  0.85208817  0.06226014  1
  S  S37  1  0.64791183  0.55372489  0.43773986  1
  S  S38  1  0.80141590  0.46960127  0.25107981  1
  S  S39  1  0.30141590  0.96960127  0.74892019  1
  S  S40  1  0.91881446  0.10947929  0.24995093  1
  S  S41  1  0.04868625  0.34891263  0.42448964  1
  S  S42  1  0.75000000  0.75000000  0.75000000  1
  S  S43  1  0.08118554  0.89052071  0.75004907  1
  S  S44  1  0.25000000  0.75000000  0.43281532  1
  S  S45  1  0.46960127  0.69858410  0.24892019  1
  S  S46  1  0.53039873  0.30141590  0.75107981  1
  S  S47  1  0.85208817  0.94627511  0.43773986  1
  S  S48  1  0.39052071  0.91881446  0.25004907  1
  S  S49  1  0.94627511  0.64791183  0.06226014  1
  S  S50  1  0.69858410  0.03039873  0.25107981  1
  S  S51  1  0.44627511  0.14791183  0.93773986  1
  S  S52  1  0.84891263  0.95131375  0.92448964  1
  S  S53  1  0.34891263  0.45131375  0.07551036  1
  S  S54  1  0.25000000  0.25000000  0.25000000  1
  S  S55  1  0.25000000  0.75000000  0.93281532  1
  S  S56  1  0.10947929  0.58118554  0.25004907  1
  S  S57  1  0.54868625  0.84891263  0.57551036  1
