# generated using pymatgen
data_KEr2F7
_symmetry_space_group_name_H-M   'P 1'
_cell_length_a   7.81037175
_cell_length_b   11.86578699
_cell_length_c   13.33657820
_cell_angle_alpha   90.00000000
_cell_angle_beta   90.00000000
_cell_angle_gamma   90.00000000
_symmetry_Int_Tables_number   1
_chemical_formula_structural   KEr2F7
_chemical_formula_sum   'K8 Er16 F56'
_cell_volume   1235.98348858
_cell_formula_units_Z   8
loop_
 _symmetry_equiv_pos_site_id
 _symmetry_equiv_pos_as_xyz
  1  'x, y, z'
loop_
 _atom_site_type_symbol
 _atom_site_label
 _atom_site_symmetry_multiplicity
 _atom_site_fract_x
 _atom_site_fract_y
 _atom_site_fract_z
 _atom_site_occupancy
  K  K0  1  0.25000000  0.91500481  0.09488503  1
  K  K1  1  0.75000000  0.43426376  0.93227020  1
  K  K2  1  0.75000000  0.58499519  0.59488503  1
  K  K3  1  0.25000000  0.41500481  0.40511497  1
  K  K4  1  0.25000000  0.56573624  0.06772980  1
  K  K5  1  0.25000000  0.06573624  0.43227020  1
  K  K6  1  0.75000000  0.93426376  0.56772980  1
  K  K7  1  0.75000000  0.08499519  0.90511497  1
  Er  Er8  1  0.47641301  0.74378745  0.33741851  1
  Er  Er9  1  0.25000000  0.50672311  0.75858577  1
  Er  Er10  1  0.75000000  0.49327689  0.24141423  1
  Er  Er11  1  0.97641301  0.25621255  0.66258149  1
  Er  Er12  1  0.25000000  0.20995727  0.93706317  1
  Er  Er13  1  0.75000000  0.99327689  0.25858577  1
  Er  Er14  1  0.52358699  0.25621255  0.66258149  1
  Er  Er15  1  0.52358699  0.75621255  0.83741851  1
  Er  Er16  1  0.75000000  0.29004273  0.43706317  1
  Er  Er17  1  0.75000000  0.79004273  0.06293683  1
  Er  Er18  1  0.25000000  0.70995727  0.56293683  1
  Er  Er19  1  0.47641301  0.24378745  0.16258149  1
  Er  Er20  1  0.25000000  0.00672311  0.74141423  1
  Er  Er21  1  0.02358699  0.24378745  0.16258149  1
  Er  Er22  1  0.97641301  0.75621255  0.83741851  1
  Er  Er23  1  0.02358699  0.74378745  0.33741851  1
  F  F24  1  0.98532645  0.21860398  0.99766851  1
  F  F25  1  0.99570059  0.92587651  0.76817329  1
  F  F26  1  0.75000000  0.86638955  0.90472948  1
  F  F27  1  0.75000000  0.19202621  0.16114921  1
  F  F28  1  0.91898243  0.33028156  0.30132940  1
  F  F29  1  0.75000000  0.24211660  0.76471762  1
  F  F30  1  0.42065004  0.58785061  0.87681599  1
  F  F31  1  0.57934996  0.41214939  0.12318401  1
  F  F32  1  0.75000000  0.74211660  0.73528238  1
  F  F33  1  0.49570059  0.57412349  0.26817329  1
  F  F34  1  0.07934996  0.08785061  0.62318401  1
  F  F35  1  0.75000000  0.97358141  0.08915994  1
  F  F36  1  0.51467355  0.21860398  0.99766851  1
  F  F37  1  0.42065004  0.08785061  0.62318401  1
  F  F38  1  0.91898243  0.83028156  0.19867060  1
  F  F39  1  0.01467355  0.28139602  0.49766851  1
  F  F40  1  0.25000000  0.02641859  0.91084006  1
  F  F41  1  0.75000000  0.12384733  0.37456492  1
  F  F42  1  0.25000000  0.80797379  0.83885079  1
  F  F43  1  0.51467355  0.71860398  0.50233149  1
  F  F44  1  0.25000000  0.33679675  0.08001908  1
  F  F45  1  0.25000000  0.63361045  0.40472948  1
  F  F46  1  0.58101757  0.83028156  0.19867060  1
  F  F47  1  0.98532645  0.71860398  0.50233149  1
  F  F48  1  0.41898243  0.66971844  0.69867060  1
  F  F49  1  0.50429941  0.92587651  0.76817329  1
  F  F50  1  0.01467355  0.78139602  0.00233149  1
  F  F51  1  0.48532645  0.28139602  0.49766851  1
  F  F52  1  0.75000000  0.66320325  0.91998092  1
  F  F53  1  0.75000000  0.36638955  0.59527052  1
  F  F54  1  0.48532645  0.78139602  0.00233149  1
  F  F55  1  0.25000000  0.52641859  0.58915994  1
  F  F56  1  0.92065004  0.91214939  0.37681599  1
  F  F57  1  0.08101757  0.66971844  0.69867060  1
  F  F58  1  0.75000000  0.16320325  0.58001908  1
  F  F59  1  0.25000000  0.83679675  0.41998092  1
  F  F60  1  0.25000000  0.75788340  0.23528238  1
  F  F61  1  0.25000000  0.30797379  0.66114921  1
  F  F62  1  0.75000000  0.69202621  0.33885079  1
  F  F63  1  0.25000000  0.13361045  0.09527052  1
  F  F64  1  0.99570059  0.42587651  0.73182671  1
  F  F65  1  0.08101757  0.16971844  0.80132940  1
  F  F66  1  0.41898243  0.16971844  0.80132940  1
  F  F67  1  0.00429941  0.57412349  0.26817329  1
  F  F68  1  0.25000000  0.87615267  0.62543508  1
  F  F69  1  0.07934996  0.58785061  0.87681599  1
  F  F70  1  0.25000000  0.37615267  0.87456492  1
  F  F71  1  0.92065004  0.41214939  0.12318401  1
  F  F72  1  0.50429941  0.42587651  0.73182671  1
  F  F73  1  0.25000000  0.25788340  0.26471762  1
  F  F74  1  0.00429941  0.07412349  0.23182671  1
  F  F75  1  0.49570059  0.07412349  0.23182671  1
  F  F76  1  0.58101757  0.33028156  0.30132940  1
  F  F77  1  0.75000000  0.62384733  0.12543508  1
  F  F78  1  0.57934996  0.91214939  0.37681599  1
  F  F79  1  0.75000000  0.47358141  0.41084006  1
