# generated using pymatgen
data_RbInAs2O7
_symmetry_space_group_name_H-M   'P 1'
_cell_length_a   7.99861538
_cell_length_b   8.86373562
_cell_length_c   10.69576721
_cell_angle_alpha   88.83650596
_cell_angle_beta   89.94365210
_cell_angle_gamma   74.26908689
_symmetry_Int_Tables_number   1
_chemical_formula_structural   RbInAs2O7
_chemical_formula_sum   'Rb4 In4 As8 O28'
_cell_volume   729.74398154
_cell_formula_units_Z   4
loop_
 _symmetry_equiv_pos_site_id
 _symmetry_equiv_pos_as_xyz
  1  'x, y, z'
loop_
 _atom_site_type_symbol
 _atom_site_label
 _atom_site_symmetry_multiplicity
 _atom_site_fract_x
 _atom_site_fract_y
 _atom_site_fract_z
 _atom_site_occupancy
  Rb  Rb0  1  0.69043532  0.94432630  0.81260334  1
  Rb  Rb1  1  0.30956468  0.05567370  0.18739666  1
  Rb  Rb2  1  0.33941195  0.53886430  0.31714054  1
  Rb  Rb3  1  0.66058805  0.46113570  0.68285946  1
  In  In4  1  0.26472130  0.76755989  0.89785879  1
  In  In5  1  0.73790124  0.73888311  0.40417082  1
  In  In6  1  0.26209876  0.26111689  0.59582918  1
  In  In7  1  0.73527870  0.23244011  0.10214121  1
  As  As8  1  0.94881592  0.79907763  0.13243968  1
  As  As9  1  0.34465725  0.85001223  0.57352479  1
  As  As10  1  0.62903866  0.66882761  0.09977977  1
  As  As11  1  0.93162299  0.32657304  0.35933028  1
  As  As12  1  0.05118408  0.20092237  0.86756032  1
  As  As13  1  0.37096134  0.33117239  0.90022023  1
  As  As14  1  0.65534275  0.14998777  0.42647521  1
  As  As15  1  0.06837701  0.67342696  0.64066972  1
  O  O16  1  0.84013362  0.25726851  0.91693814  1
  O  O17  1  0.86195108  0.18773313  0.45670570  1
  O  O18  1  0.95646966  0.76525882  0.29076933  1
  O  O19  1  0.31005258  0.03479844  0.51419013  1
  O  O20  1  0.04353034  0.23474118  0.70923067  1
  O  O21  1  0.87157471  0.66576474  0.58584410  1
  O  O22  1  0.42178746  0.22456954  0.76669413  1
  O  O23  1  0.50710797  0.28341106  0.51124517  1
  O  O24  1  0.39755560  0.81926672  0.72820874  1
  O  O25  1  0.95654504  0.25240280  0.21153375  1
  O  O26  1  0.49289203  0.71658894  0.48875483  1
  O  O27  1  0.83229070  0.97634019  0.07556459  1
  O  O28  1  0.04345496  0.74759720  0.78846625  1
  O  O29  1  0.60244440  0.18073328  0.27179126  1
  O  O30  1  0.23184812  0.50681667  0.62708187  1
  O  O31  1  0.60847241  0.48476171  0.11592090  1
  O  O32  1  0.14899055  0.34071653  0.93831962  1
  O  O33  1  0.12842529  0.33423526  0.41415590  1
  O  O34  1  0.49107797  0.22123671  0.01881393  1
  O  O35  1  0.57821254  0.77543046  0.23330587  1
  O  O36  1  0.85100945  0.65928347  0.06168038  1
  O  O37  1  0.39152759  0.51523829  0.88407910  1
  O  O38  1  0.68994742  0.96520156  0.48580987  1
  O  O39  1  0.76815188  0.49318333  0.37291813  1
  O  O40  1  0.15986638  0.74273149  0.08306186  1
  O  O41  1  0.50892203  0.77876329  0.98118607  1
  O  O42  1  0.13804892  0.81226687  0.54329430  1
  O  O43  1  0.16770930  0.02365981  0.92443541  1
