# generated using pymatgen
data_UAg2(SeO4)2
_symmetry_space_group_name_H-M   'P 1'
_cell_length_a   5.99861134
_cell_length_b   6.63315731
_cell_length_c   21.52805344
_cell_angle_alpha   90.00000000
_cell_angle_beta   96.44478019
_cell_angle_gamma   90.00000000
_symmetry_Int_Tables_number   1
_chemical_formula_structural   UAg2(SeO4)2
_chemical_formula_sum   'U4 Ag8 Se8 O32'
_cell_volume   851.18223248
_cell_formula_units_Z   4
loop_
 _symmetry_equiv_pos_site_id
 _symmetry_equiv_pos_as_xyz
  1  'x, y, z'
loop_
 _atom_site_type_symbol
 _atom_site_label
 _atom_site_symmetry_multiplicity
 _atom_site_fract_x
 _atom_site_fract_y
 _atom_site_fract_z
 _atom_site_occupancy
  U  U0  1  0.92292547  0.08937171  0.64517122  1
  U  U1  1  0.57707453  0.58937171  0.85482878  1
  U  U2  1  0.07707453  0.91062829  0.35482878  1
  U  U3  1  0.42292547  0.41062829  0.14517122  1
  Ag  Ag4  1  0.10890731  0.09638427  0.83950782  1
  Ag  Ag5  1  0.39109269  0.59638427  0.66049218  1
  Ag  Ag6  1  0.71992894  0.10406362  0.95847912  1
  Ag  Ag7  1  0.78007106  0.60406362  0.54152088  1
  Ag  Ag8  1  0.28007106  0.89593638  0.04152088  1
  Ag  Ag9  1  0.89109269  0.90361573  0.16049218  1
  Ag  Ag10  1  0.21992894  0.39593638  0.45847912  1
  Ag  Ag11  1  0.60890731  0.40361573  0.33950782  1
  Se  Se12  1  0.57942168  0.06148636  0.77511046  1
  Se  Se13  1  0.76157158  0.65521299  0.02379472  1
  Se  Se14  1  0.42057832  0.93851364  0.22488954  1
  Se  Se15  1  0.73842842  0.15521299  0.47620528  1
  Se  Se16  1  0.23842842  0.34478701  0.97620528  1
  Se  Se17  1  0.92057832  0.56148636  0.72488954  1
  Se  Se18  1  0.07942168  0.43851364  0.27511046  1
  Se  Se19  1  0.26157158  0.84478701  0.52379472  1
  O  O20  1  0.37792780  0.24837289  0.04506940  1
  O  O21  1  0.70466983  0.30868329  0.16442090  1
  O  O22  1  0.83714138  0.14020487  0.75087435  1
  O  O23  1  0.96511672  0.13968501  0.43226237  1
  O  O24  1  0.79533017  0.80868329  0.33557910  1
  O  O25  1  0.96572358  0.22132383  0.30351520  1
  O  O26  1  0.30803860  0.05846371  0.15677840  1
  O  O27  1  0.19196140  0.55846371  0.34322160  1
  O  O28  1  0.11500201  0.12348517  0.94807638  1
  O  O29  1  0.63918319  0.99233199  0.62700800  1
  O  O30  1  0.86081681  0.49233199  0.87299200  1
  O  O31  1  0.36081681  0.00766801  0.37299200  1
  O  O32  1  0.87792780  0.25162711  0.54506940  1
  O  O33  1  0.61500201  0.37651483  0.44807638  1
  O  O34  1  0.03488328  0.86031499  0.56773763  1
  O  O35  1  0.03427642  0.77867617  0.69648480  1
  O  O36  1  0.53427642  0.72132383  0.19648480  1
  O  O37  1  0.69196140  0.94153629  0.84322160  1
  O  O38  1  0.12207220  0.74837289  0.45493060  1
  O  O39  1  0.20466983  0.19131671  0.66442090  1
  O  O40  1  0.46572358  0.27867617  0.80351520  1
  O  O41  1  0.46511672  0.36031499  0.93226237  1
  O  O42  1  0.62207220  0.75162711  0.95493060  1
  O  O43  1  0.66285862  0.64020487  0.74912565  1
  O  O44  1  0.13918319  0.50766801  0.12700800  1
  O  O45  1  0.16285862  0.85979513  0.24912565  1
  O  O46  1  0.80803860  0.44153629  0.65677840  1
  O  O47  1  0.33714138  0.35979513  0.25087435  1
  O  O48  1  0.53488328  0.63968501  0.06773763  1
  O  O49  1  0.38499799  0.62348517  0.55192362  1
  O  O50  1  0.29533017  0.69131671  0.83557910  1
  O  O51  1  0.88499799  0.87651483  0.05192362  1
