# generated using pymatgen
data_YbBeF4
_symmetry_space_group_name_H-M   'P 1'
_cell_length_a   7.67210487
_cell_length_b   8.08823605
_cell_length_c   5.31578310
_cell_angle_alpha   106.77994200
_cell_angle_beta   82.21098117
_cell_angle_gamma   92.80220462
_symmetry_Int_Tables_number   1
_chemical_formula_structural   YbBeF4
_chemical_formula_sum   'Yb4 Be4 F16'
_cell_volume   312.88871900
_cell_formula_units_Z   4
loop_
 _symmetry_equiv_pos_site_id
 _symmetry_equiv_pos_as_xyz
  1  'x, y, z'
loop_
 _atom_site_type_symbol
 _atom_site_label
 _atom_site_symmetry_multiplicity
 _atom_site_fract_x
 _atom_site_fract_y
 _atom_site_fract_z
 _atom_site_occupancy
  Yb  Yb0  1  0.86599255  0.90418121  0.73483895  1
  Yb  Yb1  1  0.41505583  0.87969150  0.71743661  1
  Yb  Yb2  1  0.13399671  0.09576137  0.26516301  1
  Yb  Yb3  1  0.58497048  0.12028180  0.28258732  1
  Be  Be4  1  0.80110501  0.48536416  0.31654296  1
  Be  Be5  1  0.19888066  0.51460068  0.68339251  1
  Be  Be6  1  0.85460468  0.35551385  0.75178831  1
  Be  Be7  1  0.14542961  0.64452451  0.24819941  1
  F  F8  1  0.04675653  0.81595893  0.33668983  1
  F  F9  1  0.25883246  0.63451059  0.48140116  1
  F  F10  1  0.65673001  0.00776057  0.57940492  1
  F  F11  1  0.86949958  0.09989165  0.12653272  1
  F  F12  1  0.01027008  0.48693127  0.24507227  1
  F  F13  1  0.98970944  0.51319203  0.75503713  1
  F  F14  1  0.73739876  0.39129418  0.03371314  1
  F  F15  1  0.95327897  0.18406394  0.66325943  1
  F  F16  1  0.27213286  0.34012657  0.53621565  1
  F  F17  1  0.13049345  0.90006657  0.87340025  1
  F  F18  1  0.26261569  0.60877736  0.96628870  1
  F  F19  1  0.61429184  0.86637909  0.97913383  1
  F  F20  1  0.72772136  0.65989554  0.46392544  1
  F  F21  1  0.34330325  0.99218271  0.42056717  1
  F  F22  1  0.38572556  0.13357522  0.02087584  1
  F  F23  1  0.74120463  0.36547768  0.51853144  1
