# generated using pymatgen
data_Pr3Si2S8I
_symmetry_space_group_name_H-M   'P 1'
_cell_length_a   7.91472908
_cell_length_b   8.97082767
_cell_length_c   10.93602648
_cell_angle_alpha   97.22729228
_cell_angle_beta   90.00000000
_cell_angle_gamma   116.17645252
_symmetry_Int_Tables_number   1
_chemical_formula_structural   Pr3Si2S8I
_chemical_formula_sum   'Pr6 Si4 S16 I2'
_cell_volume   689.95968271
_cell_formula_units_Z   2
loop_
 _symmetry_equiv_pos_site_id
 _symmetry_equiv_pos_as_xyz
  1  'x, y, z'
loop_
 _atom_site_type_symbol
 _atom_site_label
 _atom_site_symmetry_multiplicity
 _atom_site_fract_x
 _atom_site_fract_y
 _atom_site_fract_z
 _atom_site_occupancy
  Pr  Pr0  1  0.32147041  0.39771119  0.18138891  1
  Pr  Pr1  1  0.59785897  0.00000000  0.25000000  1
  Pr  Pr2  1  0.67852959  0.60228881  0.81861109  1
  Pr  Pr3  1  0.92375922  0.60228881  0.31861109  1
  Pr  Pr4  1  0.07624078  0.39771119  0.68138891  1
  Pr  Pr5  1  0.40214103  0.00000000  0.75000000  1
  Si  Si6  1  0.37725240  0.68057520  0.47059610  1
  Si  Si7  1  0.69667720  0.31942480  0.02940390  1
  Si  Si8  1  0.62274760  0.31942480  0.52940390  1
  Si  Si9  1  0.30332280  0.68057520  0.97059610  1
  S  S10  1  0.71216460  0.56259569  0.08582744  1
  S  S11  1  0.58491720  0.86295609  0.95725680  1
  S  S12  1  0.14956891  0.43740431  0.41417256  1
  S  S13  1  0.25150936  0.70078630  0.16131397  1
  S  S14  1  0.40049799  0.28997516  0.64740623  1
  S  S15  1  0.11052283  0.71002484  0.85259377  1
  S  S16  1  0.41508280  0.13704391  0.04274320  1
  S  S17  1  0.28783540  0.43740431  0.91417256  1
  S  S18  1  0.44927693  0.70078630  0.66131397  1
  S  S19  1  0.55072307  0.29921370  0.33868603  1
  S  S20  1  0.59950201  0.71002484  0.35259377  1
  S  S21  1  0.27803889  0.86295609  0.45725680  1
  S  S22  1  0.74849064  0.29921370  0.83868603  1
  S  S23  1  0.88947717  0.28997516  0.14740623  1
  S  S24  1  0.72196111  0.13704391  0.54274320  1
  S  S25  1  0.85043109  0.56259569  0.58582744  1
  I  I26  1  0.98661557  0.00000000  0.75000000  1
  I  I27  1  0.01338443  0.00000000  0.25000000  1
