# generated using pymatgen
data_K2Er(NO3)5
_symmetry_space_group_name_H-M   'P 1'
_cell_length_a   8.09909059
_cell_length_b   12.19904281
_cell_length_c   14.52696917
_cell_angle_alpha   90.00000000
_cell_angle_beta   102.56468761
_cell_angle_gamma   90.00000000
_symmetry_Int_Tables_number   1
_chemical_formula_structural   K2Er(NO3)5
_chemical_formula_sum   'K8 Er4 N20 O60'
_cell_volume   1400.90778055
_cell_formula_units_Z   4
loop_
 _symmetry_equiv_pos_site_id
 _symmetry_equiv_pos_as_xyz
  1  'x, y, z'
loop_
 _atom_site_type_symbol
 _atom_site_label
 _atom_site_symmetry_multiplicity
 _atom_site_fract_x
 _atom_site_fract_y
 _atom_site_fract_z
 _atom_site_occupancy
  K  K0  1  0.79772969  0.16160913  0.02844881  1
  K  K1  1  0.36904140  0.11314681  0.39177318  1
  K  K2  1  0.20227031  0.66160913  0.47155119  1
  K  K3  1  0.63095860  0.61314681  0.10822682  1
  K  K4  1  0.79772969  0.33839087  0.52844881  1
  K  K5  1  0.63095860  0.88685319  0.60822682  1
  K  K6  1  0.36904140  0.38685319  0.89177318  1
  K  K7  1  0.20227031  0.83839087  0.97155119  1
  Er  Er8  1  0.25090373  0.05142607  0.73236135  1
  Er  Er9  1  0.25090373  0.44857393  0.23236135  1
  Er  Er10  1  0.74909627  0.55142607  0.76763865  1
  Er  Er11  1  0.74909627  0.94857393  0.26763865  1
  N  N12  1  0.58565519  0.48785040  0.34160115  1
  N  N13  1  0.40125809  0.19086886  0.61386461  1
  N  N14  1  0.12908042  0.35637130  0.38717013  1
  N  N15  1  0.08729582  0.58750490  0.87690684  1
  N  N16  1  0.08729582  0.91249510  0.37690684  1
  N  N17  1  0.75847018  0.18324245  0.29415191  1
  N  N18  1  0.41434481  0.98785040  0.15839885  1
  N  N19  1  0.59874191  0.80913114  0.38613539  1
  N  N20  1  0.58565519  0.01214960  0.84160115  1
  N  N21  1  0.24152982  0.68324245  0.20584809  1
  N  N22  1  0.87091958  0.64362870  0.61282987  1
  N  N23  1  0.91270418  0.41249510  0.12309316  1
  N  N24  1  0.91270418  0.08750490  0.62309316  1
  N  N25  1  0.12908042  0.14362870  0.88717013  1
  N  N26  1  0.24152982  0.81675755  0.70584809  1
  N  N27  1  0.59874191  0.69086886  0.88613539  1
  N  N28  1  0.41434481  0.51214960  0.65839885  1
  N  N29  1  0.87091958  0.85637130  0.11282987  1
  N  N30  1  0.75847018  0.31675755  0.79415191  1
  N  N31  1  0.40125809  0.30913114  0.11386461  1
  O  O32  1  0.97453021  0.66271245  0.86730966  1
  O  O33  1  0.97453021  0.83728755  0.36730966  1
  O  O34  1  0.73457912  0.37943862  0.86127535  1
  O  O35  1  0.96056008  0.99485092  0.66236364  1
  O  O36  1  0.27175403  0.00873539  0.11277990  1
  O  O37  1  0.03943992  0.00514908  0.33763636  1
  O  O38  1  0.26542088  0.62056138  0.13872465  1
  O  O39  1  0.80856665  0.70208363  0.67116776  1
  O  O40  1  0.23447852  0.60273964  0.92128952  1
  O  O41  1  0.54004464  0.74728486  0.43838566  1
  O  O42  1  0.47316602  0.43910119  0.37743096  1
  O  O43  1  0.46348356  0.48731817  0.74648768  1
  O  O44  1  0.91263816  0.81538868  0.04386248  1
  O  O45  1  0.77184340  0.36649239  0.71765739  1
  O  O46  1  0.39203350  0.21697403  0.69779552  1
  O  O47  1  0.23447852  0.89726036  0.42128952  1
  O  O48  1  0.53651644  0.98731817  0.75351232  1
  O  O49  1  0.53651644  0.51268183  0.25351232  1
  O  O50  1  0.19143335  0.29791637  0.32883224  1
  O  O51  1  0.08736184  0.31538868  0.45613752  1
  O  O52  1  0.65606979  0.90540606  0.41412034  1
  O  O53  1  0.45995536  0.25271514  0.56161434  1
  O  O54  1  0.52683398  0.93910119  0.12256904  1
  O  O55  1  0.77184340  0.13350761  0.21765739  1
  O  O56  1  0.54004464  0.75271514  0.93838566  1
  O  O57  1  0.08736184  0.18461132  0.95613752  1
  O  O58  1  0.88535869  0.54111433  0.63251480  1
  O  O59  1  0.22815660  0.63350761  0.28234261  1
  O  O60  1  0.80856665  0.79791637  0.17116776  1
  O  O61  1  0.23152438  0.71637012  0.69786668  1
  O  O62  1  0.91263816  0.68461132  0.54386248  1
  O  O63  1  0.60796650  0.71697403  0.80220448  1
  O  O64  1  0.02546979  0.16271245  0.63269034  1
  O  O65  1  0.19143335  0.20208363  0.82883224  1
  O  O66  1  0.60796650  0.78302597  0.30220448  1
  O  O67  1  0.96056008  0.50514908  0.16236364  1
  O  O68  1  0.11464131  0.45888567  0.36748520  1
  O  O69  1  0.22815660  0.86649239  0.78234261  1
  O  O70  1  0.34393021  0.40540606  0.08587966  1
  O  O71  1  0.03943992  0.49485092  0.83763636  1
  O  O72  1  0.23152438  0.78362988  0.19786668  1
  O  O73  1  0.02546979  0.33728755  0.13269034  1
  O  O74  1  0.72824597  0.99126461  0.88722010  1
  O  O75  1  0.88535869  0.95888567  0.13251480  1
  O  O76  1  0.26542088  0.87943862  0.63872465  1
  O  O77  1  0.73457912  0.12056138  0.36127535  1
  O  O78  1  0.76847562  0.28362988  0.30213332  1
  O  O79  1  0.76847562  0.21637012  0.80213332  1
  O  O80  1  0.76552148  0.10273964  0.57871048  1
  O  O81  1  0.34393021  0.09459394  0.58587966  1
  O  O82  1  0.65606979  0.59459394  0.91412034  1
  O  O83  1  0.11464131  0.04111433  0.86748520  1
  O  O84  1  0.47316602  0.06089881  0.87743096  1
  O  O85  1  0.27175403  0.49126461  0.61277990  1
  O  O86  1  0.39203350  0.28302597  0.19779552  1
  O  O87  1  0.46348356  0.01268183  0.24648768  1
  O  O88  1  0.76552148  0.39726036  0.07871048  1
  O  O89  1  0.45995536  0.24728486  0.06161434  1
  O  O90  1  0.72824597  0.50873539  0.38722010  1
  O  O91  1  0.52683398  0.56089881  0.62256904  1
