# generated using pymatgen
data_SrCrF4
_symmetry_space_group_name_H-M   'P 1'
_cell_length_a   5.76247528
_cell_length_b   5.76247528
_cell_length_c   6.88028180
_cell_angle_alpha   114.75679203
_cell_angle_beta   114.75679201
_cell_angle_gamma   90.00000006
_symmetry_Int_Tables_number   1
_chemical_formula_structural   SrCrF4
_chemical_formula_sum   'Sr2 Cr2 F8'
_cell_volume   184.09258355
_cell_formula_units_Z   2
loop_
 _symmetry_equiv_pos_site_id
 _symmetry_equiv_pos_as_xyz
  1  'x, y, z'
loop_
 _atom_site_type_symbol
 _atom_site_label
 _atom_site_symmetry_multiplicity
 _atom_site_fract_x
 _atom_site_fract_y
 _atom_site_fract_z
 _atom_site_occupancy
  F  F0  1  0.94670993  0.44670993  0.25135607  1
  F  F1  1  0.69535387  0.19535387  0.74864393  1
  F  F2  1  0.05329007  0.55329007  0.74864393  1
  F  F3  1  0.19535387  0.05329007  0.74864393  1
  F  F4  1  0.30464613  0.80464613  0.25135607  1
  F  F5  1  0.44670993  0.30464613  0.25135607  1
  F  F6  1  0.80464613  0.94670993  0.25135607  1
  F  F7  1  0.55329007  0.69535387  0.74864393  1
  Cr  Cr8  1  0.50000000  0.00000000  0.00000000  1
  Cr  Cr9  1  0.00000000  0.50000000  0.00000000  1
  Sr  Sr10  1  0.75000000  0.75000000  0.50000000  1
  Sr  Sr11  1  0.25000000  0.25000000  0.50000000  1
