# generated using pymatgen
data_DySeClO3
_symmetry_space_group_name_H-M   'P 1'
_cell_length_a   7.02245517
_cell_length_b   7.29809799
_cell_length_c   8.88781669
_cell_angle_alpha   90.00000000
_cell_angle_beta   90.00000000
_cell_angle_gamma   90.00000000
_symmetry_Int_Tables_number   1
_chemical_formula_structural   DySeClO3
_chemical_formula_sum   'Dy4 Se4 Cl4 O12'
_cell_volume   455.50563552
_cell_formula_units_Z   4
loop_
 _symmetry_equiv_pos_site_id
 _symmetry_equiv_pos_as_xyz
  1  'x, y, z'
loop_
 _atom_site_type_symbol
 _atom_site_label
 _atom_site_symmetry_multiplicity
 _atom_site_fract_x
 _atom_site_fract_y
 _atom_site_fract_z
 _atom_site_occupancy
  Dy  Dy0  1  0.75000000  0.39469886  0.96095203  1
  Dy  Dy1  1  0.75000000  0.89469886  0.53904797  1
  Dy  Dy2  1  0.25000000  0.60530114  0.03904797  1
  Dy  Dy3  1  0.25000000  0.10530114  0.46095203  1
  Se  Se4  1  0.75000000  0.29071286  0.36738115  1
  Se  Se5  1  0.25000000  0.70928714  0.63261885  1
  Se  Se6  1  0.75000000  0.79071286  0.13261885  1
  Se  Se7  1  0.25000000  0.20928714  0.86738115  1
  Cl  Cl8  1  0.25000000  0.44292138  0.31794969  1
  Cl  Cl9  1  0.75000000  0.05707862  0.81794969  1
  Cl  Cl10  1  0.25000000  0.94292138  0.18205031  1
  Cl  Cl11  1  0.75000000  0.55707862  0.68205031  1
  O  O12  1  0.92734892  0.64157577  0.06718462  1
  O  O13  1  0.57265108  0.64157577  0.06718462  1
  O  O14  1  0.75000000  0.74829679  0.32080294  1
  O  O15  1  0.07265108  0.35842423  0.93281538  1
  O  O16  1  0.07265108  0.85842423  0.56718462  1
  O  O17  1  0.25000000  0.75170321  0.82080294  1
  O  O18  1  0.92734892  0.14157577  0.43281538  1
  O  O19  1  0.25000000  0.25170321  0.67919706  1
  O  O20  1  0.42734892  0.35842423  0.93281538  1
  O  O21  1  0.57265108  0.14157577  0.43281538  1
  O  O22  1  0.75000000  0.24829679  0.17919706  1
  O  O23  1  0.42734892  0.85842423  0.56718462  1
