# generated using pymatgen
data_K2Na(B3O5)3
_symmetry_space_group_name_H-M   'P 1'
_cell_length_a   6.70760652
_cell_length_b   9.21396453
_cell_length_c   20.92673133
_cell_angle_alpha   94.08052527
_cell_angle_beta   90.00000000
_cell_angle_gamma   90.00000000
_symmetry_Int_Tables_number   1
_chemical_formula_structural   K2Na(B3O5)3
_chemical_formula_sum   'K8 Na4 B36 O60'
_cell_volume   1290.06974524
_cell_formula_units_Z   4
loop_
 _symmetry_equiv_pos_site_id
 _symmetry_equiv_pos_as_xyz
  1  'x, y, z'
loop_
 _atom_site_type_symbol
 _atom_site_label
 _atom_site_symmetry_multiplicity
 _atom_site_fract_x
 _atom_site_fract_y
 _atom_site_fract_z
 _atom_site_occupancy
  K  K0  1  0.81396613  0.58895589  0.11945396  1
  K  K1  1  0.30351264  0.22158371  0.53301189  1
  K  K2  1  0.31396613  0.41104411  0.38054604  1
  K  K3  1  0.18603387  0.41104411  0.88054604  1
  K  K4  1  0.19648736  0.22158371  0.03301189  1
  K  K5  1  0.68603387  0.58895589  0.61945396  1
  K  K6  1  0.80351264  0.77841629  0.96698811  1
  K  K7  1  0.69648736  0.77841629  0.46698811  1
  Na  Na8  1  0.48733093  0.93492988  0.24565831  1
  Na  Na9  1  0.98733093  0.06507012  0.25434169  1
  Na  Na10  1  0.51266907  0.06507012  0.75434169  1
  Na  Na11  1  0.01266907  0.93492988  0.74565831  1
  B  B12  1  0.25637523  0.75432225  0.92319872  1
  B  B13  1  0.92937117  0.19580181  0.67479866  1
  B  B14  1  0.24910772  0.67541098  0.03451039  1
  B  B15  1  0.71729319  0.49014889  0.87553452  1
  B  B16  1  0.00556623  0.84629940  0.58855818  1
  B  B17  1  0.64233906  0.11269871  0.38966883  1
  B  B18  1  0.22102186  0.34892909  0.71547370  1
  B  B19  1  0.96291739  0.41379347  0.27788756  1
  B  B20  1  0.77897814  0.65107091  0.28452630  1
  B  B21  1  0.35766094  0.88730129  0.61033117  1
  B  B22  1  0.75637523  0.24567775  0.57680128  1
  B  B23  1  0.03708261  0.58620653  0.72211244  1
  B  B24  1  0.27897814  0.34892909  0.21547370  1
  B  B25  1  0.75089228  0.32458902  0.96548961  1
  B  B26  1  0.99443377  0.15370060  0.41144182  1
  B  B27  1  0.72102186  0.65107091  0.78452630  1
  B  B28  1  0.50556623  0.15370060  0.91144182  1
  B  B29  1  0.29989854  0.99336079  0.37574279  1
  B  B30  1  0.07062883  0.80419819  0.32520134  1
  B  B31  1  0.74910772  0.32458902  0.46548961  1
  B  B32  1  0.79989854  0.00663921  0.12425721  1
  B  B33  1  0.25089228  0.67541098  0.53451039  1
  B  B34  1  0.57062883  0.19580181  0.17479866  1
  B  B35  1  0.74362477  0.24567775  0.07680128  1
  B  B36  1  0.46291739  0.58620653  0.22211244  1
  B  B37  1  0.49443377  0.84629940  0.08855818  1
  B  B38  1  0.78270681  0.49014889  0.37553452  1
  B  B39  1  0.14233906  0.88730129  0.11033117  1
  B  B40  1  0.21729319  0.50985111  0.62446548  1
  B  B41  1  0.53708261  0.41379347  0.77788756  1
  B  B42  1  0.20010146  0.99336079  0.87574279  1
  B  B43  1  0.70010146  0.00663921  0.62425721  1
  B  B44  1  0.24362477  0.75432225  0.42319872  1
  B  B45  1  0.85766094  0.11269871  0.88966883  1
  B  B46  1  0.42937117  0.80419819  0.82520134  1
  B  B47  1  0.28270681  0.50985111  0.12446548  1
  O  O48  1  0.99726911  0.03151904  0.85522020  1
  O  O49  1  0.09591717  0.77542059  0.06655226  1
  O  O50  1  0.79192560  0.34708991  0.03438081  1
  O  O51  1  0.76994286  0.46647399  0.93706313  1
  O  O52  1  0.10282236  0.61315961  0.66039605  1
  O  O53  1  0.21834401  0.38661335  0.15079218  1
  O  O54  1  0.78165599  0.61338665  0.84920782  1
  O  O55  1  0.45128593  0.73856432  0.04233774  1
  O  O56  1  0.89717764  0.38684039  0.33960395  1
  O  O57  1  0.11620998  0.70920990  0.37265211  1
  O  O58  1  0.95128593  0.26143568  0.45766226  1
  O  O59  1  0.54871407  0.26143568  0.95766226  1
  O  O60  1  0.28165599  0.38661335  0.65079218  1
  O  O61  1  0.09152112  0.21734699  0.71301680  1
  O  O62  1  0.73005714  0.46647399  0.43706313  1
  O  O63  1  0.39873156  0.31457170  0.75336995  1
  O  O64  1  0.00273089  0.96848096  0.14477980  1
  O  O65  1  0.29192560  0.65291009  0.46561919  1
  O  O66  1  0.69496443  0.07730606  0.18189422  1
  O  O67  1  0.40847888  0.21734699  0.21301680  1
  O  O68  1  0.38379002  0.70920990  0.87265211  1
  O  O69  1  0.30859822  0.12339983  0.90099965  1
  O  O70  1  0.40408283  0.77542059  0.56655226  1
  O  O71  1  0.26994286  0.53352601  0.56293687  1
  O  O72  1  0.70807440  0.34708991  0.53438081  1
  O  O73  1  0.15648317  0.92456984  0.62240645  1
  O  O74  1  0.50273089  0.03151904  0.35522020  1
  O  O75  1  0.59152112  0.78265301  0.78698320  1
  O  O76  1  0.80859822  0.87660017  0.59900035  1
  O  O77  1  0.39223263  0.46952456  0.25132524  1
  O  O78  1  0.60282236  0.38684039  0.83960395  1
  O  O79  1  0.31968824  0.89194052  0.42755575  1
  O  O80  1  0.88379002  0.29079010  0.62734789  1
  O  O81  1  0.65648317  0.07543016  0.87759355  1
  O  O82  1  0.10126844  0.31457170  0.25336995  1
  O  O83  1  0.30503557  0.92269394  0.81810578  1
  O  O84  1  0.81968824  0.10805948  0.07244425  1
  O  O85  1  0.23005714  0.53352601  0.06293687  1
  O  O86  1  0.60126844  0.68542830  0.24663005  1
  O  O87  1  0.84351683  0.07543016  0.37759355  1
  O  O88  1  0.89873156  0.68542830  0.74663005  1
  O  O89  1  0.10776737  0.46952456  0.75132524  1
  O  O90  1  0.59591717  0.22457941  0.43344774  1
  O  O91  1  0.71834401  0.61338665  0.34920782  1
  O  O92  1  0.60776737  0.53047544  0.74867476  1
  O  O93  1  0.04871407  0.73856432  0.54233774  1
  O  O94  1  0.39717764  0.61315961  0.16039605  1
  O  O95  1  0.49726911  0.96848096  0.64477980  1
  O  O96  1  0.90408283  0.22457941  0.93344774  1
  O  O97  1  0.18031176  0.89194052  0.92755575  1
  O  O98  1  0.90847888  0.78265301  0.28698320  1
  O  O99  1  0.19140178  0.12339983  0.40099965  1
  O  O100  1  0.68031176  0.10805948  0.57244425  1
  O  O101  1  0.61620998  0.29079010  0.12734789  1
  O  O102  1  0.89223263  0.53047544  0.24867476  1
  O  O103  1  0.19496443  0.92269394  0.31810578  1
  O  O104  1  0.20807440  0.65291009  0.96561919  1
  O  O105  1  0.80503557  0.07730606  0.68189422  1
  O  O106  1  0.34351683  0.92456984  0.12240645  1
  O  O107  1  0.69140178  0.87660017  0.09900035  1
