# generated using pymatgen
data_NaLiSiB3HO8
_symmetry_space_group_name_H-M   'P 1'
_cell_length_a   6.83609762
_cell_length_b   6.87054392
_cell_length_c   14.01272058
_cell_angle_alpha   90.00000000
_cell_angle_beta   90.00000000
_cell_angle_gamma   110.76525259
_symmetry_Int_Tables_number   1
_chemical_formula_structural   NaLiSiB3HO8
_chemical_formula_sum   'Na4 Li4 Si4 B12 H4 O32'
_cell_volume   615.39282502
_cell_formula_units_Z   4
loop_
 _symmetry_equiv_pos_site_id
 _symmetry_equiv_pos_as_xyz
  1  'x, y, z'
loop_
 _atom_site_type_symbol
 _atom_site_label
 _atom_site_symmetry_multiplicity
 _atom_site_fract_x
 _atom_site_fract_y
 _atom_site_fract_z
 _atom_site_occupancy
  Na  Na0  1  0.28169506  0.25647283  0.50811040  1
  Na  Na1  1  0.78169506  0.75647283  0.99188960  1
  Na  Na2  1  0.71830494  0.74352717  0.49188960  1
  Na  Na3  1  0.21830494  0.24352717  0.00811040  1
  Li  Li4  1  0.33402718  0.87266795  0.80122817  1
  Li  Li5  1  0.66597282  0.12733205  0.19877183  1
  Li  Li6  1  0.83402718  0.37266795  0.69877183  1
  Li  Li7  1  0.16597282  0.62733205  0.30122817  1
  Si  Si8  1  0.16723988  0.20917591  0.75261089  1
  Si  Si9  1  0.83276012  0.79082409  0.24738911  1
  Si  Si10  1  0.66723988  0.70917591  0.74738911  1
  Si  Si11  1  0.33276012  0.29082409  0.25261089  1
  B  B12  1  0.75264773  0.21579758  0.49293005  1
  B  B13  1  0.55122165  0.31679454  0.84726065  1
  B  B14  1  0.74735227  0.28420242  0.99293005  1
  B  B15  1  0.23276803  0.91565818  0.15096123  1
  B  B16  1  0.24735227  0.78420242  0.50706995  1
  B  B17  1  0.94877835  0.18320546  0.34726065  1
  B  B18  1  0.26723197  0.58434182  0.65096123  1
  B  B19  1  0.25264773  0.71579758  0.00706995  1
  B  B20  1  0.44877835  0.68320546  0.15273935  1
  B  B21  1  0.76723197  0.08434182  0.84903877  1
  B  B22  1  0.73276803  0.41565818  0.34903877  1
  B  B23  1  0.05122165  0.81679454  0.65273935  1
  H  H24  1  0.75033662  0.05600643  0.61225036  1
  H  H25  1  0.74966338  0.44399357  0.11225036  1
  H  H26  1  0.24966338  0.94399357  0.38774964  1
  H  H27  1  0.25033662  0.55600643  0.88774964  1
  O  O28  1  0.06209331  0.79074807  0.21502926  1
  O  O29  1  0.33330173  0.52029280  0.22239440  1
  O  O30  1  0.17592112  0.20789705  0.34575327  1
  O  O31  1  0.67366632  0.35461374  0.45236027  1
  O  O32  1  0.32633368  0.64538626  0.54763973  1
  O  O33  1  0.66669827  0.47970720  0.77760560  1
  O  O34  1  0.70546282  0.16914266  0.58958319  1
  O  O35  1  0.92413448  0.37946258  0.32501230  1
  O  O36  1  0.29453718  0.83085734  0.41041681  1
  O  O37  1  0.26346397  0.13877780  0.15875297  1
  O  O38  1  0.32407888  0.29210295  0.84575327  1
  O  O39  1  0.93790669  0.20925193  0.78497074  1
  O  O40  1  0.23653603  0.36122220  0.65875297  1
  O  O41  1  0.63022244  0.38161982  0.94679673  1
  O  O42  1  0.76346397  0.63877780  0.34124703  1
  O  O43  1  0.82407888  0.79210295  0.65424673  1
  O  O44  1  0.07586552  0.62053742  0.67498770  1
  O  O45  1  0.13022244  0.88161982  0.55320327  1
  O  O46  1  0.17366632  0.85461374  0.04763973  1
  O  O47  1  0.67592112  0.70789705  0.15424673  1
  O  O48  1  0.82633368  0.14538626  0.95236027  1
  O  O49  1  0.73653603  0.86122220  0.84124703  1
  O  O50  1  0.43790669  0.70925193  0.71502926  1
  O  O51  1  0.42413448  0.87946258  0.17498770  1
  O  O52  1  0.83330173  0.02029280  0.27760560  1
  O  O53  1  0.56209331  0.29074807  0.28497074  1
  O  O54  1  0.86977756  0.11838018  0.44679673  1
  O  O55  1  0.79453718  0.33085734  0.08958319  1
  O  O56  1  0.16669827  0.97970720  0.72239440  1
  O  O57  1  0.57586552  0.12053742  0.82501230  1
  O  O58  1  0.36977756  0.61838018  0.05320327  1
  O  O59  1  0.20546282  0.66914266  0.91041681  1
