# generated using pymatgen
data_PrTa3O9
_symmetry_space_group_name_H-M   'P 1'
_cell_length_a   5.47262974
_cell_length_b   7.63920798
_cell_length_c   8.30222982
_cell_angle_alpha   90.00000000
_cell_angle_beta   92.45783771
_cell_angle_gamma   90.00000000
_symmetry_Int_Tables_number   1
_chemical_formula_structural   PrTa3O9
_chemical_formula_sum   'Pr2 Ta6 O18'
_cell_volume   346.76833885
_cell_formula_units_Z   2
loop_
 _symmetry_equiv_pos_site_id
 _symmetry_equiv_pos_as_xyz
  1  'x, y, z'
loop_
 _atom_site_type_symbol
 _atom_site_label
 _atom_site_symmetry_multiplicity
 _atom_site_fract_x
 _atom_site_fract_y
 _atom_site_fract_z
 _atom_site_occupancy
  Pr  Pr0  1  0.03456123  0.75000000  0.43419310  1
  Pr  Pr1  1  0.96543877  0.25000000  0.56580690  1
  Ta  Ta2  1  0.47357536  0.50668681  0.69858483  1
  Ta  Ta3  1  0.47357536  0.99331319  0.69858483  1
  Ta  Ta4  1  0.52642464  0.00668681  0.30141517  1
  Ta  Ta5  1  0.00000000  0.00000000  0.00000000  1
  Ta  Ta6  1  0.52642464  0.49331319  0.30141517  1
  Ta  Ta7  1  0.00000000  0.50000000  0.00000000  1
  O  O8  1  0.31713052  0.04513883  0.12232359  1
  O  O9  1  0.68286948  0.95486117  0.87767641  1
  O  O10  1  0.84475708  0.94635270  0.21279173  1
  O  O11  1  0.64279037  0.25000000  0.33832394  1
  O  O12  1  0.73370014  0.96333646  0.53291696  1
  O  O13  1  0.84475708  0.55364730  0.21279173  1
  O  O14  1  0.31713052  0.45486117  0.12232359  1
  O  O15  1  0.26629986  0.46333646  0.46708304  1
  O  O16  1  0.92075510  0.25000000  0.01554986  1
  O  O17  1  0.15524292  0.05364730  0.78720827  1
  O  O18  1  0.55588656  0.25000000  0.68767271  1
  O  O19  1  0.15524292  0.44635270  0.78720827  1
  O  O20  1  0.44411344  0.75000000  0.31232729  1
  O  O21  1  0.68286948  0.54513883  0.87767641  1
  O  O22  1  0.26629986  0.03666354  0.46708304  1
  O  O23  1  0.73370014  0.53666354  0.53291696  1
  O  O24  1  0.35720963  0.75000000  0.66167606  1
  O  O25  1  0.07924490  0.75000000  0.98445014  1
