# generated using pymatgen
data_Nd5As2ClO10
_symmetry_space_group_name_H-M   'P 1'
_cell_length_a   5.74219026
_cell_length_b   6.89358932
_cell_length_c   8.94900537
_cell_angle_alpha   68.86287806
_cell_angle_beta   71.28870814
_cell_angle_gamma   65.38641850
_symmetry_Int_Tables_number   1
_chemical_formula_structural   Nd5As2ClO10
_chemical_formula_sum   'Nd5 As2 Cl1 O10'
_cell_volume   294.24251615
_cell_formula_units_Z   1
loop_
 _symmetry_equiv_pos_site_id
 _symmetry_equiv_pos_as_xyz
  1  'x, y, z'
loop_
 _atom_site_type_symbol
 _atom_site_label
 _atom_site_symmetry_multiplicity
 _atom_site_fract_x
 _atom_site_fract_y
 _atom_site_fract_z
 _atom_site_occupancy
  Nd  Nd0  1  0.50035178  0.70734684  0.29197800  1
  Nd  Nd1  1  0.25362195  0.36523934  0.12758850  1
  Nd  Nd2  1  0.00000000  0.00000000  0.00000000  1
  Nd  Nd3  1  0.74637805  0.63476066  0.87241150  1
  Nd  Nd4  1  0.49964822  0.29265316  0.70802200  1
  As  As5  1  0.21486890  0.96270951  0.60739584  1
  As  As6  1  0.78513110  0.03729049  0.39260416  1
  Cl  Cl7  1  0.00000000  0.50000000  0.50000000  1
  O  O8  1  0.86690434  0.67492177  0.08415738  1
  O  O9  1  0.90566712  0.96420139  0.75328038  1
  O  O10  1  0.36018015  0.67889178  0.60072118  1
  O  O11  1  0.63981985  0.32110822  0.39927882  1
  O  O12  1  0.37402911  0.67493089  0.08416938  1
  O  O13  1  0.62597089  0.32506911  0.91583062  1
  O  O14  1  0.37681308  0.96421998  0.75323073  1
  O  O15  1  0.13309566  0.32507823  0.91584262  1
  O  O16  1  0.62318692  0.03578002  0.24676927  1
  O  O17  1  0.09433288  0.03579861  0.24671962  1
