# generated using pymatgen
data_K3U3Si2O13
_symmetry_space_group_name_H-M   'P 1'
_cell_length_a   9.66601723
_cell_length_b   9.66601747
_cell_length_c   8.46371225
_cell_angle_alpha   90.00000000
_cell_angle_beta   90.00000000
_cell_angle_gamma   119.99999913
_symmetry_Int_Tables_number   1
_chemical_formula_structural   K3U3Si2O13
_chemical_formula_sum   'K6 U6 Si4 O26'
_cell_volume   684.83613276
_cell_formula_units_Z   2
loop_
 _symmetry_equiv_pos_site_id
 _symmetry_equiv_pos_as_xyz
  1  'x, y, z'
loop_
 _atom_site_type_symbol
 _atom_site_label
 _atom_site_symmetry_multiplicity
 _atom_site_fract_x
 _atom_site_fract_y
 _atom_site_fract_z
 _atom_site_occupancy
  K  K0  1  0.95894326  0.57383357  0.75000000  1
  K  K1  1  0.04105674  0.61489031  0.25000000  1
  K  K2  1  0.42616643  0.38510969  0.75000000  1
  K  K3  1  0.38510969  0.42616643  0.25000000  1
  K  K4  1  0.61489031  0.04105674  0.75000000  1
  K  K5  1  0.57383357  0.95894326  0.25000000  1
  U  U6  1  0.75614063  0.75614063  0.00000000  1
  U  U7  1  0.00000000  0.24385937  0.00000000  1
  U  U8  1  0.24385937  0.00000000  0.50000000  1
  U  U9  1  0.24385937  0.00000000  0.00000000  1
  U  U10  1  0.75614063  0.75614063  0.50000000  1
  U  U11  1  0.00000000  0.24385937  0.50000000  1
  Si  Si12  1  0.33333300  0.66666700  0.55518835  1
  Si  Si13  1  0.66666700  0.33333300  0.05518835  1
  Si  Si14  1  0.33333300  0.66666700  0.94481165  1
  Si  Si15  1  0.66666700  0.33333300  0.44481165  1
  O  O16  1  0.00119975  0.25397001  0.25000000  1
  O  O17  1  0.32345455  0.82114105  0.00796246  1
  O  O18  1  0.32345455  0.82114105  0.49203754  1
  O  O19  1  1.00000000  0.80890720  0.00000000  1
  O  O20  1  0.25277026  0.99880025  0.25000000  1
  O  O21  1  0.80890720  0.00000000  0.50000000  1
  O  O22  1  0.50231350  0.17885895  0.50796246  1
  O  O23  1  1.00000000  0.80890720  0.50000000  1
  O  O24  1  0.67654545  0.49768650  0.99203754  1
  O  O25  1  0.82114105  0.32345455  0.99203754  1
  O  O26  1  0.49768650  0.67654545  0.00796246  1
  O  O27  1  0.80890720  0.00000000  0.00000000  1
  O  O28  1  0.49768650  0.67654545  0.49203754  1
  O  O29  1  0.17885895  0.50231350  0.00796246  1
  O  O30  1  0.74602999  0.74722974  0.25000000  1
  O  O31  1  0.19109280  0.19109280  0.00000000  1
  O  O32  1  0.82114105  0.32345455  0.50796246  1
  O  O33  1  0.25397001  0.00119975  0.75000000  1
  O  O34  1  0.99880025  0.25277026  0.75000000  1
  O  O35  1  0.67654545  0.49768650  0.50796246  1
  O  O36  1  0.50231350  0.17885895  0.99203754  1
  O  O37  1  0.74722974  0.74602999  0.75000000  1
  O  O38  1  0.19109280  0.19109280  0.50000000  1
  O  O39  1  0.17885895  0.50231350  0.49203754  1
  O  O40  1  0.66666700  0.33333300  0.25000000  1
  O  O41  1  0.33333300  0.66666700  0.75000000  1
