# generated using pymatgen
data_Zn2TeBr2O3
_symmetry_space_group_name_H-M   'P 1'
_cell_length_a   7.83068107
_cell_length_b   10.74964739
_cell_length_c   16.48590307
_cell_angle_alpha   90.00000000
_cell_angle_beta   90.00000000
_cell_angle_gamma   90.00000000
_symmetry_Int_Tables_number   1
_chemical_formula_structural   Zn2TeBr2O3
_chemical_formula_sum   'Zn16 Te8 Br16 O24'
_cell_volume   1387.73485725
_cell_formula_units_Z   8
loop_
 _symmetry_equiv_pos_site_id
 _symmetry_equiv_pos_as_xyz
  1  'x, y, z'
loop_
 _atom_site_type_symbol
 _atom_site_label
 _atom_site_symmetry_multiplicity
 _atom_site_fract_x
 _atom_site_fract_y
 _atom_site_fract_z
 _atom_site_occupancy
  Zn  Zn0  1  0.39976189  0.23542043  0.97796145  1
  Zn  Zn1  1  0.34242511  0.98956991  0.39316917  1
  Zn  Zn2  1  0.65757489  0.48956991  0.89316917  1
  Zn  Zn3  1  0.65757489  0.01043009  0.60683083  1
  Zn  Zn4  1  0.60023811  0.76457957  0.02203855  1
  Zn  Zn5  1  0.39976189  0.26457957  0.52203855  1
  Zn  Zn6  1  0.84242511  0.51043009  0.39316917  1
  Zn  Zn7  1  0.60023811  0.73542043  0.47796145  1
  Zn  Zn8  1  0.84242511  0.98956991  0.10683083  1
  Zn  Zn9  1  0.15757489  0.01043009  0.89316917  1
  Zn  Zn10  1  0.34242511  0.51043009  0.10683083  1
  Zn  Zn11  1  0.10023811  0.76457957  0.47796145  1
  Zn  Zn12  1  0.89976189  0.23542043  0.52203855  1
  Zn  Zn13  1  0.15757489  0.48956991  0.60683083  1
  Zn  Zn14  1  0.10023811  0.73542043  0.02203855  1
  Zn  Zn15  1  0.89976189  0.26457957  0.97796145  1
  Te  Te16  1  0.78852667  0.96935259  0.40742605  1
  Te  Te17  1  0.28852667  0.53064741  0.40742605  1
  Te  Te18  1  0.71147333  0.46935259  0.59257395  1
  Te  Te19  1  0.21147333  0.46935259  0.90742605  1
  Te  Te20  1  0.28852667  0.96935259  0.09257395  1
  Te  Te21  1  0.78852667  0.53064741  0.09257395  1
  Te  Te22  1  0.21147333  0.03064741  0.59257395  1
  Te  Te23  1  0.71147333  0.03064741  0.90742605  1
  Br  Br24  1  0.34278864  0.41558713  0.70987827  1
  Br  Br25  1  0.93615924  0.29452085  0.37437273  1
  Br  Br26  1  0.15721136  0.58441287  0.20987827  1
  Br  Br27  1  0.56384076  0.70547915  0.87437273  1
  Br  Br28  1  0.15721136  0.91558713  0.29012173  1
  Br  Br29  1  0.43615924  0.29452085  0.12562727  1
  Br  Br30  1  0.06384076  0.70547915  0.62562727  1
  Br  Br31  1  0.65721136  0.58441287  0.29012173  1
  Br  Br32  1  0.93615924  0.20547915  0.12562727  1
  Br  Br33  1  0.65721136  0.91558713  0.20987827  1
  Br  Br34  1  0.34278864  0.08441287  0.79012173  1
  Br  Br35  1  0.84278864  0.41558713  0.79012173  1
  Br  Br36  1  0.43615924  0.20547915  0.37437273  1
  Br  Br37  1  0.84278864  0.08441287  0.70987827  1
  Br  Br38  1  0.06384076  0.79452085  0.87437273  1
  Br  Br39  1  0.56384076  0.79452085  0.62562727  1
  O  O40  1  0.85618969  0.81194262  0.44840134  1
  O  O41  1  0.35618969  0.68805738  0.44840134  1
  O  O42  1  0.64381031  0.18805738  0.94840134  1
  O  O43  1  0.69787319  0.55849441  0.49054306  1
  O  O44  1  0.19787319  0.94150559  0.49054306  1
  O  O45  1  0.43819677  0.09238627  0.57890871  1
  O  O46  1  0.19787319  0.55849441  0.00945694  1
  O  O47  1  0.35618969  0.81194262  0.05159866  1
  O  O48  1  0.56180323  0.90761373  0.42109129  1
  O  O49  1  0.14381031  0.18805738  0.55159866  1
  O  O50  1  0.69787319  0.94150559  0.00945694  1
  O  O51  1  0.64381031  0.31194262  0.55159866  1
  O  O52  1  0.30212681  0.05849441  0.99054306  1
  O  O53  1  0.93819677  0.40761373  0.57890871  1
  O  O54  1  0.56180323  0.59238627  0.07890871  1
  O  O55  1  0.06180323  0.90761373  0.07890871  1
  O  O56  1  0.80212681  0.05849441  0.50945694  1
  O  O57  1  0.30212681  0.44150559  0.50945694  1
  O  O58  1  0.06180323  0.59238627  0.42109129  1
  O  O59  1  0.14381031  0.31194262  0.94840134  1
  O  O60  1  0.85618969  0.68805738  0.05159866  1
  O  O61  1  0.80212681  0.44150559  0.99054306  1
  O  O62  1  0.43819677  0.40761373  0.92109129  1
  O  O63  1  0.93819677  0.09238627  0.92109129  1
