# generated using pymatgen
data_Rb2TbGa(SiO3)4
_symmetry_space_group_name_H-M   'P 1'
_cell_length_a   7.37497841
_cell_length_b   14.11601605
_cell_length_c   14.18626461
_cell_angle_alpha   64.28663630
_cell_angle_beta   74.93387107
_cell_angle_gamma   74.85710403
_symmetry_Int_Tables_number   1
_chemical_formula_structural   Rb2TbGa(SiO3)4
_chemical_formula_sum   'Rb8 Tb4 Ga4 Si16 O48'
_cell_volume   1266.03925485
_cell_formula_units_Z   4
loop_
 _symmetry_equiv_pos_site_id
 _symmetry_equiv_pos_as_xyz
  1  'x, y, z'
loop_
 _atom_site_type_symbol
 _atom_site_label
 _atom_site_symmetry_multiplicity
 _atom_site_fract_x
 _atom_site_fract_y
 _atom_site_fract_z
 _atom_site_occupancy
  Tb  Tb0  1  0.44861997  0.78739872  0.25005306  1
  Tb  Tb1  1  0.55138003  0.21260128  0.74994694  1
  Tb  Tb2  1  0.01392825  0.28739872  0.75005306  1
  Tb  Tb3  1  0.98607175  0.71260128  0.24994694  1
  Rb  Rb4  1  0.79764166  0.38296859  0.04783248  1
  Rb  Rb5  1  0.81233872  0.41700411  0.46622661  1
  Rb  Rb6  1  0.27155727  0.88296859  0.54783248  1
  Rb  Rb7  1  0.72844273  0.11703141  0.45216752  1
  Rb  Rb8  1  0.80443055  0.91700411  0.96622661  1
  Rb  Rb9  1  0.18766128  0.58299589  0.53377339  1
  Rb  Rb10  1  0.19556945  0.08299589  0.03377339  1
  Rb  Rb11  1  0.20235834  0.61703141  0.95216752  1
  Ga  Ga12  1  0.13037310  0.41373019  0.22591977  1
  Ga  Ga13  1  0.86962690  0.58626981  0.77408023  1
  Ga  Ga14  1  0.27002306  0.08626981  0.27408023  1
  Ga  Ga15  1  0.72997694  0.91373019  0.72591977  1
  Si  Si16  1  0.69604015  0.17345011  0.98991790  1
  Si  Si17  1  0.30395985  0.82654989  0.01008210  1
  Si  Si18  1  0.97962330  0.92161567  0.33884205  1
  Si  Si19  1  0.74008102  0.57838433  0.16115795  1
  Si  Si20  1  0.02037670  0.07838433  0.66115795  1
  Si  Si21  1  0.79099652  0.79798035  0.57726662  1
  Si  Si22  1  0.68617853  0.97041777  0.20393203  1
  Si  Si23  1  0.63947167  0.47041777  0.70393203  1
  Si  Si24  1  0.66624349  0.70201965  0.92273338  1
  Si  Si25  1  0.20900348  0.20201965  0.42273338  1
  Si  Si26  1  0.64059184  0.67345011  0.48991790  1
  Si  Si27  1  0.25991898  0.42161567  0.83884205  1
  Si  Si28  1  0.33375651  0.29798035  0.07726662  1
  Si  Si29  1  0.36052833  0.52958223  0.29606797  1
  Si  Si30  1  0.31382147  0.02958223  0.79606797  1
  Si  Si31  1  0.35940816  0.32654989  0.51008210  1
  O  O32  1  0.56023557  0.24818414  0.05599480  1
  O  O33  1  0.92935078  0.70626189  0.65774444  1
  O  O34  1  0.77062574  0.97543956  0.29782832  1
  O  O35  1  0.66767270  0.88983527  0.62101881  1
  O  O36  1  0.41602203  0.44175455  0.41178656  1
  O  O37  1  0.16971121  0.51170282  0.27051546  1
  O  O38  1  0.53223405  0.27054434  0.57722063  1
  O  O39  1  0.42440325  0.84916052  0.07621735  1
  O  O40  1  0.22937426  0.02456044  0.70217168  1
  O  O41  1  0.67852678  0.61016473  0.87898119  1
  O  O42  1  0.15021888  0.34916052  0.57621735  1
  O  O43  1  0.07064922  0.29373811  0.34225556  1
  O  O44  1  0.36441451  0.25181586  0.44400520  1
  O  O45  1  0.83028879  0.48829718  0.72948454  1
  O  O46  1  0.20664289  0.20626189  0.15774444  1
  O  O47  1  0.23043686  0.94175455  0.91178656  1
  O  O48  1  0.87999903  0.22945566  0.92277937  1
  O  O49  1  0.84978112  0.65083948  0.42378265  1
  O  O50  1  0.93833413  0.97959110  0.66612565  1
  O  O51  1  0.76956314  0.05824545  0.08821344  1
  O  O52  1  0.54807051  0.01170282  0.77051546  1
  O  O53  1  0.11273420  0.85037995  0.27446816  1
  O  O54  1  0.70356642  0.35174701  0.70284399  1
  O  O55  1  0.91594913  0.47959110  0.16612565  1
  O  O56  1  0.46776595  0.72945566  0.42277937  1
  O  O57  1  0.75467191  0.65055616  0.03249850  1
  O  O58  1  0.73758231  0.64962005  0.22553184  1
  O  O59  1  0.32147322  0.38983527  0.12101881  1
  O  O60  1  0.45610637  0.47543956  0.79782832  1
  O  O61  1  0.25815741  0.14825299  0.79715601  1
  O  O62  1  0.88726580  0.14962005  0.72553184  1
  O  O63  1  0.43976443  0.75181586  0.94400520  1
  O  O64  1  0.93772658  0.84944384  0.46750150  1
  O  O65  1  0.63558549  0.74818414  0.55599480  1
  O  O66  1  0.74184259  0.85174701  0.20284399  1
  O  O67  1  0.57559675  0.15083948  0.92378265  1
  O  O68  1  0.58397797  0.55824545  0.58821344  1
  O  O69  1  0.33232730  0.11016473  0.37898119  1
  O  O70  1  0.24532809  0.34944384  0.96750150  1
  O  O71  1  0.06166587  0.02040890  0.33387435  1
  O  O72  1  0.08405087  0.52040890  0.83387435  1
  O  O73  1  0.26241769  0.35037995  0.77446816  1
  O  O74  1  0.54389363  0.52456044  0.20217168  1
  O  O75  1  0.12000097  0.77054434  0.07722063  1
  O  O76  1  0.45192949  0.98829718  0.22948454  1
  O  O77  1  0.06227342  0.15055616  0.53249850  1
  O  O78  1  0.29643358  0.64825299  0.29715601  1
  O  O79  1  0.79335711  0.79373811  0.84225556  1
