# generated using pymatgen
data_Ba5P3ClO12
_symmetry_space_group_name_H-M   'P 1'
_cell_length_a   10.43919654
_cell_length_b   10.43919631
_cell_length_c   7.74703789
_cell_angle_alpha   90.00000000
_cell_angle_beta   90.00000000
_cell_angle_gamma   120.00000075
_symmetry_Int_Tables_number   1
_chemical_formula_structural   Ba5P3ClO12
_chemical_formula_sum   'Ba10 P6 Cl2 O24'
_cell_volume   731.13983635
_cell_formula_units_Z   2
loop_
 _symmetry_equiv_pos_site_id
 _symmetry_equiv_pos_as_xyz
  1  'x, y, z'
loop_
 _atom_site_type_symbol
 _atom_site_label
 _atom_site_symmetry_multiplicity
 _atom_site_fract_x
 _atom_site_fract_y
 _atom_site_fract_z
 _atom_site_occupancy
  Ba  Ba0  1  0.66666700  0.33333300  0.00012502  1
  Ba  Ba1  1  0.75327234  0.74033089  0.75000000  1
  Ba  Ba2  1  0.24672766  0.25966911  0.25000000  1
  Ba  Ba3  1  0.25966911  0.01294145  0.75000000  1
  Ba  Ba4  1  0.01294145  0.75327234  0.25000000  1
  Ba  Ba5  1  0.33333300  0.66666700  0.50012502  1
  Ba  Ba6  1  0.66666700  0.33333300  0.49987498  1
  Ba  Ba7  1  0.98705855  0.24672766  0.75000000  1
  Ba  Ba8  1  0.74033089  0.98705855  0.25000000  1
  Ba  Ba9  1  0.33333300  0.66666700  0.99987498  1
  P  P10  1  0.59353157  0.96504187  0.75000000  1
  P  P11  1  0.37151030  0.40646843  0.75000000  1
  P  P12  1  0.62848970  0.59353157  0.25000000  1
  P  P13  1  0.40646843  0.03495813  0.25000000  1
  P  P14  1  0.96504187  0.37151030  0.25000000  1
  P  P15  1  0.03495813  0.62848970  0.75000000  1
  Cl  Cl16  1  0.00000000  0.00000000  0.00000000  1
  Cl  Cl17  1  0.00000000  0.00000000  0.50000000  1
  O  O18  1  0.08533529  0.72921050  0.58668622  1
  O  O19  1  0.35612479  0.08533529  0.08668622  1
  O  O20  1  0.52240177  0.65856553  0.25000000  1
  O  O21  1  0.47759823  0.34143447  0.75000000  1
  O  O22  1  0.91466471  0.27078950  0.41331378  1
  O  O23  1  0.34143447  0.86383624  0.25000000  1
  O  O24  1  0.46308661  0.57968040  0.75000000  1
  O  O25  1  0.27078950  0.35612479  0.58668622  1
  O  O26  1  0.86383624  0.52240177  0.75000000  1
  O  O27  1  0.72921050  0.64387521  0.08668622  1
  O  O28  1  0.42031960  0.88340621  0.75000000  1
  O  O29  1  0.91466471  0.27078950  0.08668622  1
  O  O30  1  0.64387521  0.91466471  0.91331378  1
  O  O31  1  0.57968040  0.11659379  0.25000000  1
  O  O32  1  0.53691339  0.42031960  0.25000000  1
  O  O33  1  0.88340621  0.46308661  0.25000000  1
  O  O34  1  0.64387521  0.91466471  0.58668622  1
  O  O35  1  0.35612479  0.08533529  0.41331378  1
  O  O36  1  0.65856553  0.13616376  0.75000000  1
  O  O37  1  0.11659379  0.53691339  0.75000000  1
  O  O38  1  0.27078950  0.35612479  0.91331378  1
  O  O39  1  0.72921050  0.64387521  0.41331378  1
  O  O40  1  0.08533529  0.72921050  0.91331378  1
  O  O41  1  0.13616376  0.47759823  0.25000000  1
