# generated using pymatgen
data_K4SnSb2F14
_symmetry_space_group_name_H-M   'P 1'
_cell_length_a   6.83655868
_cell_length_b   7.61025856
_cell_length_c   7.79167521
_cell_angle_alpha   92.36472973
_cell_angle_beta   91.41657907
_cell_angle_gamma   115.33410781
_symmetry_Int_Tables_number   1
_chemical_formula_structural   K4SnSb2F14
_chemical_formula_sum   'K4 Sn1 Sb2 F14'
_cell_volume   365.68310687
_cell_formula_units_Z   1
loop_
 _symmetry_equiv_pos_site_id
 _symmetry_equiv_pos_as_xyz
  1  'x, y, z'
loop_
 _atom_site_type_symbol
 _atom_site_label
 _atom_site_symmetry_multiplicity
 _atom_site_fract_x
 _atom_site_fract_y
 _atom_site_fract_z
 _atom_site_occupancy
  K  K0  1  0.28595311  0.55310346  0.14294388  1
  K  K1  1  0.85111616  0.73568404  0.41381556  1
  K  K2  1  0.71404689  0.44689654  0.85705612  1
  K  K3  1  0.14888384  0.26431596  0.58618444  1
  Sn  Sn4  1  0.00000000  0.00000000  0.00000000  1
  Sb  Sb5  1  0.39006379  0.80861783  0.68498218  1
  Sb  Sb6  1  0.60993621  0.19138217  0.31501782  1
  F  F7  1  0.92240378  0.37944417  0.32919982  1
  F  F8  1  0.28142321  0.12616150  0.88217844  1
  F  F9  1  0.42993277  0.66158226  0.48315092  1
  F  F10  1  0.71857679  0.87383850  0.11782156  1
  F  F11  1  0.93764820  0.22908420  0.94859203  1
  F  F12  1  0.27424436  0.93507078  0.49582166  1
  F  F13  1  0.06235180  0.77091580  0.05140797  1
  F  F14  1  0.85578490  0.86812196  0.77265155  1
  F  F15  1  0.07759622  0.62055583  0.67080018  1
  F  F16  1  0.14421510  0.13187804  0.22734845  1
  F  F17  1  0.40167190  0.57440352  0.81284402  1
  F  F18  1  0.59832810  0.42559648  0.18715598  1
  F  F19  1  0.72575564  0.06492922  0.50417834  1
  F  F20  1  0.57006723  0.33841774  0.51684908  1
