# generated using pymatgen
data_K5Au(IO)2
_symmetry_space_group_name_H-M   'P 1'
_cell_length_a   5.60007327
_cell_length_b   7.34781313
_cell_length_c   14.26065560
_cell_angle_alpha   90.00000000
_cell_angle_beta   90.00000000
_cell_angle_gamma   90.00000000
_symmetry_Int_Tables_number   1
_chemical_formula_structural   K5Au(IO)2
_chemical_formula_sum   'K10 Au2 I4 O4'
_cell_volume   586.80161935
_cell_formula_units_Z   2
loop_
 _symmetry_equiv_pos_site_id
 _symmetry_equiv_pos_as_xyz
  1  'x, y, z'
loop_
 _atom_site_type_symbol
 _atom_site_label
 _atom_site_symmetry_multiplicity
 _atom_site_fract_x
 _atom_site_fract_y
 _atom_site_fract_z
 _atom_site_occupancy
  K  K0  1  0.50000000  0.32996009  0.60131334  1
  K  K1  1  0.50000000  0.17003991  0.10131334  1
  K  K2  1  0.00000000  0.60042337  0.73812263  1
  K  K3  1  0.00000000  0.50000000  0.00000000  1
  K  K4  1  0.50000000  0.67003991  0.39868666  1
  K  K5  1  0.50000000  0.82996009  0.89868666  1
  K  K6  1  0.00000000  0.89957663  0.23812263  1
  K  K7  1  0.00000000  0.39957663  0.26187737  1
  K  K8  1  0.00000000  0.10042337  0.76187737  1
  K  K9  1  0.00000000  0.00000000  0.50000000  1
  Au  Au10  1  0.00000000  0.50000000  0.50000000  1
  Au  Au11  1  0.00000000  0.00000000  0.00000000  1
  I  I12  1  0.50000000  0.65006397  0.14564445  1
  I  I13  1  0.50000000  0.34993603  0.85435555  1
  I  I14  1  0.50000000  0.15006397  0.35435555  1
  I  I15  1  0.50000000  0.84993603  0.64564445  1
  O  O16  1  0.00000000  0.68066566  0.38976620  1
  O  O17  1  0.00000000  0.81933434  0.88976620  1
  O  O18  1  0.00000000  0.18066566  0.11023380  1
  O  O19  1  0.00000000  0.31933434  0.61023380  1
