# generated using pymatgen
data_IClOF
_symmetry_space_group_name_H-M   'P 1'
_cell_length_a   7.27602059
_cell_length_b   8.08811475
_cell_length_c   13.08189188
_cell_angle_alpha   94.61369452
_cell_angle_beta   90.00000000
_cell_angle_gamma   90.00000000
_symmetry_Int_Tables_number   1
_chemical_formula_structural   IClOF
_chemical_formula_sum   'I8 Cl8 O8 F8'
_cell_volume   767.36544979
_cell_formula_units_Z   8
loop_
 _symmetry_equiv_pos_site_id
 _symmetry_equiv_pos_as_xyz
  1  'x, y, z'
loop_
 _atom_site_type_symbol
 _atom_site_label
 _atom_site_symmetry_multiplicity
 _atom_site_fract_x
 _atom_site_fract_y
 _atom_site_fract_z
 _atom_site_occupancy
  I  I0  1  0.60349667  0.67893474  0.58834592  1
  I  I1  1  0.54892202  0.35564169  0.77687694  1
  I  I2  1  0.45107798  0.64435831  0.22312306  1
  I  I3  1  0.95107798  0.85564169  0.77687694  1
  I  I4  1  0.10349667  0.82106526  0.41165408  1
  I  I5  1  0.04892202  0.14435831  0.22312306  1
  I  I6  1  0.39650333  0.32106526  0.41165408  1
  I  I7  1  0.89650333  0.17893474  0.58834592  1
  Cl  Cl8  1  0.76296586  0.04018032  0.15726652  1
  Cl  Cl9  1  0.87960903  0.71473538  0.92440637  1
  Cl  Cl10  1  0.62039097  0.21473538  0.92440637  1
  Cl  Cl11  1  0.37960903  0.78526462  0.07559363  1
  Cl  Cl12  1  0.73703414  0.54018032  0.15726652  1
  Cl  Cl13  1  0.26296586  0.45981968  0.84273348  1
  Cl  Cl14  1  0.12039097  0.28526462  0.07559363  1
  Cl  Cl15  1  0.23703414  0.95981968  0.84273348  1
  O  O16  1  0.02511599  0.03240172  0.38995428  1
  O  O17  1  0.52511599  0.46759828  0.61004572  1
  O  O18  1  0.65562183  0.76438893  0.71857221  1
  O  O19  1  0.84437817  0.26438893  0.71857221  1
  O  O20  1  0.97488401  0.96759828  0.61004572  1
  O  O21  1  0.47488401  0.53240172  0.38995428  1
  O  O22  1  0.15562183  0.73561107  0.28142779  1
  O  O23  1  0.34437817  0.23561107  0.28142779  1
  F  F24  1  0.14260881  0.41471867  0.42412809  1
  F  F25  1  0.35739119  0.91471867  0.42412809  1
  F  F26  1  0.15271352  0.25229197  0.60903602  1
  F  F27  1  0.84728648  0.74770803  0.39096398  1
  F  F28  1  0.64260881  0.08528133  0.57587191  1
  F  F29  1  0.65271352  0.24770803  0.39096398  1
  F  F30  1  0.85739119  0.58528133  0.57587191  1
  F  F31  1  0.34728648  0.75229197  0.60903602  1
