# generated using pymatgen
data_TlO
_symmetry_space_group_name_H-M   'P 1'
_cell_length_a   3.58985029
_cell_length_b   3.58985029
_cell_length_c   22.30302498
_cell_angle_alpha   81.54313120
_cell_angle_beta   98.45686880
_cell_angle_gamma   85.70022018
_symmetry_Int_Tables_number   1
_chemical_formula_structural   TlO
_chemical_formula_sum   'Tl8 O8'
_cell_volume   279.82918577
_cell_formula_units_Z   8
loop_
 _symmetry_equiv_pos_site_id
 _symmetry_equiv_pos_as_xyz
  1  'x, y, z'
loop_
 _atom_site_type_symbol
 _atom_site_label
 _atom_site_symmetry_multiplicity
 _atom_site_fract_x
 _atom_site_fract_y
 _atom_site_fract_z
 _atom_site_occupancy
  Tl  Tl0  1  0.05309691  0.67306111  0.93933660  1
  Tl  Tl1  1  0.67306111  0.05309691  0.06066340  1
  Tl  Tl2  1  0.33915959  0.72217835  0.56074413  1
  Tl  Tl3  1  0.72217835  0.33915959  0.43925587  1
  Tl  Tl4  1  0.02797607  0.90868702  0.81156818  1
  Tl  Tl5  1  0.90868702  0.02797607  0.18843182  1
  Tl  Tl6  1  0.41205009  0.52686965  0.69033839  1
  Tl  Tl7  1  0.52686965  0.41205009  0.30966161  1
  O  O8  1  0.87711064  0.95226719  0.71052587  1
  O  O9  1  0.95226719  0.87711064  0.28947413  1
  O  O10  1  0.44754965  0.36310239  0.79134901  1
  O  O11  1  0.36310239  0.44754965  0.20865099  1
  O  O12  1  0.75854666  0.17985198  0.54064889  1
  O  O13  1  0.17985198  0.75854666  0.45935111  1
  O  O14  1  0.64005600  0.21903668  0.95948057  1
  O  O15  1  0.21903668  0.64005600  0.04051943  1
