# generated using pymatgen
data_SrI2O
_symmetry_space_group_name_H-M   'P 1'
_cell_length_a   13.57056934
_cell_length_b   4.45476146
_cell_length_c   8.83170616
_cell_angle_alpha   90.00071153
_cell_angle_beta   90.33419741
_cell_angle_gamma   89.99990101
_symmetry_Int_Tables_number   1
_chemical_formula_structural   SrI2O
_chemical_formula_sum   'Sr4 I8 O4'
_cell_volume   533.89978484
_cell_formula_units_Z   4
loop_
 _symmetry_equiv_pos_site_id
 _symmetry_equiv_pos_as_xyz
  1  'x, y, z'
loop_
 _atom_site_type_symbol
 _atom_site_label
 _atom_site_symmetry_multiplicity
 _atom_site_fract_x
 _atom_site_fract_y
 _atom_site_fract_z
 _atom_site_occupancy
  Sr  Sr0  1  0.65128979  0.24999919  0.39331609  1
  Sr  Sr1  1  0.15027824  0.25000787  0.10629996  1
  Sr  Sr2  1  0.34926428  0.75000466  0.60542401  1
  Sr  Sr3  1  0.84835524  0.74998865  0.89393177  1
  I  I4  1  0.60543345  0.75000201  0.68572309  1
  I  I5  1  0.10407206  0.74999903  0.81497308  1
  I  I6  1  0.39470271  0.24999854  0.31403952  1
  I  I7  1  0.89336523  0.24999849  0.18669621  1
  I  I8  1  0.62352432  0.75004056  0.06231035  1
  I  I9  1  0.12143218  0.74997508  0.43732489  1
  I  I10  1  0.37787560  0.25001586  0.93625337  1
  I  I11  1  0.87791587  0.24997155  0.56414269  1
  O  O12  1  0.64467320  0.75000071  0.28759533  1
  O  O13  1  0.14229767  0.75000136  0.21232857  1
  O  O14  1  0.35825676  0.25000535  0.71055471  1
  O  O15  1  0.85726442  0.24998908  0.78908536  1
