# generated using pymatgen
data_La5Ti5O17
_symmetry_space_group_name_H-M   'P 1'
_cell_length_a   5.56587910
_cell_length_b   7.88957691
_cell_length_c   31.92568819
_cell_angle_alpha   97.09065626
_cell_angle_beta   90.00000000
_cell_angle_gamma   90.00000000
_symmetry_Int_Tables_number   1
_chemical_formula_structural   La5Ti5O17
_chemical_formula_sum   'La20 Ti20 O68'
_cell_volume   1391.21270615
_cell_formula_units_Z   4
loop_
 _symmetry_equiv_pos_site_id
 _symmetry_equiv_pos_as_xyz
  1  'x, y, z'
loop_
 _atom_site_type_symbol
 _atom_site_label
 _atom_site_symmetry_multiplicity
 _atom_site_fract_x
 _atom_site_fract_y
 _atom_site_fract_z
 _atom_site_occupancy
  La  La0  1  0.04742995  0.64326466  0.29390922  1
  La  La1  1  0.45257005  0.64326466  0.79390922  1
  La  La2  1  0.90875619  0.85689149  0.71724308  1
  La  La3  1  0.50201020  0.29763671  0.59409328  1
  La  La4  1  0.49909895  0.74790129  0.99624399  1
  La  La5  1  0.09124381  0.14310851  0.28275692  1
  La  La6  1  0.40875619  0.14310851  0.78275692  1
  La  La7  1  0.49875648  0.79306727  0.58714928  1
  La  La8  1  1.00090105  0.74790129  0.49624399  1
  La  La9  1  0.00201020  0.70236329  0.90590672  1
  La  La10  1  0.50124352  0.20693273  0.41285072  1
  La  La11  1  0.99798980  0.29763671  0.09409328  1
  La  La12  1  0.50090105  0.25209871  0.00375601  1
  La  La13  1  0.49798980  0.70236329  0.40590672  1
  La  La14  1  0.59124381  0.85689149  0.21724308  1
  La  La15  1  0.00124352  0.79306727  0.08714928  1
  La  La16  1  0.95257005  0.35673534  0.70609078  1
  La  La17  1  -0.00090105  0.25209871  0.50375601  1
  La  La18  1  0.99875648  0.20693273  0.91285072  1
  La  La19  1  0.54742995  0.35673534  0.20609078  1
  Ti  Ti20  1  0.00933585  0.45492998  0.40689663  1
  Ti  Ti21  1  0.51028919  0.04725477  0.09250251  1
  Ti  Ti22  1  0.99066415  0.54507002  0.59310337  1
  Ti  Ti23  1  0.49066415  0.45492998  0.90689663  1
  Ti  Ti24  1  0.50933585  0.54507002  0.09310337  1
  Ti  Ti25  1  0.45827272  0.59058597  0.67804014  1
  Ti  Ti26  1  0.54172728  0.40941403  0.32195986  1
  Ti  Ti27  1  0.95827272  0.40941403  0.82195986  1
  Ti  Ti28  1  0.46321366  0.08556940  0.67668236  1
  Ti  Ti29  1  0.48971081  0.95274523  0.90749749  1
  Ti  Ti30  1  0.50000000  0.50000000  0.50000000  1
  Ti  Ti31  1  0.98971081  0.04725477  0.59250251  1
  Ti  Ti32  1  0.96321366  0.91443060  0.82331764  1
  Ti  Ti33  1  0.03678634  0.08556940  0.17668236  1
  Ti  Ti34  1  0.00000000  0.00000000  0.00000000  1
  Ti  Ti35  1  0.50000000  0.00000000  0.50000000  1
  Ti  Ti36  1  0.53678634  0.91443060  0.32331764  1
  Ti  Ti37  1  0.00000000  0.50000000  0.00000000  1
  Ti  Ti38  1  0.04172728  0.59058597  0.17804014  1
  Ti  Ti39  1  0.01028919  0.95274523  0.40749749  1
  O  O40  1  0.20032491  0.09033227  0.71201812  1
  O  O41  1  0.94206582  0.74974116  0.99963917  1
  O  O42  1  0.28321791  0.49710301  0.44907875  1
  O  O43  1  0.80820840  0.42561769  0.88014956  1
  O  O44  1  0.45281481  0.20574199  0.91062825  1
  O  O45  1  0.29404395  0.48079445  0.86217940  1
  O  O46  1  0.69179160  0.42561769  0.38014956  1
  O  O47  1  0.21678209  0.49710301  0.94907875  1
  O  O48  1  0.04718519  0.20574199  0.41062825  1
  O  O49  1  0.80417187  0.95495529  0.87970753  1
  O  O50  1  0.54279356  0.83430647  0.66927358  1
  O  O51  1  0.07193111  0.33665661  0.17201013  1
  O  O52  1  0.31405293  0.87597086  0.27855098  1
  O  O53  1  0.57193111  0.66334339  0.32798987  1
  O  O54  1  0.05793418  0.25025884  0.00036083  1
  O  O55  1  0.79967509  0.90966773  0.28798188  1
  O  O56  1  0.95720644  0.83430647  0.16927358  1
  O  O57  1  0.28777910  0.88297011  0.86339629  1
  O  O58  1  0.43816758  0.29016070  0.08014567  1
  O  O59  1  0.69582813  0.95495529  0.37970753  1
  O  O60  1  0.19582813  0.04504471  0.12029247  1
  O  O61  1  0.30820840  0.57438231  0.61985044  1
  O  O62  1  0.28348649  0.55217965  0.03554551  1
  O  O63  1  0.28169724  0.95217485  0.44965683  1
  O  O64  1  0.04279356  0.16569353  0.83072642  1
  O  O65  1  0.21222090  0.88297011  0.36339629  1
  O  O66  1  0.70032491  0.90966773  0.78798188  1
  O  O67  1  0.29967509  0.09033227  0.21201812  1
  O  O68  1  0.55793418  0.74974116  0.49963917  1
  O  O69  1  0.42806889  0.33665661  0.67201013  1
  O  O70  1  0.93816758  0.70983930  0.41985433  1
  O  O71  1  0.21732762  0.98316077  0.53588151  1
  O  O72  1  0.78777910  0.11702989  0.63660371  1
  O  O73  1  0.82503125  0.60061222  0.22515373  1
  O  O74  1  0.21830276  0.95217485  0.94965683  1
  O  O75  1  0.78348649  0.44782035  0.46445449  1
  O  O76  1  0.95281481  0.79425801  0.58937175  1
  O  O77  1  0.78267238  0.01683923  0.46411849  1
  O  O78  1  0.70595605  0.51920555  0.13782060  1
  O  O79  1  0.20595605  0.48079445  0.36217940  1
  O  O80  1  0.81539654  0.37834921  0.29231272  1
  O  O81  1  0.71830276  0.04782515  0.55034317  1
  O  O82  1  0.71732762  0.01683923  0.96411849  1
  O  O83  1  0.71651351  0.44782035  0.96445449  1
  O  O84  1  0.54718519  0.79425801  0.08937175  1
  O  O85  1  0.17496875  0.39938778  0.77484627  1
  O  O86  1  0.68460346  0.37834921  0.79231272  1
  O  O87  1  0.28267238  0.98316077  0.03588151  1
  O  O88  1  0.18460346  0.62165079  0.70768728  1
  O  O89  1  0.92806889  0.66334339  0.82798987  1
  O  O90  1  0.68594707  0.12402914  0.72144902  1
  O  O91  1  0.19179160  0.57438231  0.11985044  1
  O  O92  1  0.81405293  0.12402914  0.22144902  1
  O  O93  1  0.45720644  0.16569353  0.33072642  1
  O  O94  1  0.71678209  0.50289699  0.55092125  1
  O  O95  1  0.30417187  0.04504471  0.62029247  1
  O  O96  1  0.31539654  0.62165079  0.20768728  1
  O  O97  1  0.18594707  0.87597086  0.77855098  1
  O  O98  1  0.79404395  0.51920555  0.63782060  1
  O  O99  1  0.78169724  0.04782515  0.05034317  1
  O  O100  1  0.32503125  0.39938778  0.27484627  1
  O  O101  1  0.06183242  0.29016070  0.58014567  1
  O  O102  1  0.71222090  0.11702989  0.13660371  1
  O  O103  1  0.67496875  0.60061222  0.72515373  1
  O  O104  1  0.21651351  0.55217965  0.53554551  1
  O  O105  1  0.44206582  0.25025884  0.50036083  1
  O  O106  1  0.56183242  0.70983930  0.91985433  1
  O  O107  1  0.78321791  0.50289699  0.05092125  1
