# generated using pymatgen
data_Rb2Nb3Cl7O5
_symmetry_space_group_name_H-M   'P 1'
_cell_length_a   9.03673273
_cell_length_b   9.75144038
_cell_length_c   11.32404083
_cell_angle_alpha   108.65347234
_cell_angle_beta   90.00000000
_cell_angle_gamma   117.60373078
_symmetry_Int_Tables_number   1
_chemical_formula_structural   Rb2Nb3Cl7O5
_chemical_formula_sum   'Rb4 Nb6 Cl14 O10'
_cell_volume   824.69439590
_cell_formula_units_Z   2
loop_
 _symmetry_equiv_pos_site_id
 _symmetry_equiv_pos_as_xyz
  1  'x, y, z'
loop_
 _atom_site_type_symbol
 _atom_site_label
 _atom_site_symmetry_multiplicity
 _atom_site_fract_x
 _atom_site_fract_y
 _atom_site_fract_z
 _atom_site_occupancy
  Rb  Rb0  1  0.83767241  0.59539937  0.14392613  1
  Rb  Rb1  1  0.16232759  0.40460063  0.85607387  1
  Rb  Rb2  1  0.24227304  0.40460063  0.35607387  1
  Rb  Rb3  1  0.75772696  0.59539937  0.64392613  1
  Nb  Nb4  1  0.46526726  0.00000000  0.25000000  1
  Nb  Nb5  1  0.21388610  0.00498781  0.97357010  1
  Nb  Nb6  1  0.20889829  0.99501219  0.52642990  1
  Nb  Nb7  1  0.79110171  0.00498781  0.47357010  1
  Nb  Nb8  1  0.53473274  0.00000000  0.75000000  1
  Nb  Nb9  1  0.78611390  0.99501219  0.02642990  1
  Cl  Cl10  1  0.93825307  0.29838263  0.12495854  1
  Cl  Cl11  1  0.06174693  0.70161737  0.87504146  1
  Cl  Cl12  1  0.57816059  0.29735425  0.33087629  1
  Cl  Cl13  1  0.09299767  0.00000000  0.75000000  1
  Cl  Cl14  1  0.36256008  0.30593068  0.04217896  1
  Cl  Cl15  1  0.05662939  0.69406932  0.45782104  1
  Cl  Cl16  1  0.94337061  0.30593068  0.54217896  1
  Cl  Cl17  1  0.71919366  0.29735425  0.83087629  1
  Cl  Cl18  1  0.42183941  0.70264575  0.66912371  1
  Cl  Cl19  1  0.36012957  0.29838263  0.62495854  1
  Cl  Cl20  1  0.90700233  0.00000000  0.25000000  1
  Cl  Cl21  1  0.63987043  0.70161737  0.37504146  1
  Cl  Cl22  1  0.28080634  0.70264575  0.16912371  1
  Cl  Cl23  1  0.63743992  0.69406932  0.95782104  1
  O  O24  1  0.71345595  0.00254007  0.62087150  1
  O  O25  1  0.60089761  0.99702943  0.12564129  1
  O  O26  1  0.39910239  0.00297057  0.87435871  1
  O  O27  1  0.71091587  0.99745993  0.87912850  1
  O  O28  1  0.28908413  0.00254007  0.12087150  1
  O  O29  1  0.00000000  0.00000000  0.00000000  1
  O  O30  1  0.28654405  0.99745993  0.37912850  1
  O  O31  1  0.39613182  0.99702943  0.62564129  1
  O  O32  1  0.60386818  0.00297057  0.37435871  1
  O  O33  1  0.00000000  0.00000000  0.50000000  1
