# generated using pymatgen
data_CaMgGeO4
_symmetry_space_group_name_H-M   'P 1'
_cell_length_a   5.05135069
_cell_length_b   6.45656140
_cell_length_c   11.37664950
_cell_angle_alpha   90.00000000
_cell_angle_beta   90.00000000
_cell_angle_gamma   90.00000000
_symmetry_Int_Tables_number   1
_chemical_formula_structural   CaMgGeO4
_chemical_formula_sum   'Ca4 Mg4 Ge4 O16'
_cell_volume   371.04209555
_cell_formula_units_Z   4
loop_
 _symmetry_equiv_pos_site_id
 _symmetry_equiv_pos_as_xyz
  1  'x, y, z'
loop_
 _atom_site_type_symbol
 _atom_site_label
 _atom_site_symmetry_multiplicity
 _atom_site_fract_x
 _atom_site_fract_y
 _atom_site_fract_z
 _atom_site_occupancy
  Ca  Ca0  1  0.51148059  0.25000000  0.22460263  1
  Ca  Ca1  1  0.98851941  0.25000000  0.72460263  1
  Ca  Ca2  1  0.48851941  0.75000000  0.77539737  1
  Ca  Ca3  1  0.01148059  0.75000000  0.27539737  1
  Mg  Mg4  1  0.00000000  0.50000000  0.00000000  1
  Mg  Mg5  1  0.50000000  0.00000000  0.50000000  1
  Mg  Mg6  1  0.50000000  0.50000000  0.50000000  1
  Mg  Mg7  1  0.00000000  0.00000000  0.00000000  1
  Ge  Ge8  1  0.07881773  0.25000000  0.41919004  1
  Ge  Ge9  1  0.42118227  0.25000000  0.91919004  1
  Ge  Ge10  1  0.57881773  0.75000000  0.08080996  1
  Ge  Ge11  1  0.92118227  0.75000000  0.58080996  1
  O  O12  1  0.26408123  0.46804584  0.85181615  1
  O  O13  1  0.76408123  0.53195416  0.64818385  1
  O  O14  1  0.75614971  0.75000000  0.94289236  1
  O  O15  1  0.23591877  0.03195416  0.35181615  1
  O  O16  1  0.23591877  0.46804584  0.35181615  1
  O  O17  1  0.73058584  0.25000000  0.42018835  1
  O  O18  1  0.76408123  0.96804584  0.64818385  1
  O  O19  1  0.23058584  0.75000000  0.07981165  1
  O  O20  1  0.74385029  0.75000000  0.44289236  1
  O  O21  1  0.26408123  0.03195416  0.85181615  1
  O  O22  1  0.73591877  0.53195416  0.14818385  1
  O  O23  1  0.26941416  0.75000000  0.57981165  1
  O  O24  1  0.76941416  0.25000000  0.92018835  1
  O  O25  1  0.73591877  0.96804584  0.14818385  1
  O  O26  1  0.24385029  0.25000000  0.05710764  1
  O  O27  1  0.25614971  0.25000000  0.55710764  1
