# generated using pymatgen
data_AlAs3S5Cl4
_symmetry_space_group_name_H-M   'P 1'
_cell_length_a   6.62791030
_cell_length_b   10.19334565
_cell_length_c   11.95371587
_cell_angle_alpha   90.00000000
_cell_angle_beta   104.24346765
_cell_angle_gamma   90.00000000
_symmetry_Int_Tables_number   1
_chemical_formula_structural   AlAs3S5Cl4
_chemical_formula_sum   'Al2 As6 S10 Cl8'
_cell_volume   782.77352764
_cell_formula_units_Z   2
loop_
 _symmetry_equiv_pos_site_id
 _symmetry_equiv_pos_as_xyz
  1  'x, y, z'
loop_
 _atom_site_type_symbol
 _atom_site_label
 _atom_site_symmetry_multiplicity
 _atom_site_fract_x
 _atom_site_fract_y
 _atom_site_fract_z
 _atom_site_occupancy
  Al  Al0  1  0.51913990  0.25000000  0.71987558  1
  Al  Al1  1  0.48086010  0.75000000  0.28012442  1
  As  As2  1  0.94820985  0.91774951  0.66960826  1
  As  As3  1  0.05179015  0.41774951  0.33039174  1
  As  As4  1  0.05179015  0.08225049  0.33039174  1
  As  As5  1  0.02700550  0.25000000  0.05193002  1
  As  As6  1  0.97299450  0.75000000  0.94806998  1
  As  As7  1  0.94820985  0.58225049  0.66960826  1
  S  S8  1  0.07314765  0.57086065  0.86238876  1
  S  S9  1  0.31612736  0.25000000  0.32530711  1
  S  S10  1  0.36737825  0.25000000  0.16750667  1
  S  S11  1  0.92685235  0.42913935  0.13761124  1
  S  S12  1  0.68387264  0.75000000  0.67469289  1
  S  S13  1  0.11747096  0.75000000  0.60488603  1
  S  S14  1  0.63262175  0.75000000  0.83249333  1
  S  S15  1  0.88252904  0.25000000  0.39511397  1
  S  S16  1  0.07314765  0.92913935  0.86238876  1
  S  S17  1  0.92685235  0.07086065  0.13761124  1
  Cl  Cl18  1  0.51702988  0.75000000  0.10608758  1
  Cl  Cl19  1  0.84534167  0.25000000  0.72186325  1
  Cl  Cl20  1  0.48297012  0.25000000  0.89391242  1
  Cl  Cl21  1  0.15465833  0.75000000  0.27813675  1
  Cl  Cl22  1  0.37949465  0.07545360  0.62795811  1
  Cl  Cl23  1  0.37949465  0.42454640  0.62795811  1
  Cl  Cl24  1  0.62050535  0.92454640  0.37204189  1
  Cl  Cl25  1  0.62050535  0.57545360  0.37204189  1
