# generated using pymatgen
data_Ca(B3O5)2
_symmetry_space_group_name_H-M   'P 1'
_cell_length_a   8.81962574
_cell_length_b   9.17810218
_cell_length_c   9.93922408
_cell_angle_alpha   116.88179298
_cell_angle_beta   90.00000000
_cell_angle_gamma   90.00000000
_symmetry_Int_Tables_number   1
_chemical_formula_structural   Ca(B3O5)2
_chemical_formula_sum   'Ca4 B24 O40'
_cell_volume   717.61544787
_cell_formula_units_Z   4
loop_
 _symmetry_equiv_pos_site_id
 _symmetry_equiv_pos_as_xyz
  1  'x, y, z'
loop_
 _atom_site_type_symbol
 _atom_site_label
 _atom_site_symmetry_multiplicity
 _atom_site_fract_x
 _atom_site_fract_y
 _atom_site_fract_z
 _atom_site_occupancy
  Ca  Ca0  1  0.88607247  0.03678045  0.77804412  1
  Ca  Ca1  1  0.61392753  0.53678045  0.77804412  1
  Ca  Ca2  1  0.11392753  0.96321955  0.22195588  1
  Ca  Ca3  1  0.38607247  0.46321955  0.22195588  1
  B  B4  1  0.73290682  0.87623525  0.07896745  1
  B  B5  1  0.23290682  0.62376475  0.92103255  1
  B  B6  1  0.77169365  0.44252706  0.50273024  1
  B  B7  1  0.97392585  0.73618580  0.91728463  1
  B  B8  1  0.88029114  0.22132405  0.55703035  1
  B  B9  1  0.55598758  0.75522760  0.32606677  1
  B  B10  1  0.02948785  0.43920412  0.78269856  1
  B  B11  1  0.27169365  0.05747294  0.49726976  1
  B  B12  1  0.47392585  0.76381420  0.08271537  1
  B  B13  1  0.72830635  0.94252706  0.50273024  1
  B  B14  1  0.76709318  0.37623525  0.07896745  1
  B  B15  1  0.02607415  0.26381420  0.08271537  1
  B  B16  1  0.05598758  0.74477240  0.67393323  1
  B  B17  1  0.26709318  0.12376475  0.92103255  1
  B  B18  1  0.11970886  0.77867595  0.44296965  1
  B  B19  1  0.44401242  0.24477240  0.67393323  1
  B  B20  1  0.52948785  0.06079588  0.21730144  1
  B  B21  1  0.38029114  0.27867595  0.44296965  1
  B  B22  1  0.52607415  0.23618580  0.91728463  1
  B  B23  1  0.61970886  0.72132405  0.55703035  1
  B  B24  1  0.97051215  0.56079588  0.21730144  1
  B  B25  1  0.22830635  0.55747294  0.49726976  1
  B  B26  1  0.47051215  0.93920412  0.78269856  1
  B  B27  1  0.94401242  0.25522760  0.32606677  1
  O  O28  1  0.02977394  0.19894190  0.19687632  1
  O  O29  1  0.68871940  0.58224981  0.57004384  1
  O  O30  1  0.97022606  0.80105810  0.80312368  1
  O  O31  1  0.36923942  0.25149719  0.97924823  1
  O  O32  1  0.61533709  0.35029729  0.04749879  1
  O  O33  1  0.13961622  0.60167586  0.62461235  1
  O  O34  1  0.68075290  0.03233406  0.16888856  1
  O  O35  1  0.86923942  0.24850281  0.02075177  1
  O  O36  1  0.81924710  0.53233406  0.16888856  1
  O  O37  1  0.49351546  0.21682506  0.31974149  1
  O  O38  1  0.88466291  0.85029729  0.04749879  1
  O  O39  1  0.18075290  0.46766594  0.83111144  1
  O  O40  1  0.18871940  0.91775019  0.42995616  1
  O  O41  1  0.95072054  0.16589948  0.40573841  1
  O  O42  1  0.31924710  0.96766594  0.83111144  1
  O  O43  1  0.26946957  0.15080990  0.42109321  1
  O  O44  1  0.73053043  0.84919010  0.57890679  1
  O  O45  1  0.81128060  0.08224981  0.57004384  1
  O  O46  1  0.13076058  0.75149719  0.97924823  1
  O  O47  1  0.47022606  0.69894190  0.19687632  1
  O  O48  1  0.52977394  0.30105810  0.80312368  1
  O  O49  1  0.42294432  0.93538472  0.15516280  1
  O  O50  1  0.76946957  0.34919010  0.57890679  1
  O  O51  1  0.45072054  0.33410052  0.59426159  1
  O  O52  1  0.57705568  0.06461528  0.84483720  1
  O  O53  1  0.63076058  0.74850281  0.02075177  1
  O  O54  1  0.38466291  0.64970271  0.95250121  1
  O  O55  1  0.86038378  0.39832414  0.37538765  1
  O  O56  1  0.36038378  0.10167586  0.62461235  1
  O  O57  1  0.11533709  0.14970271  0.95250121  1
  O  O58  1  0.92294432  0.56461528  0.84483720  1
  O  O59  1  0.23053043  0.65080990  0.42109321  1
  O  O60  1  0.50648454  0.78317494  0.68025851  1
  O  O61  1  0.63961622  0.89832414  0.37538765  1
  O  O62  1  0.07705568  0.43538472  0.15516280  1
  O  O63  1  0.31128060  0.41775019  0.42995616  1
  O  O64  1  0.04927946  0.83410052  0.59426159  1
  O  O65  1  0.99351546  0.28317494  0.68025851  1
  O  O66  1  0.00648454  0.71682506  0.31974149  1
  O  O67  1  0.54927946  0.66589948  0.40573841  1
