# generated using pymatgen
data_Ce3CuSiS7
_symmetry_space_group_name_H-M   'P 1'
_cell_length_a   10.20840007
_cell_length_b   10.20840000
_cell_length_c   5.78174767
_cell_angle_alpha   90.00000000
_cell_angle_beta   90.00000000
_cell_angle_gamma   120.00000018
_symmetry_Int_Tables_number   1
_chemical_formula_structural   Ce3CuSiS7
_chemical_formula_sum   'Ce6 Cu2 Si2 S14'
_cell_volume   521.80126285
_cell_formula_units_Z   2
loop_
 _symmetry_equiv_pos_site_id
 _symmetry_equiv_pos_as_xyz
  1  'x, y, z'
loop_
 _atom_site_type_symbol
 _atom_site_label
 _atom_site_symmetry_multiplicity
 _atom_site_fract_x
 _atom_site_fract_y
 _atom_site_fract_z
 _atom_site_occupancy
  Ce  Ce0  1  0.23229974  0.35607330  0.75047986  1
  Ce  Ce1  1  0.35607715  0.12376760  0.25047847  1
  Ce  Ce2  1  0.87623240  0.23230955  0.25047847  1
  Ce  Ce3  1  0.12377356  0.76770026  0.75047986  1
  Ce  Ce4  1  0.76769045  0.64392285  0.25047847  1
  Ce  Ce5  1  0.64392670  0.87622644  0.75047986  1
  Cu  Cu6  1  0.00000000  0.00000000  0.77388621  1
  Si  Si7  1  0.33333300  0.66666700  0.16441569  1
  Cu  Cu8  1  0.00000000  0.00000000  0.27389895  1
  Si  Si9  1  0.66666700  0.33333300  0.66442614  1
  S  S10  1  0.25030539  0.08603665  0.76247825  1
  S  S11  1  0.52434056  0.41206474  0.52236320  1
  S  S12  1  0.41205887  0.88772635  0.02237189  1
  S  S13  1  0.11227365  0.52433253  0.02237189  1
  S  S14  1  0.88772418  0.47565944  0.52236320  1
  S  S15  1  0.08602067  0.83571795  0.26246892  1
  S  S16  1  0.16428205  0.25030272  0.26246892  1
  S  S17  1  0.74969728  0.91397933  0.26246892  1
  S  S18  1  0.58793526  0.11227582  0.52236320  1
  S  S19  1  0.83573126  0.74969461  0.76247825  1
  S  S20  1  0.47566747  0.58794113  0.02237189  1
  S  S21  1  0.66666700  0.33333300  0.02980130  1
  S  S22  1  0.33333300  0.66666700  0.52976996  1
  S  S23  1  0.91396335  0.16426874  0.76247825  1
