# generated using pymatgen
data_Rb2Te(H6O5)2
_symmetry_space_group_name_H-M   'P 1'
_cell_length_a   7.15633416
_cell_length_b   8.43416884
_cell_length_c   9.45516758
_cell_angle_alpha   101.95165266
_cell_angle_beta   98.09199126
_cell_angle_gamma   94.22763365
_symmetry_Int_Tables_number   1
_chemical_formula_structural   Rb2Te(H6O5)2
_chemical_formula_sum   'Rb4 Te2 H24 O20'
_cell_volume   549.63602318
_cell_formula_units_Z   2
loop_
 _symmetry_equiv_pos_site_id
 _symmetry_equiv_pos_as_xyz
  1  'x, y, z'
loop_
 _atom_site_type_symbol
 _atom_site_label
 _atom_site_symmetry_multiplicity
 _atom_site_fract_x
 _atom_site_fract_y
 _atom_site_fract_z
 _atom_site_occupancy
  Rb  Rb0  1  0.93928833  0.13164462  0.70782735  1
  Rb  Rb1  1  0.56107391  0.53816796  0.20394673  1
  Rb  Rb2  1  0.06071167  0.86835538  0.29217265  1
  Rb  Rb3  1  0.43892609  0.46183204  0.79605327  1
  Te  Te4  1  0.13207195  0.42853825  0.38775537  1
  Te  Te5  1  0.86792805  0.57146175  0.61224463  1
  H  H6  1  0.39055227  0.14246845  0.30574217  1
  H  H7  1  0.40277294  0.04927742  0.62772951  1
  H  H8  1  0.50389827  0.05455601  0.18486170  1
  H  H9  1  0.28875384  0.13768247  0.96215764  1
  H  H10  1  0.19240375  0.86338801  0.82204897  1
  H  H11  1  0.71207864  0.15033962  0.02145179  1
  H  H12  1  0.58660147  0.35823107  0.50117964  1
  H  H13  1  0.91165303  0.38192722  0.06223862  1
  H  H14  1  0.78304947  0.70411441  0.94590176  1
  H  H15  1  0.08834697  0.61807278  0.93776138  1
  H  H16  1  0.83069640  0.42691793  0.91269981  1
  H  H17  1  0.86318276  0.24001784  0.40929270  1
  H  H18  1  0.71124616  0.86231753  0.03784236  1
  H  H19  1  0.41339853  0.64176893  0.49882036  1
  H  H20  1  0.67895198  0.83111252  0.47312041  1
  H  H21  1  0.60944773  0.85753155  0.69425783  1
  H  H22  1  0.59722706  0.95072258  0.37227049  1
  H  H23  1  0.16930360  0.57308207  0.08730019  1
  H  H24  1  0.80759625  0.13661199  0.17795103  1
  H  H25  1  0.21695053  0.29588559  0.05409824  1
  H  H26  1  0.32104802  0.16888748  0.52687959  1
  H  H27  1  0.28792136  0.84966038  0.97854821  1
  H  H28  1  0.49610173  0.94544399  0.81513830  1
  H  H29  1  0.13681724  0.75998216  0.59070730  1
  O  O30  1  0.88062643  0.57136785  0.81277102  1
  O  O31  1  0.71421242  0.90943330  0.41384043  1
  O  O32  1  0.79955911  0.35734009  0.98159418  1
  O  O33  1  0.35148412  0.32052098  0.41760108  1
  O  O34  1  0.71882073  0.74438257  0.03106806  1
  O  O35  1  0.28117927  0.25561743  0.96893194  1
  O  O36  1  0.09478043  0.44500976  0.59938742  1
  O  O37  1  0.70892194  0.08088068  0.09314928  1
  O  O38  1  0.95642964  0.21931386  0.34080200  1
  O  O39  1  0.11937357  0.42863215  0.18722898  1
  O  O40  1  0.04357036  0.78068614  0.65919800  1
  O  O41  1  0.20044089  0.64265991  0.01840582  1
  O  O42  1  0.42037928  0.03292855  0.25528003  1
  O  O43  1  0.28164704  0.64955573  0.44941724  1
  O  O44  1  0.28578758  0.09056670  0.58615957  1
  O  O45  1  0.64851588  0.67947902  0.58239892  1
  O  O46  1  0.90521957  0.55499024  0.40061258  1
  O  O47  1  0.29107806  0.91911932  0.90685072  1
  O  O48  1  0.57962072  0.96707145  0.74471997  1
  O  O49  1  0.71835296  0.35044427  0.55058276  1
