# generated using pymatgen
data_RbGa2P5O16
_symmetry_space_group_name_H-M   'P 1'
_cell_length_a   7.49835000
_cell_length_b   9.33757591
_cell_length_c   10.24272772
_cell_angle_alpha   90.00000000
_cell_angle_beta   110.77962964
_cell_angle_gamma   90.00000000
_symmetry_Int_Tables_number   1
_chemical_formula_structural   RbGa2P5O16
_chemical_formula_sum   'Rb2 Ga4 P10 O32'
_cell_volume   670.50919161
_cell_formula_units_Z   2
loop_
 _symmetry_equiv_pos_site_id
 _symmetry_equiv_pos_as_xyz
  1  'x, y, z'
loop_
 _atom_site_type_symbol
 _atom_site_label
 _atom_site_symmetry_multiplicity
 _atom_site_fract_x
 _atom_site_fract_y
 _atom_site_fract_z
 _atom_site_occupancy
  Rb  Rb0  1  0.25124543  0.79826586  0.22769051  1
  Rb  Rb1  1  0.75124543  0.20173414  0.72769051  1
  Ga  Ga2  1  0.21214706  0.36848951  0.12712943  1
  Ga  Ga3  1  0.16315933  0.13861511  0.51880695  1
  Ga  Ga4  1  0.71214706  0.63151049  0.62712943  1
  Ga  Ga5  1  0.66315933  0.86138489  0.01880695  1
  P  P6  1  0.85961115  0.58491476  0.96054749  1
  P  P7  1  0.35961115  0.41508524  0.46054749  1
  P  P8  1  0.01554323  0.86311254  0.61680230  1
  P  P9  1  0.42483706  0.87401794  0.68819805  1
  P  P10  1  0.92483706  0.12598206  0.18819805  1
  P  P11  1  0.30662510  0.29449834  0.86107319  1
  P  P12  1  0.51554323  0.13688746  0.11680230  1
  P  P13  1  0.00001319  0.45671469  0.50023616  1
  P  P14  1  0.80662510  0.70550166  0.36107319  1
  P  P15  1  0.50001319  0.54328531  1.00023616  1
  O  O16  1  0.38776337  0.45470885  0.85781360  1
  O  O17  1  0.71878433  0.50578912  0.03012700  1
  O  O18  1  0.26623210  0.22992949  0.72100547  1
  O  O19  1  0.35005554  0.25376425  0.48040937  1
  O  O20  1  0.46758037  0.70157306  0.97107364  1
  O  O21  1  0.55194200  0.93683593  0.82802685  1
  O  O22  1  0.44467168  0.47965138  0.11530208  1
  O  O23  1  0.49202019  0.21522823  0.97059376  1
  O  O24  1  0.36271580  0.98823487  0.57345723  1
  O  O25  1  0.38124782  0.19686695  0.18273188  1
  O  O26  1  0.76623210  0.77007051  0.22100547  1
  O  O27  1  0.05885082  0.53421677  0.04631092  1
  O  O28  1  0.96758037  0.29842694  0.47107364  1
  O  O29  1  0.49890400  0.73966127  0.64164846  1
  O  O30  1  0.65134414  0.70435759  0.42339207  1
  O  O31  1  0.99375053  0.02364655  0.58969025  1
  O  O32  1  0.78501400  0.53787214  0.80828753  1
  O  O33  1  0.05194200  0.06316407  0.32802685  1
  O  O34  1  0.88124782  0.80313305  0.68273188  1
  O  O35  1  0.85005554  0.74623575  0.98040937  1
  O  O36  1  0.86271580  0.01176513  0.07345723  1
  O  O37  1  0.88776337  0.54529115  0.35781360  1
  O  O38  1  0.22674177  0.82289653  0.71076581  1
  O  O39  1  0.55885082  0.46578323  0.54631092  1
  O  O40  1  0.94467168  0.52034862  0.61530208  1
  O  O41  1  0.15134414  0.29564241  0.92339207  1
  O  O42  1  0.99890400  0.26033873  0.14164846  1
  O  O43  1  0.28501400  0.46212786  0.30828753  1
  O  O44  1  0.49375053  0.97635345  0.08969025  1
  O  O45  1  0.21878433  0.49421088  0.53012700  1
  O  O46  1  0.72674177  0.17710347  0.21076581  1
  O  O47  1  0.99202019  0.78477177  0.47059376  1
