# generated using pymatgen
data_Ca3TiBe2Si2(As3O10)2
_symmetry_space_group_name_H-M   'P 1'
_cell_length_a   8.43236820
_cell_length_b   8.43236793
_cell_length_c   15.49998966
_cell_angle_alpha   90.00000000
_cell_angle_beta   90.00000000
_cell_angle_gamma   120.00000107
_symmetry_Int_Tables_number   1
_chemical_formula_structural   Ca3TiBe2Si2(As3O10)2
_chemical_formula_sum   'Ca6 Ti2 Be4 Si4 As12 O40'
_cell_volume   954.46749975
_cell_formula_units_Z   2
loop_
 _symmetry_equiv_pos_site_id
 _symmetry_equiv_pos_as_xyz
  1  'x, y, z'
loop_
 _atom_site_type_symbol
 _atom_site_label
 _atom_site_symmetry_multiplicity
 _atom_site_fract_x
 _atom_site_fract_y
 _atom_site_fract_z
 _atom_site_occupancy
  Ca  Ca0  1  0.59342715  0.00000000  0.25000000  1
  Ca  Ca1  1  0.59342715  0.59342715  0.75000000  1
  Ca  Ca2  1  0.40657285  0.00000000  0.75000000  1
  Ca  Ca3  1  0.00000000  0.59342715  0.25000000  1
  Ca  Ca4  1  0.40657285  0.40657285  0.25000000  1
  Ca  Ca5  1  1.00000000  0.40657285  0.75000000  1
  Ti  Ti6  1  0.00000000  0.00000000  0.25000000  1
  Ti  Ti7  1  0.00000000  0.00000000  0.75000000  1
  Be  Be8  1  0.33333300  0.66666700  0.13070811  1
  Be  Be9  1  0.66666700  0.33333300  0.86929189  1
  Be  Be10  1  0.66666700  0.33333300  0.36929189  1
  Be  Be11  1  0.33333300  0.66666700  0.63070811  1
  Si  Si12  1  0.33333300  0.66666700  0.92712632  1
  Si  Si13  1  0.33333300  0.66666700  0.42712632  1
  Si  Si14  1  0.66666700  0.33333300  0.07287368  1
  Si  Si15  1  0.66666700  0.33333300  0.57287368  1
  As  As16  1  0.29630321  0.01865378  0.39584187  1
  As  As17  1  0.98134622  0.70369679  0.89584187  1
  As  As18  1  0.98134622  0.27764943  0.39584187  1
  As  As19  1  0.01865378  0.72235057  0.60415813  1
  As  As20  1  0.27764943  0.29630321  0.60415813  1
  As  As21  1  0.72235057  0.01865378  0.89584187  1
  As  As22  1  0.29630321  0.27764943  0.89584187  1
  As  As23  1  0.01865378  0.29630321  0.10415813  1
  As  As24  1  0.70369679  0.72235057  0.10415813  1
  As  As25  1  0.70369679  0.98134622  0.60415813  1
  As  As26  1  0.72235057  0.70369679  0.39584187  1
  As  As27  1  0.27764943  0.98134622  0.10415813  1
  O  O28  1  0.88533045  0.77911537  0.67606422  1
  O  O29  1  0.27966350  0.46509393  0.67487474  1
  O  O30  1  0.46509393  0.27966350  0.82512526  1
  O  O31  1  0.12919368  0.59725237  0.88334869  1
  O  O32  1  0.59725237  0.46805869  0.11665131  1
  O  O33  1  0.40274763  0.53194131  0.88334869  1
  O  O34  1  0.22088463  0.10621509  0.67606422  1
  O  O35  1  0.72033650  0.18543043  0.82512526  1
  O  O36  1  0.46805869  0.59725237  0.38334869  1
  O  O37  1  0.87080632  0.46805869  0.61665131  1
  O  O38  1  0.12919368  0.53194131  0.38334869  1
  O  O39  1  0.66666700  0.33333300  0.47064826  1
  O  O40  1  0.89378491  0.11466955  0.67606422  1
  O  O41  1  0.40274763  0.87080632  0.38334869  1
  O  O42  1  0.10621509  0.22088463  0.82393578  1
  O  O43  1  0.66666700  0.33333300  0.97064826  1
  O  O44  1  0.72033650  0.53490607  0.32512526  1
  O  O45  1  0.46509393  0.18543043  0.32512526  1
  O  O46  1  0.11466955  0.89378491  0.82393578  1
  O  O47  1  0.18543043  0.72033650  0.67487474  1
  O  O48  1  0.53490607  0.72033650  0.17487474  1
  O  O49  1  0.22088463  0.11466955  0.17606422  1
  O  O50  1  0.53490607  0.81456957  0.67487474  1
  O  O51  1  0.88533045  0.10621509  0.17606422  1
  O  O52  1  0.33333300  0.66666700  0.02935174  1
  O  O53  1  0.27966350  0.81456957  0.17487474  1
  O  O54  1  0.81456957  0.27966350  0.32512526  1
  O  O55  1  0.10621509  0.88533045  0.32393578  1
  O  O56  1  0.11466955  0.22088463  0.32393578  1
  O  O57  1  0.33333300  0.66666700  0.52935174  1
  O  O58  1  0.46805869  0.87080632  0.88334869  1
  O  O59  1  0.53194131  0.12919368  0.11665131  1
  O  O60  1  0.81456957  0.53490607  0.82512526  1
  O  O61  1  0.18543043  0.46509393  0.17487474  1
  O  O62  1  0.53194131  0.40274763  0.61665131  1
  O  O63  1  0.59725237  0.12919368  0.61665131  1
  O  O64  1  0.77911537  0.88533045  0.82393578  1
  O  O65  1  0.87080632  0.40274763  0.11665131  1
  O  O66  1  0.77911537  0.89378491  0.32393578  1
  O  O67  1  0.89378491  0.77911537  0.17606422  1
