# generated using pymatgen
data_Hg3Se4O5
_symmetry_space_group_name_H-M   'P 1'
_cell_length_a   7.90841821
_cell_length_b   7.94516690
_cell_length_c   9.50479721
_cell_angle_alpha   94.33465011
_cell_angle_beta   110.38511617
_cell_angle_gamma   107.11407366
_symmetry_Int_Tables_number   1
_chemical_formula_structural   Hg3Se4O5
_chemical_formula_sum   'Hg6 Se8 O10'
_cell_volume   524.35303386
_cell_formula_units_Z   2
loop_
 _symmetry_equiv_pos_site_id
 _symmetry_equiv_pos_as_xyz
  1  'x, y, z'
loop_
 _atom_site_type_symbol
 _atom_site_label
 _atom_site_symmetry_multiplicity
 _atom_site_fract_x
 _atom_site_fract_y
 _atom_site_fract_z
 _atom_site_occupancy
  Hg  Hg0  1  0.01362210  0.47679144  0.71785213  1
  Hg  Hg1  1  0.27051798  0.80377926  0.08917284  1
  Hg  Hg2  1  0.01578017  0.98914044  0.77156744  1
  Hg  Hg3  1  0.72948202  0.19622074  0.91082716  1
  Hg  Hg4  1  0.98637790  0.52320856  0.28214787  1
  Hg  Hg5  1  0.98421983  0.01085956  0.22843256  1
  Se  Se6  1  0.22147032  0.84751498  0.34093722  1
  Se  Se7  1  0.65224597  0.63802334  0.90828110  1
  Se  Se8  1  0.24018322  0.80663158  0.81179215  1
  Se  Se9  1  0.34775403  0.36197666  0.09171890  1
  Se  Se10  1  0.75981678  0.19336842  0.18820785  1
  Se  Se11  1  0.62725581  0.66399026  0.38963257  1
  Se  Se12  1  0.77852968  0.15248502  0.65906278  1
  Se  Se13  1  0.37274419  0.33600974  0.61036743  1
  O  O14  1  0.43070869  0.43803691  0.30448907  1
  O  O15  1  0.17195497  0.39122676  0.54322607  1
  O  O16  1  0.79034257  0.85348756  0.92448688  1
  O  O17  1  0.18310763  0.46418540  0.02699526  1
  O  O18  1  0.20965743  0.14651244  0.07551312  1
  O  O19  1  0.81689237  0.53581460  0.97300474  1
  O  O20  1  0.62670652  0.74260441  0.22812291  1
  O  O21  1  0.56929131  0.56196309  0.69551093  1
  O  O22  1  0.82804503  0.60877324  0.45677393  1
  O  O23  1  0.37329348  0.25739559  0.77187709  1
