# generated using pymatgen
data_BaB2F8
_symmetry_space_group_name_H-M   'P 1'
_cell_length_a   4.85647037
_cell_length_b   5.11025555
_cell_length_c   6.87383699
_cell_angle_alpha   111.81965617
_cell_angle_beta   110.37254602
_cell_angle_gamma   89.99978505
_symmetry_Int_Tables_number   1
_chemical_formula_structural   BaB2F8
_chemical_formula_sum   'Ba1 B2 F8'
_cell_volume   146.81561057
_cell_formula_units_Z   1
loop_
 _symmetry_equiv_pos_site_id
 _symmetry_equiv_pos_as_xyz
  1  'x, y, z'
loop_
 _atom_site_type_symbol
 _atom_site_label
 _atom_site_symmetry_multiplicity
 _atom_site_fract_x
 _atom_site_fract_y
 _atom_site_fract_z
 _atom_site_occupancy
  Ba  Ba0  1  0.00000000  0.00000000  0.00000000  1
  B  B1  1  0.29135639  0.34768619  0.69532329  1
  B  B2  1  0.70864361  0.65231381  0.30467671  1
  F  F3  1  0.46744518  0.61223024  0.76876663  1
  F  F4  1  0.85089824  0.77039127  0.54092785  1
  F  F5  1  0.46747769  0.15657824  0.76870805  1
  F  F6  1  0.07377930  0.39912282  0.79836618  1
  F  F7  1  0.53252231  0.84342176  0.23129195  1
  F  F8  1  0.53255482  0.38776976  0.23123337  1
  F  F9  1  0.14910176  0.22960873  0.45907215  1
  F  F10  1  0.92622070  0.60087718  0.20163382  1
