# generated using pymatgen
data_CsSiBiS4
_symmetry_space_group_name_H-M   'P 1'
_cell_length_a   7.12732917
_cell_length_b   9.49751857
_cell_length_c   13.10579376
_cell_angle_alpha   108.08811608
_cell_angle_beta   90.00000000
_cell_angle_gamma   90.00000000
_symmetry_Int_Tables_number   1
_chemical_formula_structural   CsSiBiS4
_chemical_formula_sum   'Cs4 Si4 Bi4 S16'
_cell_volume   843.31347204
_cell_formula_units_Z   4
loop_
 _symmetry_equiv_pos_site_id
 _symmetry_equiv_pos_as_xyz
  1  'x, y, z'
loop_
 _atom_site_type_symbol
 _atom_site_label
 _atom_site_symmetry_multiplicity
 _atom_site_fract_x
 _atom_site_fract_y
 _atom_site_fract_z
 _atom_site_occupancy
  Cs  Cs0  1  0.26067866  0.57325122  0.39521513  1
  Cs  Cs1  1  0.76067866  0.42674878  0.10478487  1
  Cs  Cs2  1  0.73932134  0.42674878  0.60478487  1
  Cs  Cs3  1  0.23932134  0.57325122  0.89521513  1
  Si  Si4  1  0.76470483  0.82400858  0.34662118  1
  Si  Si5  1  0.26470483  0.17599142  0.15337882  1
  Si  Si6  1  0.23529517  0.17599142  0.65337882  1
  Si  Si7  1  0.73529517  0.82400858  0.84662118  1
  Bi  Bi8  1  0.15270874  0.05427969  0.37066155  1
  Bi  Bi9  1  0.65270874  0.94572031  0.12933845  1
  Bi  Bi10  1  0.84729126  0.94572031  0.62933845  1
  Bi  Bi11  1  0.34729126  0.05427969  0.87066155  1
  S  S12  1  0.99103673  0.79087406  0.75739608  1
  S  S13  1  0.79402550  0.05645503  0.44163734  1
  S  S14  1  0.51000612  0.78619054  0.73578062  1
  S  S15  1  0.70597450  0.05645503  0.94163734  1
  S  S16  1  0.76869330  0.69380597  0.45229475  1
  S  S17  1  0.00896327  0.20912594  0.24260392  1
  S  S18  1  0.26869330  0.30619403  0.04770525  1
  S  S19  1  0.20597450  0.94354497  0.55836266  1
  S  S20  1  0.73130670  0.69380597  0.95229475  1
  S  S21  1  0.48999388  0.21380946  0.26421938  1
  S  S22  1  0.01000612  0.21380946  0.76421938  1
  S  S23  1  0.23130670  0.30619403  0.54770525  1
  S  S24  1  0.50896327  0.79087406  0.25739608  1
  S  S25  1  0.98999388  0.78619054  0.23578062  1
  S  S26  1  0.49103673  0.20912594  0.74260392  1
  S  S27  1  0.29402550  0.94354497  0.05836266  1
