# generated using pymatgen
data_Mn(PO3)2
_symmetry_space_group_name_H-M   'P 1'
_cell_length_a   7.48095112
_cell_length_b   7.48095151
_cell_length_c   10.04249859
_cell_angle_alpha   98.99661875
_cell_angle_beta   109.52818542
_cell_angle_gamma   109.95922265
_symmetry_Int_Tables_number   1
_chemical_formula_structural   Mn(PO3)2
_chemical_formula_sum   'Mn4 P8 O24'
_cell_volume   474.10470497
_cell_formula_units_Z   4
loop_
 _symmetry_equiv_pos_site_id
 _symmetry_equiv_pos_as_xyz
  1  'x, y, z'
loop_
 _atom_site_type_symbol
 _atom_site_label
 _atom_site_symmetry_multiplicity
 _atom_site_fract_x
 _atom_site_fract_y
 _atom_site_fract_z
 _atom_site_occupancy
  Mn  Mn0  1  0.50000000  0.50000000  0.50000000  1
  Mn  Mn1  1  0.50000000  0.00000000  0.00000000  1
  Mn  Mn2  1  0.29250007  0.54250007  0.75000000  1
  Mn  Mn3  1  0.70749993  0.45749993  0.25000000  1
  P  P4  1  0.49488268  0.18688913  0.69365069  1
  P  P5  1  0.99323845  0.80123200  0.80634931  1
  P  P6  1  0.50511732  0.81311087  0.30634931  1
  P  P7  1  0.00676155  0.19876800  0.19365069  1
  P  P8  1  0.23531512  0.77544353  0.47708030  1
  P  P9  1  0.79836322  0.75823481  0.02291970  1
  P  P10  1  0.76468488  0.22455647  0.52291970  1
  P  P11  1  0.20163678  0.24176519  0.97708030  1
  O  O12  1  0.69083333  0.19829940  0.65568095  1
  O  O13  1  0.04261846  0.03515238  0.84431905  1
  O  O14  1  0.30916667  0.80170060  0.34431905  1
  O  O15  1  0.95738154  0.96484762  0.15568095  1
  O  O16  1  0.29490460  0.00339713  0.56005160  1
  O  O17  1  0.94334554  0.73485300  0.93994840  1
  O  O18  1  0.70509540  0.99660287  0.43994840  1
  O  O19  1  0.05665446  0.26514700  0.06005160  1
  O  O20  1  0.53409991  0.14811912  0.83863854  1
  O  O21  1  0.80948057  0.69546137  0.66136146  1
  O  O22  1  0.46590009  0.85188088  0.16136146  1
  O  O23  1  0.19051943  0.30453863  0.33863854  1
  O  O24  1  0.45673503  0.37054604  0.67610332  1
  O  O25  1  0.19444272  0.78063170  0.82389668  1
  O  O26  1  0.54326497  0.62945396  0.32389668  1
  O  O27  1  0.80555728  0.21936830  0.17610332  1
  O  O28  1  0.36674049  0.69492776  0.57991456  1
  O  O29  1  0.61501320  0.78682593  0.92008544  1
  O  O30  1  0.63325951  0.30507224  0.42008544  1
  O  O31  1  0.38498680  0.21317407  0.07991456  1
  O  O32  1  0.99582614  0.33232610  0.58882402  1
  O  O33  1  0.24350208  0.40700212  0.91117598  1
  O  O34  1  0.00417386  0.66767390  0.41117598  1
  O  O35  1  0.75649792  0.59299788  0.08882402  1
