# generated using pymatgen
data_Na6Mg(SO4)4
_symmetry_space_group_name_H-M   'P 1'
_cell_length_a   8.31165613
_cell_length_b   9.28911580
_cell_length_c   9.91585259
_cell_angle_alpha   90.00000000
_cell_angle_beta   113.57778401
_cell_angle_gamma   90.00000000
_symmetry_Int_Tables_number   1
_chemical_formula_structural   Na6Mg(SO4)4
_chemical_formula_sum   'Na12 Mg2 S8 O32'
_cell_volume   701.67007368
_cell_formula_units_Z   2
loop_
 _symmetry_equiv_pos_site_id
 _symmetry_equiv_pos_as_xyz
  1  'x, y, z'
loop_
 _atom_site_type_symbol
 _atom_site_label
 _atom_site_symmetry_multiplicity
 _atom_site_fract_x
 _atom_site_fract_y
 _atom_site_fract_z
 _atom_site_occupancy
  Na  Na0  1  0.31687138  0.13716190  0.88906107  1
  Na  Na1  1  0.09002580  0.15109478  0.44764531  1
  Na  Na2  1  0.59002580  0.34890522  0.44764531  1
  Na  Na3  1  0.90997420  0.84890522  0.55235469  1
  Na  Na4  1  0.46719642  0.01508535  0.31154213  1
  Na  Na5  1  0.81687138  0.36283810  0.88906107  1
  Na  Na6  1  0.68312862  0.86283810  0.11093893  1
  Na  Na7  1  0.53280358  0.98491465  0.68845787  1
  Na  Na8  1  0.18312862  0.63716190  0.11093893  1
  Na  Na9  1  0.96719642  0.48491465  0.31154213  1
  Na  Na10  1  0.03280358  0.51508535  0.68845787  1
  Na  Na11  1  0.40997420  0.65109478  0.55235469  1
  Mg  Mg12  1  0.00000000  0.00000000  0.00000000  1
  Mg  Mg13  1  0.50000000  0.50000000  0.00000000  1
  S  S14  1  0.77535699  0.69426530  0.86021383  1
  S  S15  1  0.27535699  0.80573470  0.86021383  1
  S  S16  1  0.34668583  0.35277722  0.66204483  1
  S  S17  1  0.22464301  0.30573470  0.13978617  1
  S  S18  1  0.15331417  0.85277722  0.33795517  1
  S  S19  1  0.72464301  0.19426530  0.13978617  1
  S  S20  1  0.65331417  0.64722278  0.33795517  1
  S  S21  1  0.84668583  0.14722278  0.66204483  1
  O  O22  1  0.68135810  0.10309291  0.53715065  1
  O  O23  1  0.17943751  0.74478365  0.71095002  1
  O  O24  1  0.18135810  0.39690709  0.53715065  1
  O  O25  1  0.81864190  0.60309291  0.46284935  1
  O  O26  1  0.49872180  0.58406204  0.35426384  1
  O  O27  1  0.67943751  0.75521635  0.71095002  1
  O  O28  1  0.33327286  0.40626992  0.80097583  1
  O  O29  1  0.15721640  0.89534212  0.90580258  1
  O  O30  1  0.84278360  0.10465788  0.09419742  1
  O  O31  1  0.65721640  0.60465788  0.90580258  1
  O  O32  1  0.34278360  0.39534212  0.09419742  1
  O  O33  1  0.31864190  0.89690709  0.46284935  1
  O  O34  1  0.66672714  0.59373008  0.19902417  1
  O  O35  1  0.82056249  0.25521635  0.28904998  1
  O  O36  1  0.84433483  0.81532609  0.96931041  1
  O  O37  1  0.50127820  0.41593796  0.64573616  1
  O  O38  1  0.00127820  0.08406204  0.64573616  1
  O  O39  1  0.83327286  0.09373008  0.80097583  1
  O  O40  1  0.42480815  0.89677558  0.86476182  1
  O  O41  1  0.85949974  0.30713302  0.66902963  1
  O  O42  1  0.92480815  0.60322442  0.86476182  1
  O  O43  1  0.35949974  0.19286698  0.66902963  1
  O  O44  1  0.99872180  0.91593796  0.35426384  1
  O  O45  1  0.32056249  0.24478365  0.28904998  1
  O  O46  1  0.16672714  0.90626992  0.19902417  1
  O  O47  1  0.57519185  0.10322442  0.13523818  1
  O  O48  1  0.14050026  0.69286698  0.33097037  1
  O  O49  1  0.15566517  0.18467391  0.03068959  1
  O  O50  1  0.65566517  0.31532609  0.03068959  1
  O  O51  1  0.07519185  0.39677558  0.13523818  1
  O  O52  1  0.34433483  0.68467391  0.96931041  1
  O  O53  1  0.64050026  0.80713302  0.33097037  1
