# generated using pymatgen
data_Na4Li5(BO3)3
_symmetry_space_group_name_H-M   'P 1'
_cell_length_a   7.29891445
_cell_length_b   7.29891455
_cell_length_c   9.87367684
_cell_angle_alpha   75.09956648
_cell_angle_beta   75.09956626
_cell_angle_gamma   61.09429516
_symmetry_Int_Tables_number   1
_chemical_formula_structural   Na4Li5(BO3)3
_chemical_formula_sum   'Na8 Li10 B6 O18'
_cell_volume   439.47444428
_cell_formula_units_Z   2
loop_
 _symmetry_equiv_pos_site_id
 _symmetry_equiv_pos_as_xyz
  1  'x, y, z'
loop_
 _atom_site_type_symbol
 _atom_site_label
 _atom_site_symmetry_multiplicity
 _atom_site_fract_x
 _atom_site_fract_y
 _atom_site_fract_z
 _atom_site_occupancy
  Na  Na0  1  0.87870212  0.36659249  0.48360275  1
  Na  Na1  1  0.22278775  0.33358768  0.78696640  1
  Na  Na2  1  0.66641232  0.77721225  0.71303360  1
  Na  Na3  1  0.63340751  0.12129788  0.01639725  1
  Na  Na4  1  0.33358768  0.22278775  0.28696640  1
  Na  Na5  1  0.77721225  0.66641232  0.21303360  1
  Na  Na6  1  0.36659249  0.87870212  0.98360275  1
  Na  Na7  1  0.12129788  0.63340751  0.51639725  1
  Li  Li8  1  0.01270052  0.07725719  0.86066575  1
  Li  Li9  1  0.27697662  0.72302338  0.75000000  1
  Li  Li10  1  0.70456975  0.48206464  0.98792152  1
  Li  Li11  1  0.92274281  0.98729948  0.63933425  1
  Li  Li12  1  0.51793536  0.29543025  0.51207848  1
  Li  Li13  1  0.72302338  0.27697662  0.25000000  1
  Li  Li14  1  0.07725719  0.01270052  0.36066575  1
  Li  Li15  1  0.48206464  0.70456975  0.48792152  1
  Li  Li16  1  0.29543025  0.51793536  0.01207848  1
  Li  Li17  1  0.98729948  0.92274281  0.13933425  1
  B  B18  1  0.60413296  0.39586704  0.75000000  1
  B  B19  1  0.39586704  0.60413296  0.25000000  1
  B  B20  1  0.25115273  0.08355424  0.59686484  1
  B  B21  1  0.08355424  0.25115273  0.09686484  1
  B  B22  1  0.91644576  0.74884727  0.90313516  1
  B  B23  1  0.74884727  0.91644576  0.40313516  1
  O  O24  1  0.79176141  0.03190800  0.47503757  1
  O  O25  1  0.96809200  0.20823859  0.02496243  1
  O  O26  1  0.53278521  0.52153955  0.85486563  1
  O  O27  1  0.00122949  0.29057284  0.23673529  1
  O  O28  1  0.20823859  0.96809200  0.52496243  1
  O  O29  1  0.29057284  0.00122949  0.73673529  1
  O  O30  1  0.75133795  0.72372462  0.46978564  1
  O  O31  1  0.27627538  0.24866205  0.03021436  1
  O  O32  1  0.79035724  0.20964276  0.75000000  1
  O  O33  1  0.47846045  0.46721479  0.64513437  1
  O  O34  1  0.03190800  0.79176141  0.97503757  1
  O  O35  1  0.52153955  0.53278521  0.35486563  1
  O  O36  1  0.46721479  0.47846045  0.14513437  1
  O  O37  1  0.20964276  0.79035724  0.25000000  1
  O  O38  1  0.99877051  0.70942716  0.76326471  1
  O  O39  1  0.70942716  0.99877051  0.26326471  1
  O  O40  1  0.72372462  0.75133795  0.96978564  1
  O  O41  1  0.24866205  0.27627538  0.53021436  1
