# generated using pymatgen
data_NaZr2VF11
_symmetry_space_group_name_H-M   'P 1'
_cell_length_a   5.80239932
_cell_length_b   5.80239940
_cell_length_c   7.93098800
_cell_angle_alpha   69.28455773
_cell_angle_beta   69.28455748
_cell_angle_gamma   72.83323889
_symmetry_Int_Tables_number   1
_chemical_formula_structural   NaZr2VF11
_chemical_formula_sum   'Na1 Zr2 V1 F11'
_cell_volume   229.15471215
_cell_formula_units_Z   1
loop_
 _symmetry_equiv_pos_site_id
 _symmetry_equiv_pos_as_xyz
  1  'x, y, z'
loop_
 _atom_site_type_symbol
 _atom_site_label
 _atom_site_symmetry_multiplicity
 _atom_site_fract_x
 _atom_site_fract_y
 _atom_site_fract_z
 _atom_site_occupancy
  Na  Na0  1  0.00000000  0.00000000  0.00000000  1
  Zr  Zr1  1  0.50425530  0.50425530  0.76531252  1
  Zr  Zr2  1  0.49574470  0.49574470  0.23468748  1
  V  V3  1  0.00000000  0.00000000  0.50000000  1
  F  F4  1  0.80548896  0.22107050  0.69194115  1
  F  F5  1  0.77892950  0.19451104  0.30805885  1
  F  F6  1  0.19451104  0.77892950  0.30805885  1
  F  F7  1  0.22107050  0.80548896  0.69194115  1
  F  F8  1  0.50000000  0.50000000  0.50000000  1
  F  F9  1  0.33015079  0.66984921  0.00000000  1
  F  F10  1  0.66984921  0.33015079  1.00000000  1
  F  F11  1  0.25138436  0.25138436  0.35328403  1
  F  F12  1  0.74861564  0.74861564  0.64671597  1
  F  F13  1  0.26749410  0.26749410  0.88973296  1
  F  F14  1  0.73250590  0.73250590  0.11026704  1
