# generated using pymatgen
data_K3CuP2S7
_symmetry_space_group_name_H-M   'P 1'
_cell_length_a   6.76311466
_cell_length_b   13.41185955
_cell_length_c   15.36449861
_cell_angle_alpha   98.58378603
_cell_angle_beta   90.00000000
_cell_angle_gamma   90.00000000
_symmetry_Int_Tables_number   1
_chemical_formula_structural   K3CuP2S7
_chemical_formula_sum   'K12 Cu4 P8 S28'
_cell_volume   1378.04058417
_cell_formula_units_Z   4
loop_
 _symmetry_equiv_pos_site_id
 _symmetry_equiv_pos_as_xyz
  1  'x, y, z'
loop_
 _atom_site_type_symbol
 _atom_site_label
 _atom_site_symmetry_multiplicity
 _atom_site_fract_x
 _atom_site_fract_y
 _atom_site_fract_z
 _atom_site_occupancy
  K  K0  1  0.77932823  0.09648026  0.47252341  1
  K  K1  1  0.22067177  0.90351974  0.52747659  1
  K  K2  1  0.23954636  0.18330234  0.30090827  1
  K  K3  1  0.73954636  0.31669766  0.69909173  1
  K  K4  1  0.65112518  0.15718787  0.07181091  1
  K  K5  1  0.72067177  0.59648026  0.47252341  1
  K  K6  1  0.15112518  0.34281213  0.92818909  1
  K  K7  1  0.34887482  0.84281213  0.92818909  1
  K  K8  1  0.76045364  0.81669766  0.69909173  1
  K  K9  1  0.27932823  0.40351974  0.52747659  1
  K  K10  1  0.84887482  0.65718787  0.07181091  1
  K  K11  1  0.26045364  0.68330234  0.30090827  1
  Cu  Cu12  1  0.51980748  0.56622941  0.80360852  1
  Cu  Cu13  1  0.01980748  0.93377059  0.19639148  1
  Cu  Cu14  1  0.48019252  0.43377059  0.19639148  1
  Cu  Cu15  1  0.98019252  0.06622941  0.80360852  1
  P  P16  1  0.25993832  0.66839572  0.64645327  1
  P  P17  1  0.00044744  0.61395526  0.83738877  1
  P  P18  1  0.49955256  0.11395526  0.83738877  1
  P  P19  1  0.50044744  0.88604474  0.16261123  1
  P  P20  1  0.75993832  0.83160428  0.35354673  1
  P  P21  1  0.24006168  0.16839572  0.64645327  1
  P  P22  1  0.74006168  0.33160428  0.35354673  1
  P  P23  1  0.99955256  0.38604474  0.16261123  1
  S  S24  1  0.48219496  0.08682199  0.69386067  1
  S  S25  1  0.80616454  0.35282664  0.48417141  1
  S  S26  1  0.51780504  0.91317801  0.30613933  1
  S  S27  1  0.26412988  0.58301068  0.89439542  1
  S  S28  1  0.76412988  0.91698932  0.10560458  1
  S  S29  1  0.26359974  0.81236965  0.70540557  1
  S  S30  1  0.01955589  0.90663347  0.33530151  1
  S  S31  1  0.19383546  0.64717336  0.51582859  1
  S  S32  1  0.69383546  0.85282664  0.48417141  1
  S  S33  1  0.48044411  0.40663347  0.33530151  1
  S  S34  1  0.73640026  0.18763035  0.29459443  1
  S  S35  1  0.39944382  0.74734525  0.11749275  1
  S  S36  1  0.20219455  0.49446385  0.14139668  1
  S  S37  1  0.29780545  0.99446385  0.14139668  1
  S  S38  1  0.10055618  0.24734525  0.11749275  1
  S  S39  1  0.73587012  0.41698932  0.10560458  1
  S  S40  1  0.76359974  0.68763035  0.29459443  1
  S  S41  1  0.60055618  0.25265475  0.88250725  1
  S  S42  1  0.89944382  0.75265475  0.88250725  1
  S  S43  1  0.98219496  0.41317801  0.30613933  1
  S  S44  1  0.23640026  0.31236965  0.70540557  1
  S  S45  1  0.51955589  0.59336653  0.66469849  1
  S  S46  1  0.23587012  0.08301068  0.89439542  1
  S  S47  1  0.01780504  0.58682199  0.69386067  1
  S  S48  1  0.98044411  0.09336653  0.66469849  1
  S  S49  1  0.79780545  0.50553615  0.85860332  1
  S  S50  1  0.30616454  0.14717336  0.51582859  1
  S  S51  1  0.70219455  0.00553615  0.85860332  1
