# generated using pymatgen
data_K2P2O5F2
_symmetry_space_group_name_H-M   'P 1'
_cell_length_a   7.35508703
_cell_length_b   7.51925307
_cell_length_c   7.51925261
_cell_angle_alpha   61.99240222
_cell_angle_beta   89.39845299
_cell_angle_gamma   89.39845780
_symmetry_Int_Tables_number   1
_chemical_formula_structural   K2P2O5F2
_chemical_formula_sum   'K4 P4 O10 F4'
_cell_volume   367.12073809
_cell_formula_units_Z   2
loop_
 _symmetry_equiv_pos_site_id
 _symmetry_equiv_pos_as_xyz
  1  'x, y, z'
loop_
 _atom_site_type_symbol
 _atom_site_label
 _atom_site_symmetry_multiplicity
 _atom_site_fract_x
 _atom_site_fract_y
 _atom_site_fract_z
 _atom_site_occupancy
  K  K0  1  0.36182763  0.50011439  0.21957633  1
  K  K1  1  0.63817237  0.49988561  0.78042367  1
  K  K2  1  0.86182763  0.21957633  0.50011439  1
  K  K3  1  0.13817237  0.78042367  0.49988561  1
  P  P4  1  0.35588698  0.10451671  0.70184127  1
  P  P5  1  0.85588698  0.70184127  0.10451671  1
  P  P6  1  0.64411302  0.89548329  0.29815873  1
  P  P7  1  0.14411302  0.29815873  0.89548329  1
  O  O8  1  0.51816199  0.23896433  0.63922937  1
  O  O9  1  0.48183801  0.76103567  0.36077063  1
  O  O10  1  0.75000000  0.89007779  0.10992221  1
  O  O11  1  0.98183801  0.36077063  0.76103567  1
  O  O12  1  0.01816199  0.63922937  0.23896433  1
  O  O13  1  0.27533614  0.45461702  0.88293875  1
  O  O14  1  0.72466386  0.54538298  0.11706125  1
  O  O15  1  0.22466386  0.11706125  0.54538298  1
  O  O16  1  0.77533614  0.88293875  0.45461702  1
  O  O17  1  0.25000000  0.10992221  0.89007779  1
  F  F18  1  0.42383611  0.87558864  0.82296172  1
  F  F19  1  0.57616389  0.12441136  0.17703828  1
  F  F20  1  0.92383611  0.82296172  0.87558864  1
  F  F21  1  0.07616389  0.17703828  0.12441136  1
