# generated using pymatgen
data_La3NbSe2(O2F)2
_symmetry_space_group_name_H-M   'P 1'
_cell_length_a   4.02929539
_cell_length_b   11.42458742
_cell_length_c   18.26168420
_cell_angle_alpha   90.00000000
_cell_angle_beta   90.00000000
_cell_angle_gamma   90.00000000
_symmetry_Int_Tables_number   1
_chemical_formula_structural   La3NbSe2(O2F)2
_chemical_formula_sum   'La12 Nb4 Se8 O16 F8'
_cell_volume   840.64079220
_cell_formula_units_Z   4
loop_
 _symmetry_equiv_pos_site_id
 _symmetry_equiv_pos_as_xyz
  1  'x, y, z'
loop_
 _atom_site_type_symbol
 _atom_site_label
 _atom_site_symmetry_multiplicity
 _atom_site_fract_x
 _atom_site_fract_y
 _atom_site_fract_z
 _atom_site_occupancy
  La  La0  1  0.75000000  0.20623587  0.03181002  1
  La  La1  1  0.75000000  0.99621591  0.60664373  1
  La  La2  1  0.25000000  0.29376413  0.53181002  1
  La  La3  1  0.25000000  0.56638276  0.69848003  1
  La  La4  1  0.75000000  0.93361724  0.19848003  1
  La  La5  1  0.75000000  0.49621591  0.89335627  1
  La  La6  1  0.25000000  0.79376413  0.96818998  1
  La  La7  1  0.25000000  0.00378409  0.39335627  1
  La  La8  1  0.75000000  0.43361724  0.30151997  1
  La  La9  1  0.25000000  0.06638276  0.80151997  1
  La  La10  1  0.75000000  0.70623587  0.46818998  1
  La  La11  1  0.25000000  0.50378409  0.10664373  1
  Nb  Nb12  1  0.25000000  0.19221814  0.19511650  1
  Nb  Nb13  1  0.75000000  0.80778186  0.80488350  1
  Nb  Nb14  1  0.25000000  0.69221814  0.30488350  1
  Nb  Nb15  1  0.75000000  0.30778186  0.69511650  1
  Se  Se16  1  0.25000000  0.28446681  0.90857980  1
  Se  Se17  1  0.75000000  0.49342450  0.57969611  1
  Se  Se18  1  0.75000000  0.99342450  0.92030389  1
  Se  Se19  1  0.75000000  0.71553319  0.09142020  1
  Se  Se20  1  0.75000000  0.21553319  0.40857980  1
  Se  Se21  1  0.25000000  0.00657550  0.07969611  1
  Se  Se22  1  0.25000000  0.78446681  0.59142020  1
  Se  Se23  1  0.25000000  0.50657550  0.42030389  1
  O  O24  1  0.25000000  0.33020758  0.67894215  1
  O  O25  1  0.75000000  0.44778970  0.75502269  1
  O  O26  1  0.25000000  0.55221030  0.24497731  1
  O  O27  1  0.25000000  0.83020758  0.82105785  1
  O  O28  1  0.75000000  0.68569014  0.73860069  1
  O  O29  1  0.25000000  0.31430986  0.26139931  1
  O  O30  1  0.75000000  0.71786800  0.90121259  1
  O  O31  1  0.75000000  0.21786800  0.59878741  1
  O  O32  1  0.25000000  0.81430986  0.23860069  1
  O  O33  1  0.25000000  0.78213200  0.40121259  1
  O  O34  1  0.75000000  0.18569014  0.76139931  1
  O  O35  1  0.75000000  0.66979242  0.32105785  1
  O  O36  1  0.75000000  0.94778970  0.74497731  1
  O  O37  1  0.25000000  0.28213200  0.09878741  1
  O  O38  1  0.75000000  0.16979242  0.17894215  1
  O  O39  1  0.25000000  0.05221030  0.25502269  1
  F  F40  1  0.75000000  0.93032095  0.47376805  1
  F  F41  1  0.25000000  0.06967905  0.52623195  1
  F  F42  1  0.25000000  0.56967905  0.97376805  1
  F  F43  1  0.75000000  0.43032095  0.02623195  1
  F  F44  1  0.25000000  0.56185449  0.83151481  1
  F  F45  1  0.75000000  0.93814551  0.33151481  1
  F  F46  1  0.75000000  0.43814551  0.16848519  1
  F  F47  1  0.25000000  0.06185449  0.66848519  1
