# generated using pymatgen
data_KTiO3
_symmetry_space_group_name_H-M   'P 1'
_cell_length_a   5.79845916
_cell_length_b   5.79885042
_cell_length_c   9.65299680
_cell_angle_alpha   90.00000000
_cell_angle_beta   90.00000000
_cell_angle_gamma   119.99776161
_symmetry_Int_Tables_number   1
_chemical_formula_structural   KTiO3
_chemical_formula_sum   'K4 Ti4 O12'
_cell_volume   281.09757448
_cell_formula_units_Z   4
loop_
 _symmetry_equiv_pos_site_id
 _symmetry_equiv_pos_as_xyz
  1  'x, y, z'
loop_
 _atom_site_type_symbol
 _atom_site_label
 _atom_site_symmetry_multiplicity
 _atom_site_fract_x
 _atom_site_fract_y
 _atom_site_fract_z
 _atom_site_occupancy
  K  K0  1  -0.00000000  0.00000000  0.50000000  1
  K  K1  1  -0.00000000  0.00000000  -0.00000000  1
  K  K2  1  0.66670286  0.33340572  0.25000000  1
  K  K3  1  0.33329714  0.66659428  0.75000000  1
  Ti  Ti4  1  0.33331388  0.66662775  0.40604920  1
  Ti  Ti5  1  0.66668612  0.33337225  0.59395080  1
  Ti  Ti6  1  0.66668612  0.33337225  0.90604920  1
  Ti  Ti7  1  0.33331388  0.66662775  0.09395080  1
  O  O8  1  0.50000000  0.50000000  0.50000000  1
  O  O9  1  0.50000000  0.00000000  0.50000000  1
  O  O10  1  -0.00000000  0.50000000  0.50000000  1
  O  O11  1  0.50000000  0.50000000  -0.00000000  1
  O  O12  1  0.50000000  0.00000000  -0.00000000  1
  O  O13  1  -0.00000000  0.50000000  -0.00000000  1
  O  O14  1  0.19513653  0.80479980  0.25000000  1
  O  O15  1  0.19520051  0.39040102  0.25000000  1
  O  O16  1  0.60966327  0.80479980  0.25000000  1
  O  O17  1  0.80486347  0.19520020  0.75000000  1
  O  O18  1  0.80479949  0.60959898  0.75000000  1
  O  O19  1  0.39033673  0.19520020  0.75000000  1
