# generated using pymatgen
data_GdP5O14
_symmetry_space_group_name_H-M   'P 1'
_cell_length_a   8.85684283
_cell_length_b   9.06424151
_cell_length_c   13.06330427
_cell_angle_alpha   90.00000000
_cell_angle_beta   90.40815712
_cell_angle_gamma   90.00000000
_symmetry_Int_Tables_number   1
_chemical_formula_structural   GdP5O14
_chemical_formula_sum   'Gd4 P20 O56'
_cell_volume   1048.70280444
_cell_formula_units_Z   4
loop_
 _symmetry_equiv_pos_site_id
 _symmetry_equiv_pos_as_xyz
  1  'x, y, z'
loop_
 _atom_site_type_symbol
 _atom_site_label
 _atom_site_symmetry_multiplicity
 _atom_site_fract_x
 _atom_site_fract_y
 _atom_site_fract_z
 _atom_site_occupancy
  Gd  Gd0  1  0.27720208  0.31165068  0.99882800  1
  Gd  Gd1  1  0.72279792  0.81165068  0.50117200  1
  Gd  Gd2  1  0.72279792  0.68834932  0.00117200  1
  Gd  Gd3  1  0.27720208  0.18834932  0.49882800  1
  P  P4  1  0.49313996  0.99534043  0.29864517  1
  P  P5  1  0.68381790  0.24492195  0.50013611  1
  P  P6  1  0.00554416  0.49745302  0.17205275  1
  P  P7  1  0.22886730  0.95009067  0.16403186  1
  P  P8  1  0.99445584  0.99745302  0.32794725  1
  P  P9  1  0.31618210  0.75507805  0.49986389  1
  P  P10  1  0.31618210  0.74492195  0.99986389  1
  P  P11  1  0.77113270  0.04990933  0.83596814  1
  P  P12  1  0.50686004  0.49534043  0.20135483  1
  P  P13  1  0.75573916  0.45387162  0.66499779  1
  P  P14  1  0.99445584  0.50254698  0.82794725  1
  P  P15  1  0.24426084  0.54612838  0.33500221  1
  P  P16  1  0.77113270  0.45009067  0.33596814  1
  P  P17  1  0.75573916  0.04612838  0.16499779  1
  P  P18  1  0.49313996  0.50465957  0.79864517  1
  P  P19  1  0.68381790  0.25507805  0.00013611  1
  P  P20  1  0.24426084  0.95387162  0.83500221  1
  P  P21  1  0.00554416  0.00254698  0.67205275  1
  P  P22  1  0.22886730  0.54990933  0.66403186  1
  P  P23  1  0.50686004  0.00465957  0.70135483  1
  O  O24  1  0.86879743  0.41990718  0.75553284  1
  O  O25  1  0.91634445  0.88441914  0.62081362  1
  O  O26  1  0.52954351  0.18911292  0.99564130  1
  O  O27  1  0.20932117  0.68576202  0.58973045  1
  O  O28  1  0.90632940  0.08211944  0.76142583  1
  O  O29  1  0.23218859  0.09649398  0.11481732  1
  O  O30  1  0.22284856  0.40525886  0.38986673  1
  O  O31  1  0.09367060  0.58211944  0.73857417  1
  O  O32  1  0.40612513  0.92624158  0.78911647  1
  O  O33  1  0.77790926  0.30979578  0.59888211  1
  O  O34  1  0.71105756  0.41685677  0.99970654  1
  O  O35  1  0.58831020  0.61609923  0.14794394  1
  O  O36  1  0.91634445  0.61558086  0.12081362  1
  O  O37  1  0.92013421  0.62267755  0.88676122  1
  O  O38  1  0.76781141  0.90350602  0.88518268  1
  O  O39  1  0.59387487  0.07375842  0.21088353  1
  O  O40  1  0.92013421  0.87732245  0.38676122  1
  O  O41  1  0.47045649  0.68911292  0.50435870  1
  O  O42  1  0.41407924  0.11706116  0.64673833  1
  O  O43  1  0.58831020  0.88390077  0.64794394  1
  O  O44  1  0.40612513  0.57375842  0.28911647  1
  O  O45  1  0.58592076  0.88293884  0.35326167  1
  O  O46  1  0.76781141  0.59649398  0.38518268  1
  O  O47  1  0.90632940  0.41788056  0.26142583  1
  O  O48  1  0.37496086  0.59602605  0.72715876  1
  O  O49  1  0.28894244  0.58314323  0.00029346  1
  O  O50  1  0.77715144  0.90525886  0.11013327  1
  O  O51  1  0.13120257  0.91990718  0.74446716  1
  O  O52  1  0.52954351  0.31088708  0.49564130  1
  O  O53  1  0.77790926  0.19020422  0.09888211  1
  O  O54  1  0.22284856  0.09474114  0.88986673  1
  O  O55  1  0.22209074  0.80979578  0.90111789  1
  O  O56  1  0.23218859  0.40350602  0.61481732  1
  O  O57  1  0.79067883  0.18576202  0.91026955  1
  O  O58  1  0.47045649  0.81088708  0.00435870  1
  O  O59  1  0.22209074  0.69020422  0.40111789  1
  O  O60  1  0.59387487  0.42624158  0.71088353  1
  O  O61  1  0.86879743  0.08009282  0.25553284  1
  O  O62  1  0.08365555  0.38441914  0.87918638  1
  O  O63  1  0.41168980  0.38390077  0.85205606  1
  O  O64  1  0.79067883  0.31423798  0.41026955  1
  O  O65  1  0.20932117  0.81423798  0.08973045  1
  O  O66  1  0.41407924  0.38293884  0.14673833  1
  O  O67  1  0.08365555  0.11558086  0.37918638  1
  O  O68  1  0.62503914  0.40397395  0.27284124  1
  O  O69  1  0.07986579  0.12267755  0.61323878  1
  O  O70  1  0.58592076  0.61706116  0.85326167  1
  O  O71  1  0.37496086  0.90397395  0.22715876  1
  O  O72  1  0.41168980  0.11609923  0.35205606  1
  O  O73  1  0.77715144  0.59474114  0.61013327  1
  O  O74  1  0.28894244  0.91685677  0.50029346  1
  O  O75  1  0.62503914  0.09602605  0.77284124  1
  O  O76  1  0.71105756  0.08314323  0.49970654  1
  O  O77  1  0.13120257  0.58009282  0.24446716  1
  O  O78  1  0.07986579  0.37732245  0.11323878  1
  O  O79  1  0.09367060  0.91788056  0.23857417  1
