# generated using pymatgen
data_Yb(IO3)3
_symmetry_space_group_name_H-M   'P 1'
_cell_length_a   6.11836150
_cell_length_b   8.91783306
_cell_length_c   15.04184994
_cell_angle_alpha   97.30100902
_cell_angle_beta   90.00000000
_cell_angle_gamma   90.00000000
_symmetry_Int_Tables_number   1
_chemical_formula_structural   Yb(IO3)3
_chemical_formula_sum   'Yb4 I12 O36'
_cell_volume   814.06709516
_cell_formula_units_Z   4
loop_
 _symmetry_equiv_pos_site_id
 _symmetry_equiv_pos_as_xyz
  1  'x, y, z'
loop_
 _atom_site_type_symbol
 _atom_site_label
 _atom_site_symmetry_multiplicity
 _atom_site_fract_x
 _atom_site_fract_y
 _atom_site_fract_z
 _atom_site_occupancy
  Yb  Yb0  1  0.72689877  0.53878416  0.89361064  1
  Yb  Yb1  1  0.77310123  0.03878416  0.39361064  1
  Yb  Yb2  1  0.22689877  0.96121584  0.60638936  1
  Yb  Yb3  1  0.27310123  0.46121584  0.10638936  1
  I  I4  1  0.64194545  0.16316750  0.02345223  1
  I  I5  1  0.35805455  0.83683250  0.97654777  1
  I  I6  1  0.69215783  0.20982474  0.64938965  1
  I  I7  1  0.30784217  0.79017526  0.35061035  1
  I  I8  1  0.09426417  0.11337151  0.19595576  1
  I  I9  1  0.85805455  0.66316750  0.52345223  1
  I  I10  1  0.59426417  0.38662849  0.30404424  1
  I  I11  1  0.14194545  0.33683250  0.47654777  1
  I  I12  1  0.80784217  0.70982474  0.14938965  1
  I  I13  1  0.19215783  0.29017526  0.85061035  1
  I  I14  1  0.40573583  0.61337151  0.69595576  1
  I  I15  1  0.90573583  0.88662849  0.80404424  1
  O  O16  1  0.90463960  0.05156011  0.89112758  1
  O  O17  1  0.99545953  0.73645538  0.87019048  1
  O  O18  1  0.04995763  0.63445676  0.20038069  1
  O  O19  1  0.07908321  0.58362370  0.44366127  1
  O  O20  1  0.68229140  0.58321946  0.73799008  1
  O  O21  1  0.60550887  0.56705227  0.17539836  1
  O  O22  1  0.03039652  0.72842357  0.62061931  1
  O  O23  1  0.96960348  0.27157643  0.37938069  1
  O  O24  1  0.62837417  0.34488538  0.97775978  1
  O  O25  1  0.92091679  0.41637630  0.55633873  1
  O  O26  1  0.42091679  0.08362370  0.94366127  1
  O  O27  1  0.31770860  0.41678054  0.26200992  1
  O  O28  1  0.95004237  0.36554324  0.79961931  1
  O  O29  1  0.53039652  0.77157643  0.87938069  1
  O  O30  1  0.12912418  0.36791557  0.96566807  1
  O  O31  1  0.40463960  0.44843989  0.60887242  1
  O  O32  1  0.59536040  0.55156011  0.39112758  1
  O  O33  1  0.10550887  0.93294773  0.32460164  1
  O  O34  1  0.49545953  0.76354462  0.62980952  1
  O  O35  1  0.87087582  0.63208443  0.03433193  1
  O  O36  1  0.81770860  0.08321946  0.23799008  1
  O  O37  1  0.87162583  0.84488538  0.47775978  1
  O  O38  1  0.57908321  0.91637630  0.05633873  1
  O  O39  1  0.09536040  0.94843989  0.10887242  1
  O  O40  1  0.00454047  0.26354462  0.12980952  1
  O  O41  1  0.89449113  0.06705227  0.67539836  1
  O  O42  1  0.45004237  0.13445676  0.70038069  1
  O  O43  1  0.50454047  0.23645538  0.37019048  1
  O  O44  1  0.39449113  0.43294773  0.82460164  1
  O  O45  1  0.46960348  0.22842357  0.12061931  1
  O  O46  1  0.54995763  0.86554324  0.29961931  1
  O  O47  1  0.62912418  0.13208443  0.53433193  1
  O  O48  1  0.37087582  0.86791557  0.46566807  1
  O  O49  1  0.37162583  0.65511462  0.02224022  1
  O  O50  1  0.12837417  0.15511462  0.52224022  1
  O  O51  1  0.18229140  0.91678054  0.76200992  1
