# generated using pymatgen
data_LaAg(PO3)4
_symmetry_space_group_name_H-M   'P 1'
_cell_length_a   7.40868129
_cell_length_b   10.18089843
_cell_length_c   13.41333869
_cell_angle_alpha   90.00000000
_cell_angle_beta   90.00000000
_cell_angle_gamma   90.35783160
_symmetry_Int_Tables_number   1
_chemical_formula_structural   LaAg(PO3)4
_chemical_formula_sum   'La4 Ag4 P16 O48'
_cell_volume   1011.70859245
_cell_formula_units_Z   4
loop_
 _symmetry_equiv_pos_site_id
 _symmetry_equiv_pos_as_xyz
  1  'x, y, z'
loop_
 _atom_site_type_symbol
 _atom_site_label
 _atom_site_symmetry_multiplicity
 _atom_site_fract_x
 _atom_site_fract_y
 _atom_site_fract_z
 _atom_site_occupancy
  La  La0  1  0.98675437  0.52293242  0.71707917  1
  La  La1  1  0.48675437  0.02293242  0.78292083  1
  La  La2  1  0.51324563  0.97706758  0.21707917  1
  La  La3  1  0.01324563  0.47706758  0.28292083  1
  Ag  Ag4  1  0.49954865  0.56742682  0.27792111  1
  Ag  Ag5  1  -0.00045135  0.06742682  0.22207889  1
  Ag  Ag6  1  0.50045135  0.43257318  0.72207889  1
  Ag  Ag7  1  1.00045135  0.93257318  0.77792111  1
  P  P8  1  0.11947486  0.23742692  0.88677000  1
  P  P9  1  0.88052514  0.76257308  0.11323000  1
  P  P10  1  0.25334271  0.24576637  0.09814138  1
  P  P11  1  0.24665729  0.25423363  0.59814138  1
  P  P12  1  0.38052514  0.26257308  0.38677000  1
  P  P13  1  0.23356404  0.80143816  0.58876183  1
  P  P14  1  0.35622078  0.69397164  0.87405356  1
  P  P15  1  0.73356404  0.30143816  0.91123817  1
  P  P16  1  0.75334271  0.74576637  0.40185862  1
  P  P17  1  0.85622078  0.19397164  0.62594644  1
  P  P18  1  0.64377922  0.30602836  0.12594644  1
  P  P19  1  0.14377922  0.80602836  0.37405356  1
  P  P20  1  0.76643596  0.19856184  0.41123817  1
  P  P21  1  0.61947486  0.73742692  0.61323000  1
  P  P22  1  0.26643596  0.69856184  0.08876183  1
  P  P23  1  0.74665729  0.75423363  0.90185862  1
  O  O24  1  0.70711251  0.89902974  0.89627846  1
  O  O25  1  0.89689645  0.70328300  0.83630156  1
  O  O26  1  0.07016039  0.16565240  0.61925745  1
  O  O27  1  0.92096902  0.29095100  0.39128759  1
  O  O28  1  0.23700464  0.58474077  0.15874617  1
  O  O29  1  0.07903098  0.70904900  0.60871241  1
  O  O30  1  0.79288749  0.60097026  0.39627846  1
  O  O31  1  0.21740780  0.86446183  0.47839653  1
  O  O32  1  0.10310355  0.29671700  0.16369844  1
  O  O33  1  0.91348291  0.21331014  0.92152413  1
  O  O34  1  0.78602782  0.70730707  0.01416242  1
  O  O35  1  0.21403774  0.89541277  0.29323423  1
  O  O36  1  0.69410290  0.60516209  0.64129369  1
  O  O37  1  0.08651709  0.78668986  0.07847587  1
  O  O38  1  0.67732284  0.16104520  0.13289667  1
  O  O39  1  0.28602782  0.20730707  0.48583758  1
  O  O40  1  0.21397218  0.29269293  0.98583758  1
  O  O41  1  0.78259220  0.13553817  0.52160347  1
  O  O42  1  0.32267716  0.83895480  0.86710333  1
  O  O43  1  0.63012496  0.84583431  0.68847329  1
  O  O44  1  0.17732284  0.66104520  0.36710333  1
  O  O45  1  0.28259220  0.63553817  0.97839653  1
  O  O46  1  0.60310355  0.79671700  0.33630156  1
  O  O47  1  0.71403774  0.39541277  0.20676577  1
  O  O48  1  0.86987504  0.65416569  0.18847329  1
  O  O49  1  0.13012496  0.34583431  0.81152671  1
  O  O50  1  0.78596226  0.10458723  0.70676577  1
  O  O51  1  0.80589710  0.89483791  0.14129369  1
  O  O52  1  0.73700464  0.08474077  0.34125383  1
  O  O53  1  0.20711251  0.39902974  0.60372154  1
  O  O54  1  0.82267716  0.33895480  0.63289667  1
  O  O55  1  0.42096902  0.79095100  0.10871241  1
  O  O56  1  0.71740780  0.36446183  0.02160347  1
  O  O57  1  0.19410290  0.10516209  0.85870631  1
  O  O58  1  0.36987504  0.15416569  0.31152671  1
  O  O59  1  0.26299536  0.91525923  0.65874617  1
  O  O60  1  0.41348291  0.71331014  0.57847587  1
  O  O61  1  0.76299536  0.41525923  0.84125383  1
  O  O62  1  0.30589710  0.39483791  0.35870631  1
  O  O63  1  0.39689645  0.20328300  0.66369844  1
  O  O64  1  0.92983961  0.83434760  0.38074255  1
  O  O65  1  0.29288749  0.10097026  0.10372154  1
  O  O66  1  0.71397218  0.79269293  0.51416242  1
  O  O67  1  0.42983961  0.33434760  0.11925745  1
  O  O68  1  0.28596226  0.60458723  0.79323423  1
  O  O69  1  0.57903098  0.20904900  0.89128759  1
  O  O70  1  0.57016039  0.66565240  0.88074255  1
  O  O71  1  0.58651709  0.28668986  0.42152413  1
