# generated using pymatgen
data_SrFe2(PO4)2
_symmetry_space_group_name_H-M   'P 1'
_cell_length_a   6.95984645
_cell_length_b   9.53211387
_cell_length_c   10.69631532
_cell_angle_alpha   109.79189876
_cell_angle_beta   90.00000000
_cell_angle_gamma   90.00000000
_symmetry_Int_Tables_number   1
_chemical_formula_structural   SrFe2(PO4)2
_chemical_formula_sum   'Sr4 Fe8 P8 O32'
_cell_volume   667.69753320
_cell_formula_units_Z   4
loop_
 _symmetry_equiv_pos_site_id
 _symmetry_equiv_pos_as_xyz
  1  'x, y, z'
loop_
 _atom_site_type_symbol
 _atom_site_label
 _atom_site_symmetry_multiplicity
 _atom_site_fract_x
 _atom_site_fract_y
 _atom_site_fract_z
 _atom_site_occupancy
  Sr  Sr0  1  0.88025924  0.69500290  0.98245956  1
  Sr  Sr1  1  0.38025924  0.30499710  0.51754044  1
  Sr  Sr2  1  0.11974076  0.30499710  0.01754044  1
  Sr  Sr3  1  0.61974076  0.69500290  0.48245956  1
  Fe  Fe4  1  0.34847202  0.92050445  0.88216508  1
  Fe  Fe5  1  0.84847202  0.07949555  0.61783492  1
  Fe  Fe6  1  0.65152798  0.07949555  0.11783492  1
  Fe  Fe7  1  0.15152798  0.92050445  0.38216508  1
  Fe  Fe8  1  0.10724971  0.71208589  0.66654861  1
  Fe  Fe9  1  0.60724971  0.28791411  0.83345139  1
  Fe  Fe10  1  0.89275029  0.28791411  0.33345139  1
  Fe  Fe11  1  0.39275029  0.71208589  0.16654861  1
  P  P12  1  0.82589109  0.96463850  0.82725505  1
  P  P13  1  0.32589109  0.03536150  0.67274495  1
  P  P14  1  0.17410891  0.03536150  0.17274495  1
  P  P15  1  0.67410891  0.96463850  0.32725505  1
  P  P16  1  0.14520151  0.57790360  0.38030756  1
  P  P17  1  0.64520151  0.42209640  0.11969244  1
  P  P18  1  0.85479849  0.42209640  0.61969244  1
  P  P19  1  0.35479849  0.57790360  0.88030756  1
  O  O20  1  0.78719877  0.89288863  0.67564123  1
  O  O21  1  0.28719877  0.10711137  0.82435877  1
  O  O22  1  0.21280123  0.10711137  0.32435877  1
  O  O23  1  0.71280123  0.89288863  0.17564123  1
  O  O24  1  0.00793376  0.88858367  0.85911693  1
  O  O25  1  0.50793376  0.11141633  0.64088307  1
  O  O26  1  0.99206624  0.11141633  0.14088307  1
  O  O27  1  0.49206624  0.88858367  0.35911693  1
  O  O28  1  0.34676689  0.86466461  0.64496719  1
  O  O29  1  0.84676689  0.13533539  0.85503281  1
  O  O30  1  0.65323311  0.13533539  0.35503281  1
  O  O31  1  0.15323311  0.86466461  0.14496719  1
  O  O32  1  0.65640369  0.93847594  0.91376499  1
  O  O33  1  0.15640369  0.06152406  0.58623501  1
  O  O34  1  0.34359631  0.06152406  0.08623501  1
  O  O35  1  0.84359631  0.93847594  0.41376499  1
  O  O36  1  0.91952550  0.56840375  0.72612540  1
  O  O37  1  0.41952550  0.43159625  0.77387460  1
  O  O38  1  0.08047450  0.43159625  0.27387460  1
  O  O39  1  0.58047450  0.56840375  0.22612540  1
  O  O40  1  0.31427800  0.55133920  0.46379551  1
  O  O41  1  0.81427800  0.44866080  0.03620449  1
  O  O42  1  0.68572200  0.44866080  0.53620449  1
  O  O43  1  0.18572200  0.55133920  0.96379551  1
  O  O44  1  0.98347535  0.65479037  0.48136619  1
  O  O45  1  0.48347535  0.34520963  0.01863381  1
  O  O46  1  0.01652465  0.34520963  0.51863381  1
  O  O47  1  0.51652465  0.65479037  0.98136619  1
  O  O48  1  0.30289267  0.69348283  0.80953531  1
  O  O49  1  0.80289267  0.30651717  0.69046469  1
  O  O50  1  0.69710733  0.30651717  0.19046469  1
  O  O51  1  0.19710733  0.69348283  0.30953531  1
