# generated using pymatgen
data_Mg3Si(O2F)2
_symmetry_space_group_name_H-M   'P 1'
_cell_length_a   4.76019808
_cell_length_b   8.84190246
_cell_length_c   10.39113730
_cell_angle_alpha   90.00000000
_cell_angle_beta   90.00000000
_cell_angle_gamma   90.00000000
_symmetry_Int_Tables_number   1
_chemical_formula_structural   Mg3Si(O2F)2
_chemical_formula_sum   'Mg12 Si4 O16 F8'
_cell_volume   437.35472997
_cell_formula_units_Z   4
loop_
 _symmetry_equiv_pos_site_id
 _symmetry_equiv_pos_as_xyz
  1  'x, y, z'
loop_
 _atom_site_type_symbol
 _atom_site_label
 _atom_site_symmetry_multiplicity
 _atom_site_fract_x
 _atom_site_fract_y
 _atom_site_fract_z
 _atom_site_occupancy
  Mg  Mg0  1  0.98997241  0.43036749  0.63323988  1
  Mg  Mg1  1  0.99399912  0.25000000  0.90705896  1
  Mg  Mg2  1  0.51002759  0.06963251  0.13323988  1
  Mg  Mg3  1  0.98997241  0.06963251  0.63323988  1
  Mg  Mg4  1  0.00600088  0.75000000  0.09294104  1
  Mg  Mg5  1  0.50600088  0.25000000  0.40705896  1
  Mg  Mg6  1  0.01002759  0.93036749  0.36676012  1
  Mg  Mg7  1  0.51002759  0.43036749  0.13323988  1
  Mg  Mg8  1  0.49399912  0.75000000  0.59294104  1
  Mg  Mg9  1  0.01002759  0.56963251  0.36676012  1
  Mg  Mg10  1  0.48997241  0.56963251  0.86676012  1
  Mg  Mg11  1  0.48997241  0.93036749  0.86676012  1
  Si  Si12  1  0.08030611  0.25000000  0.21953950  1
  Si  Si13  1  0.41969389  0.25000000  0.71953950  1
  Si  Si14  1  0.91969389  0.75000000  0.78046050  1
  Si  Si15  1  0.58030611  0.75000000  0.28046050  1
  O  O16  1  0.73162809  0.89650757  0.20888950  1
  O  O17  1  0.26837191  0.10349243  0.79111050  1
  O  O18  1  0.23770459  0.75000000  0.27891701  1
  O  O19  1  0.77772631  0.75000000  0.92576651  1
  O  O20  1  0.27772631  0.25000000  0.57423349  1
  O  O21  1  0.72227369  0.75000000  0.42576651  1
  O  O22  1  0.76837191  0.89650757  0.70888950  1
  O  O23  1  0.76229541  0.25000000  0.72108299  1
  O  O24  1  0.26837191  0.39650757  0.79111050  1
  O  O25  1  0.73162809  0.60349243  0.20888950  1
  O  O26  1  0.26229541  0.75000000  0.77891701  1
  O  O27  1  0.23162809  0.10349243  0.29111050  1
  O  O28  1  0.22227369  0.25000000  0.07423349  1
  O  O29  1  0.76837191  0.60349243  0.70888950  1
  O  O30  1  0.73770459  0.25000000  0.22108299  1
  O  O31  1  0.23162809  0.39650757  0.29111050  1
  F  F32  1  0.27236381  0.91591643  0.03261237  1
  F  F33  1  0.22763619  0.58408357  0.53261237  1
  F  F34  1  0.72763619  0.08408357  0.96738763  1
  F  F35  1  0.72763619  0.41591643  0.96738763  1
  F  F36  1  0.77236381  0.41591643  0.46738763  1
  F  F37  1  0.22763619  0.91591643  0.53261237  1
  F  F38  1  0.77236381  0.08408357  0.46738763  1
  F  F39  1  0.27236381  0.58408357  0.03261237  1
