# generated using pymatgen
data_AsS(BrF2)3
_symmetry_space_group_name_H-M   'P 1'
_cell_length_a   8.27350552
_cell_length_b   9.60021160
_cell_length_c   12.39208974
_cell_angle_alpha   90.00000000
_cell_angle_beta   96.82359501
_cell_angle_gamma   90.00000000
_symmetry_Int_Tables_number   1
_chemical_formula_structural   AsS(BrF2)3
_chemical_formula_sum   'As4 S4 Br12 F24'
_cell_volume   977.29958808
_cell_formula_units_Z   4
loop_
 _symmetry_equiv_pos_site_id
 _symmetry_equiv_pos_as_xyz
  1  'x, y, z'
loop_
 _atom_site_type_symbol
 _atom_site_label
 _atom_site_symmetry_multiplicity
 _atom_site_fract_x
 _atom_site_fract_y
 _atom_site_fract_z
 _atom_site_occupancy
  As  As0  1  0.28929756  0.27081793  0.94132612  1
  As  As1  1  0.71070244  0.72918207  0.05867388  1
  As  As2  1  0.71070244  0.77081793  0.55867388  1
  As  As3  1  0.28929756  0.22918207  0.44132612  1
  S  S4  1  0.29749179  0.70122038  0.78746718  1
  S  S5  1  0.70250821  0.20122038  0.71253282  1
  S  S6  1  0.29749179  0.79877962  0.28746718  1
  S  S7  1  0.70250821  0.29877962  0.21253282  1
  Br  Br8  1  0.07974365  0.80115371  0.37162911  1
  Br  Br9  1  0.75661823  0.44074211  0.34990878  1
  Br  Br10  1  0.24338177  0.55925789  0.65009122  1
  Br  Br11  1  0.70499873  0.09207246  0.28514939  1
  Br  Br12  1  0.70499873  0.40792754  0.78514939  1
  Br  Br13  1  0.92025635  0.30115371  0.12837089  1
  Br  Br14  1  0.92025635  0.19884629  0.62837089  1
  Br  Br15  1  0.07974365  0.69884629  0.87162911  1
  Br  Br16  1  0.24338177  0.94074211  0.15009122  1
  Br  Br17  1  0.29500127  0.59207246  0.21485061  1
  Br  Br18  1  0.75661823  0.05925789  0.84990878  1
  Br  Br19  1  0.29500127  0.90792754  0.71485061  1
  F  F20  1  0.79065865  0.89785956  0.03306070  1
  F  F21  1  0.23829508  0.32746378  0.07096491  1
  F  F22  1  0.66081322  0.78677586  0.18634128  1
  F  F23  1  0.51685297  0.71761089  0.49581042  1
  F  F24  1  0.76170492  0.82746378  0.42903509  1
  F  F25  1  0.90699758  0.82214048  0.61810977  1
  F  F26  1  0.48314703  0.21761089  0.00418958  1
  F  F27  1  0.90699758  0.67785952  0.11810977  1
  F  F28  1  0.63394819  0.56106786  0.08231632  1
  F  F29  1  0.23829508  0.17253622  0.57096491  1
  F  F30  1  0.33918678  0.21322414  0.81365872  1
  F  F31  1  0.20934135  0.10214044  0.96693930  1
  F  F32  1  0.20934135  0.39785956  0.46693930  1
  F  F33  1  0.79065865  0.60214044  0.53306070  1
  F  F34  1  0.76170492  0.67253622  0.92903509  1
  F  F35  1  0.63394819  0.93893214  0.58231632  1
  F  F36  1  0.51685297  0.78238911  0.99581042  1
  F  F37  1  0.48314703  0.28238911  0.50418958  1
  F  F38  1  0.36605181  0.06106786  0.41768368  1
  F  F39  1  0.33918678  0.28677586  0.31365872  1
  F  F40  1  0.36605181  0.43893214  0.91768368  1
  F  F41  1  0.09300242  0.17785952  0.38189023  1
  F  F42  1  0.09300242  0.32214048  0.88189023  1
  F  F43  1  0.66081322  0.71322414  0.68634128  1
