# generated using pymatgen
data_Tb3Se2ClO8
_symmetry_space_group_name_H-M   'P 1'
_cell_length_a   5.42856397
_cell_length_b   10.91710262
_cell_length_c   15.30773305
_cell_angle_alpha   90.00000000
_cell_angle_beta   90.00000000
_cell_angle_gamma   90.00000000
_symmetry_Int_Tables_number   1
_chemical_formula_structural   Tb3Se2ClO8
_chemical_formula_sum   'Tb12 Se8 Cl4 O32'
_cell_volume   907.20039902
_cell_formula_units_Z   4
loop_
 _symmetry_equiv_pos_site_id
 _symmetry_equiv_pos_as_xyz
  1  'x, y, z'
loop_
 _atom_site_type_symbol
 _atom_site_label
 _atom_site_symmetry_multiplicity
 _atom_site_fract_x
 _atom_site_fract_y
 _atom_site_fract_z
 _atom_site_occupancy
  Tb  Tb0  1  0.48092629  0.63572686  0.57502253  1
  Tb  Tb1  1  0.02958169  0.35657396  0.25000000  1
  Tb  Tb2  1  0.98092629  0.86427314  0.92497747  1
  Tb  Tb3  1  0.97041831  0.64342604  0.75000000  1
  Tb  Tb4  1  0.47041831  0.85657396  0.75000000  1
  Tb  Tb5  1  0.52958169  0.14342604  0.25000000  1
  Tb  Tb6  1  0.51907371  0.36427314  0.07502253  1
  Tb  Tb7  1  0.01907371  0.13572686  0.07502253  1
  Tb  Tb8  1  0.51907371  0.36427314  0.42497747  1
  Tb  Tb9  1  0.98092629  0.86427314  0.57502253  1
  Tb  Tb10  1  0.01907371  0.13572686  0.42497747  1
  Tb  Tb11  1  0.48092629  0.63572686  0.92497747  1
  Se  Se12  1  0.04960742  0.37512625  0.90020592  1
  Se  Se13  1  0.95039258  0.62487375  0.40020592  1
  Se  Se14  1  0.54960742  0.12487375  0.90020592  1
  Se  Se15  1  0.45039258  0.87512625  0.09979408  1
  Se  Se16  1  0.45039258  0.87512625  0.40020592  1
  Se  Se17  1  0.95039258  0.62487375  0.09979408  1
  Se  Se18  1  0.54960742  0.12487375  0.59979408  1
  Se  Se19  1  0.04960742  0.37512625  0.59979408  1
  Cl  Cl20  1  0.58284651  0.49276457  0.25000000  1
  Cl  Cl21  1  0.41715349  0.50723543  0.75000000  1
  Cl  Cl22  1  0.08284651  0.00723543  0.25000000  1
  Cl  Cl23  1  0.91715349  0.99276457  0.75000000  1
  O  O24  1  0.19277058  0.94122738  0.04876908  1
  O  O25  1  0.11677040  0.49889800  0.36896770  1
  O  O26  1  0.38596335  0.18426347  0.98883281  1
  O  O27  1  0.22642892  0.75049215  0.84261687  1
  O  O28  1  0.38322960  0.99889800  0.86896770  1
  O  O29  1  0.88322960  0.50110200  0.86896770  1
  O  O30  1  0.88596335  0.31573653  0.51116719  1
  O  O31  1  0.11403665  0.68426347  0.01116719  1
  O  O32  1  0.61403665  0.81573653  0.48883281  1
  O  O33  1  0.27357108  0.25049215  0.34261687  1
  O  O34  1  0.80722942  0.05877262  0.95123092  1
  O  O35  1  0.27357108  0.25049215  0.15738313  1
  O  O36  1  0.77357108  0.24950785  0.34261687  1
  O  O37  1  0.72642892  0.74950785  0.65738313  1
  O  O38  1  0.69277058  0.55877262  0.04876908  1
  O  O39  1  0.61677040  0.00110200  0.13103230  1
  O  O40  1  0.61677040  0.00110200  0.36896770  1
  O  O41  1  0.77357108  0.24950785  0.15738313  1
  O  O42  1  0.22642892  0.75049215  0.65738313  1
  O  O43  1  0.61403665  0.81573653  0.01116719  1
  O  O44  1  0.19277058  0.94122738  0.45123092  1
  O  O45  1  0.69277058  0.55877262  0.45123092  1
  O  O46  1  0.72642892  0.74950785  0.84261687  1
  O  O47  1  0.38322960  0.99889800  0.63103230  1
  O  O48  1  0.11677040  0.49889800  0.13103230  1
  O  O49  1  0.80722942  0.05877262  0.54876908  1
  O  O50  1  0.30722942  0.44122738  0.54876908  1
  O  O51  1  0.88596335  0.31573653  0.98883281  1
  O  O52  1  0.88322960  0.50110200  0.63103230  1
  O  O53  1  0.11403665  0.68426347  0.48883281  1
  O  O54  1  0.30722942  0.44122738  0.95123092  1
  O  O55  1  0.38596335  0.18426347  0.51116719  1
