# generated using pymatgen
data_TmSeClO3
_symmetry_space_group_name_H-M   'P 1'
_cell_length_a   6.92033870
_cell_length_b   7.25278108
_cell_length_c   8.77976482
_cell_angle_alpha   90.00000000
_cell_angle_beta   90.00000000
_cell_angle_gamma   90.00000000
_symmetry_Int_Tables_number   1
_chemical_formula_structural   TmSeClO3
_chemical_formula_sum   'Tm4 Se4 Cl4 O12'
_cell_volume   440.67133588
_cell_formula_units_Z   4
loop_
 _symmetry_equiv_pos_site_id
 _symmetry_equiv_pos_as_xyz
  1  'x, y, z'
loop_
 _atom_site_type_symbol
 _atom_site_label
 _atom_site_symmetry_multiplicity
 _atom_site_fract_x
 _atom_site_fract_y
 _atom_site_fract_z
 _atom_site_occupancy
  Tm  Tm0  1  0.75000000  0.39807023  0.96082359  1
  Tm  Tm1  1  0.75000000  0.89807023  0.53917641  1
  Tm  Tm2  1  0.25000000  0.60192977  0.03917641  1
  Tm  Tm3  1  0.25000000  0.10192977  0.46082359  1
  Se  Se4  1  0.75000000  0.29125428  0.36616569  1
  Se  Se5  1  0.75000000  0.79125428  0.13383431  1
  Se  Se6  1  0.25000000  0.70874572  0.63383431  1
  Se  Se7  1  0.25000000  0.20874572  0.86616569  1
  Cl  Cl8  1  0.75000000  0.06146747  0.81656254  1
  Cl  Cl9  1  0.25000000  0.43853253  0.31656254  1
  Cl  Cl10  1  0.75000000  0.56146747  0.68343746  1
  Cl  Cl11  1  0.25000000  0.93853253  0.18343746  1
  O  O12  1  0.75000000  0.24884767  0.17577471  1
  O  O13  1  0.57125942  0.13966500  0.43239792  1
  O  O14  1  0.92874058  0.13966500  0.43239792  1
  O  O15  1  0.25000000  0.25115233  0.67577471  1
  O  O16  1  0.07125942  0.36033500  0.93239792  1
  O  O17  1  0.42874058  0.36033500  0.93239792  1
  O  O18  1  0.25000000  0.75115233  0.82422529  1
  O  O19  1  0.92874058  0.63966500  0.06760208  1
  O  O20  1  0.75000000  0.74884767  0.32422529  1
  O  O21  1  0.42874058  0.86033500  0.56760208  1
  O  O22  1  0.07125942  0.86033500  0.56760208  1
  O  O23  1  0.57125942  0.63966500  0.06760208  1
