# generated using pymatgen
data_KBi6IO9
_symmetry_space_group_name_H-M   'P 1'
_cell_length_a   15.26866211
_cell_length_b   15.26866176
_cell_length_c   15.26866170
_cell_angle_alpha   109.47122196
_cell_angle_beta   109.47122151
_cell_angle_gamma   109.47122022
_symmetry_Int_Tables_number   1
_chemical_formula_structural   KBi6IO9
_chemical_formula_sum   'K8 Bi48 I8 O72'
_cell_volume   2740.19223593
_cell_formula_units_Z   8
loop_
 _symmetry_equiv_pos_site_id
 _symmetry_equiv_pos_as_xyz
  1  'x, y, z'
loop_
 _atom_site_type_symbol
 _atom_site_label
 _atom_site_symmetry_multiplicity
 _atom_site_fract_x
 _atom_site_fract_y
 _atom_site_fract_z
 _atom_site_occupancy
  K  K0  1  0.00000000  0.00000000  0.50000000  1
  K  K1  1  0.50000000  0.50000000  0.00000000  1
  K  K2  1  0.50000000  0.00000000  0.50000000  1
  K  K3  1  0.00000000  0.00000000  0.00000000  1
  K  K4  1  0.00000000  0.50000000  0.50000000  1
  K  K5  1  0.50000000  0.50000000  0.50000000  1
  K  K6  1  0.50000000  0.00000000  0.00000000  1
  K  K7  1  0.00000000  0.50000000  0.00000000  1
  Bi  Bi8  1  0.75000000  0.73951126  0.98951126  1
  Bi  Bi9  1  0.73041009  0.76958991  0.25000000  1
  Bi  Bi10  1  0.25000000  0.98951126  0.73951126  1
  Bi  Bi11  1  0.98041009  0.51958991  0.75000000  1
  Bi  Bi12  1  0.25000000  0.76048874  0.51048874  1
  Bi  Bi13  1  0.75000000  0.26958991  0.23041009  1
  Bi  Bi14  1  0.76048874  0.75000000  0.51048874  1
  Bi  Bi15  1  0.01958991  0.03917983  0.76958991  1
  Bi  Bi16  1  0.23041009  0.98041009  0.96082017  1
  Bi  Bi17  1  0.48041009  0.73041009  0.46082017  1
  Bi  Bi18  1  0.01048874  0.25000000  0.26048874  1
  Bi  Bi19  1  0.25000000  0.48951126  0.23951126  1
  Bi  Bi20  1  0.26958991  0.53917983  0.51958991  1
  Bi  Bi21  1  0.26048874  0.75000000  0.01048874  1
  Bi  Bi22  1  0.51958991  0.26958991  0.53917983  1
  Bi  Bi23  1  0.48951126  0.23951126  0.25000000  1
  Bi  Bi24  1  0.98951126  0.73951126  0.25000000  1
  Bi  Bi25  1  0.75000000  0.23951126  0.48951126  1
  Bi  Bi26  1  0.75000000  0.98041009  0.51958991  1
  Bi  Bi27  1  0.26048874  0.01048874  0.25000000  1
  Bi  Bi28  1  0.26958991  0.23041009  0.75000000  1
  Bi  Bi29  1  0.01048874  0.26048874  0.75000000  1
  Bi  Bi30  1  0.51958991  0.75000000  0.98041009  1
  Bi  Bi31  1  0.48951126  0.75000000  0.23951126  1
  Bi  Bi32  1  0.25000000  0.01958991  0.48041009  1
  Bi  Bi33  1  0.73951126  0.98951126  0.75000000  1
  Bi  Bi34  1  0.01958991  0.48041009  0.25000000  1
  Bi  Bi35  1  0.96082017  0.23041009  0.98041009  1
  Bi  Bi36  1  0.23041009  0.75000000  0.26958991  1
  Bi  Bi37  1  0.76048874  0.51048874  0.25000000  1
  Bi  Bi38  1  0.98951126  0.75000000  0.73951126  1
  Bi  Bi39  1  0.46082017  0.48041009  0.73041009  1
  Bi  Bi40  1  0.51048874  0.25000000  0.76048874  1
  Bi  Bi41  1  0.25000000  0.73041009  0.76958991  1
  Bi  Bi42  1  0.76958991  0.25000000  0.73041009  1
  Bi  Bi43  1  0.53917983  0.51958991  0.26958991  1
  Bi  Bi44  1  0.23951126  0.25000000  0.48951126  1
  Bi  Bi45  1  0.25000000  0.26048874  0.01048874  1
  Bi  Bi46  1  0.03917983  0.76958991  0.01958991  1
  Bi  Bi47  1  0.73951126  0.25000000  0.98951126  1
  Bi  Bi48  1  0.75000000  0.51048874  0.76048874  1
  Bi  Bi49  1  0.98041009  0.96082017  0.23041009  1
  Bi  Bi50  1  0.48041009  0.25000000  0.01958991  1
  Bi  Bi51  1  0.76958991  0.01958991  0.03917983  1
  Bi  Bi52  1  0.23951126  0.48951126  0.75000000  1
  Bi  Bi53  1  0.51048874  0.76048874  0.75000000  1
  Bi  Bi54  1  0.75000000  0.01048874  0.26048874  1
  Bi  Bi55  1  0.73041009  0.46082017  0.48041009  1
  I  I56  1  0.50000000  0.00000000  0.25000000  1
  I  I57  1  0.25000000  0.50000000  0.00000000  1
  I  I58  1  0.75000000  0.75000000  0.75000000  1
  I  I59  1  0.00000000  0.25000000  0.50000000  1
  I  I60  1  0.50000000  0.00000000  0.75000000  1
  I  I61  1  0.00000000  0.75000000  0.50000000  1
  I  I62  1  0.75000000  0.50000000  0.00000000  1
  I  I63  1  0.25000000  0.25000000  0.25000000  1
  O  O64  1  0.14459547  0.75000000  0.35540453  1
  O  O65  1  0.58813751  0.43577376  0.15058497  1
  O  O66  1  0.65236375  0.71481121  0.06422624  1
  O  O67  1  0.71481121  0.06422624  0.65236375  1
  O  O68  1  0.85540453  0.25000000  0.64459547  1
  O  O69  1  0.10540453  0.39459547  0.25000000  1
  O  O70  1  0.65058497  0.21481121  0.56244746  1
  O  O71  1  0.75000000  0.89459547  0.60540453  1
  O  O72  1  0.89459547  0.60540453  0.75000000  1
  O  O73  1  0.56422624  0.21481121  0.15236375  1
  O  O74  1  0.58813751  0.65236375  0.43755254  1
  O  O75  1  0.84941503  0.41186249  0.56422624  1
  O  O76  1  0.08813751  0.65058497  0.93577376  1
  O  O77  1  0.43755254  0.58813751  0.65236375  1
  O  O78  1  0.41186249  0.34763625  0.56244746  1
  O  O79  1  0.28518879  0.84941503  0.93755254  1
  O  O80  1  0.06244746  0.71481121  0.15058497  1
  O  O81  1  0.08813751  0.93755254  0.15236375  1
  O  O82  1  0.15058497  0.06244746  0.71481121  1
  O  O83  1  0.21481121  0.56244746  0.65058497  1
  O  O84  1  0.71080905  0.60540453  0.35540453  1
  O  O85  1  0.65058497  0.93577376  0.08813751  1
  O  O86  1  0.56422624  0.84941503  0.41186249  1
  O  O87  1  0.34763625  0.56244746  0.41186249  1
  O  O88  1  0.89459547  0.78919095  0.14459547  1
  O  O89  1  0.93755254  0.15236375  0.08813751  1
  O  O90  1  0.75000000  0.35540453  0.14459547  1
  O  O91  1  0.91186249  0.34941503  0.06422624  1
  O  O92  1  0.41186249  0.56422624  0.84941503  1
  O  O93  1  0.65236375  0.43755254  0.58813751  1
  O  O94  1  0.10540453  0.21080905  0.85540453  1
  O  O95  1  0.06244746  0.84763625  0.91186249  1
  O  O96  1  0.06422624  0.65236375  0.71481121  1
  O  O97  1  0.84763625  0.43577376  0.78518879  1
  O  O98  1  0.93577376  0.08813751  0.65058497  1
  O  O99  1  0.60540453  0.75000000  0.89459547  1
  O  O100  1  0.71481121  0.15058497  0.06244746  1
  O  O101  1  0.64459547  0.85540453  0.25000000  1
  O  O102  1  0.06422624  0.91186249  0.34941503  1
  O  O103  1  0.60540453  0.35540453  0.71080905  1
  O  O104  1  0.85540453  0.10540453  0.21080905  1
  O  O105  1  0.39459547  0.64459547  0.28919095  1
  O  O106  1  0.93577376  0.34763625  0.28518879  1
  O  O107  1  0.25000000  0.10540453  0.39459547  1
  O  O108  1  0.84763625  0.91186249  0.06244746  1
  O  O109  1  0.56244746  0.65058497  0.21481121  1
  O  O110  1  0.21481121  0.15236375  0.56422624  1
  O  O111  1  0.28919095  0.39459547  0.64459547  1
  O  O112  1  0.21080905  0.85540453  0.10540453  1
  O  O113  1  0.43755254  0.34941503  0.78518879  1
  O  O114  1  0.15058497  0.58813751  0.43577376  1
  O  O115  1  0.78518879  0.43755254  0.34941503  1
  O  O116  1  0.91186249  0.06244746  0.84763625  1
  O  O117  1  0.14459547  0.89459547  0.78919095  1
  O  O118  1  0.84941503  0.93755254  0.28518879  1
  O  O119  1  0.15236375  0.56422624  0.21481121  1
  O  O120  1  0.35540453  0.14459547  0.75000000  1
  O  O121  1  0.34941503  0.06422624  0.91186249  1
  O  O122  1  0.35540453  0.71080905  0.60540453  1
  O  O123  1  0.93755254  0.28518879  0.84941503  1
  O  O124  1  0.39459547  0.25000000  0.10540453  1
  O  O125  1  0.28518879  0.93577376  0.34763625  1
  O  O126  1  0.34763625  0.28518879  0.93577376  1
  O  O127  1  0.15236375  0.08813751  0.93755254  1
  O  O128  1  0.43577376  0.15058497  0.58813751  1
  O  O129  1  0.64459547  0.28919095  0.39459547  1
  O  O130  1  0.25000000  0.64459547  0.85540453  1
  O  O131  1  0.43577376  0.78518879  0.84763625  1
  O  O132  1  0.56244746  0.41186249  0.34763625  1
  O  O133  1  0.78518879  0.84763625  0.43577376  1
  O  O134  1  0.34941503  0.78518879  0.43755254  1
  O  O135  1  0.78919095  0.14459547  0.89459547  1
