# generated using pymatgen
data_La10Se14O
_symmetry_space_group_name_H-M   'P 1'
_cell_length_a   15.49724820
_cell_length_b   15.49724783
_cell_length_c   15.49724756
_cell_angle_alpha   93.76412511
_cell_angle_beta   117.85110231
_cell_angle_gamma   117.85110594
_symmetry_Int_Tables_number   1
_chemical_formula_structural   La10Se14O
_chemical_formula_sum   'La40 Se56 O4'
_cell_volume   2710.92788501
_cell_formula_units_Z   4
loop_
 _symmetry_equiv_pos_site_id
 _symmetry_equiv_pos_as_xyz
  1  'x, y, z'
loop_
 _atom_site_type_symbol
 _atom_site_label
 _atom_site_symmetry_multiplicity
 _atom_site_fract_x
 _atom_site_fract_y
 _atom_site_fract_z
 _atom_site_occupancy
  La  La0  1  0.98303369  0.24151684  0.99151684  1
  La  La1  1  0.34339817  0.52029777  0.91743510  1
  La  La2  1  0.25000000  0.00848316  0.49151684  1
  La  La3  1  0.39713733  0.97970223  0.32310040  1
  La  La4  1  0.61633077  0.31135450  0.68584451  1
  La  La5  1  0.38366923  0.19502373  0.06951374  1
  La  La6  1  0.11633077  0.18584451  0.81135450  1
  La  La7  1  0.60286267  0.02029777  0.67689960  1
  La  La8  1  0.15660183  0.58256490  0.97970223  1
  La  La9  1  0.10286267  0.42596307  0.58256490  1
  La  La10  1  0.37449001  0.18864550  0.80497627  1
  La  La11  1  0.84339817  0.92596307  0.82310040  1
  La  La12  1  0.51696631  0.50848316  0.25848316  1
  La  La13  1  0.89713733  0.82310040  0.47970223  1
  La  La14  1  0.11633077  0.43048626  0.30497627  1
  La  La15  1  0.62550999  0.31415549  0.43048626  1
  La  La16  1  0.39713733  0.91743510  0.07403693  1
  La  La17  1  0.88366923  0.56951374  0.69502373  1
  La  La18  1  0.88366923  0.81415549  0.18864550  1
  La  La19  1  0.87449001  0.30497627  0.68864550  1
  La  La20  1  0.15660183  0.07403693  0.17689960  1
  La  La21  1  0.61633077  0.80497627  0.93048626  1
  La  La22  1  0.62550999  0.81135450  0.19502373  1
  La  La23  1  0.12550999  0.69502373  0.31135450  1
  La  La24  1  0.65660183  0.67689960  0.57403693  1
  La  La25  1  0.87449001  0.06951374  0.18584451  1
  La  La26  1  0.01696631  0.75848316  0.00848316  1
  La  La27  1  0.34339817  0.32310040  0.42596307  1
  La  La28  1  0.10286267  0.17689960  0.52029777  1
  La  La29  1  0.89713733  0.57403693  0.41743510  1
  La  La30  1  0.38366923  0.68864550  0.31415549  1
  La  La31  1  0.60286267  0.08256490  0.92596307  1
  La  La32  1  0.48303369  0.49151684  0.74151684  1
  La  La33  1  0.65660183  0.47970223  0.08256490  1
  La  La34  1  0.75000000  0.25848316  0.24151684  1
  La  La35  1  0.12550999  0.93048626  0.81415549  1
  La  La36  1  0.84339817  0.41743510  0.02029777  1
  La  La37  1  0.25000000  0.74151684  0.75848316  1
  La  La38  1  0.37449001  0.68584451  0.56951374  1
  La  La39  1  0.75000000  0.99151684  0.50848316  1
  Se  Se40  1  0.14089369  0.02068364  0.61682060  1
  Se  Se41  1  0.03188228  0.78923331  0.39885121  1
  Se  Se42  1  0.27174519  0.43524172  0.52191260  1
  Se  Se43  1  0.90386305  0.87978996  0.02068364  1
  Se  Se44  1  0.35498695  0.25000000  0.60498695  1
  Se  Se45  1  0.40386305  0.52068364  0.37978996  1
  Se  Se46  1  0.22825481  0.75016741  0.16349653  1
  Se  Se47  1  0.41332912  0.74983259  0.97808740  1
  Se  Se48  1  0.09613695  0.47592691  0.11682060  1
  Se  Se49  1  0.85498695  0.10498695  0.75000000  1
  Se  Se50  1  0.64501305  0.39501305  0.25000000  1
  Se  Se51  1  0.10961790  0.36696892  0.89885121  1
  Se  Se52  1  0.89038210  0.63303108  0.10114879  1
  Se  Se53  1  0.35498695  0.60498695  0.75000000  1
  Se  Se54  1  0.27174519  0.33650347  0.74983259  1
  Se  Se55  1  0.91332912  0.47808740  0.24983259  1
  Se  Se56  1  0.59613695  0.61682060  0.97592691  1
  Se  Se57  1  0.03188228  0.74264897  0.63303108  1
  Se  Se58  1  0.39038210  0.28923331  0.25735103  1
  Se  Se59  1  0.64501305  0.75000000  0.39501305  1
  Se  Se60  1  0.14089369  0.62021004  0.52407309  1
  Se  Se61  1  0.40386305  0.38317940  0.02407309  1
  Se  Se62  1  0.46811772  0.10114879  0.71076669  1
  Se  Se63  1  0.64089369  0.02407309  0.12021004  1
  Se  Se64  1  0.89038210  0.75735103  0.78923331  1
  Se  Se65  1  0.53188228  0.13303108  0.24264897  1
  Se  Se66  1  0.96811772  0.25735103  0.36696892  1
  Se  Se67  1  0.35910631  0.88317940  0.47931636  1
  Se  Se68  1  0.10961790  0.24264897  0.21076669  1
  Se  Se69  1  0.58667088  0.25016741  0.02191260  1
  Se  Se70  1  0.14501305  0.75000000  0.89501305  1
  Se  Se71  1  0.53188228  0.89885121  0.28923331  1
  Se  Se72  1  0.77174519  0.02191260  0.93524172  1
  Se  Se73  1  0.91332912  0.93524172  0.66349653  1
  Se  Se74  1  0.72825481  0.56475828  0.47808740  1
  Se  Se75  1  0.85910631  0.37978996  0.47592691  1
  Se  Se76  1  0.72825481  0.66349653  0.25016741  1
  Se  Se77  1  0.14501305  0.89501305  0.25000000  1
  Se  Se78  1  0.35910631  0.97592691  0.87978996  1
  Se  Se79  1  0.41332912  0.16349653  0.43524172  1
  Se  Se80  1  0.90386305  0.52407309  0.88317940  1
  Se  Se81  1  0.08667088  0.52191260  0.75016741  1
  Se  Se82  1  0.64089369  0.11682060  0.52068364  1
  Se  Se83  1  0.60961790  0.39885121  0.86696892  1
  Se  Se84  1  0.08667088  0.06475828  0.33650347  1
  Se  Se85  1  0.77174519  0.24983259  0.83650347  1
  Se  Se86  1  0.09613695  0.12021004  0.97931636  1
  Se  Se87  1  0.58667088  0.83650347  0.56475828  1
  Se  Se88  1  0.39038210  0.60114879  0.13303108  1
  Se  Se89  1  0.46811772  0.86696892  0.75735103  1
  Se  Se90  1  0.60961790  0.71076669  0.74264897  1
  Se  Se91  1  0.85498695  0.25000000  0.10498695  1
  Se  Se92  1  0.96811772  0.21076669  0.60114879  1
  Se  Se93  1  0.22825481  0.97808740  0.06475828  1
  Se  Se94  1  0.85910631  0.97931636  0.38317940  1
  Se  Se95  1  0.59613695  0.47931636  0.62021004  1
  O  O96  1  0.75000000  0.37500000  0.62500000  1
  O  O97  1  0.25000000  0.12500000  0.87500000  1
  O  O98  1  0.75000000  0.87500000  0.12500000  1
  O  O99  1  0.25000000  0.62500000  0.37500000  1
