# generated using pymatgen
data_Tm3B5O12
_symmetry_space_group_name_H-M   'P 1'
_cell_length_a   4.61753280
_cell_length_b   12.53803746
_cell_length_c   12.84399511
_cell_angle_alpha   90.00000000
_cell_angle_beta   90.00000000
_cell_angle_gamma   90.00000000
_symmetry_Int_Tables_number   1
_chemical_formula_structural   Tm3B5O12
_chemical_formula_sum   'Tm12 B20 O48'
_cell_volume   743.60051807
_cell_formula_units_Z   4
loop_
 _symmetry_equiv_pos_site_id
 _symmetry_equiv_pos_as_xyz
  1  'x, y, z'
loop_
 _atom_site_type_symbol
 _atom_site_label
 _atom_site_symmetry_multiplicity
 _atom_site_fract_x
 _atom_site_fract_y
 _atom_site_fract_z
 _atom_site_occupancy
  Tm  Tm0  1  -0.00071840  0.80714585  0.86460491  1
  Tm  Tm1  1  0.00000000  0.00000000  0.63216442  1
  Tm  Tm2  1  1.00071840  0.19285415  0.13539509  1
  Tm  Tm3  1  -0.00071840  0.80714585  0.13539509  1
  Tm  Tm4  1  0.00000000  0.50000000  0.13216442  1
  Tm  Tm5  1  -0.00071840  0.69285415  0.36460491  1
  Tm  Tm6  1  1.00071840  0.30714585  0.36460491  1
  Tm  Tm7  1  1.00071840  0.19285415  0.86460491  1
  Tm  Tm8  1  0.00000000  0.00000000  0.36783558  1
  Tm  Tm9  1  0.00000000  0.50000000  0.86783558  1
  Tm  Tm10  1  1.00071840  0.30714585  0.63539509  1
  Tm  Tm11  1  -0.00071840  0.69285415  0.63539509  1
  B  B12  1  0.50000000  0.00000000  0.16178060  1
  B  B13  1  0.52962248  0.15129165  0.29817195  1
  B  B14  1  0.47037752  0.65129165  0.79817195  1
  B  B15  1  0.47037752  0.84870835  0.70182805  1
  B  B16  1  0.45634744  0.37410554  0.50000000  1
  B  B17  1  0.50000000  0.50000000  0.66178060  1
  B  B18  1  0.54365256  0.62589446  0.50000000  1
  B  B19  1  0.54365256  0.87410554  0.00000000  1
  B  B20  1  0.54022448  0.84993489  0.50000000  1
  B  B21  1  0.52962248  0.34870835  0.20182805  1
  B  B22  1  0.50000000  0.50000000  0.33821940  1
  B  B23  1  0.50000000  0.00000000  0.83821940  1
  B  B24  1  0.45977552  0.34993489  0.00000000  1
  B  B25  1  0.54022448  0.65006511  0.00000000  1
  B  B26  1  0.52962248  0.34870835  0.79817195  1
  B  B27  1  0.47037752  0.65129165  0.20182805  1
  B  B28  1  0.45977552  0.15006511  0.50000000  1
  B  B29  1  0.47037752  0.84870835  0.29817195  1
  B  B30  1  0.52962248  0.15129165  0.70182805  1
  B  B31  1  0.45634744  0.12589446  0.00000000  1
  O  O32  1  0.31033405  0.93526818  0.76649013  1
  O  O33  1  0.68966595  0.06473182  0.76649013  1
  O  O34  1  0.33437921  0.42605475  0.40395227  1
  O  O35  1  0.75857518  0.36035521  0.50000000  1
  O  O36  1  0.24142482  0.63964479  0.50000000  1
  O  O37  1  0.34306587  0.85464389  0.59488228  1
  O  O38  1  0.65693413  0.14535611  0.59488228  1
  O  O39  1  0.69814703  0.76232011  0.00000000  1
  O  O40  1  0.21940436  0.34807063  0.79571149  1
  O  O41  1  0.65693413  0.35464389  0.09488228  1
  O  O42  1  0.30185297  0.23767989  0.00000000  1
  O  O43  1  0.31033405  0.56473182  0.26649013  1
  O  O44  1  0.68966595  0.43526818  0.73350987  1
  O  O45  1  0.34306587  0.85464389  0.40511772  1
  O  O46  1  0.78059564  0.65192937  0.20428851  1
  O  O47  1  0.65815336  0.25000000  0.75000000  1
  O  O48  1  0.33437921  0.42605475  0.59604773  1
  O  O49  1  0.31033405  0.56473182  0.73350987  1
  O  O50  1  0.34306587  0.64535611  0.09488228  1
  O  O51  1  0.21940436  0.15192937  0.70428851  1
  O  O52  1  0.65693413  0.35464389  0.90511772  1
  O  O53  1  0.34184664  0.75000000  0.75000000  1
  O  O54  1  0.21940436  0.15192937  0.29571149  1
  O  O55  1  0.66562079  0.92605475  0.09604773  1
  O  O56  1  0.65693413  0.14535611  0.40511772  1
  O  O57  1  0.65815336  0.25000000  0.25000000  1
  O  O58  1  0.66562079  0.57394525  0.40395227  1
  O  O59  1  0.75857518  0.13964479  0.00000000  1
  O  O60  1  0.68966595  0.06473182  0.23350987  1
  O  O61  1  0.69814703  0.73767989  0.50000000  1
  O  O62  1  0.34306587  0.64535611  0.90511772  1
  O  O63  1  0.23878797  0.07091530  0.50000000  1
  O  O64  1  0.66562079  0.57394525  0.59604773  1
  O  O65  1  0.24142482  0.86035521  0.00000000  1
  O  O66  1  0.78059564  0.84807063  0.29571149  1
  O  O67  1  0.66562079  0.92605475  0.90395227  1
  O  O68  1  0.78059564  0.65192937  0.79571149  1
  O  O69  1  0.30185297  0.26232011  0.50000000  1
  O  O70  1  0.76121203  0.57091530  0.00000000  1
  O  O71  1  0.31033405  0.93526818  0.23350987  1
  O  O72  1  0.33437921  0.07394525  0.09604773  1
  O  O73  1  0.76121203  0.92908470  0.50000000  1
  O  O74  1  0.23878797  0.42908470  0.00000000  1
  O  O75  1  0.34184664  0.75000000  0.25000000  1
  O  O76  1  0.21940436  0.34807063  0.20428851  1
  O  O77  1  0.78059564  0.84807063  0.70428851  1
  O  O78  1  0.68966595  0.43526818  0.26649013  1
  O  O79  1  0.33437921  0.07394525  0.90395227  1
