# generated using pymatgen
data_K2PtN3(ClO2)3
_symmetry_space_group_name_H-M   'P 1'
_cell_length_a   6.76788295
_cell_length_b   7.76880347
_cell_length_c   11.08498405
_cell_angle_alpha   90.00000000
_cell_angle_beta   100.99944411
_cell_angle_gamma   90.00000000
_symmetry_Int_Tables_number   1
_chemical_formula_structural   K2PtN3(ClO2)3
_chemical_formula_sum   'K4 Pt2 N6 Cl6 O12'
_cell_volume   572.12304540
_cell_formula_units_Z   2
loop_
 _symmetry_equiv_pos_site_id
 _symmetry_equiv_pos_as_xyz
  1  'x, y, z'
loop_
 _atom_site_type_symbol
 _atom_site_label
 _atom_site_symmetry_multiplicity
 _atom_site_fract_x
 _atom_site_fract_y
 _atom_site_fract_z
 _atom_site_occupancy
  K  K0  1  0.21049836  0.75000000  0.46852183  1
  K  K1  1  0.61680443  0.75000000  0.11428934  1
  K  K2  1  0.78950164  0.25000000  0.53147817  1
  K  K3  1  0.38319557  0.25000000  0.88571066  1
  Pt  Pt4  1  0.87952094  0.75000000  0.75240260  1
  Pt  Pt5  1  0.12047906  0.25000000  0.24759740  1
  N  N6  1  0.94831239  0.25000000  0.06715525  1
  N  N7  1  0.68529056  0.55802417  0.79295587  1
  N  N8  1  0.31470944  0.44197583  0.20704413  1
  N  N9  1  0.05168761  0.75000000  0.93284475  1
  N  N10  1  0.31470944  0.05802417  0.20704413  1
  N  N11  1  0.68529056  0.94197583  0.79295587  1
  Cl  Cl12  1  0.09664017  0.53056315  0.69941744  1
  Cl  Cl13  1  0.70542850  0.75000000  0.54280845  1
  Cl  Cl14  1  0.90335983  0.46943685  0.30058256  1
  Cl  Cl15  1  0.90335983  0.03056315  0.30058256  1
  Cl  Cl16  1  0.29457150  0.25000000  0.45719155  1
  Cl  Cl17  1  0.09664017  0.96943685  0.69941744  1
  O  O18  1  0.37457846  0.06422561  0.10858609  1
  O  O19  1  0.63365160  0.05663067  0.71610187  1
  O  O20  1  0.62542154  0.93577439  0.89141391  1
  O  O21  1  0.23559359  0.75000000  0.94059863  1
  O  O22  1  0.76440641  0.25000000  0.05940137  1
  O  O23  1  0.96841393  0.75000000  0.02279498  1
  O  O24  1  0.36634840  0.94336933  0.28389813  1
  O  O25  1  0.62542154  0.56422561  0.89141391  1
  O  O26  1  0.63365160  0.44336933  0.71610187  1
  O  O27  1  0.36634840  0.55663067  0.28389813  1
  O  O28  1  0.37457846  0.43577439  0.10858609  1
  O  O29  1  0.03158607  0.25000000  0.97720502  1
