# generated using pymatgen
data_RbZrCdF7
_symmetry_space_group_name_H-M   'P 1'
_cell_length_a   6.63913802
_cell_length_b   6.63913779
_cell_length_c   8.67049578
_cell_angle_alpha   90.00000000
_cell_angle_beta   90.00000000
_cell_angle_gamma   116.97669132
_symmetry_Int_Tables_number   1
_chemical_formula_structural   RbZrCdF7
_chemical_formula_sum   'Rb2 Zr2 Cd2 F14'
_cell_volume   340.59492336
_cell_formula_units_Z   2
loop_
 _symmetry_equiv_pos_site_id
 _symmetry_equiv_pos_as_xyz
  1  'x, y, z'
loop_
 _atom_site_type_symbol
 _atom_site_label
 _atom_site_symmetry_multiplicity
 _atom_site_fract_x
 _atom_site_fract_y
 _atom_site_fract_z
 _atom_site_occupancy
  Rb  Rb0  1  0.50000000  0.50000000  0.00000000  1
  Rb  Rb1  1  0.50000000  0.50000000  0.50000000  1
  Zr  Zr2  1  0.80681982  0.19318018  0.75000000  1
  Zr  Zr3  1  0.19318018  0.80681982  0.25000000  1
  Cd  Cd4  1  0.80863789  0.19136211  0.25000000  1
  Cd  Cd5  1  0.19136211  0.80863789  0.75000000  1
  F  F6  1  0.79638082  0.20361918  0.51393345  1
  F  F7  1  0.15256207  0.43680376  0.75000000  1
  F  F8  1  0.56319624  0.84743793  0.75000000  1
  F  F9  1  0.52532519  0.82864251  0.25000000  1
  F  F10  1  0.17135749  0.47467481  0.25000000  1
  F  F11  1  0.79638082  0.20361918  0.98606655  1
  F  F12  1  0.43680376  0.15256207  0.25000000  1
  F  F13  1  0.82864251  0.52532519  0.75000000  1
  F  F14  1  0.47467481  0.17135749  0.75000000  1
  F  F15  1  0.98954509  0.01045491  0.75000000  1
  F  F16  1  0.20361918  0.79638082  0.01393345  1
  F  F17  1  0.20361918  0.79638082  0.48606655  1
  F  F18  1  0.01045491  0.98954509  0.25000000  1
  F  F19  1  0.84743793  0.56319624  0.25000000  1
