# generated using pymatgen
data_K2Ag2GeS4
_symmetry_space_group_name_H-M   'P 1'
_cell_length_a   6.42097771
_cell_length_b   7.53042685
_cell_length_c   11.13364979
_cell_angle_alpha   82.90345921
_cell_angle_beta   73.23562870
_cell_angle_gamma   64.79176687
_symmetry_Int_Tables_number   1
_chemical_formula_structural   K2Ag2GeS4
_chemical_formula_sum   'K4 Ag4 Ge2 S8'
_cell_volume   466.37227875
_cell_formula_units_Z   2
loop_
 _symmetry_equiv_pos_site_id
 _symmetry_equiv_pos_as_xyz
  1  'x, y, z'
loop_
 _atom_site_type_symbol
 _atom_site_label
 _atom_site_symmetry_multiplicity
 _atom_site_fract_x
 _atom_site_fract_y
 _atom_site_fract_z
 _atom_site_occupancy
  K  K0  1  0.81226402  0.74991058  0.87582547  1
  K  K1  1  0.43791646  0.75006561  0.62417490  1
  K  K2  1  0.56208354  0.24993439  0.37582510  1
  K  K3  1  0.18773598  0.25008942  0.12417453  1
  Ag  Ag4  1  0.94945751  0.25030056  0.60048606  1
  Ag  Ag5  1  0.19953480  0.75025628  0.10049404  1
  Ag  Ag6  1  0.05054249  0.74969944  0.39951394  1
  Ag  Ag7  1  0.80046520  0.24974372  0.89950596  1
  Ge  Ge8  1  0.62482683  0.75003064  0.25001857  1
  Ge  Ge9  1  0.37517317  0.24996936  0.74998143  1
  S  S10  1  0.22281606  0.04772092  0.87131741  1
  S  S11  1  0.14187771  0.45225438  0.62873162  1
  S  S12  1  0.59373153  0.54795187  0.12876635  1
  S  S13  1  0.72937261  0.04786178  0.62876938  1
  S  S14  1  0.85812229  0.54774562  0.37126838  1
  S  S15  1  0.40626847  0.45204813  0.87123365  1
  S  S16  1  0.27062739  0.95213822  0.37123062  1
  S  S17  1  0.77718394  0.95227908  0.12868259  1
