# generated using pymatgen
data_Sb8Br2O11
_symmetry_space_group_name_H-M   'P 1'
_cell_length_a   10.79588932
_cell_length_b   11.58663020
_cell_length_c   14.27497859
_cell_angle_alpha   78.71824374
_cell_angle_beta   76.70457786
_cell_angle_gamma   72.85117523
_symmetry_Int_Tables_number   1
_chemical_formula_structural   Sb8Br2O11
_chemical_formula_sum   'Sb32 Br8 O44'
_cell_volume   1644.74889248
_cell_formula_units_Z   4
loop_
 _symmetry_equiv_pos_site_id
 _symmetry_equiv_pos_as_xyz
  1  'x, y, z'
loop_
 _atom_site_type_symbol
 _atom_site_label
 _atom_site_symmetry_multiplicity
 _atom_site_fract_x
 _atom_site_fract_y
 _atom_site_fract_z
 _atom_site_occupancy
  Sb  Sb0  1  0.81549114  0.32919415  0.20786462  1
  Sb  Sb1  1  0.00542562  0.61893520  0.18814696  1
  Sb  Sb2  1  0.15630155  0.42043305  0.03236905  1
  Sb  Sb3  1  0.01732962  0.61263965  0.55932190  1
  Sb  Sb4  1  0.17383751  0.91397431  0.55728706  1
  Sb  Sb5  1  0.99278105  0.89811809  0.93154825  1
  Sb  Sb6  1  0.33609237  0.14274375  0.49290572  1
  Sb  Sb7  1  0.72596103  0.62258211  0.36219979  1
  Sb  Sb8  1  0.69698295  0.13805521  0.86533671  1
  Sb  Sb9  1  0.29300073  0.62571156  0.39176443  1
  Sb  Sb10  1  0.69681082  0.87038103  0.13882163  1
  Sb  Sb11  1  0.30318918  0.12961897  0.86117837  1
  Sb  Sb12  1  0.00721895  0.10188191  0.06845175  1
  Sb  Sb13  1  0.84203840  0.85177704  0.68270282  1
  Sb  Sb14  1  0.99457438  0.38106480  0.81185304  1
  Sb  Sb15  1  0.30301705  0.86194479  0.13466329  1
  Sb  Sb16  1  0.15796160  0.14822296  0.31729718  1
  Sb  Sb17  1  0.84369845  0.57956695  0.96763095  1
  Sb  Sb18  1  0.98267038  0.38736035  0.44067810  1
  Sb  Sb19  1  0.02910545  0.84849397  0.31259483  1
  Sb  Sb20  1  0.82616249  0.08602569  0.44271294  1
  Sb  Sb21  1  0.70699927  0.37428844  0.60823557  1
  Sb  Sb22  1  0.18450886  0.67080585  0.79213538  1
  Sb  Sb23  1  0.36263269  0.64708622  0.97353802  1
  Sb  Sb24  1  0.33165951  0.39784764  0.24594271  1
  Sb  Sb25  1  0.64003338  0.11138458  0.27073536  1
  Sb  Sb26  1  0.35996662  0.88861542  0.72926464  1
  Sb  Sb27  1  0.66834049  0.60215236  0.75405729  1
  Sb  Sb28  1  0.27403897  0.37741789  0.63780021  1
  Sb  Sb29  1  0.66390763  0.85725625  0.50709428  1
  Sb  Sb30  1  0.63736731  0.35291378  0.02646198  1
  Sb  Sb31  1  0.97089455  0.15150603  0.68740517  1
  Br  Br32  1  0.49361559  0.63519935  0.58818731  1
  Br  Br33  1  0.45544514  0.17244580  0.09244792  1
  Br  Br34  1  0.50638441  0.36480065  0.41181269  1
  Br  Br35  1  0.54455486  0.82755420  0.90755208  1
  Br  Br36  1  0.52306289  0.10283760  0.65283237  1
  Br  Br37  1  0.48696138  0.37573678  0.83052659  1
  Br  Br38  1  0.51303862  0.62426322  0.16947341  1
  Br  Br39  1  0.47693711  0.89716240  0.34716763  1
  O  O40  1  0.88988944  0.02715268  0.84170764  1
  O  O41  1  0.23771061  0.01342212  0.80932464  1
  O  O42  1  0.15850685  0.14594131  0.97678668  1
  O  O43  1  0.74458478  0.73154670  0.66292769  1
  O  O44  1  0.75799985  0.23294162  0.94099489  1
  O  O45  1  0.77205724  0.20519631  0.72874353  1
  O  O46  1  0.17875738  0.45004036  0.17026216  1
  O  O47  1  0.90499875  0.27408511  0.56895275  1
  O  O48  1  0.01822543  0.73515124  0.64291579  1
  O  O49  1  0.20691334  0.83099197  0.70108733  1
  O  O50  1  0.84149315  0.85405869  0.02321332  1
  O  O51  1  0.97325194  0.52629810  0.09040897  1
  O  O52  1  0.00907273  0.99399162  0.37971945  1
  O  O53  1  0.69784719  0.25886987  0.15074530  1
  O  O54  1  0.20160155  0.28243138  0.78691925  1
  O  O55  1  0.30215281  0.74113013  0.84925470  1
  O  O56  1  0.78871617  0.42590336  0.03088352  1
  O  O57  1  0.21536804  0.53862573  0.53133617  1
  O  O58  1  0.22255423  0.53065994  0.32362522  1
  O  O59  1  0.79308666  0.16900803  0.29891267  1
  O  O60  1  0.98177457  0.26484876  0.35708421  1
  O  O61  1  0.79839845  0.71756862  0.21308075  1
  O  O62  1  0.78546557  0.72987431  0.42840076  1
  O  O63  1  0.76228939  0.98657788  0.19067536  1
  O  O64  1  0.00947508  0.76177635  0.85738000  1
  O  O65  1  0.18011887  0.09472034  0.45817308  1
  O  O66  1  0.78463196  0.46137427  0.46866383  1
  O  O67  1  0.11011056  0.97284732  0.15829236  1
  O  O68  1  0.24200015  0.76705838  0.05900511  1
  O  O69  1  0.02674806  0.47370190  0.90959103  1
  O  O70  1  0.77744577  0.46934006  0.67637478  1
  O  O71  1  0.21453443  0.27012569  0.57159924  1
  O  O72  1  0.70924499  -0.00005963  0.40078383  1
  O  O73  1  0.92233320  0.53073367  0.31271333  1
  O  O74  1  0.25541522  0.26845330  0.33707231  1
  O  O75  1  0.21128383  0.57409664  0.96911648  1
  O  O76  1  0.82124262  0.54995964  0.82973784  1
  O  O77  1  0.22794276  0.79480369  0.27125647  1
  O  O78  1  0.81988113  0.90527966  0.54182692  1
  O  O79  1  0.09500125  0.72591489  0.43104725  1
  O  O80  1  0.99092727  0.00600838  0.62028055  1
  O  O81  1  0.29075501  1.00005963  0.59921617  1
  O  O82  1  0.07766680  0.46926633  0.68728667  1
  O  O83  1  0.99052492  0.23822365  0.14262000  1
