# generated using pymatgen
data_Li3VF6
_symmetry_space_group_name_H-M   'P 1'
_cell_length_a   8.54750348
_cell_length_b   8.54750318
_cell_length_c   10.27292017
_cell_angle_alpha   84.85735177
_cell_angle_beta   84.85735198
_cell_angle_gamma   62.21739772
_symmetry_Int_Tables_number   1
_chemical_formula_structural   Li3VF6
_chemical_formula_sum   'Li18 V6 F36'
_cell_volume   660.36862023
_cell_formula_units_Z   6
loop_
 _symmetry_equiv_pos_site_id
 _symmetry_equiv_pos_as_xyz
  1  'x, y, z'
loop_
 _atom_site_type_symbol
 _atom_site_label
 _atom_site_symmetry_multiplicity
 _atom_site_fract_x
 _atom_site_fract_y
 _atom_site_fract_z
 _atom_site_occupancy
  Li  Li0  1  0.18983120  0.81016880  0.75000000  1
  Li  Li1  1  0.00882237  0.70784399  0.27431803  1
  Li  Li2  1  0.29215601  0.99117763  0.22568197  1
  Li  Li3  1  0.99117763  0.29215601  0.72568197  1
  Li  Li4  1  0.70784399  0.00882237  0.77431803  1
  Li  Li5  1  0.32562240  0.62834519  0.02973690  1
  Li  Li6  1  0.37165481  0.67437760  0.47026310  1
  Li  Li7  1  0.81016880  0.18983120  0.25000000  1
  Li  Li8  1  0.34577723  0.05716877  0.57020315  1
  Li  Li9  1  0.94283123  0.65422277  0.92979685  1
  Li  Li10  1  0.65422277  0.94283123  0.42979685  1
  Li  Li11  1  0.05716877  0.34577723  0.07020315  1
  Li  Li12  1  0.47055030  0.86716171  0.95069706  1
  Li  Li13  1  0.13283829  0.52944970  0.54930294  1
  Li  Li14  1  0.52944970  0.13283829  0.04930294  1
  Li  Li15  1  0.86716171  0.47055030  0.45069706  1
  Li  Li16  1  0.62834519  0.32562240  0.52973690  1
  Li  Li17  1  0.67437760  0.37165481  0.97026310  1
  V  V18  1  0.33624949  0.33970296  0.79374127  1
  V  V19  1  0.66029704  0.66375051  0.70625873  1
  V  V20  1  0.66375051  0.66029704  0.20625873  1
  V  V21  1  0.33970296  0.33624949  0.29374127  1
  V  V22  1  0.00000000  0.00000000  0.50000000  1
  V  V23  1  0.00000000  0.00000000  0.00000000  1
  F  F24  1  0.07481249  0.07009735  0.83075934  1
  F  F25  1  0.41312205  0.10572366  0.39330165  1
  F  F26  1  0.89427634  0.58687795  0.10669835  1
  F  F27  1  0.07009735  0.07481249  0.33075934  1
  F  F28  1  0.92518751  0.92990265  0.16924066  1
  F  F29  1  0.92990265  0.92518751  0.66924066  1
  F  F30  1  0.43051230  0.75309555  0.80663166  1
  F  F31  1  0.24690445  0.56948770  0.69336834  1
  F  F32  1  0.56948770  0.24690445  0.19336834  1
  F  F33  1  0.75309555  0.43051230  0.30663166  1
  F  F34  1  0.56567558  0.89687698  0.11298573  1
  F  F35  1  0.10312302  0.43432442  0.38701427  1
  F  F36  1  0.43432442  0.10312302  0.88701427  1
  F  F37  1  0.89687698  0.56567558  0.61298573  1
  F  F38  1  0.43827851  0.75975991  0.30889631  1
  F  F39  1  0.24024009  0.56172149  0.19110369  1
  F  F40  1  0.56172149  0.24024009  0.69110369  1
  F  F41  1  0.75975991  0.43827851  0.80889631  1
  F  F42  1  0.22740583  0.26978530  0.65790624  1
  F  F43  1  0.73021470  0.77259417  0.84209376  1
  F  F44  1  0.77259417  0.73021470  0.34209376  1
  F  F45  1  0.26978530  0.22740583  0.15790624  1
  F  F46  1  0.08417942  0.75948106  0.43972167  1
  F  F47  1  0.24051894  0.91582058  0.06027833  1
  F  F48  1  0.91582058  0.24051894  0.56027833  1
  F  F49  1  0.75948106  0.08417942  0.93972167  1
  F  F50  1  0.24408148  0.90182838  0.56882220  1
  F  F51  1  0.09817162  0.75591852  0.93117780  1
  F  F52  1  0.75591852  0.09817162  0.43117780  1
  F  F53  1  0.90182838  0.24408148  0.06882220  1
  F  F54  1  0.56615214  0.59284029  0.06400348  1
  F  F55  1  0.40715971  0.43384786  0.43599652  1
  F  F56  1  0.43384786  0.40715971  0.93599652  1
  F  F57  1  0.59284029  0.56615214  0.56400348  1
  F  F58  1  0.58687795  0.89427634  0.60669835  1
  F  F59  1  0.10572366  0.41312205  0.89330165  1
