# generated using pymatgen
data_Sc2Te5O13
_symmetry_space_group_name_H-M   'P 1'
_cell_length_a   6.69736461
_cell_length_b   8.71309078
_cell_length_c   10.62085547
_cell_angle_alpha   86.56748617
_cell_angle_beta   86.38486819
_cell_angle_gamma   73.79988028
_symmetry_Int_Tables_number   1
_chemical_formula_structural   Sc2Te5O13
_chemical_formula_sum   'Sc4 Te10 O26'
_cell_volume   593.40524284
_cell_formula_units_Z   2
loop_
 _symmetry_equiv_pos_site_id
 _symmetry_equiv_pos_as_xyz
  1  'x, y, z'
loop_
 _atom_site_type_symbol
 _atom_site_label
 _atom_site_symmetry_multiplicity
 _atom_site_fract_x
 _atom_site_fract_y
 _atom_site_fract_z
 _atom_site_occupancy
  Sc  Sc0  1  0.99126655  0.24098631  0.75187107  1
  Sc  Sc1  1  0.00873345  0.75901369  0.24812893  1
  Sc  Sc2  1  0.44793978  0.45641436  0.80977470  1
  Sc  Sc3  1  0.55206022  0.54358564  0.19022530  1
  Te  Te4  1  0.45443342  0.90902129  0.29762187  1
  Te  Te5  1  0.83393370  0.20428635  0.35786935  1
  Te  Te6  1  0.73384749  0.60274066  0.51663492  1
  Te  Te7  1  0.71147534  0.12101102  0.02065465  1
  Te  Te8  1  0.85860467  0.63651493  0.89880026  1
  Te  Te9  1  0.16606630  0.79571365  0.64213065  1
  Te  Te10  1  0.28852466  0.87898898  0.97934535  1
  Te  Te11  1  0.54556658  0.09097871  0.70237813  1
  Te  Te12  1  0.14139533  0.36348507  0.10119974  1
  Te  Te13  1  0.26615251  0.39725934  0.48336508  1
  O  O14  1  0.45592886  0.18716592  0.52018645  1
  O  O15  1  0.48114701  0.67587890  0.01828375  1
  O  O16  1  0.51885299  0.32412110  0.98171625  1
  O  O17  1  0.30310229  0.23131540  0.77697496  1
  O  O18  1  0.85647565  0.49854297  0.08881531  1
  O  O19  1  0.06969985  0.26908436  0.27931175  1
  O  O20  1  0.31914952  0.74470063  0.28735915  1
  O  O21  1  0.69689771  0.76868460  0.22302504  1
  O  O22  1  0.66144973  0.49322822  0.38231622  1
  O  O23  1  0.93030015  0.73091564  0.72068825  1
  O  O24  1  0.64641537  0.00606217  0.88256825  1
  O  O25  1  0.02593521  0.35279540  0.56832035  1
  O  O26  1  0.35465235  0.71684727  0.77390550  1
  O  O27  1  0.95400406  0.16984002  0.94450797  1
  O  O28  1  0.04599594  0.83015998  0.05549203  1
  O  O29  1  0.91727578  0.98786364  0.30648095  1
  O  O30  1  0.08272422  0.01213636  0.69351905  1
  O  O31  1  0.64534765  0.28315273  0.22609450  1
  O  O32  1  0.33855027  0.50677178  0.61768378  1
  O  O33  1  0.22958105  0.51729478  0.18702401  1
  O  O34  1  0.35358463  0.99393783  0.11743175  1
  O  O35  1  0.54407114  0.81283408  0.47981355  1
  O  O36  1  0.97406479  0.64720460  0.43167965  1
  O  O37  1  0.68085048  0.25529937  0.71264085  1
  O  O38  1  0.77041895  0.48270522  0.81297599  1
  O  O39  1  0.14352435  0.50145703  0.91118469  1
