# generated using pymatgen
data_Na3B6NO13
_symmetry_space_group_name_H-M   'P 1'
_cell_length_a   7.75786611
_cell_length_b   10.10589916
_cell_length_c   12.71359318
_cell_angle_alpha   90.00000000
_cell_angle_beta   90.00000000
_cell_angle_gamma   90.00000000
_symmetry_Int_Tables_number   1
_chemical_formula_structural   Na3B6NO13
_chemical_formula_sum   'Na12 B24 N4 O52'
_cell_volume   996.74840828
_cell_formula_units_Z   4
loop_
 _symmetry_equiv_pos_site_id
 _symmetry_equiv_pos_as_xyz
  1  'x, y, z'
loop_
 _atom_site_type_symbol
 _atom_site_label
 _atom_site_symmetry_multiplicity
 _atom_site_fract_x
 _atom_site_fract_y
 _atom_site_fract_z
 _atom_site_occupancy
  Na  Na0  1  0.88094437  0.25000000  0.28466292  1
  Na  Na1  1  0.50000000  0.50000000  0.00000000  1
  Na  Na2  1  0.00000000  0.00000000  0.50000000  1
  Na  Na3  1  0.00000000  0.50000000  0.50000000  1
  Na  Na4  1  0.38094437  0.75000000  0.21533708  1
  Na  Na5  1  0.50000000  0.50000000  0.50000000  1
  Na  Na6  1  0.61905563  0.25000000  0.78466292  1
  Na  Na7  1  0.50000000  0.00000000  0.00000000  1
  Na  Na8  1  0.00000000  0.00000000  0.00000000  1
  Na  Na9  1  0.00000000  0.50000000  0.00000000  1
  Na  Na10  1  0.50000000  0.00000000  0.50000000  1
  Na  Na11  1  0.11905563  0.75000000  0.71533708  1
  B  B12  1  0.72012892  0.75000000  0.49914663  1
  B  B13  1  0.47430731  0.97916335  0.74069239  1
  B  B14  1  0.97430731  0.02083665  0.75930761  1
  B  B15  1  0.02569269  0.52083665  0.24069239  1
  B  B16  1  0.56043489  0.75000000  0.68524187  1
  B  B17  1  0.22748351  0.12002295  0.66778414  1
  B  B18  1  0.97430731  0.47916335  0.75930761  1
  B  B19  1  0.06043489  0.25000000  0.81475813  1
  B  B20  1  0.27251649  0.37997705  0.16778414  1
  B  B21  1  0.77251649  0.87997705  0.33221586  1
  B  B22  1  0.43956511  0.25000000  0.31475813  1
  B  B23  1  0.22012892  0.25000000  0.00085337  1
  B  B24  1  0.93956511  0.75000000  0.18524187  1
  B  B25  1  0.77987108  0.75000000  0.99914663  1
  B  B26  1  0.47430731  0.52083665  0.74069239  1
  B  B27  1  0.27987108  0.25000000  0.50085337  1
  B  B28  1  0.72748351  0.62002295  0.83221586  1
  B  B29  1  0.72748351  0.87997705  0.83221586  1
  B  B30  1  0.52569269  0.47916335  0.25930761  1
  B  B31  1  0.52569269  0.02083665  0.25930761  1
  B  B32  1  0.02569269  0.97916335  0.24069239  1
  B  B33  1  0.27251649  0.12002295  0.16778414  1
  B  B34  1  0.22748351  0.37997705  0.66778414  1
  B  B35  1  0.77251649  0.62002295  0.33221586  1
  N  N36  1  0.21225260  0.75000000  0.44901879  1
  N  N37  1  0.71225260  0.25000000  0.05098121  1
  N  N38  1  0.28774740  0.75000000  0.94901879  1
  N  N39  1  0.78774740  0.25000000  0.55098121  1
  O  O40  1  0.38490359  0.09428088  0.72640491  1
  O  O41  1  0.09812632  0.48378205  0.68128411  1
  O  O42  1  0.88490359  0.90571912  0.77359509  1
  O  O43  1  0.23186996  0.85881287  0.91293213  1
  O  O44  1  0.90187368  0.98378205  0.31871589  1
  O  O45  1  0.44954558  0.86878239  0.67861985  1
  O  O46  1  0.40187368  0.48378205  0.18128411  1
  O  O47  1  0.44954558  0.63121761  0.67861985  1
  O  O48  1  0.23186996  0.64118713  0.91293213  1
  O  O49  1  0.26813004  0.85881287  0.41293213  1
  O  O50  1  0.76813004  0.14118713  0.08706787  1
  O  O51  1  0.26264452  0.36885221  0.55397844  1
  O  O52  1  0.90332672  0.25000000  0.48012781  1
  O  O53  1  0.94954558  0.36878239  0.82138015  1
  O  O54  1  0.94954558  0.13121761  0.82138015  1
  O  O55  1  0.73735548  0.63114779  0.44602156  1
  O  O56  1  0.55045442  0.36878239  0.32138015  1
  O  O57  1  0.38490359  0.40571912  0.72640491  1
  O  O58  1  0.76264452  0.86885221  0.94602156  1
  O  O59  1  0.73735548  0.86885221  0.44602156  1
  O  O60  1  0.76264452  0.63114779  0.94602156  1
  O  O61  1  0.73186996  0.35881287  0.58706787  1
  O  O62  1  0.88490359  0.59428088  0.77359509  1
  O  O63  1  0.84893986  0.75000000  0.29293425  1
  O  O64  1  0.81152950  0.75000000  0.10357968  1
  O  O65  1  0.76813004  0.35881287  0.08706787  1
  O  O66  1  0.90187368  0.51621795  0.31871589  1
  O  O67  1  0.34893986  0.25000000  0.20706575  1
  O  O68  1  0.05045442  0.86878239  0.17861985  1
  O  O69  1  0.23735548  0.36885221  0.05397844  1
  O  O70  1  0.59667328  0.25000000  0.98012781  1
  O  O71  1  0.11509641  0.40571912  0.22640491  1
  O  O72  1  0.09812632  0.01621795  0.68128411  1
  O  O73  1  0.15106014  0.25000000  0.70706575  1
  O  O74  1  0.61509641  0.59428088  0.27359509  1
  O  O75  1  0.23735548  0.13114779  0.05397844  1
  O  O76  1  0.40187368  0.01621795  0.18128411  1
  O  O77  1  0.05045442  0.63121761  0.17861985  1
  O  O78  1  0.11509641  0.09428088  0.22640491  1
  O  O79  1  0.40332672  0.75000000  0.01987219  1
  O  O80  1  0.68847050  0.75000000  0.60357968  1
  O  O81  1  0.55045442  0.13121761  0.32138015  1
  O  O82  1  0.26264452  0.13114779  0.55397844  1
  O  O83  1  0.09667328  0.75000000  0.51987219  1
  O  O84  1  0.65106014  0.75000000  0.79293425  1
  O  O85  1  0.59812632  0.98378205  0.81871589  1
  O  O86  1  0.31152950  0.25000000  0.39642032  1
  O  O87  1  0.73186996  0.14118713  0.58706787  1
  O  O88  1  0.26813004  0.64118713  0.41293213  1
  O  O89  1  0.61509641  0.90571912  0.27359509  1
  O  O90  1  0.59812632  0.51621795  0.81871589  1
  O  O91  1  0.18847050  0.25000000  0.89642032  1
