# generated using pymatgen
data_CsAl3(P3O10)2
_symmetry_space_group_name_H-M   'P 1'
_cell_length_a   8.44241854
_cell_length_b   8.44241886
_cell_length_c   12.33334538
_cell_angle_alpha   89.99999903
_cell_angle_beta   90.00000099
_cell_angle_gamma   106.08040778
_symmetry_Int_Tables_number   1
_chemical_formula_structural   CsAl3(P3O10)2
_chemical_formula_sum   'Cs2 Al6 P12 O40'
_cell_volume   844.65834269
_cell_formula_units_Z   2
loop_
 _symmetry_equiv_pos_site_id
 _symmetry_equiv_pos_as_xyz
  1  'x, y, z'
loop_
 _atom_site_type_symbol
 _atom_site_label
 _atom_site_symmetry_multiplicity
 _atom_site_fract_x
 _atom_site_fract_y
 _atom_site_fract_z
 _atom_site_occupancy
  Cs  Cs0  1  0.00003555  0.00003555  0.00000000  1
  Cs  Cs1  1  0.50003542  0.50003542  0.50000000  1
  Al  Al2  1  0.82096445  0.27732037  0.72097050  1
  Al  Al3  1  0.88011250  0.88011250  0.50000000  1
  Al  Al4  1  0.77732037  0.32096451  0.22097050  1
  Al  Al5  1  0.38011246  0.38011246  0.00000000  1
  Al  Al6  1  0.32096451  0.77732037  0.77902950  1
  Al  Al7  1  0.27732037  0.82096445  0.27902950  1
  P  P8  1  0.37912848  0.22489306  0.21948523  1
  P  P9  1  0.37932669  0.75304625  0.04234517  1
  P  P10  1  0.22489306  0.37912848  0.78051477  1
  P  P11  1  0.63773061  0.90387573  0.19509795  1
  P  P12  1  0.87912875  0.72489353  0.28051488  1
  P  P13  1  0.90387573  0.63773061  0.80490205  1
  P  P14  1  0.75304625  0.37932669  0.95765483  1
  P  P15  1  0.13773108  0.40387618  0.30490224  1
  P  P16  1  0.40387618  0.13773108  0.69509776  1
  P  P17  1  0.25304624  0.87932672  0.54234484  1
  P  P18  1  0.72489353  0.87912875  0.71948512  1
  P  P19  1  0.87932672  0.25304624  0.45765516  1
  O  O20  1  0.05182761  0.34599227  0.74081964  1
  O  O21  1  0.81449437  0.78226753  0.80383635  1
  O  O22  1  0.58546289  0.21747704  0.70006715  1
  O  O23  1  0.28226754  0.31449427  0.30383644  1
  O  O24  1  0.34599227  0.05182761  0.25918036  1
  O  O25  1  0.84795071  0.30292938  0.57051722  1
  O  O26  1  0.31449427  0.28226754  0.69616356  1
  O  O27  1  0.50665476  0.82069033  0.27546933  1
  O  O28  1  0.30292938  0.84795071  0.42948278  1
  O  O29  1  0.08546330  0.71747708  0.79993277  1
  O  O30  1  0.05654637  0.82907669  0.27797079  1
  O  O31  1  0.29349501  0.76480503  0.62590329  1
  O  O32  1  0.34795073  0.80292958  0.92948259  1
  O  O33  1  0.84599213  0.55182732  0.24081958  1
  O  O34  1  0.36191791  0.06808556  0.57322971  1
  O  O35  1  0.26480517  0.79349486  0.12590319  1
  O  O36  1  0.07250601  0.88301263  0.55093767  1
  O  O37  1  0.32069018  0.00665452  0.77546936  1
  O  O38  1  0.82907669  0.05654637  0.72202921  1
  O  O39  1  0.55654656  0.32907677  0.22202914  1
  O  O40  1  0.32907677  0.55654656  0.77797086  1
  O  O41  1  0.78226753  0.81449437  0.19616365  1
  O  O42  1  0.56808556  0.86191796  0.07322977  1
  O  O43  1  0.38301265  0.57250600  0.05093758  1
  O  O44  1  0.76480503  0.29349501  0.37409671  1
  O  O45  1  0.30475497  0.23581837  0.10527093  1
  O  O46  1  0.80475510  0.73581833  0.39472910  1
  O  O47  1  0.57250600  0.38301265  0.94906242  1
  O  O48  1  0.73581833  0.80475510  0.60527090  1
  O  O49  1  0.82069033  0.50665476  0.72453067  1
  O  O50  1  0.71747708  0.08546330  0.20006723  1
  O  O51  1  0.86191796  0.56808556  0.92677023  1
  O  O52  1  0.88301263  0.07250601  0.44906233  1
  O  O53  1  0.79349486  0.26480517  0.87409681  1
  O  O54  1  0.80292958  0.34795073  0.07051741  1
  O  O55  1  0.55182732  0.84599213  0.75918042  1
  O  O56  1  0.23581837  0.30475497  0.89472907  1
  O  O57  1  0.21747704  0.58546289  0.29993285  1
  O  O58  1  0.06808556  0.36191791  0.42677029  1
  O  O59  1  0.00665452  0.32069018  0.22453064  1
