# generated using pymatgen
data_ReSb(OF4)2
_symmetry_space_group_name_H-M   'P 1'
_cell_length_a   5.76213252
_cell_length_b   10.41041889
_cell_length_c   12.92396654
_cell_angle_alpha   90.00000000
_cell_angle_beta   99.72989679
_cell_angle_gamma   90.00000000
_symmetry_Int_Tables_number   1
_chemical_formula_structural   ReSb(OF4)2
_chemical_formula_sum   'Re4 Sb4 O8 F32'
_cell_volume   764.10802344
_cell_formula_units_Z   4
loop_
 _symmetry_equiv_pos_site_id
 _symmetry_equiv_pos_as_xyz
  1  'x, y, z'
loop_
 _atom_site_type_symbol
 _atom_site_label
 _atom_site_symmetry_multiplicity
 _atom_site_fract_x
 _atom_site_fract_y
 _atom_site_fract_z
 _atom_site_occupancy
  Re  Re0  1  0.33346153  0.26057813  0.21440437  1
  Re  Re1  1  0.66653847  0.76057813  0.28559563  1
  Re  Re2  1  0.66653847  0.73942187  0.78559563  1
  Re  Re3  1  0.33346153  0.23942187  0.71440437  1
  Sb  Sb4  1  0.00000000  0.00000000  0.50000000  1
  Sb  Sb5  1  0.00000000  0.50000000  0.50000000  1
  Sb  Sb6  1  0.00000000  0.50000000  0.00000000  1
  Sb  Sb7  1  0.00000000  0.00000000  0.00000000  1
  O  O8  1  0.47672302  0.40076393  0.24786541  1
  O  O9  1  0.59306499  0.66983712  0.17598440  1
  O  O10  1  0.40693501  0.16983712  0.32401560  1
  O  O11  1  0.52327698  0.59923607  0.75213459  1
  O  O12  1  0.59306499  0.83016288  0.67598440  1
  O  O13  1  0.40693501  0.33016288  0.82401560  1
  O  O14  1  0.52327698  0.90076393  0.25213459  1
  O  O15  1  0.47672302  0.09923607  0.74786541  1
  F  F16  1  0.18996612  0.15379994  0.55574672  1
  F  F17  1  0.72872037  0.07404560  0.53972362  1
  F  F18  1  0.19177807  0.85955908  0.05340673  1
  F  F19  1  0.72872037  0.42595440  0.03972362  1
  F  F20  1  0.11534359  0.39991058  0.63129815  1
  F  F21  1  0.07313576  0.92108283  0.63401059  1
  F  F22  1  0.53214021  0.30993469  0.63103345  1
  F  F23  1  0.88465641  0.60008942  0.36870185  1
  F  F24  1  0.81003388  0.65379994  0.94425328  1
  F  F25  1  0.07313576  0.57891717  0.13401059  1
  F  F26  1  0.02947204  0.19374711  0.72937567  1
  F  F27  1  0.97052796  0.69374711  0.77062433  1
  F  F28  1  0.02947204  0.30625289  0.22937567  1
  F  F29  1  0.19177807  0.64044092  0.55340673  1
  F  F30  1  0.27127963  0.57404560  0.96027638  1
  F  F31  1  0.24698728  0.06681463  0.93608210  1
  F  F32  1  0.88465641  0.89991058  0.86870185  1
  F  F33  1  0.46785979  0.69006531  0.36896655  1
  F  F34  1  0.75301272  0.93318537  0.06391790  1
  F  F35  1  0.97052796  0.80625289  0.27062433  1
  F  F36  1  0.80822193  0.35955908  0.44659327  1
  F  F37  1  0.24698728  0.43318537  0.43608210  1
  F  F38  1  0.92686424  0.42108283  0.86598941  1
  F  F39  1  0.75301272  0.56681463  0.56391790  1
  F  F40  1  0.92686424  0.07891717  0.36598941  1
  F  F41  1  0.53214021  0.19006531  0.13103345  1
  F  F42  1  0.46785979  0.80993469  0.86896655  1
  F  F43  1  0.18996612  0.34620006  0.05574672  1
  F  F44  1  0.11534359  0.10008942  0.13129815  1
  F  F45  1  0.80822193  0.14044092  0.94659327  1
  F  F46  1  0.81003388  0.84620006  0.44425328  1
  F  F47  1  0.27127963  0.92595440  0.46027638  1
