# generated using pymatgen
data_BaPt2S3
_symmetry_space_group_name_H-M   'P 1'
_cell_length_a   11.20913018
_cell_length_b   11.20913018
_cell_length_c   13.33911623
_cell_angle_alpha   90.00000000
_cell_angle_beta   90.00000000
_cell_angle_gamma   90.00000000
_symmetry_Int_Tables_number   1
_chemical_formula_structural   BaPt2S3
_chemical_formula_sum   'Ba12 Pt24 S36'
_cell_volume   1675.98791496
_cell_formula_units_Z   12
loop_
 _symmetry_equiv_pos_site_id
 _symmetry_equiv_pos_as_xyz
  1  'x, y, z'
loop_
 _atom_site_type_symbol
 _atom_site_label
 _atom_site_symmetry_multiplicity
 _atom_site_fract_x
 _atom_site_fract_y
 _atom_site_fract_z
 _atom_site_occupancy
  Ba  Ba0  1  0.89862962  0.67746993  0.24985859  1
  Ba  Ba1  1  0.82253007  0.39862962  0.49985859  1
  Ba  Ba2  1  0.67746993  0.89862962  0.75014141  1
  Ba  Ba3  1  0.60137038  0.17746993  1.00014141  1
  Ba  Ba4  1  0.17746993  0.60137038  -0.00014141  1
  Ba  Ba5  1  0.10137038  0.32253007  0.74985859  1
  Ba  Ba6  1  0.39412931  0.39412931  0.50000000  1
  Ba  Ba7  1  0.32253007  0.10137038  0.25014141  1
  Ba  Ba8  1  0.39862962  0.82253007  0.50014141  1
  Ba  Ba9  1  0.10587069  0.89412931  0.75000000  1
  Ba  Ba10  1  0.89412931  0.10587069  0.25000000  1
  Ba  Ba11  1  0.60587069  0.60587069  0.00000000  1
  Pt  Pt12  1  0.63430267  0.03968642  0.36694590  1
  Pt  Pt13  1  0.35783509  0.26968697  0.86787620  1
  Pt  Pt14  1  0.11126494  0.11126494  0.00000000  1
  Pt  Pt15  1  0.03968642  0.63430267  0.63305410  1
  Pt  Pt16  1  0.38655432  0.61344568  0.75000000  1
  Pt  Pt17  1  0.88873506  0.88873506  0.50000000  1
  Pt  Pt18  1  0.76968697  0.14216491  0.61787620  1
  Pt  Pt19  1  0.13430267  0.46031358  0.38305410  1
  Pt  Pt20  1  0.88655432  0.88655432  0.00000000  1
  Pt  Pt21  1  0.73031303  0.64216491  0.63212380  1
  Pt  Pt22  1  0.85783509  0.23031303  0.88212380  1
  Pt  Pt23  1  0.23031303  0.85783509  0.11787620  1
  Pt  Pt24  1  0.61126494  0.38873506  0.75000000  1
  Pt  Pt25  1  0.46031358  0.13430267  0.61694590  1
  Pt  Pt26  1  0.53968642  0.86569733  0.11694590  1
  Pt  Pt27  1  0.11344568  0.11344568  0.50000000  1
  Pt  Pt28  1  0.14216491  0.76968697  0.38212380  1
  Pt  Pt29  1  0.64216491  0.73031303  0.36787620  1
  Pt  Pt30  1  0.86569733  0.53968642  0.88305410  1
  Pt  Pt31  1  0.38873506  0.61126494  0.25000000  1
  Pt  Pt32  1  0.96031358  0.36569733  0.13305410  1
  Pt  Pt33  1  0.61344568  0.38655432  0.25000000  1
  Pt  Pt34  1  0.36569733  0.96031358  0.86694590  1
  Pt  Pt35  1  0.26968697  0.35783509  0.13212380  1
  S  S36  1  0.11428503  0.32259903  0.25127194  1
  S  S37  1  0.17740097  0.61428503  0.50127194  1
  S  S38  1  0.59850589  0.59850589  0.50000000  1
  S  S39  1  0.31984736  0.11250012  0.98035374  1
  S  S40  1  0.59763197  0.59454982  0.23876818  1
  S  S41  1  0.68015264  0.88749988  0.48035374  1
  S  S42  1  0.09850589  0.90149411  0.25000000  1
  S  S43  1  0.09454982  0.90236803  0.98876818  1
  S  S44  1  0.32409696  0.10490027  0.48260715  1
  S  S45  1  0.82259903  0.38571497  0.00127194  1
  S  S46  1  0.09763197  0.90545018  0.51123182  1
  S  S47  1  0.17590304  0.60490027  0.76739285  1
  S  S48  1  0.39509973  0.82409696  0.73260715  1
  S  S49  1  0.90236803  0.09454982  0.01123182  1
  S  S50  1  0.82409696  0.39509973  0.26739285  1
  S  S51  1  0.32259903  0.11428503  0.74872806  1
  S  S52  1  0.89509973  0.67590304  0.01739285  1
  S  S53  1  0.11250012  0.31984736  0.01964626  1
  S  S54  1  0.61250012  0.18015264  0.73035374  1
  S  S55  1  0.61428503  0.17740097  0.49872806  1
  S  S56  1  0.40149411  0.40149411  0.00000000  1
  S  S57  1  0.67590304  0.89509973  0.98260715  1
  S  S58  1  0.90545018  0.09763197  0.48876818  1
  S  S59  1  0.40236803  0.40545018  0.73876818  1
  S  S60  1  0.18015264  0.61250012  0.26964626  1
  S  S61  1  0.60490027  0.17590304  0.23260715  1
  S  S62  1  0.81984736  0.38749988  0.76964626  1
  S  S63  1  0.90149411  0.09850589  0.75000000  1
  S  S64  1  0.88571497  0.67740097  0.75127194  1
  S  S65  1  0.38749988  0.81984736  0.23035374  1
  S  S66  1  0.88749988  0.68015264  0.51964626  1
  S  S67  1  0.59454982  0.59763197  0.76123182  1
  S  S68  1  0.67740097  0.88571497  0.24872806  1
  S  S69  1  0.10490027  0.32409696  0.51739285  1
  S  S70  1  0.38571497  0.82259903  0.99872806  1
  S  S71  1  0.40545018  0.40236803  0.26123182  1
