# generated using pymatgen
data_Sr4Ti5(Si2O11)2
_symmetry_space_group_name_H-M   'P 1'
_cell_length_a   5.68281855
_cell_length_b   7.61799110
_cell_length_c   11.48677237
_cell_angle_alpha   74.83067608
_cell_angle_beta   75.67844757
_cell_angle_gamma   68.10007057
_symmetry_Int_Tables_number   1
_chemical_formula_structural   Sr4Ti5(Si2O11)2
_chemical_formula_sum   'Sr4 Ti5 Si4 O22'
_cell_volume   439.04779680
_cell_formula_units_Z   1
loop_
 _symmetry_equiv_pos_site_id
 _symmetry_equiv_pos_as_xyz
  1  'x, y, z'
loop_
 _atom_site_type_symbol
 _atom_site_label
 _atom_site_symmetry_multiplicity
 _atom_site_fract_x
 _atom_site_fract_y
 _atom_site_fract_z
 _atom_site_occupancy
  Sr  Sr0  1  0.95376443  0.35283339  0.73963775  1
  Sr  Sr1  1  0.76507896  0.20257677  0.26726531  1
  Sr  Sr2  1  0.04623557  0.64716661  0.26036225  1
  Sr  Sr3  1  0.23492104  0.79742323  0.73273469  1
  Ti  Ti4  1  0.24235712  0.00000000  0.00000000  1
  Ti  Ti5  1  0.50000000  0.50000000  0.50000000  1
  Ti  Ti6  1  0.72547949  0.54828539  0.00075563  1
  Ti  Ti7  1  0.75764288  1.00000000  1.00000000  1
  Ti  Ti8  1  0.27452051  0.45171461  0.99924437  1
  Si  Si9  1  0.59430342  0.08200850  0.72938466  1
  Si  Si10  1  0.15751002  0.23150831  0.45347165  1
  Si  Si11  1  0.84248998  0.76849169  0.54652835  1
  Si  Si12  1  0.40569658  0.91799150  0.27061534  1
  O  O13  1  0.67170072  0.94391662  0.18219898  1
  O  O14  1  0.86638864  0.37012842  0.41822679  1
  O  O15  1  0.65474385  0.62987158  0.58177321  1
  O  O16  1  0.45823779  0.46595909  0.11793334  1
  O  O17  1  0.90800159  0.18397711  1.00001972  1
  O  O18  1  0.40484214  0.18933984  0.00097588  1
  O  O19  1  0.14666550  0.11610688  0.59056213  1
  O  O20  1  0.85333450  0.88389312  0.40943787  1
  O  O21  1  0.79781632  0.05608338  0.81780102  1
  O  O22  1  0.46925456  0.70429274  0.35719814  1
  O  O23  1  0.32829928  0.05608338  0.81780102  1
  O  O24  1  0.27866427  0.09788963  0.34478182  1
  O  O25  1  0.54176221  0.53404091  0.88206666  1
  O  O26  1  0.59515786  0.81066016  0.99902412  1
  O  O27  1  0.04213021  0.53404091  0.88206666  1
  O  O28  1  0.53074544  0.29570726  0.64280186  1
  O  O29  1  0.09199841  0.81602289  -0.00001972  1
  O  O30  1  0.95786979  0.46595909  0.11793334  1
  O  O31  1  0.13361136  0.62987158  0.58177321  1
  O  O32  1  0.72133573  0.90211037  0.65521818  1
  O  O33  1  0.34525615  0.37012842  0.41822679  1
  O  O34  1  0.20218368  0.94391662  0.18219898  1
