# generated using pymatgen
data_Rb2CdSiO4
_symmetry_space_group_name_H-M   'P 1'
_cell_length_a   8.06843972
_cell_length_b   8.06843950
_cell_length_c   16.93679531
_cell_angle_alpha   90.00000000
_cell_angle_beta   90.00000000
_cell_angle_gamma   92.36526707
_symmetry_Int_Tables_number   1
_chemical_formula_structural   Rb2CdSiO4
_chemical_formula_sum   'Rb16 Cd8 Si8 O32'
_cell_volume   1101.64123072
_cell_formula_units_Z   8
loop_
 _symmetry_equiv_pos_site_id
 _symmetry_equiv_pos_as_xyz
  1  'x, y, z'
loop_
 _atom_site_type_symbol
 _atom_site_label
 _atom_site_symmetry_multiplicity
 _atom_site_fract_x
 _atom_site_fract_y
 _atom_site_fract_z
 _atom_site_occupancy
  Rb  Rb0  1  0.25756921  0.75600007  0.89056035  1
  Rb  Rb1  1  0.95770456  0.95770456  0.75000000  1
  Rb  Rb2  1  0.25781990  0.24835361  0.85942192  1
  Rb  Rb3  1  0.54808926  0.05231016  0.01199314  1
  Rb  Rb4  1  0.24835361  0.25781990  0.64057808  1
  Rb  Rb5  1  0.74218010  0.75164639  0.35942192  1
  Rb  Rb6  1  0.44641245  0.44641245  0.25000000  1
  Rb  Rb7  1  0.74243079  0.24399993  0.39056035  1
  Rb  Rb8  1  0.75600007  0.25756921  0.60943965  1
  Rb  Rb9  1  0.94768984  0.45191074  0.98800686  1
  Rb  Rb10  1  0.45191074  0.94768984  0.51199314  1
  Rb  Rb11  1  0.55358755  0.55358755  0.75000000  1
  Rb  Rb12  1  0.24399993  0.74243079  0.10943965  1
  Rb  Rb13  1  0.05231016  0.54808926  0.48800686  1
  Rb  Rb14  1  0.75164639  0.74218010  0.14057808  1
  Rb  Rb15  1  0.04229544  0.04229544  0.25000000  1
  Cd  Cd16  1  0.73112471  0.22815413  0.84387464  1
  Cd  Cd17  1  0.26887529  0.77184587  0.34387464  1
  Cd  Cd18  1  0.22815413  0.73112471  0.65612536  1
  Cd  Cd19  1  0.77184587  0.26887529  0.15612536  1
  Cd  Cd20  1  0.75249586  0.77132961  0.90655208  1
  Cd  Cd21  1  0.22867039  0.24750414  0.09344792  1
  Cd  Cd22  1  0.24750414  0.22867039  0.40655208  1
  Cd  Cd23  1  0.77132961  0.75249586  0.59344792  1
  Si  Si24  1  0.98715155  0.51692655  0.75459375  1
  Si  Si25  1  0.51692655  0.98715155  0.74540625  1
  Si  Si26  1  0.51760968  0.48239032  0.00000000  1
  Si  Si27  1  0.98959402  0.01040598  0.00000000  1
  Si  Si28  1  0.01284845  0.48307345  0.25459375  1
  Si  Si29  1  0.48307345  0.01284845  0.24540625  1
  Si  Si30  1  0.01040598  0.98959402  0.50000000  1
  Si  Si31  1  0.48239032  0.51760968  0.50000000  1
  O  O32  1  0.44758038  0.31349688  0.49135516  1
  O  O33  1  0.19332130  0.04861283  -0.00128652  1
  O  O34  1  0.61143872  0.41599359  0.08030155  1
  O  O35  1  0.68650312  0.55241962  0.50864484  1
  O  O36  1  0.41162456  0.07311309  0.33302682  1
  O  O37  1  0.19309541  0.54011306  0.75487162  1
  O  O38  1  0.09820443  0.91837255  0.41884708  1
  O  O39  1  0.55241962  0.68650312  0.99135516  1
  O  O40  1  0.41599359  0.61143872  0.41969845  1
  O  O41  1  0.06366749  0.68365204  0.26225354  1
  O  O42  1  0.45988694  0.80690459  0.24512838  1
  O  O43  1  0.90783057  0.62227563  0.82797372  1
  O  O44  1  0.09216943  0.37772437  0.32797372  1
  O  O45  1  0.62227563  0.90783057  0.67202628  1
  O  O46  1  0.80690459  0.45988694  0.25487162  1
  O  O47  1  0.90179557  0.08162745  0.91884708  1
  O  O48  1  0.91837255  0.09820443  0.08115292  1
  O  O49  1  0.08162745  0.90179557  0.58115292  1
  O  O50  1  0.95138717  0.80667870  1.00128652  1
  O  O51  1  0.58837544  0.92688691  0.83302682  1
  O  O52  1  0.37772437  0.09216943  0.17202628  1
  O  O53  1  0.54011306  0.19309541  0.74512838  1
  O  O54  1  0.31349688  0.44758038  0.00864484  1
  O  O55  1  0.58400641  0.38856128  0.91969845  1
  O  O56  1  0.92688691  0.58837544  0.66697318  1
  O  O57  1  0.93633251  0.31634796  0.76225354  1
  O  O58  1  0.04861283  0.19332130  0.50128652  1
  O  O59  1  0.07311309  0.41162456  0.16697318  1
  O  O60  1  0.38856128  0.58400641  0.58030155  1
  O  O61  1  0.80667870  0.95138717  0.49871348  1
  O  O62  1  0.68365204  0.06366749  0.23774646  1
  O  O63  1  0.31634796  0.93633251  0.73774646  1
