# generated using pymatgen
data_Ba5Er2ZrAl2O13
_symmetry_space_group_name_H-M   'P 1'
_cell_length_a   6.01733644
_cell_length_b   6.01733613
_cell_length_c   25.17070864
_cell_angle_alpha   90.00000000
_cell_angle_beta   90.00000000
_cell_angle_gamma   120.00000171
_symmetry_Int_Tables_number   1
_chemical_formula_structural   Ba5Er2ZrAl2O13
_chemical_formula_sum   'Ba10 Er4 Zr2 Al4 O26'
_cell_volume   789.28642417
_cell_formula_units_Z   2
loop_
 _symmetry_equiv_pos_site_id
 _symmetry_equiv_pos_as_xyz
  1  'x, y, z'
loop_
 _atom_site_type_symbol
 _atom_site_label
 _atom_site_symmetry_multiplicity
 _atom_site_fract_x
 _atom_site_fract_y
 _atom_site_fract_z
 _atom_site_occupancy
  Ba  Ba0  1  0.00000000  0.00000000  0.36274868  1
  Ba  Ba1  1  0.66666700  0.33333300  0.95858014  1
  Ba  Ba2  1  0.00000000  0.00000000  0.63725132  1
  Ba  Ba3  1  0.00000000  0.00000000  0.86274868  1
  Ba  Ba4  1  0.66666700  0.33333300  0.54141986  1
  Ba  Ba5  1  0.33333300  0.66666700  0.45858014  1
  Ba  Ba6  1  0.00000000  0.00000000  0.13725132  1
  Ba  Ba7  1  0.33333300  0.66666700  0.04141986  1
  Ba  Ba8  1  0.66666700  0.33333300  0.25000000  1
  Ba  Ba9  1  0.33333300  0.66666700  0.75000000  1
  Er  Er10  1  0.66666700  0.33333300  0.10392251  1
  Er  Er11  1  0.33333300  0.66666700  0.89607749  1
  Er  Er12  1  0.33333300  0.66666700  0.60392251  1
  Er  Er13  1  0.66666700  0.33333300  0.39607749  1
  Zr  Zr14  1  0.00000000  0.00000000  0.50000000  1
  Zr  Zr15  1  0.00000000  0.00000000  0.00000000  1
  Al  Al16  1  0.66666700  0.33333300  0.81907772  1
  Al  Al17  1  0.33333300  0.66666700  0.18092228  1
  Al  Al18  1  0.66666700  0.33333300  0.68092228  1
  Al  Al19  1  0.33333300  0.66666700  0.31907772  1
  O  O20  1  0.83681574  0.67363149  0.05037584  1
  O  O21  1  0.83681574  0.67363149  0.44962416  1
  O  O22  1  0.16318426  0.83681574  0.94962416  1
  O  O23  1  0.16318426  0.32636851  0.55037584  1
  O  O24  1  0.50517549  0.49482451  0.84194110  1
  O  O25  1  0.83681574  0.16318426  0.05037584  1
  O  O26  1  0.49482451  0.98964903  0.15805890  1
  O  O27  1  0.01035097  0.50517549  0.15805890  1
  O  O28  1  0.83681574  0.16318426  0.44962416  1
  O  O29  1  0.32636851  0.16318426  0.05037584  1
  O  O30  1  0.98964903  0.49482451  0.65805890  1
  O  O31  1  0.50517549  0.01035097  0.65805890  1
  O  O32  1  0.01035097  0.50517549  0.34194110  1
  O  O33  1  0.67363149  0.83681574  0.55037584  1
  O  O34  1  0.66666700  0.33333300  0.75000000  1
  O  O35  1  0.49482451  0.50517549  0.34194110  1
  O  O36  1  0.67363149  0.83681574  0.94962416  1
  O  O37  1  0.50517549  0.01035097  0.84194110  1
  O  O38  1  0.98964903  0.49482451  0.84194110  1
  O  O39  1  0.50517549  0.49482451  0.65805890  1
  O  O40  1  0.16318426  0.83681574  0.55037584  1
  O  O41  1  0.16318426  0.32636851  0.94962416  1
  O  O42  1  0.49482451  0.50517549  0.15805890  1
  O  O43  1  0.32636851  0.16318426  0.44962416  1
  O  O44  1  0.33333300  0.66666700  0.25000000  1
  O  O45  1  0.49482451  0.98964903  0.34194110  1
