# generated using pymatgen
data_K5U2O4F9
_symmetry_space_group_name_H-M   'P 1'
_cell_length_a   6.43598150
_cell_length_b   10.95876736
_cell_length_c   13.23071223
_cell_angle_alpha   102.04571685
_cell_angle_beta   90.00000000
_cell_angle_gamma   107.07632260
_symmetry_Int_Tables_number   1
_chemical_formula_structural   K5U2O4F9
_chemical_formula_sum   'K10 U4 O8 F18'
_cell_volume   870.51098730
_cell_formula_units_Z   2
loop_
 _symmetry_equiv_pos_site_id
 _symmetry_equiv_pos_as_xyz
  1  'x, y, z'
loop_
 _atom_site_type_symbol
 _atom_site_label
 _atom_site_symmetry_multiplicity
 _atom_site_fract_x
 _atom_site_fract_y
 _atom_site_fract_z
 _atom_site_occupancy
  K  K0  1  0.19083047  0.91703258  0.43485468  1
  K  K1  1  0.50433423  0.43291518  0.62171099  1
  K  K2  1  0.07141905  0.56708482  0.87828901  1
  K  K3  1  0.72620211  0.91703258  0.93485468  1
  K  K4  1  0.92858095  0.43291518  0.12171099  1
  K  K5  1  0.49566577  0.56708482  0.37828901  1
  K  K6  1  0.80916953  0.08296742  0.56514532  1
  K  K7  1  -0.00000000  0.50000000  0.50000000  1
  K  K8  1  0.27379789  0.08296742  0.06514532  1
  K  K9  1  0.50000000  0.50000000  -0.00000000  1
  U  U10  1  0.43586517  0.21768982  0.80915958  1
  U  U11  1  0.21817535  0.78231018  0.69084042  1
  U  U12  1  0.78182465  0.21768982  0.30915958  1
  U  U13  1  0.56413483  0.78231018  0.19084042  1
  O  O14  1  0.75355131  0.76859803  0.08703359  1
  O  O15  1  0.64177461  0.21856849  0.71246799  1
  O  O16  1  0.24644869  0.23140197  0.91296641  1
  O  O17  1  0.98495428  0.23140197  0.41296641  1
  O  O18  1  0.35822539  0.78143151  0.28753201  1
  O  O19  1  0.42320512  0.78143151  0.78753201  1
  O  O20  1  0.57679488  0.21856849  0.21246799  1
  O  O21  1  0.01504572  0.76859803  0.58703359  1
  F  F22  1  0.54431997  0.10410918  0.40328210  1
  F  F23  1  0.63648688  0.37071436  0.41891555  1
  F  F24  1  0.23041220  0.00000000  0.75000000  1
  F  F25  1  0.45568003  0.89589082  0.59671790  1
  F  F26  1  0.55978922  0.10410918  0.90328210  1
  F  F27  1  0.00207003  0.42585450  0.30703972  1
  F  F28  1  0.57621553  0.57414550  0.19296028  1
  F  F29  1  0.76958780  0.00000000  0.25000000  1
  F  F30  1  0.01287606  0.79587111  0.82949267  1
  F  F31  1  0.73422748  0.37071436  0.91891555  1
  F  F32  1  0.36351312  0.62928564  0.58108445  1
  F  F33  1  0.26577252  0.62928564  0.08108445  1
  F  F34  1  0.98712394  0.20412889  0.17050733  1
  F  F35  1  0.99792997  0.57414550  0.69296028  1
  F  F36  1  0.44021078  0.89589082  0.09671790  1
  F  F37  1  0.78299605  0.79587111  0.32949267  1
  F  F38  1  0.21700395  0.20412889  0.67050733  1
  F  F39  1  0.42378447  0.42585450  0.80703972  1
