# generated using pymatgen
data_Sr3Bi(ClO)3
_symmetry_space_group_name_H-M   'P 1'
_cell_length_a   6.76145429
_cell_length_b   11.57798406
_cell_length_c   11.94254201
_cell_angle_alpha   90.00000000
_cell_angle_beta   90.00000000
_cell_angle_gamma   90.00000000
_symmetry_Int_Tables_number   1
_chemical_formula_structural   Sr3Bi(ClO)3
_chemical_formula_sum   'Sr12 Bi4 Cl12 O12'
_cell_volume   934.91007804
_cell_formula_units_Z   4
loop_
 _symmetry_equiv_pos_site_id
 _symmetry_equiv_pos_as_xyz
  1  'x, y, z'
loop_
 _atom_site_type_symbol
 _atom_site_label
 _atom_site_symmetry_multiplicity
 _atom_site_fract_x
 _atom_site_fract_y
 _atom_site_fract_z
 _atom_site_occupancy
  Sr  Sr0  1  0.33328345  0.42938593  0.11009816  1
  Sr  Sr1  1  0.84440332  0.25000000  0.03257452  1
  Sr  Sr2  1  0.83328345  0.42938593  0.38990184  1
  Sr  Sr3  1  0.66671655  0.57061407  0.88990184  1
  Sr  Sr4  1  0.83328345  0.07061407  0.38990184  1
  Sr  Sr5  1  0.16671655  0.92938593  0.61009816  1
  Sr  Sr6  1  0.65559668  0.75000000  0.53257452  1
  Sr  Sr7  1  0.66671655  0.92938593  0.88990184  1
  Sr  Sr8  1  0.33328345  0.07061407  0.11009816  1
  Sr  Sr9  1  0.16671655  0.57061407  0.61009816  1
  Sr  Sr10  1  0.34440332  0.25000000  0.46742548  1
  Sr  Sr11  1  0.15559668  0.75000000  0.96742548  1
  Bi  Bi12  1  0.59954480  0.75000000  0.12659669  1
  Bi  Bi13  1  0.90045520  0.25000000  0.62659669  1
  Bi  Bi14  1  0.40045520  0.25000000  0.87340331  1
  Bi  Bi15  1  0.09954480  0.75000000  0.37340331  1
  Cl  Cl16  1  0.09348409  0.00538390  0.85416136  1
  Cl  Cl17  1  0.58575432  0.25000000  0.22772469  1
  Cl  Cl18  1  0.09348409  0.49461610  0.85416136  1
  Cl  Cl19  1  0.08575432  0.25000000  0.27227531  1
  Cl  Cl20  1  0.90651591  0.99461610  0.14583864  1
  Cl  Cl21  1  0.59348409  0.00538390  0.64583864  1
  Cl  Cl22  1  0.90651591  0.50538390  0.14583864  1
  Cl  Cl23  1  0.40651591  0.99461610  0.35416136  1
  Cl  Cl24  1  0.59348409  0.49461610  0.64583864  1
  Cl  Cl25  1  0.41424568  0.75000000  0.77227531  1
  Cl  Cl26  1  0.40651591  0.50538390  0.35416136  1
  Cl  Cl27  1  0.91424568  0.75000000  0.72772469  1
  O  O28  1  0.57875350  0.12281480  0.95166801  1
  O  O29  1  0.42124650  0.62281480  0.04833199  1
  O  O30  1  0.92124650  0.87718520  0.45166801  1
  O  O31  1  0.20430417  0.25000000  0.01033915  1
  O  O32  1  0.79569583  0.75000000  0.98966085  1
  O  O33  1  0.07875350  0.37718520  0.54833199  1
  O  O34  1  0.70430417  0.25000000  0.48966085  1
  O  O35  1  0.29569583  0.75000000  0.51033915  1
  O  O36  1  0.92124650  0.62281480  0.45166801  1
  O  O37  1  0.07875350  0.12281480  0.54833199  1
  O  O38  1  0.57875350  0.37718520  0.95166801  1
  O  O39  1  0.42124650  0.87718520  0.04833199  1
