# generated using pymatgen
data_K3BSb4O13
_symmetry_space_group_name_H-M   'P 1'
_cell_length_a   7.23309698
_cell_length_b   7.34553525
_cell_length_c   13.46058579
_cell_angle_alpha   82.03230460
_cell_angle_beta   80.15291876
_cell_angle_gamma   63.05177120
_symmetry_Int_Tables_number   1
_chemical_formula_structural   K3BSb4O13
_chemical_formula_sum   'K6 B2 Sb8 O26'
_cell_volume   626.60331959
_cell_formula_units_Z   2
loop_
 _symmetry_equiv_pos_site_id
 _symmetry_equiv_pos_as_xyz
  1  'x, y, z'
loop_
 _atom_site_type_symbol
 _atom_site_label
 _atom_site_symmetry_multiplicity
 _atom_site_fract_x
 _atom_site_fract_y
 _atom_site_fract_z
 _atom_site_occupancy
  K  K0  1  0.70571293  0.21562619  0.69389648  1
  K  K1  1  0.09914695  0.60451050  0.55840820  1
  K  K2  1  0.30916903  0.78082708  0.03102989  1
  K  K3  1  0.29428707  0.78437381  0.30610352  1
  K  K4  1  0.69083097  0.21917292  0.96897011  1
  K  K5  1  0.90085305  0.39548950  0.44159180  1
  B  B6  1  0.84135964  0.73122365  0.97673466  1
  B  B7  1  0.15864036  0.26877635  0.02326534  1
  Sb  Sb8  1  0.68257018  0.69119620  0.78701767  1
  Sb  Sb9  1  0.16242518  0.21052537  0.79067111  1
  Sb  Sb10  1  0.83171078  0.29253112  0.20663097  1
  Sb  Sb11  1  0.83757482  0.78947463  0.20932889  1
  Sb  Sb12  1  0.16828922  0.70746888  0.79336903  1
  Sb  Sb13  1  0.31742982  0.30880380  0.21298233  1
  Sb  Sb14  1  0.57974036  0.06575253  0.39449136  1
  Sb  Sb15  1  0.42025964  0.93424747  0.60550864  1
  O  O16  1  0.53663202  0.01259949  0.25102342  1
  O  O17  1  0.83834587  0.80490113  0.36111054  1
  O  O18  1  0.74090842  0.22524827  0.35074214  1
  O  O19  1  0.13866472  0.60411057  0.19264204  1
  O  O20  1  0.55264085  0.38347611  0.15855147  1
  O  O21  1  0.67793625  0.75115337  0.92781276  1
  O  O22  1  0.25909158  0.77475173  0.64925786  1
  O  O23  1  0.05013052  0.65411374  0.93595508  1
  O  O24  1  0.16165413  0.19509887  0.63888946  1
  O  O25  1  0.44735915  0.61652389  0.84144853  1
  O  O26  1  0.86133528  0.39588943  0.80735796  1
  O  O27  1  0.26989345  0.41954871  0.75281245  1
  O  O28  1  0.67521297  0.67312436  0.63789904  1
  O  O29  1  0.73010655  0.58045129  0.24718755  1
  O  O30  1  0.59294055  0.08514295  0.53885754  1
  O  O31  1  0.89786669  0.78992866  0.73893352  1
  O  O32  1  0.94986948  0.34588626  0.06404492  1
  O  O33  1  0.77213837  0.81872957  0.06874686  1
  O  O34  1  0.32206375  0.24884663  0.07218724  1
  O  O35  1  0.06236832  0.99543060  0.83213731  1
  O  O36  1  0.10213331  0.21007134  0.26106648  1
  O  O37  1  0.93763168  0.00456940  0.16786269  1
  O  O38  1  0.40705945  0.91485705  0.46114246  1
  O  O39  1  0.22786163  0.18127043  0.93125314  1
  O  O40  1  0.46336798  0.98740051  0.74897658  1
  O  O41  1  0.32478703  0.32687564  0.36210096  1
