# generated using pymatgen
data_Ba3LaRu2O9
_symmetry_space_group_name_H-M   'P 1'
_cell_length_a   6.01852693
_cell_length_b   6.01852715
_cell_length_c   15.08579258
_cell_angle_alpha   90.00000000
_cell_angle_beta   90.00000000
_cell_angle_gamma   119.99999874
_symmetry_Int_Tables_number   1
_chemical_formula_structural   Ba3LaRu2O9
_chemical_formula_sum   'Ba6 La2 Ru4 O18'
_cell_volume   473.23755442
_cell_formula_units_Z   2
loop_
 _symmetry_equiv_pos_site_id
 _symmetry_equiv_pos_as_xyz
  1  'x, y, z'
loop_
 _atom_site_type_symbol
 _atom_site_label
 _atom_site_symmetry_multiplicity
 _atom_site_fract_x
 _atom_site_fract_y
 _atom_site_fract_z
 _atom_site_occupancy
  Ba  Ba0  1  0.66666700  0.33333300  0.39448262  1
  Ba  Ba1  1  0.33333300  0.66666700  0.60551738  1
  Ba  Ba2  1  0.66666700  0.33333300  0.10551738  1
  Ba  Ba3  1  0.00000000  0.00000000  0.25000000  1
  Ba  Ba4  1  0.33333300  0.66666700  0.89448262  1
  Ba  Ba5  1  0.00000000  0.00000000  0.75000000  1
  La  La6  1  0.00000000  0.00000000  0.50000000  1
  La  La7  1  0.00000000  0.00000000  0.00000000  1
  Ru  Ru8  1  0.33333300  0.66666700  0.16717214  1
  Ru  Ru9  1  0.66666700  0.33333300  0.83282786  1
  Ru  Ru10  1  0.66666700  0.33333300  0.66717214  1
  Ru  Ru11  1  0.33333300  0.66666700  0.33282786  1
  O  O12  1  0.49093765  0.98187529  0.25000000  1
  O  O13  1  0.35737234  0.17868617  0.59426219  1
  O  O14  1  0.64262766  0.82131383  0.09426219  1
  O  O15  1  0.17868617  0.35737234  0.09426219  1
  O  O16  1  0.17868617  0.82131383  0.09426219  1
  O  O17  1  0.50906235  0.01812471  0.75000000  1
  O  O18  1  0.82131383  0.17868617  0.59426219  1
  O  O19  1  0.82131383  0.64262766  0.90573781  1
  O  O20  1  0.82131383  0.64262766  0.59426219  1
  O  O21  1  0.82131383  0.17868617  0.90573781  1
  O  O22  1  0.17868617  0.35737234  0.40573781  1
  O  O23  1  0.01812471  0.50906235  0.25000000  1
  O  O24  1  0.64262766  0.82131383  0.40573781  1
  O  O25  1  0.49093765  0.50906235  0.25000000  1
  O  O26  1  0.35737234  0.17868617  0.90573781  1
  O  O27  1  0.50906235  0.49093765  0.75000000  1
  O  O28  1  0.98187529  0.49093765  0.75000000  1
  O  O29  1  0.17868617  0.82131383  0.40573781  1
