# generated using pymatgen
data_Ce3Ta(ClO2)3
_symmetry_space_group_name_H-M   'P 1'
_cell_length_a   9.32175192
_cell_length_b   9.32175219
_cell_length_c   5.41006117
_cell_angle_alpha   90.00000000
_cell_angle_beta   90.00000000
_cell_angle_gamma   119.99999903
_symmetry_Int_Tables_number   1
_chemical_formula_structural   Ce3Ta(ClO2)3
_chemical_formula_sum   'Ce6 Ta2 Cl6 O12'
_cell_volume   407.12512594
_cell_formula_units_Z   2
loop_
 _symmetry_equiv_pos_site_id
 _symmetry_equiv_pos_as_xyz
  1  'x, y, z'
loop_
 _atom_site_type_symbol
 _atom_site_label
 _atom_site_symmetry_multiplicity
 _atom_site_fract_x
 _atom_site_fract_y
 _atom_site_fract_z
 _atom_site_occupancy
  Ce  Ce0  1  0.58914390  0.67959050  0.75000000  1
  Ce  Ce1  1  0.09044660  0.41085610  0.75000000  1
  Ce  Ce2  1  0.41085610  0.32040950  0.25000000  1
  Ce  Ce3  1  0.32040950  0.90955340  0.75000000  1
  Ce  Ce4  1  0.90955340  0.58914390  0.25000000  1
  Ce  Ce5  1  0.67959050  0.09044660  0.25000000  1
  Ta  Ta6  1  0.66666700  0.33333300  0.75000000  1
  Ta  Ta7  1  0.33333300  0.66666700  0.25000000  1
  Cl  Cl8  1  0.94792240  0.75904754  0.75000000  1
  Cl  Cl9  1  0.24095246  0.18887486  0.75000000  1
  Cl  Cl10  1  0.05207760  0.24095246  0.25000000  1
  Cl  Cl11  1  0.18887486  0.94792240  0.25000000  1
  Cl  Cl12  1  0.81112514  0.05207760  0.75000000  1
  Cl  Cl13  1  0.75904754  0.81112514  0.25000000  1
  O  O14  1  0.63460360  0.47935272  0.98857388  1
  O  O15  1  0.84474912  0.36539640  0.51142612  1
  O  O16  1  0.47935272  0.84474912  0.01142612  1
  O  O17  1  0.52064728  0.15525088  0.51142612  1
  O  O18  1  0.47935272  0.84474912  0.48857388  1
  O  O19  1  0.15525088  0.63460360  0.48857388  1
  O  O20  1  0.36539640  0.52064728  0.48857388  1
  O  O21  1  0.15525088  0.63460360  0.01142612  1
  O  O22  1  0.52064728  0.15525088  0.98857388  1
  O  O23  1  0.63460360  0.47935272  0.51142612  1
  O  O24  1  0.84474912  0.36539640  0.98857388  1
  O  O25  1  0.36539640  0.52064728  0.01142612  1
