# generated using pymatgen
data_K2Si4O9
_symmetry_space_group_name_H-M   'P 1'
_cell_length_a   5.00261180
_cell_length_b   8.51876940
_cell_length_c   12.32657843
_cell_angle_alpha   70.83840907
_cell_angle_beta   89.59124543
_cell_angle_gamma   89.00948398
_symmetry_Int_Tables_number   1
_chemical_formula_structural   K2Si4O9
_chemical_formula_sum   'K4 Si8 O18'
_cell_volume   496.13192611
_cell_formula_units_Z   2
loop_
 _symmetry_equiv_pos_site_id
 _symmetry_equiv_pos_as_xyz
  1  'x, y, z'
loop_
 _atom_site_type_symbol
 _atom_site_label
 _atom_site_symmetry_multiplicity
 _atom_site_fract_x
 _atom_site_fract_y
 _atom_site_fract_z
 _atom_site_occupancy
  K  K0  1  0.74393969  0.58850126  0.34895591  1
  K  K1  1  0.25606031  0.41149874  0.65104409  1
  K  K2  1  0.23645883  0.93511380  0.13863316  1
  K  K3  1  0.76354117  0.06488620  0.86136684  1
  Si  Si4  1  0.71692193  0.18220274  0.55231195  1
  Si  Si5  1  0.20730442  0.44120911  0.14566582  1
  Si  Si6  1  0.21272906  0.19760219  0.39878754  1
  Si  Si7  1  0.28307807  0.81779726  0.44768805  1
  Si  Si8  1  0.78727094  0.80239781  0.60121246  1
  Si  Si9  1  0.79269558  0.55879089  0.85433418  1
  Si  Si10  1  0.70817249  0.66822047  0.06359587  1
  Si  Si11  1  0.29182751  0.33177953  0.93640413  1
  O  O12  1  0.71648103  0.65452145  0.71999916  1
  O  O13  1  0.90514580  0.22641370  0.43423188  1
  O  O14  1  0.39786745  0.60164308  0.09554926  1
  O  O15  1  0.28351897  0.34547855  0.28000084  1
  O  O16  1  0.40668053  0.21258401  0.50049128  1
  O  O17  1  0.09485420  0.77358630  0.56576812  1
  O  O18  1  0.59331947  0.78741599  0.49950872  1
  O  O19  1  0.75649616  0.68983420  0.92544558  1
  O  O20  1  0.60213255  0.39835692  0.90445074  1
  O  O21  1  0.24350384  0.31016580  0.07455442  1
  O  O22  1  0.89766880  0.50720774  0.14022805  1
  O  O23  1  0.24771067  0.01982325  0.37682096  1
  O  O24  1  0.10233120  0.49279226  0.85977195  1
  O  O25  1  0.76812091  0.29278180  0.63041082  1
  O  O26  1  0.75228933  0.98017675  0.62317904  1
  O  O27  1  0.23187909  0.70721820  0.36958918  1
  O  O28  1  0.24786708  0.16618666  0.90840225  1
  O  O29  1  0.75213292  0.83381334  0.09159775  1
