# generated using pymatgen
data_Pr4S3N2
_symmetry_space_group_name_H-M   'P 1'
_cell_length_a   9.99375661
_cell_length_b   10.33326541
_cell_length_c   10.43702831
_cell_angle_alpha   76.41916739
_cell_angle_beta   61.39526284
_cell_angle_gamma   61.08104449
_symmetry_Int_Tables_number   1
_chemical_formula_structural   Pr4S3N2
_chemical_formula_sum   'Pr16 S12 N8'
_cell_volume   828.25665205
_cell_formula_units_Z   4
loop_
 _symmetry_equiv_pos_site_id
 _symmetry_equiv_pos_as_xyz
  1  'x, y, z'
loop_
 _atom_site_type_symbol
 _atom_site_label
 _atom_site_symmetry_multiplicity
 _atom_site_fract_x
 _atom_site_fract_y
 _atom_site_fract_z
 _atom_site_occupancy
  Pr  Pr0  1  0.36385129  0.79064754  0.56295767  1
  Pr  Pr1  1  0.91723644  0.24609961  0.02500258  1
  Pr  Pr2  1  0.81166137  0.74609961  0.52500258  1
  Pr  Pr3  1  0.63614871  0.20935246  0.43704233  1
  Pr  Pr4  1  0.28254351  0.29064754  0.06295767  1
  Pr  Pr5  1  0.79712638  0.50071052  0.31544906  1
  Pr  Pr6  1  0.57800850  0.48900402  0.74531155  1
  Pr  Pr7  1  0.20287362  0.49928948  0.68455094  1
  Pr  Pr8  1  0.38671404  0.00071052  0.81544906  1
  Pr  Pr9  1  0.71745649  0.70935246  0.93704233  1
  Pr  Pr10  1  0.18833863  0.25390039  0.47499742  1
  Pr  Pr11  1  0.18767593  0.98900402  0.24531155  1
  Pr  Pr12  1  0.08276356  0.75390039  0.97499742  1
  Pr  Pr13  1  0.42199150  0.51099598  0.25468845  1
  Pr  Pr14  1  0.81232407  0.01099598  0.75468845  1
  Pr  Pr15  1  0.61328596  0.99928948  0.18455094  1
  S  S16  1  0.89649106  0.97602743  0.22469984  1
  S  S17  1  0.52079144  0.75000000  0.25000000  1
  S  S18  1  0.11257601  0.76903850  0.50845406  1
  S  S19  1  0.39006856  0.73096150  0.99154594  1
  S  S20  1  0.47920856  0.25000000  0.75000000  1
  S  S21  1  0.90278167  0.47602743  0.72469984  1
  S  S22  1  0.10350894  0.02397257  0.77530016  1
  S  S23  1  0.88742399  0.23096150  0.49154594  1
  S  S24  1  0.50000000  0.00000000  0.50000000  1
  S  S25  1  0.09721833  0.52397257  0.27530016  1
  S  S26  1  0.60993144  0.26903850  0.00845406  1
  S  S27  1  0.00000000  0.50000000  0.00000000  1
  N  N28  1  0.68475120  0.87306338  0.74434389  1
  N  N29  1  0.69784153  0.37306338  0.24434389  1
  N  N30  1  0.81446178  0.86827372  0.96286428  1
  N  N31  1  0.30215847  0.62693662  0.75565611  1
  N  N32  1  0.31524880  0.12693662  0.25565611  1
  N  N33  1  0.18553822  0.13172628  0.03713572  1
  N  N34  1  0.64559977  0.63172628  0.53713572  1
  N  N35  1  0.35440023  0.36827372  0.46286428  1
