# generated using pymatgen
data_KLi2BO3
_symmetry_space_group_name_H-M   'P 1'
_cell_length_a   6.50745664
_cell_length_b   6.52197163
_cell_length_c   8.08736546
_cell_angle_alpha   90.00000000
_cell_angle_beta   90.00000000
_cell_angle_gamma   90.00000000
_symmetry_Int_Tables_number   1
_chemical_formula_structural   KLi2BO3
_chemical_formula_sum   'K4 Li8 B4 O12'
_cell_volume   343.23949731
_cell_formula_units_Z   4
loop_
 _symmetry_equiv_pos_site_id
 _symmetry_equiv_pos_as_xyz
  1  'x, y, z'
loop_
 _atom_site_type_symbol
 _atom_site_label
 _atom_site_symmetry_multiplicity
 _atom_site_fract_x
 _atom_site_fract_y
 _atom_site_fract_z
 _atom_site_occupancy
  K  K0  1  0.75000000  0.39384847  0.98984100  1
  K  K1  1  0.75000000  0.10615153  0.48984100  1
  K  K2  1  0.25000000  0.89384847  0.51015900  1
  K  K3  1  0.25000000  0.60615153  0.01015900  1
  Li  Li4  1  0.54054209  0.96195127  0.86035219  1
  Li  Li5  1  0.45945791  0.03804873  0.13964781  1
  Li  Li6  1  0.04054209  0.46195127  0.63964781  1
  Li  Li7  1  0.95945791  0.96195127  0.86035219  1
  Li  Li8  1  0.95945791  0.53804873  0.36035219  1
  Li  Li9  1  0.45945791  0.46195127  0.63964781  1
  Li  Li10  1  0.04054209  0.03804873  0.13964781  1
  Li  Li11  1  0.54054209  0.53804873  0.36035219  1
  B  B12  1  0.25000000  0.16775733  0.84485319  1
  B  B13  1  0.75000000  0.83224267  0.15514681  1
  B  B14  1  0.25000000  0.33224267  0.34485319  1
  B  B15  1  0.75000000  0.66775733  0.65514681  1
  O  O16  1  0.43823290  0.23841990  0.78831469  1
  O  O17  1  0.43823290  0.26158010  0.28831469  1
  O  O18  1  0.93823290  0.73841990  0.71168531  1
  O  O19  1  0.75000000  0.50699534  0.53800127  1
  O  O20  1  0.25000000  0.49300466  0.46199873  1
  O  O21  1  0.06176710  0.23841990  0.78831469  1
  O  O22  1  0.93823290  0.76158010  0.21168531  1
  O  O23  1  0.56176710  0.76158010  0.21168531  1
  O  O24  1  0.75000000  0.99300466  0.03800127  1
  O  O25  1  0.06176710  0.26158010  0.28831469  1
  O  O26  1  0.25000000  0.00699534  0.96199873  1
  O  O27  1  0.56176710  0.73841990  0.71168531  1
