# generated using pymatgen
data_CrI2
_symmetry_space_group_name_H-M   'P 1'
_cell_length_a   4.07625522
_cell_length_b   4.12612718
_cell_length_c   14.38049864
_cell_angle_alpha   90.00000000
_cell_angle_beta   90.00000000
_cell_angle_gamma   119.60096857
_symmetry_Int_Tables_number   1
_chemical_formula_structural   CrI2
_chemical_formula_sum   'Cr2 I4'
_cell_volume   210.30074284
_cell_formula_units_Z   2
loop_
 _symmetry_equiv_pos_site_id
 _symmetry_equiv_pos_as_xyz
  1  'x, y, z'
loop_
 _atom_site_type_symbol
 _atom_site_label
 _atom_site_symmetry_multiplicity
 _atom_site_fract_x
 _atom_site_fract_y
 _atom_site_fract_z
 _atom_site_occupancy
  Cr  Cr0  1  0.66406521  0.32812941  0.62058024  1
  Cr  Cr1  1  0.33593479  0.67187059  0.12058024  1
  I  I2  1  0.99802854  0.99605609  0.50690092  1
  I  I3  1  0.00197146  0.00394391  0.00690092  1
  I  I4  1  0.33030489  0.66060877  0.73351885  1
  I  I5  1  0.66969511  0.33939123  0.23351885  1
