# generated using pymatgen
data_SrZnP2O7
_symmetry_space_group_name_H-M   'P 1'
_cell_length_a   5.38833545
_cell_length_b   8.31438830
_cell_length_c   12.94276498
_cell_angle_alpha   90.00000000
_cell_angle_beta   90.22399663
_cell_angle_gamma   90.00000000
_symmetry_Int_Tables_number   1
_chemical_formula_structural   SrZnP2O7
_chemical_formula_sum   'Sr4 Zn4 P8 O28'
_cell_volume   579.84067081
_cell_formula_units_Z   4
loop_
 _symmetry_equiv_pos_site_id
 _symmetry_equiv_pos_as_xyz
  1  'x, y, z'
loop_
 _atom_site_type_symbol
 _atom_site_label
 _atom_site_symmetry_multiplicity
 _atom_site_fract_x
 _atom_site_fract_y
 _atom_site_fract_z
 _atom_site_occupancy
  Sr  Sr0  1  0.71183701  0.66123996  0.72090834  1
  Sr  Sr1  1  0.78816299  0.16123996  0.77909166  1
  Sr  Sr2  1  0.28816299  0.33876004  0.27909166  1
  Sr  Sr3  1  0.21183701  0.83876004  0.22090834  1
  Zn  Zn4  1  0.67274089  0.65281827  0.39528972  1
  Zn  Zn5  1  0.32725911  0.34718173  0.60471028  1
  Zn  Zn6  1  0.82725911  0.15281827  0.10471028  1
  Zn  Zn7  1  0.17274089  0.84718173  0.89528972  1
  P  P8  1  0.24853704  0.96437106  0.66556888  1
  P  P9  1  0.75146296  0.03562894  0.33443112  1
  P  P10  1  0.68475210  0.80160550  0.01994648  1
  P  P11  1  0.31524790  0.19839450  0.98005352  1
  P  P12  1  0.81524790  0.30160550  0.48005352  1
  P  P13  1  0.18475210  0.69839450  0.51994648  1
  P  P14  1  0.74853704  0.53562894  0.16556888  1
  P  P15  1  0.25146296  0.46437106  0.83443112  1
  O  O16  1  0.67232343  0.40406756  0.39985045  1
  O  O17  1  0.26770216  0.38492397  0.94867168  1
  O  O18  1  0.05379441  0.88036662  0.73412281  1
  O  O19  1  0.70184192  0.31445717  0.58856944  1
  O  O20  1  0.32839015  0.64036458  0.84776824  1
  O  O21  1  0.48696464  0.05888566  0.29507601  1
  O  O22  1  0.82767657  0.90406756  0.10014955  1
  O  O23  1  0.73229784  0.61507603  0.05132832  1
  O  O24  1  0.09617664  0.33238396  0.47452986  1
  O  O25  1  0.20184192  0.18554283  0.08856944  1
  O  O26  1  0.59617664  0.16761604  0.97452986  1
  O  O27  1  0.67160985  0.35963542  0.15223176  1
  O  O28  1  0.51303536  0.94111434  0.70492399  1
  O  O29  1  0.55379441  0.61963338  0.23412281  1
  O  O30  1  0.32767657  0.59593244  0.60014955  1
  O  O31  1  0.76770216  0.11507603  0.44867168  1
  O  O32  1  0.44620559  0.38036662  0.76587719  1
  O  O33  1  0.29815808  0.68554283  0.41143056  1
  O  O34  1  0.79815808  0.81445717  0.91143056  1
  O  O35  1  0.17160985  0.14036458  0.65223176  1
  O  O36  1  0.94620559  0.11963338  0.26587719  1
  O  O37  1  0.82839015  0.85963542  0.34776824  1
  O  O38  1  0.17232343  0.09593244  0.89985045  1
  O  O39  1  0.23229784  0.88492397  0.55132832  1
  O  O40  1  0.90382336  0.66761604  0.52547014  1
  O  O41  1  0.01303536  0.55888566  0.20492399  1
  O  O42  1  0.98696464  0.44111434  0.79507601  1
  O  O43  1  0.40382336  0.83238396  0.02547014  1
