# generated using pymatgen
data_CsMnF3
_symmetry_space_group_name_H-M   'P 1'
_cell_length_a   6.33056029
_cell_length_b   6.33056027
_cell_length_c   15.38299142
_cell_angle_alpha   90.00001333
_cell_angle_beta   90.00002636
_cell_angle_gamma   120.00037046
_symmetry_Int_Tables_number   1
_chemical_formula_structural   CsMnF3
_chemical_formula_sum   'Cs6 Mn6 F18'
_cell_volume   533.89285091
_cell_formula_units_Z   6
loop_
 _symmetry_equiv_pos_site_id
 _symmetry_equiv_pos_as_xyz
  1  'x, y, z'
loop_
 _atom_site_type_symbol
 _atom_site_label
 _atom_site_symmetry_multiplicity
 _atom_site_fract_x
 _atom_site_fract_y
 _atom_site_fract_z
 _atom_site_occupancy
  F  F0  1  0.33084141  0.16542226  0.07926050  1
  F  F1  1  0.83457930  0.16541903  0.42073878  1
  F  F2  1  0.83457845  0.66915970  0.42073877  1
  F  F3  1  0.33084081  0.16542189  0.42073879  1
  F  F4  1  0.66916003  0.83458023  0.92073876  1
  F  F5  1  0.16542045  0.33084257  0.57925795  1
  F  F6  1  0.52246717  0.04493596  0.25000023  1
  F  F7  1  0.47753222  0.52246875  0.74999991  1
  F  F8  1  0.04493395  0.52246672  0.74999994  1
  F  F9  1  0.95506415  0.47753310  0.25000016  1
  F  F10  1  0.52246908  0.47753124  0.25000011  1
  F  F11  1  0.47753392  0.95506442  0.74999999  1
  F  F12  1  0.83457904  0.66915731  0.07926070  1
  F  F13  1  0.16541975  0.83457875  0.57926010  1
  F  F14  1  0.66915807  0.83457818  0.57925797  1
  F  F15  1  0.16542104  0.33083883  0.92073911  1
  F  F16  1  0.83458022  0.16542155  0.07926057  1
  F  F17  1  0.16541892  0.83457910  0.92073879  1
  Mn  Mn18  1  1.00000093  0.99999542  0.00000248  1
  Mn  Mn19  1  0.33333374  0.66666614  0.65181815  1
  Mn  Mn20  1  0.66666772  0.33333677  0.15181575  1
  Mn  Mn21  1  0.66666312  0.33333763  0.34818801  1
  Mn  Mn22  1  0.33333681  0.66666310  0.84818639  1
  Mn  Mn23  1  0.00000110  0.00000089  0.50000304  1
  Cs  Cs24  1  0.99999953  1.00000013  0.24999960  1
  Cs  Cs25  1  0.99999950  0.99999970  0.74999978  1
  Cs  Cs26  1  0.33333313  0.66666664  0.09761907  1
  Cs  Cs27  1  0.66666653  0.33333371  0.59761902  1
  Cs  Cs28  1  0.66666666  0.33333324  0.90237857  1
  Cs  Cs29  1  0.33333326  0.66666704  0.40237899  1
