# generated using pymatgen
data_PClOF2
_symmetry_space_group_name_H-M   'P 1'
_cell_length_a   5.84918060
_cell_length_b   10.29540017
_cell_length_c   13.76407010
_cell_angle_alpha   90.00000000
_cell_angle_beta   90.00000000
_cell_angle_gamma   90.00000000
_symmetry_Int_Tables_number   1
_chemical_formula_structural   PClOF2
_chemical_formula_sum   'P8 Cl8 O8 F16'
_cell_volume   828.86755204
_cell_formula_units_Z   8
loop_
 _symmetry_equiv_pos_site_id
 _symmetry_equiv_pos_as_xyz
  1  'x, y, z'
loop_
 _atom_site_type_symbol
 _atom_site_label
 _atom_site_symmetry_multiplicity
 _atom_site_fract_x
 _atom_site_fract_y
 _atom_site_fract_z
 _atom_site_occupancy
  P  P0  1  0.75000000  0.27904499  0.57110336  1
  P  P1  1  0.75000000  0.22095501  0.07110336  1
  P  P2  1  0.25000000  0.34941657  0.25566039  1
  P  P3  1  0.75000000  0.65058343  0.74433961  1
  P  P4  1  0.75000000  0.84941657  0.24433961  1
  P  P5  1  0.25000000  0.72095501  0.42889664  1
  P  P6  1  0.25000000  0.77904499  0.92889664  1
  P  P7  1  0.25000000  0.15058343  0.75566039  1
  Cl  Cl8  1  0.25000000  0.61646610  0.00509381  1
  Cl  Cl9  1  0.75000000  0.66890308  0.19583967  1
  Cl  Cl10  1  0.75000000  0.11646610  0.49490619  1
  Cl  Cl11  1  0.25000000  0.33109692  0.80416033  1
  Cl  Cl12  1  0.75000000  0.83109692  0.69583967  1
  Cl  Cl13  1  0.25000000  0.88353390  0.50509381  1
  Cl  Cl14  1  0.25000000  0.16890308  0.30416033  1
  Cl  Cl15  1  0.75000000  0.38353390  0.99490619  1
  O  O16  1  0.75000000  0.63000770  0.84931818  1
  O  O17  1  0.75000000  0.23007957  0.17694028  1
  O  O18  1  0.25000000  0.13000770  0.65068182  1
  O  O19  1  0.75000000  0.86999230  0.34931818  1
  O  O20  1  0.25000000  0.73007957  0.32305972  1
  O  O21  1  0.25000000  0.76992043  0.82305972  1
  O  O22  1  0.75000000  0.26992043  0.67694028  1
  O  O23  1  0.25000000  0.36999230  0.15068182  1
  F  F24  1  0.04595018  0.64300644  0.47307125  1
  F  F25  1  0.95404982  0.14300644  0.02692875  1
  F  F26  1  0.04636109  0.41312928  0.31138385  1
  F  F27  1  0.95363891  0.91312928  0.18861615  1
  F  F28  1  0.54595018  0.35699356  0.52692875  1
  F  F29  1  0.45404982  0.64300644  0.47307125  1
  F  F30  1  0.45404982  0.85699356  0.97307125  1
  F  F31  1  0.54636109  0.58687072  0.68861615  1
  F  F32  1  0.54636109  0.91312928  0.18861615  1
  F  F33  1  0.95363891  0.58687072  0.68861615  1
  F  F34  1  0.04636109  0.08687072  0.81138385  1
  F  F35  1  0.45363891  0.41312928  0.31138385  1
  F  F36  1  0.04595018  0.85699356  0.97307125  1
  F  F37  1  0.54595018  0.14300644  0.02692875  1
  F  F38  1  0.95404982  0.35699356  0.52692875  1
  F  F39  1  0.45363891  0.08687072  0.81138385  1
