# generated using pymatgen
data_Sb2ClO2F11
_symmetry_space_group_name_H-M   'P 1'
_cell_length_a   7.77626771
_cell_length_b   10.53498017
_cell_length_c   13.46017229
_cell_angle_alpha   90.00000000
_cell_angle_beta   93.93177197
_cell_angle_gamma   90.00000000
_symmetry_Int_Tables_number   1
_chemical_formula_structural   Sb2ClO2F11
_chemical_formula_sum   'Sb8 Cl4 O8 F44'
_cell_volume   1100.10006125
_cell_formula_units_Z   4
loop_
 _symmetry_equiv_pos_site_id
 _symmetry_equiv_pos_as_xyz
  1  'x, y, z'
loop_
 _atom_site_type_symbol
 _atom_site_label
 _atom_site_symmetry_multiplicity
 _atom_site_fract_x
 _atom_site_fract_y
 _atom_site_fract_z
 _atom_site_occupancy
  Sb  Sb0  1  0.66353807  0.53757551  0.77381933  1
  Sb  Sb1  1  0.82243658  0.16297813  0.10569756  1
  Sb  Sb2  1  0.32243658  0.33702187  0.60569756  1
  Sb  Sb3  1  0.67756342  0.66297813  0.39430244  1
  Sb  Sb4  1  0.17756342  0.83702187  0.89430244  1
  Sb  Sb5  1  0.16353807  0.96242449  0.27381933  1
  Sb  Sb6  1  0.33646193  0.46242449  0.22618067  1
  Sb  Sb7  1  0.83646193  0.03757551  0.72618067  1
  Cl  Cl8  1  0.66664239  0.16744759  0.38979545  1
  Cl  Cl9  1  0.83335761  0.66744759  0.11020455  1
  Cl  Cl10  1  0.16664239  0.33255241  0.88979545  1
  Cl  Cl11  1  0.33335761  0.83255241  0.61020455  1
  O  O12  1  0.19169456  0.74866446  0.59076465  1
  O  O13  1  0.17166251  0.45429519  0.93606381  1
  O  O14  1  0.32833749  0.95429519  0.56393619  1
  O  O15  1  0.82833749  0.54570481  0.06393619  1
  O  O16  1  0.30830544  0.24866446  0.90923535  1
  O  O17  1  0.80830544  0.25133554  0.40923535  1
  O  O18  1  0.67166251  0.04570481  0.43606381  1
  O  O19  1  0.69169456  0.75133554  0.09076465  1
  F  F20  1  0.94685863  0.90789784  0.83079522  1
  F  F21  1  0.51721067  0.45917072  0.86327341  1
  F  F22  1  0.66791089  0.90964326  0.69448112  1
  F  F23  1  0.88681041  0.72837220  0.45214105  1
  F  F24  1  0.69811770  0.50403512  0.45894367  1
  F  F25  1  0.48278933  0.54082928  0.13672659  1
  F  F26  1  0.70521561  0.09679293  0.82972919  1
  F  F27  1  0.74446672  0.15368761  0.62882853  1
  F  F28  1  0.24446672  0.34631239  0.12882853  1
  F  F29  1  0.28465398  0.90875863  0.78082171  1
  F  F30  1  0.80188230  0.00403512  0.04105633  1
  F  F31  1  0.37456529  0.19084918  0.68399018  1
  F  F32  1  0.52190744  0.35312242  0.27081793  1
  F  F33  1  0.12543471  0.69084918  0.81600982  1
  F  F34  1  0.16791089  0.59035674  0.19448112  1
  F  F35  1  0.83208911  0.40964326  0.80551888  1
  F  F36  1  0.45695878  0.27113049  0.50281722  1
  F  F37  1  0.79478439  0.59679293  0.67027081  1
  F  F38  1  0.61318959  0.22837220  0.04785895  1
  F  F39  1  0.30188230  0.49596488  0.54105633  1
  F  F40  1  0.54304122  0.72886951  0.49718278  1
  F  F41  1  0.01721067  0.04082928  0.36327341  1
  F  F42  1  0.47809256  0.64687758  0.72918207  1
  F  F43  1  0.19811770  0.99596488  0.95894367  1
  F  F44  1  0.98278933  0.95917072  0.63672659  1
  F  F45  1  0.97809256  0.85312242  0.22918207  1
  F  F46  1  0.25553328  0.84631239  0.37117147  1
  F  F47  1  0.04304122  0.77113049  0.99718278  1
  F  F48  1  0.05314137  0.09210216  0.16920478  1
  F  F49  1  0.87456529  0.30915082  0.18399018  1
  F  F50  1  0.29478439  0.90320707  0.17027081  1
  F  F51  1  0.33208911  0.09035674  0.30551888  1
  F  F52  1  0.75553328  0.65368761  0.87117147  1
  F  F53  1  0.11318959  0.27162780  0.54785895  1
  F  F54  1  0.44685863  0.59210216  0.33079522  1
  F  F55  1  0.62543471  0.80915082  0.31600982  1
  F  F56  1  0.71534602  0.09124137  0.21917829  1
  F  F57  1  0.02190744  0.14687758  0.77081793  1
  F  F58  1  0.55314137  0.40789784  0.66920478  1
  F  F59  1  0.38681041  0.77162780  0.95214105  1
  F  F60  1  0.20521561  0.40320707  0.32972919  1
  F  F61  1  0.21534602  0.40875863  0.71917829  1
  F  F62  1  0.95695878  0.22886951  0.00281722  1
  F  F63  1  0.78465398  0.59124137  0.28082171  1
