# generated using pymatgen
data_Rb3U2Ge2O11
_symmetry_space_group_name_H-M   'P 1'
_cell_length_a   7.06285522
_cell_length_b   12.40711780
_cell_length_c   15.60387376
_cell_angle_alpha   90.00000000
_cell_angle_beta   100.50213189
_cell_angle_gamma   90.00000000
_symmetry_Int_Tables_number   1
_chemical_formula_structural   Rb3U2Ge2O11
_chemical_formula_sum   'Rb12 U8 Ge8 O44'
_cell_volume   1344.45652931
_cell_formula_units_Z   4
loop_
 _symmetry_equiv_pos_site_id
 _symmetry_equiv_pos_as_xyz
  1  'x, y, z'
loop_
 _atom_site_type_symbol
 _atom_site_label
 _atom_site_symmetry_multiplicity
 _atom_site_fract_x
 _atom_site_fract_y
 _atom_site_fract_z
 _atom_site_occupancy
  Rb  Rb0  1  0.57881777  0.64998069  0.08822653  1
  Rb  Rb1  1  0.88483980  0.84039437  0.33808132  1
  Rb  Rb2  1  0.07881777  0.85001931  0.58822653  1
  Rb  Rb3  1  0.08554481  0.82726367  0.07458895  1
  Rb  Rb4  1  0.58554481  0.67273633  0.57458895  1
  Rb  Rb5  1  0.38483980  0.65960563  0.83808132  1
  Rb  Rb6  1  0.91445519  0.17273633  0.92541105  1
  Rb  Rb7  1  0.42118223  0.35001931  0.91177347  1
  Rb  Rb8  1  0.61516020  0.34039437  0.16191868  1
  Rb  Rb9  1  0.92118223  0.14998069  0.41177347  1
  Rb  Rb10  1  0.11516020  0.15960563  0.66191868  1
  Rb  Rb11  1  0.41445519  0.32726367  0.42541105  1
  U  U12  1  0.10278236  0.55684617  0.25624285  1
  U  U13  1  0.89721764  0.44315383  0.74375715  1
  U  U14  1  0.39721764  0.05684617  0.24375715  1
  U  U15  1  0.00000000  0.50000000  0.00000000  1
  U  U16  1  0.50000000  0.00000000  0.00000000  1
  U  U17  1  0.60278236  0.94315383  0.75624285  1
  U  U18  1  0.50000000  0.00000000  0.50000000  1
  U  U19  1  0.00000000  0.50000000  0.50000000  1
  Ge  Ge20  1  0.37629525  0.42698605  0.67519918  1
  Ge  Ge21  1  0.38425621  0.79234488  0.34085811  1
  Ge  Ge22  1  0.88425621  0.70765512  0.84085811  1
  Ge  Ge23  1  0.62370475  0.57301395  0.32480082  1
  Ge  Ge24  1  0.61574379  0.20765512  0.65914189  1
  Ge  Ge25  1  0.11574379  0.29234488  0.15914189  1
  Ge  Ge26  1  0.12370475  0.92698605  0.82480082  1
  Ge  Ge27  1  0.87629525  0.07301395  0.17519918  1
  O  O28  1  0.21619218  0.02067251  0.90629051  1
  O  O29  1  0.08487592  0.02499557  0.24566776  1
  O  O30  1  0.81804124  0.27205016  0.72115194  1
  O  O31  1  0.29813699  0.89506710  0.75990936  1
  O  O32  1  0.47528367  0.88628864  0.27317831  1
  O  O33  1  0.78380782  0.97932749  0.09370949  1
  O  O34  1  0.58487592  0.47500443  0.74566776  1
  O  O35  1  0.85041009  0.47729329  0.61443887  1
  O  O36  1  0.31804124  0.22794984  0.22115194  1
  O  O37  1  0.64958991  0.97729329  0.88556113  1
  O  O38  1  0.41512408  0.52499557  0.25433224  1
  O  O39  1  0.02471633  0.38628864  0.22682169  1
  O  O40  1  0.97528367  0.61371136  0.77317831  1
  O  O41  1  0.20186301  0.39506710  0.74009064  1
  O  O42  1  0.73724999  0.94827142  0.47598198  1
  O  O43  1  0.43053967  0.30501162  0.62129387  1
  O  O44  1  0.28380782  0.52067251  0.59370949  1
  O  O45  1  0.04681837  0.59222577  0.12496256  1
  O  O46  1  0.14958991  0.52270671  0.38556113  1
  O  O47  1  0.83132058  0.64427063  0.93491575  1
  O  O48  1  0.45780872  0.85106103  0.00439269  1
  O  O49  1  0.66867942  0.14427063  0.56508425  1
  O  O50  1  0.06946033  0.80501162  0.87870613  1
  O  O51  1  0.52471633  0.11371136  0.72682169  1
  O  O52  1  0.56946033  0.69498838  0.37870613  1
  O  O53  1  0.04219128  0.35106103  0.49560731  1
  O  O54  1  0.91512408  0.97500443  0.75433224  1
  O  O55  1  0.35041009  0.02270671  0.11443887  1
  O  O56  1  0.54681837  0.90777423  0.62496256  1
  O  O57  1  0.76275001  0.44827142  0.02401802  1
  O  O58  1  0.18195876  0.72794984  0.27884806  1
  O  O59  1  0.95780872  0.64893897  0.50439269  1
  O  O60  1  0.26275001  0.05172858  0.52401802  1
  O  O61  1  0.54219128  0.14893897  0.99560731  1
  O  O62  1  0.68195876  0.77205016  0.77884806  1
  O  O63  1  0.45318163  0.09222577  0.37503744  1
  O  O64  1  0.95318163  0.40777423  0.87503744  1
  O  O65  1  0.33132058  0.85572937  0.43491575  1
  O  O66  1  0.23724999  0.55172858  0.97598198  1
  O  O67  1  0.70186301  0.10493290  0.24009064  1
  O  O68  1  0.93053967  0.19498838  0.12129387  1
  O  O69  1  0.79813699  0.60493290  0.25990936  1
  O  O70  1  0.71619218  0.47932749  0.40629051  1
  O  O71  1  0.16867942  0.35572937  0.06508425  1
