# generated using pymatgen
data_SrAl2B2O7
_symmetry_space_group_name_H-M   'P 1'
_cell_length_a   16.42923885
_cell_length_b   16.42923877
_cell_length_c   16.42923929
_cell_angle_alpha   17.34501616
_cell_angle_beta   17.34501705
_cell_angle_gamma   17.34501631
_symmetry_Int_Tables_number   1
_chemical_formula_structural   SrAl2B2O7
_chemical_formula_sum   'Sr2 Al4 B4 O14'
_cell_volume   343.94035924
_cell_formula_units_Z   2
loop_
 _symmetry_equiv_pos_site_id
 _symmetry_equiv_pos_as_xyz
  1  'x, y, z'
loop_
 _atom_site_type_symbol
 _atom_site_label
 _atom_site_symmetry_multiplicity
 _atom_site_fract_x
 _atom_site_fract_y
 _atom_site_fract_z
 _atom_site_occupancy
  Sr  Sr0  1  0.50000000  0.50000000  0.50000000  1
  Sr  Sr1  1  0.00000000  0.00000000  0.00000000  1
  Al  Al2  1  0.71516164  0.71516164  0.71516164  1
  Al  Al3  1  0.78483836  0.78483836  0.78483836  1
  Al  Al4  1  0.28483836  0.28483836  0.28483836  1
  Al  Al5  1  0.21516164  0.21516164  0.21516164  1
  B  B6  1  0.63257261  0.63257261  0.63257261  1
  B  B7  1  0.13257261  0.13257261  0.13257261  1
  B  B8  1  0.36742739  0.36742739  0.36742739  1
  B  B9  1  0.86742739  0.86742739  0.86742739  1
  O  O10  1  0.57418001  0.38980108  0.93744691  1
  O  O11  1  0.93744691  0.57418001  0.38980108  1
  O  O12  1  0.43744691  0.88980108  0.07418001  1
  O  O13  1  0.25000000  0.25000000  0.25000000  1
  O  O14  1  0.07418001  0.43744691  0.88980108  1
  O  O15  1  0.56255309  0.11019892  0.92581999  1
  O  O16  1  0.88980108  0.07418001  0.43744691  1
  O  O17  1  0.06255309  0.42581999  0.61019892  1
  O  O18  1  0.42581999  0.61019892  0.06255309  1
  O  O19  1  0.38980108  0.93744691  0.57418001  1
  O  O20  1  0.61019892  0.06255309  0.42581999  1
  O  O21  1  0.11019892  0.92581999  0.56255309  1
  O  O22  1  0.92581999  0.56255309  0.11019892  1
  O  O23  1  0.75000000  0.75000000  0.75000000  1
