# generated using pymatgen
data_K2UAs2O9
_symmetry_space_group_name_H-M   'P 1'
_cell_length_a   5.79354124
_cell_length_b   13.51120658
_cell_length_c   12.77036441
_cell_angle_alpha   90.00000000
_cell_angle_beta   90.00000000
_cell_angle_gamma   90.00000000
_symmetry_Int_Tables_number   1
_chemical_formula_structural   K2UAs2O9
_chemical_formula_sum   'K8 U4 As8 O36'
_cell_volume   999.63516951
_cell_formula_units_Z   4
loop_
 _symmetry_equiv_pos_site_id
 _symmetry_equiv_pos_as_xyz
  1  'x, y, z'
loop_
 _atom_site_type_symbol
 _atom_site_label
 _atom_site_symmetry_multiplicity
 _atom_site_fract_x
 _atom_site_fract_y
 _atom_site_fract_z
 _atom_site_occupancy
  K  K0  1  0.50447091  0.42070714  0.75000000  1
  K  K1  1  0.49552909  0.57929286  0.25000000  1
  K  K2  1  0.49552909  0.92070714  0.25000000  1
  K  K3  1  0.50447091  0.07929286  0.75000000  1
  K  K4  1  0.48351521  0.75000000  0.57865168  1
  K  K5  1  0.48351521  0.75000000  0.92134832  1
  K  K6  1  0.51648479  0.25000000  0.07865168  1
  K  K7  1  0.51648479  0.25000000  0.42134832  1
  U  U8  1  0.00000000  0.00000000  0.50000000  1
  U  U9  1  0.00000000  0.00000000  0.00000000  1
  U  U10  1  0.00000000  0.50000000  0.50000000  1
  U  U11  1  0.00000000  0.50000000  0.00000000  1
  As  As12  1  0.02155684  0.36967226  0.25000000  1
  As  As13  1  0.00473081  0.75000000  0.37860612  1
  As  As14  1  0.02155684  0.13032774  0.25000000  1
  As  As15  1  0.99526919  0.25000000  0.62139388  1
  As  As16  1  0.99526919  0.25000000  0.87860612  1
  As  As17  1  0.97844316  0.86967226  0.75000000  1
  As  As18  1  0.97844316  0.63032774  0.75000000  1
  As  As19  1  0.00473081  0.75000000  0.12139388  1
  O  O20  1  0.27132007  0.48159897  0.93041764  1
  O  O21  1  0.84604218  0.57888311  0.85815617  1
  O  O22  1  0.71701777  0.75000000  0.37426563  1
  O  O23  1  0.13682323  0.64889863  0.43595507  1
  O  O24  1  0.13950144  0.75000000  0.25000000  1
  O  O25  1  0.28298223  0.25000000  0.87426563  1
  O  O26  1  0.72867993  0.51840103  0.06958236  1
  O  O27  1  0.86317677  0.35110137  0.56404493  1
  O  O28  1  0.86317677  0.14889863  0.93595507  1
  O  O29  1  0.27132007  0.01840103  0.56958236  1
  O  O30  1  0.73480859  0.36173927  0.25000000  1
  O  O31  1  0.84604218  0.92111689  0.64184383  1
  O  O32  1  0.83776824  0.75000000  0.75000000  1
  O  O33  1  0.16223176  0.25000000  0.25000000  1
  O  O34  1  0.86049856  0.25000000  0.75000000  1
  O  O35  1  0.72867993  0.98159897  0.43041764  1
  O  O36  1  0.13682323  0.85110137  0.43595507  1
  O  O37  1  0.13682323  0.85110137  0.06404493  1
  O  O38  1  0.72867993  0.98159897  0.06958236  1
  O  O39  1  0.15395782  0.07888311  0.14184383  1
  O  O40  1  0.84604218  0.57888311  0.64184383  1
  O  O41  1  0.86317677  0.14889863  0.56404493  1
  O  O42  1  0.84604218  0.92111689  0.85815617  1
  O  O43  1  0.15395782  0.07888311  0.35815617  1
  O  O44  1  0.27132007  0.01840103  0.93041764  1
  O  O45  1  0.73480859  0.13826073  0.25000000  1
  O  O46  1  0.15395782  0.42111689  0.14184383  1
  O  O47  1  0.26519141  0.63826073  0.75000000  1
  O  O48  1  0.71701777  0.75000000  0.12573437  1
  O  O49  1  0.13682323  0.64889863  0.06404493  1
  O  O50  1  0.86317677  0.35110137  0.93595507  1
  O  O51  1  0.26519141  0.86173927  0.75000000  1
  O  O52  1  0.15395782  0.42111689  0.35815617  1
  O  O53  1  0.28298223  0.25000000  0.62573437  1
  O  O54  1  0.72867993  0.51840103  0.43041764  1
  O  O55  1  0.27132007  0.48159897  0.56958236  1
