# generated using pymatgen
data_La2SiS5
_symmetry_space_group_name_H-M   'P 1'
_cell_length_a   7.65629070
_cell_length_b   7.94214155
_cell_length_c   12.69760175
_cell_angle_alpha   90.00000000
_cell_angle_beta   90.00000000
_cell_angle_gamma   101.38285445
_symmetry_Int_Tables_number   1
_chemical_formula_structural   La2SiS5
_chemical_formula_sum   'La8 Si4 S20'
_cell_volume   756.92030559
_cell_formula_units_Z   4
loop_
 _symmetry_equiv_pos_site_id
 _symmetry_equiv_pos_as_xyz
  1  'x, y, z'
loop_
 _atom_site_type_symbol
 _atom_site_label
 _atom_site_symmetry_multiplicity
 _atom_site_fract_x
 _atom_site_fract_y
 _atom_site_fract_z
 _atom_site_occupancy
  La  La0  1  0.26058745  0.45475568  0.59499518  1
  La  La1  1  0.66383264  0.63289634  0.83512718  1
  La  La2  1  0.26058745  0.95475568  0.90500482  1
  La  La3  1  0.33616736  0.86710366  0.33512718  1
  La  La4  1  0.73941255  0.04524432  0.09499518  1
  La  La5  1  0.33616736  0.36710366  0.16487282  1
  La  La6  1  0.66383264  0.13289634  0.66487282  1
  La  La7  1  0.73941255  0.54524432  0.40500482  1
  Si  Si8  1  0.17021975  0.90374766  0.61662394  1
  Si  Si9  1  0.82978025  0.09625234  0.38337606  1
  Si  Si10  1  0.82978025  0.59625234  0.11662394  1
  Si  Si11  1  0.17021975  0.40374766  0.88337606  1
  S  S12  1  0.97651658  0.44914541  0.77343645  1
  S  S13  1  0.63782181  0.49642658  0.62132782  1
  S  S14  1  0.62734139  0.19405988  0.29752403  1
  S  S15  1  0.36217819  0.50357342  0.37867218  1
  S  S16  1  0.63782181  0.99642658  0.87867218  1
  S  S17  1  0.02348342  0.05085459  0.27343645  1
  S  S18  1  0.32487211  0.61140930  0.97006866  1
  S  S19  1  0.07974843  0.21788356  0.00117741  1
  S  S20  1  0.67512789  0.88859070  0.47006866  1
  S  S21  1  0.07974843  0.71788356  0.49882259  1
  S  S22  1  0.37265861  0.80594012  0.70247597  1
  S  S23  1  0.92025157  0.78211644  0.99882259  1
  S  S24  1  0.97651658  0.94914541  0.72656355  1
  S  S25  1  0.32487211  0.11140930  0.52993134  1
  S  S26  1  0.02348342  0.55085459  0.22656355  1
  S  S27  1  0.67512789  0.38859070  0.02993134  1
  S  S28  1  0.92025157  0.28211644  0.50117741  1
  S  S29  1  0.36217819  0.00357342  0.12132782  1
  S  S30  1  0.37265861  0.30594012  0.79752403  1
  S  S31  1  0.62734139  0.69405988  0.20247597  1
