# generated using pymatgen
data_Ca2CuTe4(ClO5)2
_symmetry_space_group_name_H-M   'P 1'
_cell_length_a   5.43945450
_cell_length_b   7.33398322
_cell_length_c   8.83337926
_cell_angle_alpha   72.28942844
_cell_angle_beta   79.24064263
_cell_angle_gamma   77.87802779
_symmetry_Int_Tables_number   1
_chemical_formula_structural   Ca2CuTe4(ClO5)2
_chemical_formula_sum   'Ca2 Cu1 Te4 Cl2 O10'
_cell_volume   325.33718169
_cell_formula_units_Z   1
loop_
 _symmetry_equiv_pos_site_id
 _symmetry_equiv_pos_as_xyz
  1  'x, y, z'
loop_
 _atom_site_type_symbol
 _atom_site_label
 _atom_site_symmetry_multiplicity
 _atom_site_fract_x
 _atom_site_fract_y
 _atom_site_fract_z
 _atom_site_occupancy
  Ca  Ca0  1  0.82866233  0.89945050  0.89472319  1
  Ca  Ca1  1  0.17133767  0.10054950  0.10527681  1
  Cu  Cu2  1  0.00000000  0.00000000  0.50000000  1
  Te  Te3  1  0.39240947  0.18089015  0.60700750  1
  Te  Te4  1  0.38285777  0.59101499  0.14638180  1
  Te  Te5  1  0.61714223  0.40898501  0.85361820  1
  Te  Te6  1  0.60759053  0.81910985  0.39299250  1
  Cl  Cl7  1  0.87885302  0.40316474  0.34673928  1
  Cl  Cl8  1  0.12114698  0.59683526  0.65326072  1
  O  O9  1  0.67030547  0.60266291  0.97300357  1
  O  O10  1  0.34349356  0.04704444  0.37818348  1
  O  O11  1  0.16637495  0.80139871  0.03582584  1
  O  O12  1  0.10544267  0.05393222  0.67956010  1
  O  O13  1  0.83362505  0.19860129  0.96417416  1
  O  O14  1  0.32969453  0.39733709  0.02699643  1
  O  O15  1  0.54645589  0.82798585  0.17780179  1
  O  O16  1  0.65650644  0.95295556  0.62181652  1
  O  O17  1  0.89455733  0.94606778  0.32043990  1
  O  O18  1  0.45354411  0.17201415  0.82219821  1
