# generated using pymatgen
data_RbGa3S5
_symmetry_space_group_name_H-M   'P 1'
_cell_length_a   7.26111917
_cell_length_b   10.52263929
_cell_length_c   12.92120948
_cell_angle_alpha   90.00000000
_cell_angle_beta   90.00000000
_cell_angle_gamma   103.42558648
_symmetry_Int_Tables_number   1
_chemical_formula_structural   RbGa3S5
_chemical_formula_sum   'Rb4 Ga12 S20'
_cell_volume   960.28016600
_cell_formula_units_Z   4
loop_
 _symmetry_equiv_pos_site_id
 _symmetry_equiv_pos_as_xyz
  1  'x, y, z'
loop_
 _atom_site_type_symbol
 _atom_site_label
 _atom_site_symmetry_multiplicity
 _atom_site_fract_x
 _atom_site_fract_y
 _atom_site_fract_z
 _atom_site_occupancy
  Rb  Rb0  1  0.16575381  0.40165612  0.61296768  1
  Rb  Rb1  1  0.83424619  0.09834388  0.11296768  1
  Rb  Rb2  1  0.83424619  0.59834388  0.38703232  1
  Rb  Rb3  1  0.16575381  0.90165612  0.88703232  1
  Ga  Ga4  1  0.20242915  0.40089805  0.92034649  1
  Ga  Ga5  1  0.20242915  0.90089805  0.57965351  1
  Ga  Ga6  1  0.79757085  0.09910195  0.42034649  1
  Ga  Ga7  1  0.43997070  0.80440866  0.39730905  1
  Ga  Ga8  1  0.43997070  0.30440866  0.10269095  1
  Ga  Ga9  1  0.28929410  0.12399983  0.33681634  1
  Ga  Ga10  1  0.56002930  0.19559134  0.60269095  1
  Ga  Ga11  1  0.79757085  0.59910195  0.07965351  1
  Ga  Ga12  1  0.71070590  0.87600017  0.66318366  1
  Ga  Ga13  1  0.56002930  0.69559134  0.89730905  1
  Ga  Ga14  1  0.28929410  0.62399983  0.16318366  1
  Ga  Ga15  1  0.71070590  0.37600017  0.83681634  1
  S  S16  1  0.28118939  0.58916634  0.83191754  1
  S  S17  1  0.19012139  0.41014449  0.10217157  1
  S  S18  1  0.28118939  0.08916634  0.66808246  1
  S  S19  1  0.19012139  0.91014449  0.39782843  1
  S  S20  1  0.71881061  0.91083366  0.33191754  1
  S  S21  1  0.65475993  0.40162636  0.66471623  1
  S  S22  1  0.42926911  0.76883322  0.57911770  1
  S  S23  1  0.80987861  0.08985551  0.60217157  1
  S  S24  1  0.80987861  0.58985551  0.89782843  1
  S  S25  1  0.93527574  0.76027389  0.63479633  1
  S  S26  1  0.06472426  0.23972611  0.36520367  1
  S  S27  1  0.71881061  0.41083366  0.16808246  1
  S  S28  1  0.57073089  0.73116678  0.07911770  1
  S  S29  1  0.42926911  0.26883322  0.92088230  1
  S  S30  1  0.93527574  0.26027389  0.86520367  1
  S  S31  1  0.06472426  0.73972611  0.13479633  1
  S  S32  1  0.65475993  0.90162636  0.83528377  1
  S  S33  1  0.34524007  0.59837364  0.33528377  1
  S  S34  1  0.57073089  0.23116678  0.42088230  1
  S  S35  1  0.34524007  0.09837364  0.16471623  1
