# generated using pymatgen
data_TiTlPS5
_symmetry_space_group_name_H-M   'P 1'
_cell_length_a   6.74694404
_cell_length_b   7.11729242
_cell_length_c   9.40704617
_cell_angle_alpha   106.78026200
_cell_angle_beta   99.71960538
_cell_angle_gamma   91.61313634
_symmetry_Int_Tables_number   1
_chemical_formula_structural   TiTlPS5
_chemical_formula_sum   'Ti2 Tl2 P2 S10'
_cell_volume   424.86565540
_cell_formula_units_Z   2
loop_
 _symmetry_equiv_pos_site_id
 _symmetry_equiv_pos_as_xyz
  1  'x, y, z'
loop_
 _atom_site_type_symbol
 _atom_site_label
 _atom_site_symmetry_multiplicity
 _atom_site_fract_x
 _atom_site_fract_y
 _atom_site_fract_z
 _atom_site_occupancy
  Ti  Ti0  1  0.50308442  0.27696542  0.00053804  1
  Ti  Ti1  1  0.49691558  0.72303458  0.99946196  1
  Tl  Tl2  1  0.72725607  0.69233012  0.44196312  1
  Tl  Tl3  1  0.27274393  0.30766988  0.55803688  1
  P  P4  1  0.28380335  0.89414620  0.73281596  1
  P  P5  1  0.71619665  0.10585380  0.26718404  1
  S  S6  1  0.17457568  0.69253970  0.82644404  1
  S  S7  1  0.34529880  0.54268121  0.12537503  1
  S  S8  1  0.41015508  0.06122307  0.16929999  1
  S  S9  1  0.58984492  0.93877693  0.83070001  1
  S  S10  1  0.17738014  0.16174396  0.83032124  1
  S  S11  1  0.77272069  0.19000398  0.49178045  1
  S  S12  1  0.65470120  0.45731879  0.87462497  1
  S  S13  1  0.22727931  0.80999602  0.50821955  1
  S  S14  1  0.82261986  0.83825604  0.16967876  1
  S  S15  1  0.82542432  0.30746030  0.17355596  1
