# generated using pymatgen
data_CrGa
_symmetry_space_group_name_H-M   'P 1'
_cell_length_a   7.70817022
_cell_length_b   7.70817022
_cell_length_c   7.70816997
_cell_angle_alpha   109.25684436
_cell_angle_beta   109.25684436
_cell_angle_gamma   109.25684773
_symmetry_Int_Tables_number   1
_chemical_formula_structural   CrGa
_chemical_formula_sum   'Cr13 Ga13'
_cell_volume   355.32986903
_cell_formula_units_Z   13
loop_
 _symmetry_equiv_pos_site_id
 _symmetry_equiv_pos_as_xyz
  1  'x, y, z'
loop_
 _atom_site_type_symbol
 _atom_site_label
 _atom_site_symmetry_multiplicity
 _atom_site_fract_x
 _atom_site_fract_y
 _atom_site_fract_z
 _atom_site_occupancy
  Cr  Cr0  1  0.50000000  0.50000000  0.50000000  1
  Cr  Cr1  1  0.19800168  0.86077244  0.19800168  1
  Cr  Cr2  1  0.86077244  0.19800168  0.19800168  1
  Cr  Cr3  1  0.19800168  0.19800168  0.86077244  1
  Cr  Cr4  1  0.80199832  0.13922756  0.80199832  1
  Cr  Cr5  1  0.13922756  0.80199832  0.80199832  1
  Cr  Cr6  1  0.80199832  0.80199832  0.13922756  1
  Cr  Cr7  1  0.18011593  0.39105402  0.18011593  1
  Cr  Cr8  1  0.39105402  0.18011593  0.18011593  1
  Cr  Cr9  1  0.18011593  0.18011593  0.39105402  1
  Cr  Cr10  1  0.81988407  0.60894598  0.81988407  1
  Cr  Cr11  1  0.60894598  0.81988407  0.81988407  1
  Cr  Cr12  1  0.81988407  0.81988407  0.60894598  1
  Ga  Ga13  1  0.00000000  0.00000000  0.00000000  1
  Ga  Ga14  1  0.54644814  0.19318806  0.54644814  1
  Ga  Ga15  1  0.19318806  0.54644814  0.54644814  1
  Ga  Ga16  1  0.54644814  0.54644814  0.19318806  1
  Ga  Ga17  1  0.45355186  0.80681194  0.45355186  1
  Ga  Ga18  1  0.80681194  0.45355186  0.45355186  1
  Ga  Ga19  1  0.45355186  0.45355186  0.80681194  1
  Ga  Ga20  1  0.50000000  0.11177984  0.88822016  1
  Ga  Ga21  1  0.11177984  0.88822016  0.50000000  1
  Ga  Ga22  1  0.88822016  0.50000000  0.11177984  1
  Ga  Ga23  1  0.50000000  0.88822016  0.11177984  1
  Ga  Ga24  1  0.88822016  0.11177984  0.50000000  1
  Ga  Ga25  1  0.11177984  0.50000000  0.88822016  1
