# generated using pymatgen
data_Ca(BiO2)2
_symmetry_space_group_name_H-M   'P 1'
_cell_length_a   10.36907474
_cell_length_b   10.36813765
_cell_length_c   11.93236771
_cell_angle_alpha   101.09702147
_cell_angle_beta   111.96927089
_cell_angle_gamma   110.36172168
_symmetry_Int_Tables_number   1
_chemical_formula_structural   Ca(BiO2)2
_chemical_formula_sum   'Ca8 Bi16 O32'
_cell_volume   1035.69593099
_cell_formula_units_Z   8
loop_
 _symmetry_equiv_pos_site_id
 _symmetry_equiv_pos_as_xyz
  1  'x, y, z'
loop_
 _atom_site_type_symbol
 _atom_site_label
 _atom_site_symmetry_multiplicity
 _atom_site_fract_x
 _atom_site_fract_y
 _atom_site_fract_z
 _atom_site_occupancy
  Ca  Ca0  1  0.34523811  0.91780410  0.33735192  1
  Ca  Ca1  1  0.47068686  0.64719751  0.41866250  1
  Ca  Ca2  1  0.65476189  0.08219590  0.66264808  1
  Ca  Ca3  1  0.41968362  0.49222235  0.83736496  1
  Ca  Ca4  1  0.22851892  0.55204740  0.08132662  1
  Ca  Ca5  1  0.52931314  0.35280249  0.58133750  1
  Ca  Ca6  1  0.77148108  0.44795260  0.91867338  1
  Ca  Ca7  1  0.58031638  0.50777765  0.16263504  1
  Bi  Bi8  1  0.21696042  0.03115543  0.56135302  1
  Bi  Bi9  1  0.97730734  0.44797842  0.73383182  1
  Bi  Bi10  1  0.02269266  0.55202158  0.26616818  1
  Bi  Bi11  1  0.63301456  0.23094422  0.28220017  1
  Bi  Bi12  1  0.83256843  0.15431467  0.00728077  1
  Bi  Bi13  1  0.16743157  0.84568533  0.99271923  1
  Bi  Bi14  1  0.46983350  0.15557735  0.93858877  1
  Bi  Bi15  1  0.78303958  0.96884457  0.43864698  1
  Bi  Bi16  1  0.53016650  0.84442265  0.06141123  1
  Bi  Bi17  1  0.14708691  0.32528137  0.49281313  1
  Bi  Bi18  1  0.36698544  0.76905578  0.71779983  1
  Bi  Bi19  1  0.28583387  0.25642399  0.23391088  1
  Bi  Bi20  1  0.94877631  0.85077747  0.21770619  1
  Bi  Bi21  1  0.71416613  0.74357601  0.76608912  1
  Bi  Bi22  1  0.85291309  0.67471863  0.50718687  1
  Bi  Bi23  1  0.05122369  0.14922253  0.78229381  1
  O  O24  1  0.24596778  0.53762699  0.66582925  1
  O  O25  1  0.67339675  0.17663537  0.10076098  1
  O  O26  1  0.43049557  0.20900108  0.12009541  1
  O  O27  1  0.24575494  0.66413530  0.28397684  1
  O  O28  1  0.97027845  0.38888932  0.07477932  1
  O  O29  1  0.36109504  0.84699681  0.14187990  1
  O  O30  1  0.02972155  0.61111068  0.92522068  1
  O  O31  1  0.61992197  0.53830328  0.78396225  1
  O  O32  1  0.75424506  0.33586470  0.71602316  1
  O  O33  1  0.29493220  0.28074758  0.64196904  1
  O  O34  1  0.13153575  0.39011711  0.86730467  1
  O  O35  1  0.75403222  0.46237301  0.33417075  1
  O  O36  1  0.47718364  0.23562494  0.36732165  1
  O  O37  1  0.52281636  0.76437506  0.63267835  1
  O  O38  1  0.87177327  0.08013478  0.83423849  1
  O  O39  1  0.45937779  0.62382263  0.04262288  1
  O  O40  1  0.07598917  0.07265853  0.39918588  1
  O  O41  1  0.12822673  0.91986522  0.16576151  1
  O  O42  1  0.86846425  0.60988289  0.13269533  1
  O  O43  1  0.31411033  0.39545907  0.42527115  1
  O  O44  1  0.41879651  0.08323814  0.54265910  1
  O  O45  1  0.32660325  0.82336463  0.89923902  1
  O  O46  1  0.91100956  0.18958536  0.62016426  1
  O  O47  1  0.38007803  0.46169672  0.21603775  1
  O  O48  1  0.58120349  0.91676186  0.45734090  1
  O  O49  1  0.54062221  0.37617737  0.95737712  1
  O  O50  1  0.56950443  0.79099892  0.87990459  1
  O  O51  1  0.08899044  0.81041464  0.37983574  1
  O  O52  1  0.68588967  0.60454093  0.57472885  1
  O  O53  1  0.63890496  0.15300319  0.85812010  1
  O  O54  1  0.70506780  0.71925242  0.35803096  1
  O  O55  1  0.92401083  0.92734147  0.60081412  1
