# generated using pymatgen
data_Dy3CuGeS7
_symmetry_space_group_name_H-M   'P 1'
_cell_length_a   9.88426762
_cell_length_b   9.88426718
_cell_length_c   5.81478892
_cell_angle_alpha   90.00000000
_cell_angle_beta   90.00000000
_cell_angle_gamma   120.00000149
_symmetry_Int_Tables_number   1
_chemical_formula_structural   Dy3CuGeS7
_chemical_formula_sum   'Dy6 Cu2 Ge2 S14'
_cell_volume   491.98691389
_cell_formula_units_Z   2
loop_
 _symmetry_equiv_pos_site_id
 _symmetry_equiv_pos_as_xyz
  1  'x, y, z'
loop_
 _atom_site_type_symbol
 _atom_site_label
 _atom_site_symmetry_multiplicity
 _atom_site_fract_x
 _atom_site_fract_y
 _atom_site_fract_z
 _atom_site_occupancy
  Dy  Dy0  1  0.35695248  0.13105460  0.25413862  1
  Dy  Dy1  1  0.13105460  0.77410212  0.75413862  1
  Dy  Dy2  1  0.22589788  0.35695248  0.75413862  1
  Dy  Dy3  1  0.64304752  0.86894540  0.75413862  1
  Dy  Dy4  1  0.86894540  0.22589788  0.25413862  1
  Dy  Dy5  1  0.77410212  0.64304752  0.25413862  1
  Cu  Cu6  1  0.00000000  0.00000000  0.69572350  1
  Cu  Cu7  1  0.00000000  0.00000000  0.19572350  1
  Ge  Ge8  1  0.66666700  0.33333300  0.83619845  1
  Ge  Ge9  1  0.33333300  0.66666700  0.33619845  1
  S  S10  1  0.41983828  0.90151445  0.49901521  1
  S  S11  1  0.09800141  0.83903004  0.21690289  1
  S  S12  1  0.48167617  0.58016172  0.49901521  1
  S  S13  1  0.90151445  0.48167617  0.99901521  1
  S  S14  1  0.09848555  0.51832383  0.49901521  1
  S  S15  1  0.58016172  0.09848555  0.99901521  1
  S  S16  1  0.51832383  0.41983828  0.99901521  1
  S  S17  1  0.16096996  0.25897137  0.21690289  1
  S  S18  1  0.74102863  0.90199859  0.21690289  1
  S  S19  1  0.33333300  0.66666700  0.95720789  1
  S  S20  1  0.66666700  0.33333300  0.45720789  1
  S  S21  1  0.83903004  0.74102863  0.71690289  1
  S  S22  1  0.90199859  0.16096996  0.71690289  1
  S  S23  1  0.25897137  0.09800141  0.71690289  1
