# generated using pymatgen
data_Ba5Ru2Br2O9
_symmetry_space_group_name_H-M   'P 1'
_cell_length_a   5.93661603
_cell_length_b   5.93661637
_cell_length_c   25.92824842
_cell_angle_alpha   90.00000000
_cell_angle_beta   90.00000000
_cell_angle_gamma   119.99999805
_symmetry_Int_Tables_number   1
_chemical_formula_structural   Ba5Ru2Br2O9
_chemical_formula_sum   'Ba10 Ru4 Br4 O18'
_cell_volume   791.37397677
_cell_formula_units_Z   2
loop_
 _symmetry_equiv_pos_site_id
 _symmetry_equiv_pos_as_xyz
  1  'x, y, z'
loop_
 _atom_site_type_symbol
 _atom_site_label
 _atom_site_symmetry_multiplicity
 _atom_site_fract_x
 _atom_site_fract_y
 _atom_site_fract_z
 _atom_site_occupancy
  Ba  Ba0  1  0.33333300  0.66666700  0.91370634  1
  Ba  Ba1  1  0.66666700  0.33333300  0.41370634  1
  Ba  Ba2  1  0.66666700  0.33333300  0.08629366  1
  Ba  Ba3  1  0.33333300  0.66666700  0.17350653  1
  Ba  Ba4  1  0.66666700  0.33333300  0.67350653  1
  Ba  Ba5  1  0.33333300  0.66666700  0.32649347  1
  Ba  Ba6  1  0.66666700  0.33333300  0.82649347  1
  Ba  Ba7  1  0.66666700  0.33333300  0.25000000  1
  Ba  Ba8  1  0.33333300  0.66666700  0.58629366  1
  Ba  Ba9  1  0.33333300  0.66666700  0.75000000  1
  Ru  Ru10  1  0.00000000  0.00000000  0.80511934  1
  Ru  Ru11  1  0.00000000  0.00000000  0.30511934  1
  Ru  Ru12  1  0.00000000  0.00000000  0.69488066  1
  Ru  Ru13  1  0.00000000  0.00000000  0.19488066  1
  Br  Br14  1  0.33333300  0.66666700  0.45401885  1
  Br  Br15  1  0.33333300  0.66666700  0.04598115  1
  Br  Br16  1  0.66666700  0.33333300  0.54598115  1
  Br  Br17  1  0.66666700  0.33333300  0.95401885  1
  O  O18  1  0.15984574  0.84015426  0.65794601  1
  O  O19  1  0.68030852  0.84015426  0.84205399  1
  O  O20  1  0.15984574  0.31969148  0.65794601  1
  O  O21  1  0.84905889  0.15094111  0.75000000  1
  O  O22  1  0.30188222  0.15094111  0.75000000  1
  O  O23  1  0.15094111  0.30188222  0.25000000  1
  O  O24  1  0.15094111  0.84905889  0.25000000  1
  O  O25  1  0.69811778  0.84905889  0.25000000  1
  O  O26  1  0.84015426  0.15984574  0.34205399  1
  O  O27  1  0.31969148  0.15984574  0.15794601  1
  O  O28  1  0.84905889  0.69811778  0.75000000  1
  O  O29  1  0.84015426  0.68030852  0.15794601  1
  O  O30  1  0.31969148  0.15984574  0.34205399  1
  O  O31  1  0.84015426  0.15984574  0.15794601  1
  O  O32  1  0.15984574  0.31969148  0.84205399  1
  O  O33  1  0.84015426  0.68030852  0.34205399  1
  O  O34  1  0.68030852  0.84015426  0.65794601  1
  O  O35  1  0.15984574  0.84015426  0.84205399  1
