# generated using pymatgen
data_RbSb2Au3S5
_symmetry_space_group_name_H-M   'P 1'
_cell_length_a   7.15820378
_cell_length_b   12.79682675
_cell_length_c   26.64498167
_cell_angle_alpha   90.00000000
_cell_angle_beta   90.00000000
_cell_angle_gamma   90.00000000
_symmetry_Int_Tables_number   1
_chemical_formula_structural   RbSb2Au3S5
_chemical_formula_sum   'Rb8 Sb16 Au24 S40'
_cell_volume   2440.74143427
_cell_formula_units_Z   8
loop_
 _symmetry_equiv_pos_site_id
 _symmetry_equiv_pos_as_xyz
  1  'x, y, z'
loop_
 _atom_site_type_symbol
 _atom_site_label
 _atom_site_symmetry_multiplicity
 _atom_site_fract_x
 _atom_site_fract_y
 _atom_site_fract_z
 _atom_site_occupancy
  Rb  Rb0  1  0.00000000  0.32220991  0.98346841  1
  Rb  Rb1  1  0.00000000  0.67779009  0.01653159  1
  Rb  Rb2  1  0.50000000  0.83858318  0.93071924  1
  Rb  Rb3  1  0.50000000  0.82220991  0.51653159  1
  Rb  Rb4  1  0.00000000  0.33858318  0.56928076  1
  Rb  Rb5  1  0.00000000  0.66141682  0.43071924  1
  Rb  Rb6  1  0.50000000  0.16141682  0.06928076  1
  Rb  Rb7  1  0.50000000  0.17779009  0.48346841  1
  Sb  Sb8  1  0.00000000  0.96716351  0.62537656  1
  Sb  Sb9  1  0.50000000  0.93295225  0.34587759  1
  Sb  Sb10  1  0.00000000  0.95240672  0.11634379  1
  Sb  Sb11  1  0.00000000  0.43295225  0.15412241  1
  Sb  Sb12  1  0.00000000  0.03283649  0.37462344  1
  Sb  Sb13  1  0.00000000  0.04759328  0.88365621  1
  Sb  Sb14  1  0.00000000  0.56704775  0.84587759  1
  Sb  Sb15  1  0.50000000  0.18204182  0.89554356  1
  Sb  Sb16  1  0.50000000  0.81795818  0.10445644  1
  Sb  Sb17  1  0.50000000  0.06704775  0.65412241  1
  Sb  Sb18  1  0.50000000  0.45240672  0.38365621  1
  Sb  Sb19  1  0.50000000  0.54759328  0.61634379  1
  Sb  Sb20  1  0.50000000  0.53283649  0.12537656  1
  Sb  Sb21  1  0.00000000  0.68204182  0.60445644  1
  Sb  Sb22  1  0.00000000  0.31795818  0.39554356  1
  Sb  Sb23  1  0.50000000  0.46716351  0.87462344  1
  Au  Au24  1  0.00000000  0.19362935  0.18088407  1
  Au  Au25  1  0.75086119  0.01418495  0.76661752  1
  Au  Au26  1  0.25346169  0.18569817  0.30619745  1
  Au  Au27  1  0.24653831  0.68569817  0.19380255  1
  Au  Au28  1  0.24913881  0.01418495  0.76661752  1
  Au  Au29  1  0.75086119  0.98581505  0.23338248  1
  Au  Au30  1  0.50000000  0.69362935  0.31911593  1
  Au  Au31  1  0.24913881  0.98581505  0.23338248  1
  Au  Au32  1  0.74653831  0.18569817  0.30619745  1
  Au  Au33  1  0.50000000  0.23136995  0.21276938  1
  Au  Au34  1  0.25346169  0.81430183  0.69380255  1
  Au  Au35  1  0.50000000  0.76863005  0.78723062  1
  Au  Au36  1  0.25086119  0.51418495  0.73338248  1
  Au  Au37  1  0.25086119  0.48581505  0.26661752  1
  Au  Au38  1  0.00000000  0.26863005  0.71276938  1
  Au  Au39  1  0.50000000  0.30637065  0.68088407  1
  Au  Au40  1  0.00000000  0.73136995  0.28723062  1
  Au  Au41  1  0.24653831  0.31430183  0.80619745  1
  Au  Au42  1  0.74653831  0.81430183  0.69380255  1
  Au  Au43  1  0.00000000  0.80637065  0.81911593  1
  Au  Au44  1  0.74913881  0.48581505  0.26661752  1
  Au  Au45  1  0.75346169  0.68569817  0.19380255  1
  Au  Au46  1  0.74913881  0.51418495  0.73338248  1
  Au  Au47  1  0.75346169  0.31430183  0.80619745  1
  S  S48  1  0.25047371  0.08556526  0.58918434  1
  S  S49  1  0.00000000  0.91357808  0.27877505  1
  S  S50  1  0.00000000  0.13936461  0.09721327  1
  S  S51  1  0.24985318  0.59378974  0.55347740  1
  S  S52  1  0.74985318  0.90621026  0.05347740  1
  S  S53  1  0.00000000  0.08642192  0.72122495  1
  S  S54  1  0.50000000  0.75873644  0.23716490  1
  S  S55  1  0.50000000  0.58642192  0.77877505  1
  S  S56  1  0.75047371  0.41443474  0.08918434  1
  S  S57  1  0.24952629  0.58556526  0.91081566  1
  S  S58  1  0.50000000  0.66198283  0.04958470  1
  S  S59  1  0.50000000  0.36063539  0.59721327  1
  S  S60  1  0.00000000  0.25873644  0.26283510  1
  S  S61  1  0.00000000  0.74126356  0.73716490  1
  S  S62  1  0.00000000  0.86063539  0.90278673  1
  S  S63  1  0.74952629  0.91443474  0.41081566  1
  S  S64  1  0.24952629  0.41443474  0.08918434  1
  S  S65  1  0.24985318  0.40621026  0.44652260  1
  S  S66  1  0.50000000  0.13496009  0.35820515  1
  S  S67  1  0.74952629  0.08556526  0.58918434  1
  S  S68  1  0.25014682  0.90621026  0.05347740  1
  S  S69  1  0.50000000  0.94471111  0.81238730  1
  S  S70  1  0.75014682  0.40621026  0.44652260  1
  S  S71  1  0.00000000  0.16198283  0.45041530  1
  S  S72  1  0.75047371  0.58556526  0.91081566  1
  S  S73  1  0.50000000  0.86503991  0.64179485  1
  S  S74  1  0.00000000  0.63496009  0.14179485  1
  S  S75  1  0.75014682  0.59378974  0.55347740  1
  S  S76  1  0.25014682  0.09378974  0.94652260  1
  S  S77  1  0.50000000  0.05528889  0.18761270  1
  S  S78  1  0.74985318  0.09378974  0.94652260  1
  S  S79  1  0.50000000  0.24126356  0.76283510  1
  S  S80  1  0.50000000  0.41357808  0.22122495  1
  S  S81  1  0.00000000  0.83801717  0.54958470  1
  S  S82  1  0.25047371  0.91443474  0.41081566  1
  S  S83  1  0.00000000  0.44471111  0.68761270  1
  S  S84  1  0.50000000  0.63936461  0.40278673  1
  S  S85  1  0.00000000  0.36503991  0.85820515  1
  S  S86  1  0.50000000  0.33801717  0.95041530  1
  S  S87  1  0.00000000  0.55528889  0.31238730  1
