# generated using pymatgen
data_SrZrS3
_symmetry_space_group_name_H-M   'P 1'
_cell_length_a   3.84618091
_cell_length_b   8.60624423
_cell_length_c   14.06768242
_cell_angle_alpha   90.00000000
_cell_angle_beta   90.00000000
_cell_angle_gamma   90.00000000
_symmetry_Int_Tables_number   1
_chemical_formula_structural   SrZrS3
_chemical_formula_sum   'Sr4 Zr4 S12'
_cell_volume   465.65677914
_cell_formula_units_Z   4
loop_
 _symmetry_equiv_pos_site_id
 _symmetry_equiv_pos_as_xyz
  1  'x, y, z'
loop_
 _atom_site_type_symbol
 _atom_site_label
 _atom_site_symmetry_multiplicity
 _atom_site_fract_x
 _atom_site_fract_y
 _atom_site_fract_z
 _atom_site_occupancy
  Sr  Sr0  1  0.25000000  0.56686368  0.67904515  1
  Sr  Sr1  1  0.75000000  0.43313632  0.32095485  1
  Sr  Sr2  1  0.25000000  0.06686368  0.82095485  1
  Sr  Sr3  1  0.75000000  0.93313632  0.17904515  1
  Zr  Zr4  1  0.75000000  0.17179716  0.55726612  1
  Zr  Zr5  1  0.75000000  0.67179716  0.94273388  1
  Zr  Zr6  1  0.25000000  0.32820284  0.05726612  1
  Zr  Zr7  1  0.25000000  0.82820284  0.44273388  1
  S  S8  1  0.75000000  0.16270103  0.98640049  1
  S  S9  1  0.25000000  0.70610900  0.28419256  1
  S  S10  1  0.25000000  0.98353769  0.60634252  1
  S  S11  1  0.25000000  0.48353769  0.89365748  1
  S  S12  1  0.25000000  0.83729897  0.01359951  1
  S  S13  1  0.75000000  0.51646231  0.10634252  1
  S  S14  1  0.75000000  0.66270103  0.51359951  1
  S  S15  1  0.25000000  0.20610900  0.21580744  1
  S  S16  1  0.75000000  0.79389100  0.78419256  1
  S  S17  1  0.75000000  0.29389100  0.71580744  1
  S  S18  1  0.25000000  0.33729897  0.48640049  1
  S  S19  1  0.75000000  0.01646231  0.39365748  1
