# generated using pymatgen
data_BiB2O4F
_symmetry_space_group_name_H-M   'P 1'
_cell_length_a   6.79458911
_cell_length_b   6.79458930
_cell_length_c   6.52522022
_cell_angle_alpha   90.00000000
_cell_angle_beta   90.00000000
_cell_angle_gamma   119.99999899
_symmetry_Int_Tables_number   1
_chemical_formula_structural   BiB2O4F
_chemical_formula_sum   'Bi3 B6 O12 F3'
_cell_volume   260.88686812
_cell_formula_units_Z   3
loop_
 _symmetry_equiv_pos_site_id
 _symmetry_equiv_pos_as_xyz
  1  'x, y, z'
loop_
 _atom_site_type_symbol
 _atom_site_label
 _atom_site_symmetry_multiplicity
 _atom_site_fract_x
 _atom_site_fract_y
 _atom_site_fract_z
 _atom_site_occupancy
  Bi  Bi0  1  0.23448492  0.29345459  0.78488736  1
  Bi  Bi1  1  0.05896967  0.76551508  0.11822136  1
  Bi  Bi2  1  0.70654541  0.94103033  0.45155436  1
  B  B3  1  0.76388539  0.31095347  0.78391787  1
  B  B4  1  0.68471574  0.95576376  -0.00017964  1
  B  B5  1  0.54706807  0.23611461  0.11725087  1
  B  B6  1  0.27104802  0.31528426  0.33315436  1
  B  B7  1  0.68904653  0.45293193  0.45058387  1
  B  B8  1  0.04423624  0.72895198  0.66648736  1
  O  O9  1  0.31477376  0.17802166  0.18518204  1
  O  O10  1  0.97896366  0.53567954  0.80979847  1
  O  O11  1  0.70220476  0.27633888  0.56750596  1
  O  O12  1  0.72366112  0.42586587  0.23417196  1
  O  O13  1  0.46432046  0.44328412  0.47646547  1
  O  O14  1  0.82197834  0.13675210  0.85184804  1
  O  O15  1  0.10885449  0.92278298  0.80232212  1
  O  O16  1  0.55671588  0.02103634  0.14313147  1
  O  O17  1  0.81392849  0.89114551  0.13565512  1
  O  O18  1  0.86324790  0.68522624  0.51851504  1
  O  O19  1  0.57413413  0.29779524  0.90083896  1
  O  O20  1  0.07721702  0.18607151  0.46898912  1
  F  F21  1  0.23576849  0.47482365  0.20929984  1
  F  F22  1  0.52517635  0.76094484  0.87596584  1
  F  F23  1  0.23905516  0.76423151  0.54263284  1
