# generated using pymatgen
data_CsGeB3O7
_symmetry_space_group_name_H-M   'P 1'
_cell_length_a   7.10363514
_cell_length_b   9.68492228
_cell_length_c   10.06314949
_cell_angle_alpha   90.00000000
_cell_angle_beta   90.00000000
_cell_angle_gamma   90.00000000
_symmetry_Int_Tables_number   1
_chemical_formula_structural   CsGeB3O7
_chemical_formula_sum   'Cs4 Ge4 B12 O28'
_cell_volume   692.32611072
_cell_formula_units_Z   4
loop_
 _symmetry_equiv_pos_site_id
 _symmetry_equiv_pos_as_xyz
  1  'x, y, z'
loop_
 _atom_site_type_symbol
 _atom_site_label
 _atom_site_symmetry_multiplicity
 _atom_site_fract_x
 _atom_site_fract_y
 _atom_site_fract_z
 _atom_site_occupancy
  Cs  Cs0  1  0.00634132  0.99940918  0.67318508  1
  Cs  Cs1  1  0.50634132  0.50059082  0.17318508  1
  Cs  Cs2  1  0.00634132  0.49940918  0.82681492  1
  Cs  Cs3  1  0.50634132  0.00059082  0.32681492  1
  Ge  Ge4  1  0.49303481  0.77173181  0.88985824  1
  Ge  Ge5  1  0.99303481  0.22826819  0.11014176  1
  Ge  Ge6  1  0.49303481  0.27173181  0.61014176  1
  Ge  Ge7  1  0.99303481  0.72826819  0.38985824  1
  B  B8  1  0.86561813  0.82557446  0.01146291  1
  B  B9  1  0.19586238  0.34536122  0.43576951  1
  B  B10  1  0.96153353  0.45772647  0.28388023  1
  B  B11  1  0.96153353  0.95772647  0.21611977  1
  B  B12  1  0.36561813  0.17442554  0.98853709  1
  B  B13  1  0.86561813  0.32557446  0.48853709  1
  B  B14  1  0.46153353  0.04227353  0.78388023  1
  B  B15  1  0.36561813  0.67442554  0.51146291  1
  B  B16  1  0.19586238  0.84536122  0.06423049  1
  B  B17  1  0.69586238  0.65463878  0.56423049  1
  B  B18  1  0.69586238  0.15463878  0.93576951  1
  B  B19  1  0.46153353  0.54227353  0.71611977  1
  O  O20  1  0.93951049  0.60813763  0.26558490  1
  O  O21  1  0.42357427  0.10348616  0.65159268  1
  O  O22  1  0.31983041  0.59453721  0.61721058  1
  O  O23  1  0.55530995  0.20175204  0.02135982  1
  O  O24  1  0.42357427  0.60348616  0.84840732  1
  O  O25  1  0.05530995  0.29824796  0.52135982  1
  O  O26  1  0.15470796  0.42334832  0.32758678  1
  O  O27  1  0.05530995  0.79824796  0.97864018  1
  O  O28  1  0.23913976  0.23678593  0.07363853  1
  O  O29  1  0.88257699  0.19015294  0.95475764  1
  O  O30  1  0.38257699  0.80984706  0.04524236  1
  O  O31  1  0.31983041  0.09453721  0.88278942  1
  O  O32  1  0.43951049  0.39186237  0.73441510  1
  O  O33  1  0.73913976  0.76321407  0.92636147  1
  O  O34  1  0.88257699  0.69015294  0.54524236  1
  O  O35  1  0.65470796  0.57665168  0.67241322  1
  O  O36  1  0.92357427  0.39651384  0.15159268  1
  O  O37  1  0.65470796  0.07665168  0.82758678  1
  O  O38  1  0.81983041  0.40546279  0.38278942  1
  O  O39  1  0.38257699  0.30984706  0.45475764  1
  O  O40  1  0.81983041  0.90546279  0.11721058  1
  O  O41  1  0.93951049  0.10813763  0.23441510  1
  O  O42  1  0.92357427  0.89651384  0.34840732  1
  O  O43  1  0.23913976  0.73678593  0.42636147  1
  O  O44  1  0.15470796  0.92334832  0.17241322  1
  O  O45  1  0.43951049  0.89186237  0.76558490  1
  O  O46  1  0.55530995  0.70175204  0.47864018  1
  O  O47  1  0.73913976  0.26321407  0.57363853  1
