# generated using pymatgen
data_Rb2LiVS4
_symmetry_space_group_name_H-M   'P 1'
_cell_length_a   5.89337302
_cell_length_b   7.33931205
_cell_length_c   12.20133188
_cell_angle_alpha   84.43569583
_cell_angle_beta   76.02459528
_cell_angle_gamma   66.32841433
_symmetry_Int_Tables_number   1
_chemical_formula_structural   Rb2LiVS4
_chemical_formula_sum   'Rb4 Li2 V2 S8'
_cell_volume   469.03692628
_cell_formula_units_Z   2
loop_
 _symmetry_equiv_pos_site_id
 _symmetry_equiv_pos_as_xyz
  1  'x, y, z'
loop_
 _atom_site_type_symbol
 _atom_site_label
 _atom_site_symmetry_multiplicity
 _atom_site_fract_x
 _atom_site_fract_y
 _atom_site_fract_z
 _atom_site_occupancy
  Rb  Rb0  1  0.44668115  0.75000000  0.10663770  1
  Rb  Rb1  1  0.19668115  0.25000000  0.60663770  1
  Rb  Rb2  1  0.55331885  0.25000000  0.89336230  1
  Rb  Rb3  1  0.80331885  0.75000000  0.39336230  1
  Li  Li4  1  0.12500000  0.75000000  0.75000000  1
  Li  Li5  1  0.87500000  0.25000000  0.25000000  1
  V  V6  1  0.62500000  0.75000000  0.75000000  1
  V  V7  1  0.37500000  0.25000000  0.25000000  1
  S  S8  1  0.20179976  0.06385071  0.35421408  1
  S  S9  1  0.79820024  0.93614929  0.64578592  1
  S  S10  1  0.44398616  0.43614929  0.35421408  1
  S  S11  1  0.26565047  0.93614929  0.85421408  1
  S  S12  1  0.55601384  0.56385071  0.64578592  1
  S  S13  1  0.88013544  0.56385071  0.85421408  1
  S  S14  1  0.73434953  0.06385071  0.14578592  1
  S  S15  1  0.11986456  0.43614929  0.14578592  1
