# generated using pymatgen
data_KHoBeF6
_symmetry_space_group_name_H-M   'P 1'
_cell_length_a   5.84194061
_cell_length_b   6.42386353
_cell_length_c   7.08613746
_cell_angle_alpha   113.01134697
_cell_angle_beta   90.00000000
_cell_angle_gamma   90.00000000
_symmetry_Int_Tables_number   1
_chemical_formula_structural   KHoBeF6
_chemical_formula_sum   'K2 Ho2 Be2 F12'
_cell_volume   244.76683952
_cell_formula_units_Z   2
loop_
 _symmetry_equiv_pos_site_id
 _symmetry_equiv_pos_as_xyz
  1  'x, y, z'
loop_
 _atom_site_type_symbol
 _atom_site_label
 _atom_site_symmetry_multiplicity
 _atom_site_fract_x
 _atom_site_fract_y
 _atom_site_fract_z
 _atom_site_occupancy
  K  K0  1  0.25000000  0.42860267  0.79543975  1
  K  K1  1  0.75000000  0.57139733  0.20456025  1
  Ho  Ho2  1  0.25000000  0.11189246  0.18023520  1
  Ho  Ho3  1  0.75000000  0.88810754  0.81976480  1
  Be  Be4  1  0.25000000  0.73310451  0.46404820  1
  Be  Be5  1  0.75000000  0.26689549  0.53595180  1
  F  F6  1  0.25000000  0.51138137  0.26263902  1
  F  F7  1  0.53446297  0.26726386  0.40454531  1
  F  F8  1  0.46553703  0.73273614  0.59545469  1
  F  F9  1  0.50152265  0.17820924  0.96523271  1
  F  F10  1  0.49847735  0.82179076  0.03476729  1
  F  F11  1  0.00152265  0.82179076  0.03476729  1
  F  F12  1  0.99847735  0.17820924  0.96523271  1
  F  F13  1  0.75000000  0.05721677  0.59116387  1
  F  F14  1  0.96553703  0.26726386  0.40454531  1
  F  F15  1  0.03446297  0.73273614  0.59545469  1
  F  F16  1  0.25000000  0.94278323  0.40883613  1
  F  F17  1  0.75000000  0.48861863  0.73736098  1
