# generated using pymatgen
data_Cs3Yb(SO4)3
_symmetry_space_group_name_H-M   'P 1'
_cell_length_a   10.06500524
_cell_length_b   10.06500532
_cell_length_c   10.06500581
_cell_angle_alpha   109.94241581
_cell_angle_beta   109.94241596
_cell_angle_gamma   109.94241350
_symmetry_Int_Tables_number   1
_chemical_formula_structural   Cs3Yb(SO4)3
_chemical_formula_sum   'Cs6 Yb2 S6 O24'
_cell_volume   770.91351520
_cell_formula_units_Z   2
loop_
 _symmetry_equiv_pos_site_id
 _symmetry_equiv_pos_as_xyz
  1  'x, y, z'
loop_
 _atom_site_type_symbol
 _atom_site_label
 _atom_site_symmetry_multiplicity
 _atom_site_fract_x
 _atom_site_fract_y
 _atom_site_fract_z
 _atom_site_occupancy
  Yb  Yb0  1  0.49147901  0.49147901  0.49147901  1
  Yb  Yb1  1  0.99147901  0.99147901  0.99147901  1
  Cs  Cs2  1  0.66189837  0.17948576  0.79686703  1
  Cs  Cs3  1  0.67948576  0.16189837  0.29686703  1
  Cs  Cs4  1  0.17948576  0.79686703  0.66189837  1
  Cs  Cs5  1  0.79686703  0.66189837  0.17948576  1
  Cs  Cs6  1  0.16189837  0.29686703  0.67948576  1
  Cs  Cs7  1  0.29686703  0.67948576  0.16189837  1
  S  S8  1  0.57156924  0.77599742  0.89472279  1
  S  S9  1  0.39472279  0.27599742  0.07156924  1
  S  S10  1  0.27599742  0.07156924  0.39472279  1
  S  S11  1  0.89472279  0.57156924  0.77599742  1
  S  S12  1  0.07156924  0.39472279  0.27599742  1
  S  S13  1  0.77599742  0.89472279  0.57156924  1
  O  O14  1  0.98793945  0.50205683  0.72063321  1
  O  O15  1  0.22063321  0.00205683  0.48793945  1
  O  O16  1  0.83960606  0.98077586  0.75240130  1
  O  O17  1  0.50205683  0.72063321  0.98793945  1
  O  O18  1  0.00205683  0.48793945  0.22063321  1
  O  O19  1  0.38611440  0.40822669  0.04096534  1
  O  O20  1  0.98787954  0.22422473  0.13315698  1
  O  O21  1  0.54096534  0.90822669  0.88611440  1
  O  O22  1  0.48787954  0.63315698  0.72422473  1
  O  O23  1  0.13315698  0.98787954  0.22422473  1
  O  O24  1  0.33960606  0.25240130  0.48077586  1
  O  O25  1  0.88611440  0.54096534  0.90822669  1
  O  O26  1  0.72422473  0.48787954  0.63315698  1
  O  O27  1  0.72063321  0.98793945  0.50205683  1
  O  O28  1  0.48793945  0.22063321  0.00205683  1
  O  O29  1  0.90822669  0.88611440  0.54096534  1
  O  O30  1  0.40822669  0.04096534  0.38611440  1
  O  O31  1  0.22422473  0.13315698  0.98787954  1
  O  O32  1  0.25240130  0.48077586  0.33960606  1
  O  O33  1  0.48077586  0.33960606  0.25240130  1
  O  O34  1  0.63315698  0.72422473  0.48787954  1
  O  O35  1  0.98077586  0.75240130  0.83960606  1
  O  O36  1  0.75240130  0.83960606  0.98077586  1
  O  O37  1  0.04096534  0.38611440  0.40822669  1
