# generated using pymatgen
data_KMgPO4
_symmetry_space_group_name_H-M   'P 1'
_cell_length_a   5.14746860
_cell_length_b   8.66519331
_cell_length_c   19.26251236
_cell_angle_alpha   91.69539296
_cell_angle_beta   90.00000000
_cell_angle_gamma   90.00000000
_symmetry_Int_Tables_number   1
_chemical_formula_structural   KMgPO4
_chemical_formula_sum   'K8 Mg8 P8 O32'
_cell_volume   858.80533704
_cell_formula_units_Z   8
loop_
 _symmetry_equiv_pos_site_id
 _symmetry_equiv_pos_as_xyz
  1  'x, y, z'
loop_
 _atom_site_type_symbol
 _atom_site_label
 _atom_site_symmetry_multiplicity
 _atom_site_fract_x
 _atom_site_fract_y
 _atom_site_fract_z
 _atom_site_occupancy
  K  K0  1  0.26556667  0.48174096  0.84042794  1
  K  K1  1  0.72454960  0.00437154  0.09315682  1
  K  K2  1  0.23443333  0.48174096  0.34042794  1
  K  K3  1  0.22454960  0.99562846  0.40684318  1
  K  K4  1  0.27545040  0.99562846  0.90684318  1
  K  K5  1  0.77545040  0.00437154  0.59315682  1
  K  K6  1  0.73443333  0.51825904  0.15957206  1
  K  K7  1  0.76556667  0.51825904  0.65957206  1
  Mg  Mg8  1  0.27881016  0.32192417  0.03050395  1
  Mg  Mg9  1  0.77549641  0.15612378  0.26894397  1
  Mg  Mg10  1  0.72118984  0.67807583  0.96949605  1
  Mg  Mg11  1  0.22118984  0.32192417  0.53050395  1
  Mg  Mg12  1  0.22450359  0.84387622  0.73105603  1
  Mg  Mg13  1  0.72450359  0.15612378  0.76894397  1
  Mg  Mg14  1  0.77881016  0.67807583  0.46949605  1
  Mg  Mg15  1  0.27549641  0.84387622  0.23105603  1
  P  P16  1  0.74652664  0.29496720  0.43706591  1
  P  P17  1  0.70549440  0.79264028  0.31019062  1
  P  P18  1  0.79450560  0.79264028  0.81019062  1
  P  P19  1  0.75347336  0.29496720  0.93706591  1
  P  P20  1  0.24652664  0.70503280  0.06293409  1
  P  P21  1  0.25347336  0.70503280  0.56293409  1
  P  P22  1  0.20549440  0.20735972  0.18980938  1
  P  P23  1  0.29450560  0.20735972  0.68980938  1
  O  O24  1  0.03754630  0.32935568  0.22934113  1
  O  O25  1  0.46245370  0.32935568  0.72934113  1
  O  O26  1  0.31795323  0.78735032  0.13254006  1
  O  O27  1  0.18204677  0.78735032  0.63254006  1
  O  O28  1  0.55052444  0.71856199  0.54978767  1
  O  O29  1  0.32454342  0.53223665  0.06612236  1
  O  O30  1  0.81795323  0.21264968  0.36745994  1
  O  O31  1  0.59408413  0.94937835  0.28218999  1
  O  O32  1  0.89985945  0.21918608  0.49702384  1
  O  O33  1  0.10014055  0.78081392  0.50297616  1
  O  O34  1  0.05052444  0.28143801  0.95021233  1
  O  O35  1  0.44947556  0.28143801  0.45021233  1
  O  O36  1  0.82454342  0.46776335  0.43387764  1
  O  O37  1  0.49838023  0.22662872  0.20543352  1
  O  O38  1  0.99838023  0.77337128  0.29456648  1
  O  O39  1  0.96245370  0.67064432  0.77065887  1
  O  O40  1  0.39985945  0.78081392  0.00297616  1
  O  O41  1  0.53754630  0.67064432  0.27065887  1
  O  O42  1  0.67545658  0.46776335  0.93387764  1
  O  O43  1  0.09408413  0.05062165  0.21781001  1
  O  O44  1  0.00161977  0.22662872  0.70543352  1
  O  O45  1  0.33952289  0.20702801  0.61030841  1
  O  O46  1  0.94947556  0.71856199  0.04978767  1
  O  O47  1  0.66047711  0.79297199  0.38969159  1
  O  O48  1  0.60014055  0.21918608  0.99702384  1
  O  O49  1  0.83952289  0.79297199  0.88969159  1
  O  O50  1  0.50161977  0.77337128  0.79456648  1
  O  O51  1  0.90591587  0.94937835  0.78218999  1
  O  O52  1  0.16047711  0.20702801  0.11030841  1
  O  O53  1  0.17545658  0.53223665  0.56612236  1
  O  O54  1  0.68204677  0.21264968  0.86745994  1
  O  O55  1  0.40591587  0.05062165  0.71781001  1
