# generated using pymatgen
data_Ag2TeO4
_symmetry_space_group_name_H-M   'P 1'
_cell_length_a   6.58034835
_cell_length_b   6.58034779
_cell_length_c   13.94802343
_cell_angle_alpha   91.11716698
_cell_angle_beta   91.11716689
_cell_angle_gamma   91.60912563
_symmetry_Int_Tables_number   1
_chemical_formula_structural   Ag2TeO4
_chemical_formula_sum   'Ag12 Te6 O24'
_cell_volume   603.48875113
_cell_formula_units_Z   6
loop_
 _symmetry_equiv_pos_site_id
 _symmetry_equiv_pos_as_xyz
  1  'x, y, z'
loop_
 _atom_site_type_symbol
 _atom_site_label
 _atom_site_symmetry_multiplicity
 _atom_site_fract_x
 _atom_site_fract_y
 _atom_site_fract_z
 _atom_site_occupancy
  Ag  Ag0  1  0.27472229  0.72527771  0.25000000  1
  Ag  Ag1  1  0.38992691  0.26572476  0.17323755  1
  Ag  Ag2  1  0.05151854  0.94848146  0.75000000  1
  Ag  Ag3  1  0.72527771  0.27472229  0.75000000  1
  Ag  Ag4  1  0.94848146  0.05151854  0.25000000  1
  Ag  Ag5  1  0.61007309  0.73427524  0.82676245  1
  Ag  Ag6  1  0.21895845  0.51718448  0.43235148  1
  Ag  Ag7  1  0.48281552  0.78104155  0.06764852  1
  Ag  Ag8  1  0.73427524  0.61007309  0.32676245  1
  Ag  Ag9  1  0.51718448  0.21895845  0.93235148  1
  Ag  Ag10  1  0.26572476  0.38992691  0.67323755  1
  Ag  Ag11  1  0.78104155  0.48281552  0.56764852  1
  Te  Te12  1  0.91339104  0.50328630  0.10348794  1
  Te  Te13  1  0.08660896  0.49671370  0.89651206  1
  Te  Te14  1  0.49671370  0.08660896  0.39651206  1
  Te  Te15  1  0.00000000  0.00000000  0.00000000  1
  Te  Te16  1  0.50328630  0.91339104  0.60348794  1
  Te  Te17  1  0.00000000  0.00000000  0.50000000  1
  O  O18  1  0.27517165  0.04696986  0.04671164  1
  O  O19  1  0.49127101  0.18110785  0.53450465  1
  O  O20  1  0.47247119  0.35609258  0.35164617  1
  O  O21  1  0.20013638  0.88968597  0.59693370  1
  O  O22  1  0.35609258  0.47247119  0.85164617  1
  O  O23  1  0.64390742  0.52752881  0.14835383  1
  O  O24  1  0.88968597  0.20013638  0.09693370  1
  O  O25  1  0.19352730  0.04573202  0.39221019  1
  O  O26  1  0.52752881  0.64390742  0.64835383  1
  O  O27  1  0.04696986  0.27517165  0.54671164  1
  O  O28  1  0.11031403  0.79986362  0.90306630  1
  O  O29  1  0.72482835  0.95303014  0.95328836  1
  O  O30  1  0.95248439  0.51511919  0.77437849  1
  O  O31  1  0.04573202  0.19352730  0.89221019  1
  O  O32  1  0.50872899  0.81889215  0.46549535  1
  O  O33  1  0.51511919  0.95248439  0.27437849  1
  O  O34  1  0.79986362  0.11031403  0.40306630  1
  O  O35  1  0.95303014  0.72482835  0.45328836  1
  O  O36  1  0.04751561  0.48488081  0.22562151  1
  O  O37  1  0.18110785  0.49127101  0.03450465  1
  O  O38  1  0.80647270  0.95426798  0.60778981  1
  O  O39  1  0.95426798  0.80647270  0.10778981  1
  O  O40  1  0.48488081  0.04751561  0.72562151  1
  O  O41  1  0.81889215  0.50872899  0.96549535  1
