# generated using pymatgen
data_VF5
_symmetry_space_group_name_H-M   'P 1'
_cell_length_a   5.52317264
_cell_length_b   7.75975757
_cell_length_c   17.45131278
_cell_angle_alpha   90.00000000
_cell_angle_beta   90.00000000
_cell_angle_gamma   90.00000000
_symmetry_Int_Tables_number   1
_chemical_formula_structural   VF5
_chemical_formula_sum   'V8 F40'
_cell_volume   747.93675204
_cell_formula_units_Z   8
loop_
 _symmetry_equiv_pos_site_id
 _symmetry_equiv_pos_as_xyz
  1  'x, y, z'
loop_
 _atom_site_type_symbol
 _atom_site_label
 _atom_site_symmetry_multiplicity
 _atom_site_fract_x
 _atom_site_fract_y
 _atom_site_fract_z
 _atom_site_occupancy
  F  F0  1  0.48277347  0.89871598  0.62644515  1
  F  F1  1  0.98277347  0.10128402  0.37355485  1
  F  F2  1  0.01722653  0.39871598  0.87355485  1
  F  F3  1  0.51722653  0.60128402  0.12644515  1
  F  F4  1  0.51722653  0.10128402  0.37355485  1
  F  F5  1  0.01722653  0.89871598  0.62644515  1
  F  F6  1  0.98277347  0.60128402  0.12644515  1
  F  F7  1  0.48277347  0.39871598  0.87355485  1
  F  F8  1  0.75000000  0.75127081  0.96135575  1
  F  F9  1  0.25000000  0.24872919  0.03864425  1
  F  F10  1  0.75000000  0.25127081  0.53864425  1
  F  F11  1  0.25000000  0.74872919  0.46135575  1
  F  F12  1  0.75000000  0.96811612  0.78616103  1
  F  F13  1  0.25000000  0.03188388  0.21383897  1
  F  F14  1  0.75000000  0.46811612  0.71383897  1
  F  F15  1  0.25000000  0.53188388  0.28616103  1
  F  F16  1  0.51719384  0.02355736  0.91390512  1
  F  F17  1  0.01719384  0.97644264  0.08609488  1
  F  F18  1  0.98280616  0.52355736  0.58609488  1
  F  F19  1  0.48280616  0.47644264  0.41390512  1
  F  F20  1  0.48280616  0.97644264  0.08609488  1
  F  F21  1  0.98280616  0.02355736  0.91390512  1
  F  F22  1  0.01719384  0.47644264  0.41390512  1
  F  F23  1  0.51719384  0.52355736  0.58609488  1
  F  F24  1  0.50031364  0.72887385  0.84035125  1
  F  F25  1  0.00031364  0.27112615  0.15964875  1
  F  F26  1  0.99968636  0.22887385  0.65964875  1
  F  F27  1  0.49968636  0.77112615  0.34035125  1
  F  F28  1  0.49968636  0.27112615  0.15964875  1
  F  F29  1  0.99968636  0.72887385  0.84035125  1
  F  F30  1  0.00031364  0.77112615  0.34035125  1
  F  F31  1  0.50031364  0.22887385  0.65964875  1
  F  F32  1  0.25000000  0.63015983  0.95351246  1
  F  F33  1  0.75000000  0.36984017  0.04648754  1
  F  F34  1  0.25000000  0.13015983  0.54648754  1
  F  F35  1  0.75000000  0.86984017  0.45351246  1
  F  F36  1  0.25000000  0.53586372  0.75829721  1
  F  F37  1  0.75000000  0.46413628  0.24170279  1
  F  F38  1  0.25000000  0.03586372  0.74170279  1
  F  F39  1  0.75000000  0.96413628  0.25829721  1
  V  V40  1  0.75000000  0.95335292  0.35932746  1
  V  V41  1  0.25000000  0.04664708  0.64067254  1
  V  V42  1  0.75000000  0.45335292  0.14067254  1
  V  V43  1  0.25000000  0.54664708  0.85932746  1
  V  V44  1  0.25000000  0.60922975  0.38123340  1
  V  V45  1  0.75000000  0.39077025  0.61876660  1
  V  V46  1  0.25000000  0.10922975  0.11876660  1
  V  V47  1  0.75000000  0.89077025  0.88123340  1
