# generated using pymatgen
data_Na3Nd(BO3)2
_symmetry_space_group_name_H-M   'P 1'
_cell_length_a   6.67164605
_cell_length_b   8.88159684
_cell_length_c   10.31343522
_cell_angle_alpha   90.00000000
_cell_angle_beta   90.95650689
_cell_angle_gamma   90.00000000
_symmetry_Int_Tables_number   1
_chemical_formula_structural   Na3Nd(BO3)2
_chemical_formula_sum   'Na12 Nd4 B8 O24'
_cell_volume   611.03611125
_cell_formula_units_Z   4
loop_
 _symmetry_equiv_pos_site_id
 _symmetry_equiv_pos_as_xyz
  1  'x, y, z'
loop_
 _atom_site_type_symbol
 _atom_site_label
 _atom_site_symmetry_multiplicity
 _atom_site_fract_x
 _atom_site_fract_y
 _atom_site_fract_z
 _atom_site_occupancy
  Na  Na0  1  0.97866249  0.81219401  0.39731336  1
  Na  Na1  1  0.52133751  0.31219401  0.10268664  1
  Na  Na2  1  0.21829276  0.56315202  0.60683001  1
  Na  Na3  1  0.52325284  0.73642589  0.34242644  1
  Na  Na4  1  0.78170724  0.43684798  0.39316999  1
  Na  Na5  1  0.47866249  0.68780599  0.89731336  1
  Na  Na6  1  0.47674716  0.26357411  0.65757356  1
  Na  Na7  1  0.02133751  0.18780599  0.60268664  1
  Na  Na8  1  0.97674716  0.23642589  0.15757356  1
  Na  Na9  1  0.28170724  0.06315202  0.89316999  1
  Na  Na10  1  0.71829276  0.93684798  0.10683001  1
  Na  Na11  1  0.02325284  0.76357411  0.84242644  1
  Nd  Nd12  1  0.34090378  0.11440255  0.35410778  1
  Nd  Nd13  1  0.84090378  0.38559745  0.85410778  1
  Nd  Nd14  1  0.65909622  0.88559745  0.64589222  1
  Nd  Nd15  1  0.15909622  0.61440255  0.14589222  1
  B  B16  1  0.75526226  0.56840058  0.62558115  1
  B  B17  1  0.77884406  0.09882292  0.36134069  1
  B  B18  1  0.74473774  0.06840058  0.87441885  1
  B  B19  1  0.25526226  0.93159942  0.12558115  1
  B  B20  1  0.27884406  0.40117708  0.86134069  1
  B  B21  1  0.72115594  0.59882292  0.13865931  1
  B  B22  1  0.24473774  0.43159942  0.37441885  1
  B  B23  1  0.22115594  0.90117708  0.63865931  1
  O  O24  1  0.67323655  0.21173957  0.29532908  1
  O  O25  1  0.98414244  0.10112070  0.36965580  1
  O  O26  1  0.69679628  0.65307462  0.51866251  1
  O  O27  1  0.68377115  0.91950155  0.88297545  1
  O  O28  1  0.51585756  0.60112070  0.13034420  1
  O  O29  1  0.48414244  0.39887930  0.86965580  1
  O  O30  1  0.18377115  0.58049845  0.38297545  1
  O  O31  1  0.74236524  0.13652624  0.75155351  1
  O  O32  1  0.24236524  0.36347376  0.25155351  1
  O  O33  1  0.16514432  0.51831435  0.91532740  1
  O  O34  1  0.75763476  0.63652624  0.74844649  1
  O  O35  1  0.81622885  0.41950155  0.61702455  1
  O  O36  1  0.01585756  0.89887930  0.63034420  1
  O  O37  1  0.19679628  0.84692538  0.01866251  1
  O  O38  1  0.25763476  0.86347376  0.24844649  1
  O  O39  1  0.32676345  0.78826043  0.70467092  1
  O  O40  1  0.80320372  0.15307462  0.98133749  1
  O  O41  1  0.31622885  0.08049845  0.11702455  1
  O  O42  1  0.33485568  0.01831435  0.58467260  1
  O  O43  1  0.83485568  0.48168565  0.08467260  1
  O  O44  1  0.82676345  0.71173957  0.20467092  1
  O  O45  1  0.66514432  0.98168565  0.41532740  1
  O  O46  1  0.17323655  0.28826043  0.79532908  1
  O  O47  1  0.30320372  0.34692538  0.48133749  1
