# generated using pymatgen
data_Ag6GeSO8
_symmetry_space_group_name_H-M   'P 1'
_cell_length_a   7.12351515
_cell_length_b   7.12349701
_cell_length_c   10.54721691
_cell_angle_alpha   109.73696759
_cell_angle_beta   109.73733410
_cell_angle_gamma   89.99063861
_symmetry_Int_Tables_number   1
_chemical_formula_structural   Ag6GeSO8
_chemical_formula_sum   'Ag12 Ge2 S2 O16'
_cell_volume   470.23963296
_cell_formula_units_Z   2
loop_
 _symmetry_equiv_pos_site_id
 _symmetry_equiv_pos_as_xyz
  1  'x, y, z'
loop_
 _atom_site_type_symbol
 _atom_site_label
 _atom_site_symmetry_multiplicity
 _atom_site_fract_x
 _atom_site_fract_y
 _atom_site_fract_z
 _atom_site_occupancy
  Ag  Ag0  1  0.79308870  0.50012612  0.50007532  1
  Ag  Ag1  1  0.36100608  0.61103089  0.22200881  1
  Ag  Ag2  1  0.20696882  0.99992803  0.49999887  1
  Ag  Ag3  1  0.63899392  0.38896911  0.77799119  1
  Ag  Ag4  1  0.49992510  0.70696851  -0.00000168  1
  Ag  Ag5  1  0.79303118  0.00007197  0.50000113  1
  Ag  Ag6  1  0.00012637  0.29308986  0.00007514  1
  Ag  Ag7  1  0.99987363  0.70691014  0.99992486  1
  Ag  Ag8  1  0.50007490  0.29303149  1.00000168  1
  Ag  Ag9  1  0.20691130  0.49987388  0.49992468  1
  Ag  Ag10  1  0.88896987  0.13899578  0.27799173  1
  Ag  Ag11  1  0.11103013  0.86100422  0.72200827  1
  Ge  Ge12  1  0.12508549  0.37491040  0.74999997  1
  Ge  Ge13  1  0.87491451  0.62508960  0.25000003  1
  S  S14  1  0.62506122  0.87494008  0.74999763  1
  S  S15  1  0.37493878  0.12505992  0.25000237  1
  O  O16  1  0.15643963  0.07838196  0.15673768  1
  O  O17  1  0.82023378  0.77725473  0.14062428  1
  O  O18  1  0.42163538  -0.00019384  0.34329512  1
  O  O19  1  0.13646794  0.67966989  0.35931667  1
  O  O20  1  0.57836462  1.00019384  0.65670488  1
  O  O21  1  0.86353206  0.32033011  0.64068333  1
  O  O22  1  0.27725149  0.32023497  0.64062614  1
  O  O23  1  0.17966613  0.63646380  0.85931521  1
  O  O24  1  0.42161860  0.34356068  0.34326275  1
  O  O25  1  0.82033387  0.36353620  0.14068479  1
  O  O26  1  0.57838140  0.65643932  0.65673725  1
  O  O27  1  0.72274851  0.67976503  0.35937386  1
  O  O28  1  0.84356037  0.92161804  0.84326232  1
  O  O29  1  0.50019406  0.07836550  0.15670559  1
  O  O30  1  0.17976622  0.22274527  0.85937572  1
  O  O31  1  0.49980594  0.92163450  0.84329441  1
