# generated using pymatgen
data_Y3Si2ClO8
_symmetry_space_group_name_H-M   'P 1'
_cell_length_a   6.24547070
_cell_length_b   6.91691082
_cell_length_c   17.92019140
_cell_angle_alpha   90.00000000
_cell_angle_beta   90.00000000
_cell_angle_gamma   90.00000000
_symmetry_Int_Tables_number   1
_chemical_formula_structural   Y3Si2ClO8
_chemical_formula_sum   'Y12 Si8 Cl4 O32'
_cell_volume   774.14086874
_cell_formula_units_Z   4
loop_
 _symmetry_equiv_pos_site_id
 _symmetry_equiv_pos_as_xyz
  1  'x, y, z'
loop_
 _atom_site_type_symbol
 _atom_site_label
 _atom_site_symmetry_multiplicity
 _atom_site_fract_x
 _atom_site_fract_y
 _atom_site_fract_z
 _atom_site_occupancy
  Y  Y0  1  0.87241485  0.98548616  0.90976444  1
  Y  Y1  1  0.12758515  0.01451384  0.40976444  1
  Y  Y2  1  0.62758515  0.48548616  0.59023556  1
  Y  Y3  1  0.88494061  0.29371202  0.25000000  1
  Y  Y4  1  0.12758515  0.01451384  0.09023556  1
  Y  Y5  1  0.62758515  0.48548616  0.90976444  1
  Y  Y6  1  0.37241485  0.51451384  0.09023556  1
  Y  Y7  1  0.37241485  0.51451384  0.40976444  1
  Y  Y8  1  0.38494061  0.20628798  0.75000000  1
  Y  Y9  1  0.11505939  0.70628798  0.75000000  1
  Y  Y10  1  0.61505939  0.79371202  0.25000000  1
  Y  Y11  1  0.87241485  0.98548616  0.59023556  1
  Si  Si12  1  0.62127736  0.02378884  0.09983236  1
  Si  Si13  1  0.12127736  0.47621116  0.90016764  1
  Si  Si14  1  0.37872264  0.97621116  0.90016764  1
  Si  Si15  1  0.62127736  0.02378884  0.40016764  1
  Si  Si16  1  0.87872264  0.52378884  0.40016764  1
  Si  Si17  1  0.37872264  0.97621116  0.59983236  1
  Si  Si18  1  0.12127736  0.47621116  0.59983236  1
  Si  Si19  1  0.87872264  0.52378884  0.09983236  1
  Cl  Cl20  1  0.73641971  0.45780137  0.75000000  1
  Cl  Cl21  1  0.76358029  0.95780137  0.75000000  1
  Cl  Cl22  1  0.23641971  0.04219863  0.25000000  1
  Cl  Cl23  1  0.26358029  0.54219863  0.25000000  1
  O  O24  1  0.53157447  0.16719708  0.61805839  1
  O  O25  1  0.05455633  0.69699190  0.09494045  1
  O  O26  1  0.29020335  0.48781648  0.96931730  1
  O  O27  1  0.05455633  0.69699190  0.40505955  1
  O  O28  1  0.27485091  0.46587784  0.67614495  1
  O  O29  1  0.94544367  0.30300810  0.90505955  1
  O  O30  1  0.55455633  0.80300810  0.59494045  1
  O  O31  1  0.77485091  0.03412216  0.17614495  1
  O  O32  1  0.70979665  0.51218352  0.03068270  1
  O  O33  1  0.46842553  0.83280292  0.11805839  1
  O  O34  1  0.22514909  0.96587784  0.82385505  1
  O  O35  1  0.03157447  0.33280292  0.38194161  1
  O  O36  1  0.79020335  0.01218352  0.03068270  1
  O  O37  1  0.77485091  0.03412216  0.32385505  1
  O  O38  1  0.96842553  0.66719708  0.88194161  1
  O  O39  1  0.70979665  0.51218352  0.46931730  1
  O  O40  1  0.29020335  0.48781648  0.53068270  1
  O  O41  1  0.46842553  0.83280292  0.38194161  1
  O  O42  1  0.72514909  0.53412216  0.17614495  1
  O  O43  1  0.20979665  0.98781648  0.53068270  1
  O  O44  1  0.27485091  0.46587784  0.82385505  1
  O  O45  1  0.72514909  0.53412216  0.32385505  1
  O  O46  1  0.79020335  0.01218352  0.46931730  1
  O  O47  1  0.22514909  0.96587784  0.67614495  1
  O  O48  1  0.44544367  0.19699190  0.09494045  1
  O  O49  1  0.44544367  0.19699190  0.40505955  1
  O  O50  1  0.20979665  0.98781648  0.96931730  1
  O  O51  1  0.55455633  0.80300810  0.90505955  1
  O  O52  1  0.94544367  0.30300810  0.59494045  1
  O  O53  1  0.03157447  0.33280292  0.11805839  1
  O  O54  1  0.96842553  0.66719708  0.61805839  1
  O  O55  1  0.53157447  0.16719708  0.88194161  1
