# generated using pymatgen
data_KI(OF)2
_symmetry_space_group_name_H-M   'P 1'
_cell_length_a   6.12846238
_cell_length_b   8.51251370
_cell_length_c   8.56424839
_cell_angle_alpha   90.00000000
_cell_angle_beta   90.00000000
_cell_angle_gamma   90.00000000
_symmetry_Int_Tables_number   1
_chemical_formula_structural   KI(OF)2
_chemical_formula_sum   'K4 I4 O8 F8'
_cell_volume   446.78501958
_cell_formula_units_Z   4
loop_
 _symmetry_equiv_pos_site_id
 _symmetry_equiv_pos_as_xyz
  1  'x, y, z'
loop_
 _atom_site_type_symbol
 _atom_site_label
 _atom_site_symmetry_multiplicity
 _atom_site_fract_x
 _atom_site_fract_y
 _atom_site_fract_z
 _atom_site_occupancy
  K  K0  1  0.53203658  0.78678641  0.28388838  1
  K  K1  1  0.46796342  0.28678641  0.28388838  1
  K  K2  1  0.46796342  0.21321359  0.78388838  1
  K  K3  1  0.53203658  0.71321359  0.78388838  1
  I  I4  1  0.06372558  0.49632873  0.00027924  1
  I  I5  1  0.93627442  0.99632873  0.00027924  1
  I  I6  1  0.06372558  0.00367127  0.50027924  1
  I  I7  1  0.93627442  0.50367127  0.50027924  1
  O  O8  1  0.84177585  0.70322690  0.52670692  1
  O  O9  1  0.15822415  0.29677310  0.02670692  1
  O  O10  1  0.85019228  0.46575293  0.30229227  1
  O  O11  1  0.15822415  0.20322690  0.52670692  1
  O  O12  1  0.84177585  0.79677310  0.02670692  1
  O  O13  1  0.14980772  0.53424707  0.80229227  1
  O  O14  1  0.85019228  0.03424707  0.80229227  1
  O  O15  1  0.14980772  0.96575293  0.30229227  1
  F  F16  1  0.63852599  0.07806616  0.07994209  1
  F  F17  1  0.36147401  0.92193384  0.57994209  1
  F  F18  1  0.63852599  0.42193384  0.57994209  1
  F  F19  1  0.76396064  0.07357586  0.42519110  1
  F  F20  1  0.23603936  0.57357586  0.42519110  1
  F  F21  1  0.76396064  0.42642414  0.92519110  1
  F  F22  1  0.36147401  0.57806616  0.07994209  1
  F  F23  1  0.23603936  0.92642414  0.92519110  1
