# generated using pymatgen
data_HoTe2ClO5
_symmetry_space_group_name_H-M   'P 1'
_cell_length_a   7.66287595
_cell_length_b   8.01516256
_cell_length_c   10.41224433
_cell_angle_alpha   100.79590085
_cell_angle_beta   99.18848132
_cell_angle_gamma   91.96897736
_symmetry_Int_Tables_number   1
_chemical_formula_structural   HoTe2ClO5
_chemical_formula_sum   'Ho4 Te8 Cl4 O20'
_cell_volume   618.76850072
_cell_formula_units_Z   4
loop_
 _symmetry_equiv_pos_site_id
 _symmetry_equiv_pos_as_xyz
  1  'x, y, z'
loop_
 _atom_site_type_symbol
 _atom_site_label
 _atom_site_symmetry_multiplicity
 _atom_site_fract_x
 _atom_site_fract_y
 _atom_site_fract_z
 _atom_site_occupancy
  Ho  Ho0  1  0.26198992  0.51193294  0.05272163  1
  Ho  Ho1  1  0.75464290  0.00699492  0.02037854  1
  Ho  Ho2  1  0.73801008  0.48806706  0.94727837  1
  Ho  Ho3  1  0.24535710  0.99300508  0.97962146  1
  Te  Te4  1  0.05490272  0.24475072  0.74171857  1
  Te  Te5  1  0.94509728  0.75524928  0.25828143  1
  Te  Te6  1  0.32882889  0.62298100  0.74059805  1
  Te  Te7  1  0.50357123  0.07614111  0.73764390  1
  Te  Te8  1  0.12340934  0.20754816  0.26276280  1
  Te  Te9  1  0.67117111  0.37701900  0.25940195  1
  Te  Te10  1  0.49642877  0.92385889  0.26235610  1
  Te  Te11  1  0.87659066  0.79245184  0.73723720  1
  Cl  Cl12  1  0.67013383  0.42550477  0.66144039  1
  Cl  Cl13  1  0.32986617  0.57449523  0.33855961  1
  Cl  Cl14  1  0.83708460  0.10705821  0.41689862  1
  Cl  Cl15  1  0.16291540  0.89294179  0.58310138  1
  O  O16  1  0.82538542  0.58698527  0.34016508  1
  O  O17  1  0.43894569  0.54492442  0.89224748  1
  O  O18  1  0.78490806  0.74361821  0.88772909  1
  O  O19  1  0.67172286  0.91369845  0.66323395  1
  O  O20  1  0.56105431  0.45507558  0.10775252  1
  O  O21  1  0.27521506  0.19584298  0.84332691  1
  O  O22  1  0.72478494  0.80415702  0.15667309  1
  O  O23  1  0.98796934  0.59796170  0.10883431  1
  O  O24  1  0.84518236  0.27529272  0.15830450  1
  O  O25  1  0.66783332  0.20263410  0.88492035  1
  O  O26  1  0.01203066  0.40203830  0.89116569  1
  O  O27  1  0.17461458  0.41301473  0.65983492  1
  O  O28  1  0.32827714  0.08630155  0.33676605  1
  O  O29  1  0.53319541  0.07662119  0.14238421  1
  O  O30  1  0.97013224  0.00680321  0.85577928  1
  O  O31  1  0.46680459  0.92337881  0.85761579  1
  O  O32  1  0.21509194  0.25638179  0.11227091  1
  O  O33  1  0.15481764  0.72470728  0.84169550  1
  O  O34  1  0.33216668  0.79736590  0.11507965  1
  O  O35  1  0.02986776  0.99319679  0.14422072  1
