# generated using pymatgen
data_H7ClO7
_symmetry_space_group_name_H-M   'P 1'
_cell_length_a   8.42969076
_cell_length_b   10.22557112
_cell_length_c   13.60510512
_cell_angle_alpha   90.00000000
_cell_angle_beta   90.00000000
_cell_angle_gamma   90.00000000
_symmetry_Int_Tables_number   1
_chemical_formula_structural   H7ClO7
_chemical_formula_sum   'H56 Cl8 O56'
_cell_volume   1172.73832564
_cell_formula_units_Z   8
loop_
 _symmetry_equiv_pos_site_id
 _symmetry_equiv_pos_as_xyz
  1  'x, y, z'
loop_
 _atom_site_type_symbol
 _atom_site_label
 _atom_site_symmetry_multiplicity
 _atom_site_fract_x
 _atom_site_fract_y
 _atom_site_fract_z
 _atom_site_occupancy
  H  H0  1  0.90577873  0.17533963  0.42834237  1
  H  H1  1  0.56622732  0.56445026  0.23717505  1
  H  H2  1  0.56622732  0.06445026  0.26282495  1
  H  H3  1  0.69086928  0.55966714  0.38855260  1
  H  H4  1  0.44757654  0.61068827  0.64200268  1
  H  H5  1  0.48650185  0.22623278  0.34343452  1
  H  H6  1  0.06622732  0.93554974  0.23717505  1
  H  H7  1  0.93377268  0.06445026  0.76282495  1
  H  H8  1  0.44757654  0.11068827  0.85799732  1
  H  H9  1  0.95738661  0.03479186  0.87636450  1
  H  H10  1  0.54261339  0.53479186  0.12363550  1
  H  H11  1  0.78448326  0.46164579  0.31983153  1
  H  H12  1  0.69086928  0.05966714  0.11144740  1
  H  H13  1  0.09422127  0.32466037  0.92834237  1
  H  H14  1  0.04261339  0.96520814  0.12363550  1
  H  H15  1  0.09422127  0.82466037  0.57165763  1
  H  H16  1  0.28448326  0.03835421  0.31983153  1
  H  H17  1  0.55242346  0.88931173  0.14200268  1
  H  H18  1  0.21551674  0.53835421  0.68016847  1
  H  H19  1  0.95738661  0.53479186  0.62363550  1
  H  H20  1  0.93377268  0.56445026  0.73717505  1
  H  H21  1  0.48650185  0.72623278  0.15656548  1
  H  H22  1  0.01349815  0.22623278  0.84343452  1
  H  H23  1  0.30913072  0.94033286  0.88855260  1
  H  H24  1  0.06622732  0.43554974  0.26282495  1
  H  H25  1  0.45738661  0.46520814  0.87636450  1
  H  H26  1  0.80913072  0.55966714  0.88855260  1
  H  H27  1  0.51349815  0.77376722  0.65656548  1
  H  H28  1  0.59422127  0.67533963  0.57165763  1
  H  H29  1  0.04261339  0.46520814  0.37636450  1
  H  H30  1  0.19086928  0.44033286  0.11144740  1
  H  H31  1  0.01349815  0.72623278  0.65656548  1
  H  H32  1  0.43377268  0.43554974  0.76282495  1
  H  H33  1  0.98650185  0.27376722  0.34343452  1
  H  H34  1  0.94757654  0.38931173  0.85799732  1
  H  H35  1  0.80913072  0.05966714  0.61144740  1
  H  H36  1  0.19086928  0.94033286  0.38855260  1
  H  H37  1  0.51349815  0.27376722  0.84343452  1
  H  H38  1  0.71551674  0.96164579  0.68016847  1
  H  H39  1  0.21551674  0.03835421  0.81983153  1
  H  H40  1  0.71551674  0.46164579  0.81983153  1
  H  H41  1  0.40577873  0.32466037  0.42834237  1
  H  H42  1  0.78448326  0.96164579  0.18016847  1
  H  H43  1  0.30913072  0.44033286  0.61144740  1
  H  H44  1  0.94757654  0.88931173  0.64200268  1
  H  H45  1  0.05242346  0.11068827  0.35799732  1
  H  H46  1  0.98650185  0.77376722  0.15656548  1
  H  H47  1  0.40577873  0.82466037  0.07165763  1
  H  H48  1  0.05242346  0.61068827  0.14200268  1
  H  H49  1  0.28448326  0.53835421  0.18016847  1
  H  H50  1  0.90577873  0.67533963  0.07165763  1
  H  H51  1  0.54261339  0.03479186  0.37636450  1
  H  H52  1  0.43377268  0.93554974  0.73717505  1
  H  H53  1  0.55242346  0.38931173  0.35799732  1
  H  H54  1  0.59422127  0.17533963  0.92834237  1
  H  H55  1  0.45738661  0.96520814  0.62363550  1
  Cl  Cl56  1  0.73842804  0.82170993  0.42044360  1
  Cl  Cl57  1  0.76157196  0.82170993  0.92044360  1
  Cl  Cl58  1  0.23842804  0.17829007  0.07955640  1
  Cl  Cl59  1  0.26157196  0.67829007  0.92044360  1
  Cl  Cl60  1  0.73842804  0.32170993  0.07955640  1
  Cl  Cl61  1  0.26157196  0.17829007  0.57955640  1
  Cl  Cl62  1  0.76157196  0.32170993  0.57955640  1
  Cl  Cl63  1  0.23842804  0.67829007  0.42044360  1
  O  O64  1  0.00003550  0.08740588  0.82114255  1
  O  O65  1  0.50003550  0.91259412  0.67885745  1
  O  O66  1  0.23157269  0.30429161  0.02410223  1
  O  O67  1  0.73157269  0.69570839  0.47589777  1
  O  O68  1  0.70967068  0.79527312  0.31738654  1
  O  O69  1  0.88474582  0.40822808  0.53978006  1
  O  O70  1  0.95786681  0.67596436  0.13764390  1
  O  O71  1  0.20967068  0.20472688  0.18261346  1
  O  O72  1  0.23157269  0.80429161  0.47589777  1
  O  O73  1  0.10677820  0.61982260  0.93460293  1
  O  O74  1  0.11525418  0.59177192  0.46021994  1
  O  O75  1  0.17647171  0.00652427  0.33621177  1
  O  O76  1  0.04213319  0.32403564  0.86235610  1
  O  O77  1  0.89322180  0.88017740  0.43460293  1
  O  O78  1  0.39322180  0.11982260  0.06539707  1
  O  O79  1  0.82352829  0.49347573  0.83621177  1
  O  O80  1  0.32352829  0.50652427  0.66378823  1
  O  O81  1  0.49996450  0.58740588  0.17885745  1
  O  O82  1  0.26842731  0.30429161  0.52410223  1
  O  O83  1  0.89322180  0.38017740  0.06539707  1
  O  O84  1  0.67647171  0.49347573  0.33621177  1
  O  O85  1  0.10677820  0.11982260  0.56539707  1
  O  O86  1  0.88474582  0.90822808  0.96021994  1
  O  O87  1  0.26842731  0.80429161  0.97589777  1
  O  O88  1  0.79032932  0.29527312  0.68261346  1
  O  O89  1  0.70967068  0.29527312  0.18261346  1
  O  O90  1  0.54213319  0.67596436  0.63764390  1
  O  O91  1  0.32352829  0.00652427  0.83621177  1
  O  O92  1  0.61525418  0.40822808  0.03978006  1
  O  O93  1  0.11525418  0.09177192  0.03978006  1
  O  O94  1  0.60677820  0.38017740  0.56539707  1
  O  O95  1  0.99996450  0.41259412  0.32114255  1
  O  O96  1  0.82352829  0.99347573  0.66378823  1
  O  O97  1  0.45786681  0.32403564  0.36235610  1
  O  O98  1  0.67647171  0.99347573  0.16378823  1
  O  O99  1  0.38474582  0.09177192  0.53978006  1
  O  O100  1  0.29032932  0.70472688  0.81738654  1
  O  O101  1  0.00003550  0.58740588  0.67885745  1
  O  O102  1  0.95786681  0.17596436  0.36235610  1
  O  O103  1  0.99996450  0.91259412  0.17885745  1
  O  O104  1  0.29032932  0.20472688  0.68261346  1
  O  O105  1  0.73157269  0.19570839  0.02410223  1
  O  O106  1  0.76842731  0.69570839  0.97589777  1
  O  O107  1  0.39322180  0.61982260  0.43460293  1
  O  O108  1  0.38474582  0.59177192  0.96021994  1
  O  O109  1  0.20967068  0.70472688  0.31738654  1
  O  O110  1  0.50003550  0.41259412  0.82114255  1
  O  O111  1  0.79032932  0.79527312  0.81738654  1
  O  O112  1  0.17647171  0.50652427  0.16378823  1
  O  O113  1  0.04213319  0.82403564  0.63764390  1
  O  O114  1  0.45786681  0.82403564  0.13764390  1
  O  O115  1  0.49996450  0.08740588  0.32114255  1
  O  O116  1  0.61525418  0.90822808  0.46021994  1
  O  O117  1  0.60677820  0.88017740  0.93460293  1
  O  O118  1  0.76842731  0.19570839  0.52410223  1
  O  O119  1  0.54213319  0.17596436  0.86235610  1
