# generated using pymatgen
data_NaGe4(PO4)3
_symmetry_space_group_name_H-M   'P 1'
_cell_length_a   9.78453171
_cell_length_b   9.78453161
_cell_length_c   9.78453187
_cell_angle_alpha   59.12625436
_cell_angle_beta   59.12625472
_cell_angle_gamma   59.12625471
_symmetry_Int_Tables_number   1
_chemical_formula_structural   NaGe4(PO4)3
_chemical_formula_sum   'Na2 Ge8 P6 O24'
_cell_volume   649.18508653
_cell_formula_units_Z   2
loop_
 _symmetry_equiv_pos_site_id
 _symmetry_equiv_pos_as_xyz
  1  'x, y, z'
loop_
 _atom_site_type_symbol
 _atom_site_label
 _atom_site_symmetry_multiplicity
 _atom_site_fract_x
 _atom_site_fract_y
 _atom_site_fract_z
 _atom_site_occupancy
  Na  Na0  1  0.21564983  0.21564983  0.21564983  1
  Na  Na1  1  0.71564983  0.71564983  0.71564983  1
  Ge  Ge2  1  0.07490488  0.07490488  0.07490488  1
  Ge  Ge3  1  0.15936437  0.63057740  0.51703894  1
  Ge  Ge4  1  0.65936437  0.01703894  0.13057740  1
  Ge  Ge5  1  0.57490488  0.57490488  0.57490488  1
  Ge  Ge6  1  0.01703894  0.13057740  0.65936437  1
  Ge  Ge7  1  0.63057740  0.51703894  0.15936437  1
  Ge  Ge8  1  0.13057740  0.65936437  0.01703894  1
  Ge  Ge9  1  0.51703894  0.15936437  0.63057740  1
  P  P10  1  0.51948339  0.43201586  0.97305278  1
  P  P11  1  0.97305278  0.51948339  0.43201586  1
  P  P12  1  0.93201586  0.01948339  0.47305278  1
  P  P13  1  0.43201586  0.97305278  0.51948339  1
  P  P14  1  0.47305278  0.93201586  0.01948339  1
  P  P15  1  0.01948339  0.47305278  0.93201586  1
  O  O16  1  0.45337486  0.00837614  0.33676044  1
  O  O17  1  0.95556411  0.12879117  0.28337596  1
  O  O18  1  0.25477540  0.08433458  0.60405310  1
  O  O19  1  0.00837614  0.33676044  0.45337486  1
  O  O20  1  0.75477540  0.10405310  0.58433458  1
  O  O21  1  0.45556411  0.78337596  0.62879117  1
  O  O22  1  0.06844096  0.01250437  0.51714846  1
  O  O23  1  0.83676044  0.50837614  0.95337486  1
  O  O24  1  0.58433458  0.75477540  0.10405310  1
  O  O25  1  0.01250437  0.51714846  0.06844096  1
  O  O26  1  0.50837614  0.95337486  0.83676044  1
  O  O27  1  0.60405310  0.25477540  0.08433458  1
  O  O28  1  0.56844096  0.01714846  0.51250437  1
  O  O29  1  0.08433458  0.60405310  0.25477540  1
  O  O30  1  0.78337596  0.62879117  0.45556411  1
  O  O31  1  0.10405310  0.58433458  0.75477540  1
  O  O32  1  0.33676044  0.45337486  0.00837614  1
  O  O33  1  0.62879117  0.45556411  0.78337596  1
  O  O34  1  0.51250437  0.56844096  0.01714846  1
  O  O35  1  0.12879117  0.28337596  0.95556411  1
  O  O36  1  0.01714846  0.51250437  0.56844096  1
  O  O37  1  0.51714846  0.06844096  0.01250437  1
  O  O38  1  0.28337596  0.95556411  0.12879117  1
  O  O39  1  0.95337486  0.83676044  0.50837614  1
