# generated using pymatgen
data_P3RuO9
_symmetry_space_group_name_H-M   'P 1'
_cell_length_a   5.12629170
_cell_length_b   7.06225542
_cell_length_c   10.47396965
_cell_angle_alpha   98.63457537
_cell_angle_beta   92.41326172
_cell_angle_gamma   92.36051543
_symmetry_Int_Tables_number   1
_chemical_formula_structural   P3RuO9
_chemical_formula_sum   'P6 Ru2 O18'
_cell_volume   374.12729640
_cell_formula_units_Z   2
loop_
 _symmetry_equiv_pos_site_id
 _symmetry_equiv_pos_as_xyz
  1  'x, y, z'
loop_
 _atom_site_type_symbol
 _atom_site_label
 _atom_site_symmetry_multiplicity
 _atom_site_fract_x
 _atom_site_fract_y
 _atom_site_fract_z
 _atom_site_occupancy
  P  P0  1  0.52575880  0.95910624  0.18123196  1
  P  P1  1  0.24107458  0.31433159  0.22871490  1
  P  P2  1  0.49877625  0.32942850  0.63910105  1
  P  P3  1  0.47424120  0.04089376  0.81876804  1
  P  P4  1  0.75892542  0.68566841  0.77128510  1
  P  P5  1  0.50122375  0.67057150  0.36089895  1
  Ru  Ru6  1  0.00000000  0.00000000  0.00000000  1
  Ru  Ru7  1  0.00000000  0.50000000  0.50000000  1
  O  O8  1  0.48811416  0.18127473  0.23273671  1
  O  O9  1  0.09569341  0.27033056  0.09827467  1
  O  O10  1  0.33044467  0.88044735  0.07336849  1
  O  O11  1  0.20769105  0.35480293  0.62216146  1
  O  O12  1  0.66382593  0.33367845  0.52420093  1
  O  O13  1  0.18733987  0.06686970  0.84248128  1
  O  O14  1  0.61663799  0.47802635  0.76359849  1
  O  O15  1  0.90430659  0.72966944  0.90172533  1
  O  O16  1  0.53428752  0.12936650  0.68942468  1
  O  O17  1  0.79230895  0.64519707  0.37783854  1
  O  O18  1  0.91501497  0.69926503  0.65356210  1
  O  O19  1  0.81266013  0.93313030  0.15751872  1
  O  O20  1  0.51188584  0.81872527  0.76726329  1
  O  O21  1  0.66955533  0.11955265  0.92663151  1
  O  O22  1  0.46571248  0.87063350  0.31057532  1
  O  O23  1  0.08498503  0.30073497  0.34643790  1
  O  O24  1  0.38336201  0.52197365  0.23640151  1
  O  O25  1  0.33617407  0.66632155  0.47579907  1
