# generated using pymatgen
data_Eu2B5BrO9
_symmetry_space_group_name_H-M   'P 1'
_cell_length_a   6.54508307
_cell_length_b   11.49695207
_cell_length_c   11.62536127
_cell_angle_alpha   90.00000000
_cell_angle_beta   90.00000000
_cell_angle_gamma   90.00000000
_symmetry_Int_Tables_number   1
_chemical_formula_structural   Eu2B5BrO9
_chemical_formula_sum   'Eu8 B20 Br4 O36'
_cell_volume   874.79107135
_cell_formula_units_Z   4
loop_
 _symmetry_equiv_pos_site_id
 _symmetry_equiv_pos_as_xyz
  1  'x, y, z'
loop_
 _atom_site_type_symbol
 _atom_site_label
 _atom_site_symmetry_multiplicity
 _atom_site_fract_x
 _atom_site_fract_y
 _atom_site_fract_z
 _atom_site_occupancy
  Eu  Eu0  1  0.84644399  0.26210343  0.53311643  1
  Eu  Eu1  1  0.34644399  0.76210343  0.96688357  1
  Eu  Eu2  1  0.00287972  0.04927457  0.25496242  1
  Eu  Eu3  1  0.34644399  0.23789657  0.03311643  1
  Eu  Eu4  1  0.00287972  0.95072543  0.74503758  1
  Eu  Eu5  1  0.84644399  0.73789657  0.46688357  1
  Eu  Eu6  1  0.50287972  0.54927457  0.24503758  1
  Eu  Eu7  1  0.50287972  0.45072543  0.75496242  1
  B  B8  1  0.81008781  0.73643295  0.03601296  1
  B  B9  1  0.97349517  0.50304907  0.75067968  1
  B  B10  1  0.84802086  0.29835942  0.18675923  1
  B  B11  1  0.97349517  0.49695093  0.24932032  1
  B  B12  1  0.47349517  0.00304907  0.74932032  1
  B  B13  1  0.47349517  0.99695093  0.25067968  1
  B  B14  1  0.69940590  0.82489861  0.22476005  1
  B  B15  1  0.84802086  0.70164058  0.81324077  1
  B  B16  1  0.03158029  0.71968096  0.20544961  1
  B  B17  1  0.31008781  0.76356705  0.53601296  1
  B  B18  1  0.03158029  0.28031904  0.79455039  1
  B  B19  1  0.53158029  0.78031904  0.70544961  1
  B  B20  1  0.81008781  0.26356705  0.96398704  1
  B  B21  1  0.34802086  0.20164058  0.68675923  1
  B  B22  1  0.19940590  0.67510139  0.72476005  1
  B  B23  1  0.34802086  0.79835942  0.31324077  1
  B  B24  1  0.19940590  0.32489861  0.27523995  1
  B  B25  1  0.69940590  0.17510139  0.77523995  1
  B  B26  1  0.31008781  0.23643295  0.46398704  1
  B  B27  1  0.53158029  0.21968096  0.29455039  1
  Br  Br28  1  0.13155804  0.00000000  0.00000000  1
  Br  Br29  1  0.86947579  0.00000000  0.50000000  1
  Br  Br30  1  0.63155804  0.50000000  0.50000000  1
  Br  Br31  1  0.36947579  0.50000000  0.00000000  1
  O  O32  1  0.74915479  0.26872987  0.07628794  1
  O  O33  1  0.65793419  0.04756161  0.78375195  1
  O  O34  1  0.56911121  0.23004451  0.68595407  1
  O  O35  1  0.15418871  0.73156093  0.61160345  1
  O  O36  1  0.00193736  0.28718094  0.92310021  1
  O  O37  1  0.24915479  0.76872987  0.42371206  1
  O  O38  1  0.75052301  0.77297720  0.72277835  1
  O  O39  1  0.74915479  0.73127013  0.92371206  1
  O  O40  1  0.56911121  0.76995549  0.31404593  1
  O  O41  1  0.93007937  0.61387652  0.26118035  1
  O  O42  1  0.75052301  0.22702280  0.27722165  1
  O  O43  1  0.06911121  0.26995549  0.18595407  1
  O  O44  1  0.65793419  0.95243839  0.21624805  1
  O  O45  1  0.82006697  0.57377194  0.79178938  1
  O  O46  1  0.15793419  0.54756161  0.71624805  1
  O  O47  1  0.93007937  0.38612348  0.73881965  1
  O  O48  1  0.32006697  0.07377194  0.70821062  1
  O  O49  1  0.41642374  0.68227112  0.75460996  1
  O  O50  1  0.15418871  0.26843907  0.38839655  1
  O  O51  1  0.06911121  0.73004451  0.81404593  1
  O  O52  1  0.65418871  0.23156093  0.88839655  1
  O  O53  1  0.50193736  0.78718094  0.57689979  1
  O  O54  1  0.43007937  0.11387652  0.23881965  1
  O  O55  1  0.65418871  0.76843907  0.11160345  1
  O  O56  1  0.91642374  0.81772888  0.25460996  1
  O  O57  1  0.50193736  0.21281906  0.42310021  1
  O  O58  1  0.32006697  0.92622806  0.29178938  1
  O  O59  1  0.82006697  0.42622806  0.20821062  1
  O  O60  1  0.43007937  0.88612348  0.76118035  1
  O  O61  1  0.15793419  0.45243839  0.28375195  1
  O  O62  1  0.25052301  0.72702280  0.22277835  1
  O  O63  1  0.00193736  0.71281906  0.07689979  1
  O  O64  1  0.91642374  0.18227112  0.74539004  1
  O  O65  1  0.25052301  0.27297720  0.77722165  1
  O  O66  1  0.24915479  0.23127013  0.57628794  1
  O  O67  1  0.41642374  0.31772888  0.24539004  1
