# generated using pymatgen
data_K2Ce(NO3)6
_symmetry_space_group_name_H-M   'P 1'
_cell_length_a   13.97129869
_cell_length_b   13.97129866
_cell_length_c   6.80719028
_cell_angle_alpha   90.00000000
_cell_angle_beta   90.00000000
_cell_angle_gamma   120.00000005
_symmetry_Int_Tables_number   1
_chemical_formula_structural   K2Ce(NO3)6
_chemical_formula_sum   'K6 Ce3 N18 O54'
_cell_volume   1150.72639807
_cell_formula_units_Z   3
loop_
 _symmetry_equiv_pos_site_id
 _symmetry_equiv_pos_as_xyz
  1  'x, y, z'
loop_
 _atom_site_type_symbol
 _atom_site_label
 _atom_site_symmetry_multiplicity
 _atom_site_fract_x
 _atom_site_fract_y
 _atom_site_fract_z
 _atom_site_occupancy
  K  K0  1  0.67404302  0.67979508  0.21878098  1
  K  K1  1  0.99424794  0.67404302  0.78121902  1
  K  K2  1  0.32020492  0.99424794  0.21878098  1
  K  K3  1  0.32595698  0.32020492  0.78121902  1
  K  K4  1  0.00575206  0.32595698  0.21878098  1
  K  K5  1  0.67979508  0.00575206  0.78121902  1
  Ce  Ce6  1  0.66666700  0.33333300  0.48948814  1
  Ce  Ce7  1  0.33333300  0.66666700  0.51051186  1
  Ce  Ce8  1  0.00000000  0.00000000  0.00000000  1
  N  N9  1  0.80083916  0.52610192  0.22344967  1
  N  N10  1  0.61549676  0.47562962  0.74800364  1
  N  N11  1  0.17727701  0.00970777  0.73318964  1
  N  N12  1  0.82272299  0.99029223  0.26681036  1
  N  N13  1  0.13986715  0.61549676  0.25199636  1
  N  N14  1  0.99029223  0.16756924  0.73318964  1
  N  N15  1  0.47389808  0.27473725  0.22344967  1
  N  N16  1  0.83243076  0.82272299  0.73318964  1
  N  N17  1  0.38450324  0.52437038  0.25199636  1
  N  N18  1  0.86013285  0.38450324  0.74800364  1
  N  N19  1  0.27473725  0.80083916  0.77655033  1
  N  N20  1  0.52437038  0.13986715  0.74800364  1
  N  N21  1  0.72526275  0.19916084  0.22344967  1
  N  N22  1  0.47562962  0.86013285  0.25199636  1
  N  N23  1  0.19916084  0.47389808  0.77655033  1
  N  N24  1  0.52610192  0.72526275  0.77655033  1
  N  N25  1  0.16756924  0.17727701  0.26681036  1
  N  N26  1  0.00970777  0.83243076  0.26681036  1
  O  O27  1  0.93680094  0.86191533  0.28477481  1
  O  O28  1  0.79923494  0.92559525  0.11660851  1
  O  O29  1  0.25004394  0.46596667  0.62442655  1
  O  O30  1  0.23020050  0.24852911  0.38246762  1
  O  O31  1  0.21592272  0.74995606  0.62442655  1
  O  O32  1  0.86918834  0.44901981  0.60431062  1
  O  O33  1  0.53345373  0.23514182  0.76797444  1
  O  O34  1  0.42016854  0.86918834  0.39568938  1
  O  O35  1  0.13808467  0.07488561  0.28477481  1
  O  O36  1  0.43384400  0.63690287  0.79935182  1
  O  O37  1  0.79694113  0.43384400  0.20064818  1
  O  O38  1  0.92559525  0.12636031  0.88339149  1
  O  O39  1  0.53403333  0.78407728  0.62442655  1
  O  O40  1  0.24852911  0.01832861  0.61753238  1
  O  O41  1  0.46654627  0.76485818  0.23202556  1
  O  O42  1  0.46742908  0.06178896  0.85761343  1
  O  O43  1  0.86191533  0.92511439  0.71522519  1
  O  O44  1  0.76979950  0.75147089  0.61753238  1
  O  O45  1  0.24445912  0.84857817  0.89197688  1
  O  O46  1  0.57983146  0.13081166  0.60431062  1
  O  O47  1  0.23514182  0.70168810  0.23202556  1
  O  O48  1  0.60411905  0.75554088  0.89197688  1
  O  O49  1  0.15142183  0.39588095  0.89197688  1
  O  O50  1  0.98167139  0.23020050  0.61753238  1
  O  O51  1  0.20305887  0.56615600  0.79935182  1
  O  O52  1  0.53257092  0.93821104  0.14238657  1
  O  O53  1  0.44901981  0.57983146  0.39568938  1
  O  O54  1  0.46596667  0.21592272  0.37557345  1
  O  O55  1  0.92511439  0.06319906  0.28477481  1
  O  O56  1  0.40564012  0.46742908  0.14238657  1
  O  O57  1  0.75554088  0.15142183  0.10802312  1
  O  O58  1  0.01832861  0.76979950  0.38246762  1
  O  O59  1  0.93821104  0.40564012  0.85761343  1
  O  O60  1  0.07488561  0.93680094  0.71522519  1
  O  O61  1  0.39588095  0.24445912  0.10802312  1
  O  O62  1  0.56615600  0.36309713  0.20064818  1
  O  O63  1  0.13081166  0.55098019  0.39568938  1
  O  O64  1  0.84857817  0.60411905  0.10802312  1
  O  O65  1  0.06319906  0.13808467  0.71522519  1
  O  O66  1  0.74995606  0.53403333  0.37557345  1
  O  O67  1  0.29831190  0.53345373  0.23202556  1
  O  O68  1  0.76485818  0.29831190  0.76797444  1
  O  O69  1  0.63690287  0.20305887  0.20064818  1
  O  O70  1  0.55098019  0.42016854  0.60431062  1
  O  O71  1  0.70168810  0.46654627  0.76797444  1
  O  O72  1  0.07440475  0.87363969  0.11660851  1
  O  O73  1  0.78407728  0.25004394  0.37557345  1
  O  O74  1  0.59435988  0.53257092  0.85761343  1
  O  O75  1  0.75147089  0.98167139  0.38246762  1
  O  O76  1  0.36309713  0.79694113  0.79935182  1
  O  O77  1  0.20076506  0.07440475  0.88339149  1
  O  O78  1  0.06178896  0.59435988  0.14238657  1
  O  O79  1  0.87363969  0.79923494  0.88339149  1
  O  O80  1  0.12636031  0.20076506  0.11660851  1
