# generated using pymatgen
data_Ba4Ti2PtO10
_symmetry_space_group_name_H-M   'P 1'
_cell_length_a   5.84946918
_cell_length_b   7.39624864
_cell_length_c   13.31864443
_cell_angle_alpha   90.00000000
_cell_angle_beta   90.00000000
_cell_angle_gamma   113.29309831
_symmetry_Int_Tables_number   1
_chemical_formula_structural   Ba4Ti2PtO10
_chemical_formula_sum   'Ba8 Ti4 Pt2 O20'
_cell_volume   529.25420532
_cell_formula_units_Z   2
loop_
 _symmetry_equiv_pos_site_id
 _symmetry_equiv_pos_as_xyz
  1  'x, y, z'
loop_
 _atom_site_type_symbol
 _atom_site_label
 _atom_site_symmetry_multiplicity
 _atom_site_fract_x
 _atom_site_fract_y
 _atom_site_fract_z
 _atom_site_occupancy
  Ba  Ba0  1  0.52921934  0.05843867  0.14209185  1
  Ba  Ba1  1  0.76562876  0.53125751  0.89983906  1
  Ba  Ba2  1  0.26562876  0.53125751  0.60016094  1
  Ba  Ba3  1  0.97078066  0.94156133  0.64209185  1
  Ba  Ba4  1  0.02921934  0.05843867  0.35790815  1
  Ba  Ba5  1  0.73437124  0.46874249  0.39983906  1
  Ba  Ba6  1  0.47078066  0.94156133  0.85790815  1
  Ba  Ba7  1  0.23437124  0.46874249  0.10016094  1
  Ti  Ti8  1  0.86122266  0.72244532  0.15529253  1
  Ti  Ti9  1  0.63877734  0.27755468  0.65529253  1
  Ti  Ti10  1  0.13877734  0.27755468  0.84470747  1
  Ti  Ti11  1  0.36122266  0.72244532  0.34470747  1
  Pt  Pt12  1  0.00000000  0.00000000  0.00000000  1
  Pt  Pt13  1  0.50000000  0.00000000  0.50000000  1
  O  O14  1  0.46387484  0.92774969  0.65125743  1
  O  O15  1  0.27030594  0.54061188  0.85900770  1
  O  O16  1  0.16586185  0.78287091  0.46009066  1
  O  O17  1  0.66586185  0.78287091  0.03990934  1
  O  O18  1  0.87779054  0.25558108  0.75000000  1
  O  O19  1  0.37779054  0.25558108  0.75000000  1
  O  O20  1  0.72969406  0.45938812  0.14099230  1
  O  O21  1  0.96387484  0.92774969  0.84874257  1
  O  O22  1  0.12220946  0.74441892  0.25000000  1
  O  O23  1  0.61700906  0.78287091  0.46009066  1
  O  O24  1  0.22969406  0.45938812  0.35900770  1
  O  O25  1  0.53612516  0.07225031  0.34874257  1
  O  O26  1  0.62220946  0.74441892  0.25000000  1
  O  O27  1  0.33413815  0.21712909  0.96009066  1
  O  O28  1  0.83413815  0.21712909  0.53990934  1
  O  O29  1  0.77030594  0.54061188  0.64099230  1
  O  O30  1  0.88299094  0.21712909  0.96009066  1
  O  O31  1  0.38299094  0.21712909  0.53990934  1
  O  O32  1  0.03612516  0.07225031  0.15125743  1
  O  O33  1  0.11700906  0.78287091  0.03990934  1
