# generated using pymatgen
data_SrFeF5
_symmetry_space_group_name_H-M   'P 1'
_cell_length_a   7.15839499
_cell_length_b   7.41020682
_cell_length_c   14.93160234
_cell_angle_alpha   90.00000000
_cell_angle_beta   95.40360626
_cell_angle_gamma   90.00000000
_symmetry_Int_Tables_number   1
_chemical_formula_structural   SrFeF5
_chemical_formula_sum   'Sr8 Fe8 F40'
_cell_volume   788.52980600
_cell_formula_units_Z   8
loop_
 _symmetry_equiv_pos_site_id
 _symmetry_equiv_pos_as_xyz
  1  'x, y, z'
loop_
 _atom_site_type_symbol
 _atom_site_label
 _atom_site_symmetry_multiplicity
 _atom_site_fract_x
 _atom_site_fract_y
 _atom_site_fract_z
 _atom_site_occupancy
  F  F0  1  0.95679840  0.67812654  0.96718868  1
  F  F1  1  0.04320160  0.17812654  0.53281132  1
  F  F2  1  0.04320160  0.32187346  0.03281132  1
  F  F3  1  0.95679840  0.82187346  0.46718868  1
  F  F4  1  0.65355164  0.92448002  0.95876963  1
  F  F5  1  0.34644836  0.42448002  0.54123037  1
  F  F6  1  0.34644836  0.07551998  0.04123037  1
  F  F7  1  0.65355164  0.57551998  0.45876963  1
  F  F8  1  0.60537075  0.63626132  0.85607708  1
  F  F9  1  0.39462925  0.13626132  0.64392292  1
  F  F10  1  0.39462925  0.36373868  0.14392292  1
  F  F11  1  0.60537075  0.86373868  0.35607708  1
  F  F12  1  0.96695352  0.69044164  0.79375545  1
  F  F13  1  0.03304648  0.19044164  0.70624455  1
  F  F14  1  0.03304648  0.30955836  0.20624455  1
  F  F15  1  0.96695352  0.80955836  0.29375545  1
  F  F16  1  0.70042924  0.49540753  0.09857593  1
  F  F17  1  0.29957076  0.99540753  0.40142407  1
  F  F18  1  0.29957076  0.50459247  0.90142407  1
  F  F19  1  0.70042924  0.00459247  0.59857593  1
  F  F20  1  0.31924275  0.69404917  0.06756991  1
  F  F21  1  0.68075725  0.19404917  0.43243009  1
  F  F22  1  0.68075725  0.30595083  0.93243009  1
  F  F23  1  0.31924275  0.80595083  0.56756991  1
  F  F24  1  0.31264243  0.65943181  0.24169441  1
  F  F25  1  0.68735757  0.15943181  0.25830559  1
  F  F26  1  0.68735757  0.34056819  0.75830559  1
  F  F27  1  0.31264243  0.84056819  0.74169441  1
  F  F28  1  0.68021304  0.55435818  0.27205782  1
  F  F29  1  0.31978696  0.05435818  0.22794218  1
  F  F30  1  0.31978696  0.44564182  0.72794218  1
  F  F31  1  0.68021304  0.94564182  0.77205782  1
  F  F32  1  0.65419464  0.82915325  0.14900867  1
  F  F33  1  0.34580536  0.32915325  0.35099133  1
  F  F34  1  0.34580536  0.17084675  0.85099133  1
  F  F35  1  0.65419464  0.67084675  0.64900867  1
  F  F36  1  0.99846190  0.49230784  0.39001362  1
  F  F37  1  0.00153810  0.99230784  0.10998638  1
  F  F38  1  0.00153810  0.50769216  0.60998638  1
  F  F39  1  0.99846190  0.00769216  0.89001362  1
  Fe  Fe40  1  0.81143781  0.81576074  0.87525773  1
  Fe  Fe41  1  0.18856219  0.31576074  0.62474227  1
  Fe  Fe42  1  0.18856219  0.18423926  0.12474227  1
  Fe  Fe43  1  0.81143781  0.68423926  0.37525773  1
  Fe  Fe44  1  0.50699859  0.88336471  0.66133344  1
  Fe  Fe45  1  0.49300141  0.38336471  0.83866656  1
  Fe  Fe46  1  0.49300141  0.11663529  0.33866656  1
  Fe  Fe47  1  0.50699859  0.61663529  0.16133344  1
  Sr  Sr48  1  0.00086633  0.84207498  0.63753263  1
  Sr  Sr49  1  0.99913367  0.34207498  0.86246737  1
  Sr  Sr50  1  0.99913367  0.15792502  0.36246737  1
  Sr  Sr51  1  0.00086633  0.65792502  0.13753263  1
  Sr  Sr52  1  0.68587524  0.34565419  0.58708431  1
  Sr  Sr53  1  0.31412476  0.84565419  0.91291569  1
  Sr  Sr54  1  0.31412476  0.65434581  0.41291569  1
  Sr  Sr55  1  0.68587524  0.15434581  0.08708431  1
