# generated using pymatgen
data_Zn(PO3)2
_symmetry_space_group_name_H-M   'P 1'
_cell_length_a   5.48413092
_cell_length_b   5.48413147
_cell_length_c   16.64323331
_cell_angle_alpha   88.65945743
_cell_angle_beta   88.65945727
_cell_angle_gamma   89.79639204
_symmetry_Int_Tables_number   1
_chemical_formula_structural   Zn(PO3)2
_chemical_formula_sum   'Zn4 P8 O24'
_cell_volume   500.28058318
_cell_formula_units_Z   4
loop_
 _symmetry_equiv_pos_site_id
 _symmetry_equiv_pos_as_xyz
  1  'x, y, z'
loop_
 _atom_site_type_symbol
 _atom_site_label
 _atom_site_symmetry_multiplicity
 _atom_site_fract_x
 _atom_site_fract_y
 _atom_site_fract_z
 _atom_site_occupancy
  Zn  Zn0  1  0.94589218  0.32790747  0.87952511  1
  Zn  Zn1  1  0.94274356  0.13765160  0.09870665  1
  Zn  Zn2  1  0.32790747  0.94589218  0.37952511  1
  Zn  Zn3  1  0.13765160  0.94274356  0.59870665  1
  P  P4  1  0.43581709  0.46801678  0.12298313  1
  P  P5  1  0.00566212  0.43698187  0.35375843  1
  P  P6  1  0.46801678  0.43581709  0.62298313  1
  P  P7  1  0.71112538  0.75005471  0.24041089  1
  P  P8  1  0.73068845  0.19184778  0.48856832  1
  P  P9  1  0.19184778  0.73068845  0.98856832  1
  P  P10  1  0.43698187  0.00566212  0.85375843  1
  P  P11  1  0.75005471  0.71112538  0.74041089  1
  O  O12  1  0.63862169  0.15338304  0.88697203  1
  O  O13  1  0.86595908  0.86142304  0.67401453  1
  O  O14  1  0.15338304  0.63862169  0.38697203  1
  O  O15  1  0.66735653  0.35902031  0.09068750  1
  O  O16  1  0.04174772  0.95780414  1.00125556  1
  O  O17  1  0.13098322  0.20414532  0.33200335  1
  O  O18  1  0.20414532  0.13098322  0.83200335  1
  O  O19  1  0.22217093  0.30611299  0.14053848  1
  O  O20  1  0.30611299  0.22217093  0.64053848  1
  O  O21  1  0.90335829  0.61684416  0.80760395  1
  O  O22  1  0.06568007  0.49259833  0.97490655  1
  O  O23  1  0.77792126  0.38472226  0.41574866  1
  O  O24  1  0.86476006  0.52076041  0.27466248  1
  O  O25  1  0.35902031  0.66735653  0.59068750  1
  O  O26  1  0.36617323  0.69641723  0.06430025  1
  O  O27  1  0.49259833  0.06568007  0.47490655  1
  O  O28  1  0.61111638  0.47949135  0.70473413  1
  O  O29  1  0.52076041  0.86476006  0.77466248  1
  O  O30  1  0.69641723  0.36617323  0.56430025  1
  O  O31  1  0.47949135  0.61111638  0.20473413  1
  O  O32  1  0.95780414  0.04174772  0.50125556  1
  O  O33  1  0.61684416  0.90335829  0.30760395  1
  O  O34  1  0.38472226  0.77792126  0.91574866  1
  O  O35  1  0.86142304  0.86595908  0.17401453  1
