# generated using pymatgen
data_Na4Al3Ge3BrO12
_symmetry_space_group_name_H-M   'P 1'
_cell_length_a   9.20125849
_cell_length_b   9.20125849
_cell_length_c   9.20125849
_cell_angle_alpha   90.00000000
_cell_angle_beta   90.00000000
_cell_angle_gamma   90.00000000
_symmetry_Int_Tables_number   1
_chemical_formula_structural   Na4Al3Ge3BrO12
_chemical_formula_sum   'Na8 Al6 Ge6 Br2 O24'
_cell_volume   779.00759950
_cell_formula_units_Z   2
loop_
 _symmetry_equiv_pos_site_id
 _symmetry_equiv_pos_as_xyz
  1  'x, y, z'
loop_
 _atom_site_type_symbol
 _atom_site_label
 _atom_site_symmetry_multiplicity
 _atom_site_fract_x
 _atom_site_fract_y
 _atom_site_fract_z
 _atom_site_occupancy
  Na  Na0  1  0.18111215  0.81888785  0.81888785  1
  Na  Na1  1  0.31888785  0.68111215  0.31888785  1
  Na  Na2  1  0.18111215  0.18111215  0.18111215  1
  Na  Na3  1  0.31888785  0.31888785  0.68111215  1
  Na  Na4  1  0.68111215  0.31888785  0.31888785  1
  Na  Na5  1  0.81888785  0.81888785  0.18111215  1
  Na  Na6  1  0.68111215  0.68111215  0.68111215  1
  Na  Na7  1  0.81888785  0.18111215  0.81888785  1
  Al  Al8  1  0.00000000  0.50000000  0.75000000  1
  Al  Al9  1  0.00000000  0.50000000  0.25000000  1
  Al  Al10  1  0.25000000  0.00000000  0.50000000  1
  Al  Al11  1  0.50000000  0.25000000  0.00000000  1
  Al  Al12  1  0.50000000  0.75000000  0.00000000  1
  Al  Al13  1  0.75000000  0.00000000  0.50000000  1
  Ge  Ge14  1  0.25000000  0.50000000  0.00000000  1
  Ge  Ge15  1  0.50000000  0.00000000  0.25000000  1
  Ge  Ge16  1  0.75000000  0.50000000  0.00000000  1
  Ge  Ge17  1  0.00000000  0.25000000  0.50000000  1
  Ge  Ge18  1  0.50000000  0.00000000  0.75000000  1
  Ge  Ge19  1  0.00000000  0.75000000  0.50000000  1
  Br  Br20  1  0.50000000  0.50000000  0.50000000  1
  Br  Br21  1  0.00000000  0.00000000  0.00000000  1
  O  O22  1  0.14491965  0.14526914  0.43087196  1
  O  O23  1  0.85508035  0.85473086  0.43087196  1
  O  O24  1  0.64491965  0.93087196  0.64526914  1
  O  O25  1  0.35473086  0.35508035  0.93087196  1
  O  O26  1  0.64526914  0.64491965  0.93087196  1
  O  O27  1  0.35508035  0.93087196  0.35473086  1
  O  O28  1  0.43087196  0.14491965  0.14526914  1
  O  O29  1  0.14526914  0.56912804  0.85508035  1
  O  O30  1  0.93087196  0.35473086  0.35508035  1
  O  O31  1  0.64526914  0.35508035  0.06912804  1
  O  O32  1  0.64491965  0.06912804  0.35473086  1
  O  O33  1  0.14491965  0.85473086  0.56912804  1
  O  O34  1  0.43087196  0.85508035  0.85473086  1
  O  O35  1  0.85473086  0.43087196  0.85508035  1
  O  O36  1  0.35508035  0.06912804  0.64526914  1
  O  O37  1  0.93087196  0.64526914  0.64491965  1
  O  O38  1  0.06912804  0.35473086  0.64491965  1
  O  O39  1  0.85473086  0.56912804  0.14491965  1
  O  O40  1  0.14526914  0.43087196  0.14491965  1
  O  O41  1  0.06912804  0.64526914  0.35508035  1
  O  O42  1  0.35473086  0.64491965  0.06912804  1
  O  O43  1  0.56912804  0.85508035  0.14526914  1
  O  O44  1  0.56912804  0.14491965  0.85473086  1
  O  O45  1  0.85508035  0.14526914  0.56912804  1
