# generated using pymatgen
data_Li2U3(PO5)4
_symmetry_space_group_name_H-M   'P 1'
_cell_length_a   5.40920597
_cell_length_b   6.77823948
_cell_length_c   12.67930568
_cell_angle_alpha   94.82509605
_cell_angle_beta   99.13944457
_cell_angle_gamma   110.45147570
_symmetry_Int_Tables_number   1
_chemical_formula_structural   Li2U3(PO5)4
_chemical_formula_sum   'Li2 U3 P4 O20'
_cell_volume   425.12707744
_cell_formula_units_Z   1
loop_
 _symmetry_equiv_pos_site_id
 _symmetry_equiv_pos_as_xyz
  1  'x, y, z'
loop_
 _atom_site_type_symbol
 _atom_site_label
 _atom_site_symmetry_multiplicity
 _atom_site_fract_x
 _atom_site_fract_y
 _atom_site_fract_z
 _atom_site_occupancy
  Li  Li0  1  0.39212464  0.92602581  0.18898159  1
  Li  Li1  1  0.60787536  0.07397419  0.81101841  1
  U  U2  1  0.88211910  0.84261756  0.63148576  1
  U  U3  1  0.11788090  0.15738244  0.36851424  1
  U  U4  1  0.00000000  0.50000000  0.00000000  1
  P  P5  1  0.99316683  0.32926179  0.64319182  1
  P  P6  1  0.47917956  0.57249433  0.81478791  1
  P  P7  1  0.52082044  0.42750567  0.18521209  1
  P  P8  1  0.00683317  0.67073821  0.35680818  1
  O  O9  1  0.32218878  0.22378730  0.21306636  1
  O  O10  1  0.99137593  0.18978232  0.54031841  1
  O  O11  1  0.94167737  0.22239973  0.95557778  1
  O  O12  1  0.77562969  0.05299635  0.28836309  1
  O  O13  1  0.71281810  0.38471510  0.11798913  1
  O  O14  1  0.45474768  0.24544375  0.44504913  1
  O  O15  1  0.37515338  0.56529191  0.13298096  1
  O  O16  1  0.62484662  0.43470809  0.86701904  1
  O  O17  1  0.05832263  0.77760027  0.04442222  1
  O  O18  1  0.11041164  0.49240110  0.37289031  1
  O  O19  1  0.84600708  0.16942369  0.71186095  1
  O  O20  1  0.67781122  0.77621270  0.78693364  1
  O  O21  1  0.28718190  0.61528490  0.88201087  1
  O  O22  1  0.88958836  0.50759890  0.62710969  1
  O  O23  1  0.30735268  0.43276672  0.70048121  1
  O  O24  1  0.00862407  0.81021768  0.45968159  1
  O  O25  1  0.69264732  0.56723328  0.29951879  1
  O  O26  1  0.22437031  0.94700365  0.71163691  1
  O  O27  1  0.54525232  0.75455625  0.55495087  1
  O  O28  1  0.15399292  0.83057631  0.28813905  1
