# generated using pymatgen
data_Na5Ga3F14
_symmetry_space_group_name_H-M   'P 1'
_cell_length_a   7.34739648
_cell_length_b   7.39938997
_cell_length_c   10.55124143
_cell_angle_alpha   90.78541169
_cell_angle_beta   90.00000000
_cell_angle_gamma   90.00000000
_symmetry_Int_Tables_number   1
_chemical_formula_structural   Na5Ga3F14
_chemical_formula_sum   'Na10 Ga6 F28'
_cell_volume   573.57755428
_cell_formula_units_Z   2
loop_
 _symmetry_equiv_pos_site_id
 _symmetry_equiv_pos_as_xyz
  1  'x, y, z'
loop_
 _atom_site_type_symbol
 _atom_site_label
 _atom_site_symmetry_multiplicity
 _atom_site_fract_x
 _atom_site_fract_y
 _atom_site_fract_z
 _atom_site_occupancy
  Na  Na0  1  0.76488228  0.72347209  0.24141664  1
  Na  Na1  1  0.79897494  0.73749031  0.74870292  1
  Na  Na2  1  0.50000000  0.50000000  0.00000000  1
  Na  Na3  1  0.23511772  0.27652791  0.75858336  1
  Na  Na4  1  0.26488228  0.77652791  0.25858336  1
  Na  Na5  1  0.29897494  0.76250969  0.75129708  1
  Na  Na6  1  0.73511772  0.22347209  0.74141664  1
  Na  Na7  1  0.20102506  0.26250969  0.25129708  1
  Na  Na8  1  0.70102506  0.23749031  0.24870292  1
  Na  Na9  1  0.00000000  0.00000000  0.50000000  1
  Ga  Ga10  1  0.50000000  0.00000000  0.50000000  1
  Ga  Ga11  1  0.50000000  0.50000000  0.50000000  1
  Ga  Ga12  1  0.00000000  0.50000000  0.00000000  1
  Ga  Ga13  1  0.00000000  0.00000000  0.00000000  1
  Ga  Ga14  1  0.50000000  0.00000000  0.00000000  1
  Ga  Ga15  1  0.00000000  0.50000000  0.50000000  1
  F  F16  1  0.25310647  0.42997023  0.45998074  1
  F  F17  1  0.83654012  0.46612016  0.86169337  1
  F  F18  1  0.56009216  0.82723235  0.87127440  1
  F  F19  1  0.43990784  0.17276765  0.12872560  1
  F  F20  1  0.07783855  0.24728632  -0.00075629  1
  F  F21  1  0.66345988  0.96612016  0.36169337  1
  F  F22  1  0.24689353  0.92997023  0.95998074  1
  F  F23  1  0.70226431  0.96286602  0.61084304  1
  F  F24  1  0.99087902  0.30475742  0.61727316  1
  F  F25  1  0.45629229  0.48955953  0.67567085  1
  F  F26  1  0.75310647  0.07002977  0.04001926  1
  F  F27  1  0.74689353  0.57002977  0.54001926  1
  F  F28  1  0.95629229  0.01044047  0.82432915  1
  F  F29  1  0.06009216  0.67276765  0.62872560  1
  F  F30  1  0.49087902  0.19524258  0.88272684  1
  F  F31  1  0.50912098  0.80475742  0.11727316  1
  F  F32  1  0.42216145  0.74728632  0.49924371  1
  F  F33  1  0.16345988  0.53387984  0.13830663  1
  F  F34  1  0.92216145  0.75271368  1.00075629  1
  F  F35  1  0.57783855  0.25271368  0.50075629  1
  F  F36  1  0.20226431  0.53713398  0.88915696  1
  F  F37  1  0.29773569  0.03713398  0.38915696  1
  F  F38  1  0.54370771  0.51044047  0.32432915  1
  F  F39  1  0.33654012  0.03387984  0.63830663  1
  F  F40  1  0.93990784  0.32723235  0.37127440  1
  F  F41  1  0.00912098  0.69524258  0.38272684  1
  F  F42  1  0.79773569  0.46286602  0.11084304  1
  F  F43  1  0.04370771  0.98955953  0.17567085  1
