# generated using pymatgen
data_Cs2KVF6
_symmetry_space_group_name_H-M   'P 1'
_cell_length_a   6.51731861
_cell_length_b   6.51927808
_cell_length_c   6.53650446
_cell_angle_alpha   60.06524267
_cell_angle_beta   60.09189718
_cell_angle_gamma   59.96023993
_symmetry_Int_Tables_number   1
_chemical_formula_structural   Cs2KVF6
_chemical_formula_sum   'Cs2 K1 V1 F6'
_cell_volume   196.55438595
_cell_formula_units_Z   1
loop_
 _symmetry_equiv_pos_site_id
 _symmetry_equiv_pos_as_xyz
  1  'x, y, z'
loop_
 _atom_site_type_symbol
 _atom_site_label
 _atom_site_symmetry_multiplicity
 _atom_site_fract_x
 _atom_site_fract_y
 _atom_site_fract_z
 _atom_site_occupancy
  F  F0  1  0.21576623  0.78446687  0.78410421  1
  F  F1  1  0.21567269  0.78428013  0.21572076  1
  F  F2  1  0.78433797  0.21571879  0.78427460  1
  F  F3  1  0.21562134  0.21580083  0.78377879  1
  F  F4  1  0.78422833  0.21554657  0.21589369  1
  F  F5  1  0.78437387  0.78419494  0.21622361  1
  K  K6  1  0.50000074  0.49999983  0.49999948  1
  V  V7  1  -0.00000479  -0.00000518  0.00001361  1
  Cs  Cs8  1  0.74937303  0.74928146  0.75113425  1
  Cs  Cs9  1  0.25063059  0.25071577  0.24885700  1
