# generated using pymatgen
data_Hg3(NO4)2
_symmetry_space_group_name_H-M   'P 1'
_cell_length_a   7.14804439
_cell_length_b   13.91189580
_cell_length_c   16.02579550
_cell_angle_alpha   90.00000000
_cell_angle_beta   90.00000000
_cell_angle_gamma   90.00000000
_symmetry_Int_Tables_number   1
_chemical_formula_structural   Hg3(NO4)2
_chemical_formula_sum   'Hg24 N16 O64'
_cell_volume   1593.65075764
_cell_formula_units_Z   8
loop_
 _symmetry_equiv_pos_site_id
 _symmetry_equiv_pos_as_xyz
  1  'x, y, z'
loop_
 _atom_site_type_symbol
 _atom_site_label
 _atom_site_symmetry_multiplicity
 _atom_site_fract_x
 _atom_site_fract_y
 _atom_site_fract_z
 _atom_site_occupancy
  Hg  Hg0  1  0.60681303  0.93445895  0.10488277  1
  Hg  Hg1  1  0.84348331  0.74960209  0.99513463  1
  Hg  Hg2  1  0.84348331  0.75039791  0.49513463  1
  Hg  Hg3  1  0.86429802  0.43028156  0.74814890  1
  Hg  Hg4  1  0.65651669  0.24960209  0.99513463  1
  Hg  Hg5  1  0.89318697  0.06554105  0.60488277  1
  Hg  Hg6  1  0.89318697  0.43445895  0.10488277  1
  Hg  Hg7  1  0.15651669  0.24960209  0.50486537  1
  Hg  Hg8  1  0.10681303  0.93445895  0.39511723  1
  Hg  Hg9  1  0.36429802  0.43028156  0.75185110  1
  Hg  Hg10  1  0.39318697  0.06554105  0.89511723  1
  Hg  Hg11  1  0.13570198  0.56971844  0.25185110  1
  Hg  Hg12  1  0.36429802  0.06971844  0.25185110  1
  Hg  Hg13  1  0.13570198  0.93028156  0.75185110  1
  Hg  Hg14  1  0.63570198  0.56971844  0.24814890  1
  Hg  Hg15  1  0.34348331  0.74960209  0.50486537  1
  Hg  Hg16  1  0.39318697  0.43445895  0.39511723  1
  Hg  Hg17  1  0.63570198  0.93028156  0.74814890  1
  Hg  Hg18  1  0.15651669  0.25039791  0.00486537  1
  Hg  Hg19  1  0.10681303  0.56554105  0.89511723  1
  Hg  Hg20  1  0.86429802  0.06971844  0.24814890  1
  Hg  Hg21  1  0.65651669  0.25039791  0.49513463  1
  Hg  Hg22  1  0.60681303  0.56554105  0.60488277  1
  Hg  Hg23  1  0.34348331  0.75039791  0.00486537  1
  N  N24  1  0.76605614  0.70837960  0.77070657  1
  N  N25  1  0.39138883  0.03976761  0.57654531  1
  N  N26  1  0.39138883  0.46023239  0.07654531  1
  N  N27  1  0.89138883  0.03976761  0.92345469  1
  N  N28  1  0.26605614  0.79162040  0.22929343  1
  N  N29  1  0.73394386  0.29162040  0.27070657  1
  N  N30  1  0.60861117  0.53976761  0.92345469  1
  N  N31  1  0.26605614  0.70837960  0.72929343  1
  N  N32  1  0.10861117  0.96023239  0.07654531  1
  N  N33  1  0.73394386  0.20837960  0.77070657  1
  N  N34  1  0.76605614  0.79162040  0.27070657  1
  N  N35  1  0.23394386  0.20837960  0.72929343  1
  N  N36  1  0.10861117  0.53976761  0.57654531  1
  N  N37  1  0.60861117  0.96023239  0.42345469  1
  N  N38  1  0.23394386  0.29162040  0.22929343  1
  N  N39  1  0.89138883  0.46023239  0.42345469  1
  O  O40  1  0.29702492  0.22844250  0.80099900  1
  O  O41  1  0.79702492  0.27155750  0.19900100  1
  O  O42  1  0.39422591  0.95784474  0.61077506  1
  O  O43  1  0.09546533  0.82590071  0.48746574  1
  O  O44  1  0.10577409  0.45784474  0.61077506  1
  O  O45  1  0.01660045  0.39843433  0.40704454  1
  O  O46  1  0.89422591  0.54215526  0.38922494  1
  O  O47  1  0.20297508  0.72844250  0.80099900  1
  O  O48  1  0.60577409  0.45784474  0.88922494  1
  O  O49  1  0.26054274  0.06065648  0.52543938  1
  O  O50  1  0.81713380  0.62388217  0.78866692  1
  O  O51  1  0.31713380  0.87611783  0.21133308  1
  O  O52  1  0.20297508  0.77155750  0.30099900  1
  O  O53  1  0.18286620  0.12388217  0.71133308  1
  O  O54  1  0.59546533  0.67409929  0.51253426  1
  O  O55  1  0.22286168  0.22515633  0.17453277  1
  O  O56  1  0.88887338  0.56002229  0.17865180  1
  O  O57  1  0.39422591  0.54215526  0.11077506  1
  O  O58  1  0.51660045  0.10156567  0.59295546  1
  O  O59  1  0.38887338  0.93997771  0.82134820  1
  O  O60  1  0.01660045  0.10156567  0.90704454  1
  O  O61  1  0.72286168  0.27484367  0.82546723  1
  O  O62  1  0.61112662  0.43997771  0.67865180  1
  O  O63  1  0.88887338  0.93997771  0.67865180  1
  O  O64  1  0.48339955  0.89843433  0.40704454  1
  O  O65  1  0.29702492  0.27155750  0.30099900  1
  O  O66  1  0.48339955  0.60156567  0.90704454  1
  O  O67  1  0.09546533  0.67409929  0.98746574  1
  O  O68  1  0.70297508  0.72844250  0.69900100  1
  O  O69  1  0.23945726  0.56065648  0.52543938  1
  O  O70  1  0.10577409  0.04215526  0.11077506  1
  O  O71  1  0.27713832  0.72515633  0.17453277  1
  O  O72  1  0.60577409  0.04215526  0.38922494  1
  O  O73  1  0.38887338  0.56002229  0.32134820  1
  O  O74  1  0.51660045  0.39843433  0.09295546  1
  O  O75  1  0.11112662  0.43997771  0.82134820  1
  O  O76  1  0.79702492  0.22844250  0.69900100  1
  O  O77  1  0.90453467  0.32590071  0.01253426  1
  O  O78  1  0.90453467  0.17409929  0.51253426  1
  O  O79  1  0.81713380  0.87611783  0.28866692  1
  O  O80  1  0.27713832  0.77484367  0.67453277  1
  O  O81  1  0.40453467  0.17409929  0.98746574  1
  O  O82  1  0.68286620  0.37611783  0.28866692  1
  O  O83  1  0.70297508  0.77155750  0.19900100  1
  O  O84  1  0.89422591  0.95784474  0.88922494  1
  O  O85  1  0.98339955  0.60156567  0.59295546  1
  O  O86  1  0.73945726  0.93934352  0.47456062  1
  O  O87  1  0.59546533  0.82590071  0.01253426  1
  O  O88  1  0.40453467  0.32590071  0.48746574  1
  O  O89  1  0.76054274  0.43934352  0.47456062  1
  O  O90  1  0.23945726  0.93934352  0.02543938  1
  O  O91  1  0.31713380  0.62388217  0.71133308  1
  O  O92  1  0.22286168  0.27484367  0.67453277  1
  O  O93  1  0.72286168  0.22515633  0.32546723  1
  O  O94  1  0.26054274  0.43934352  0.02543938  1
  O  O95  1  0.76054274  0.06065648  0.97456062  1
  O  O96  1  0.11112662  0.06002229  0.32134820  1
  O  O97  1  0.77713832  0.77484367  0.82546723  1
  O  O98  1  0.73945726  0.56065648  0.97456062  1
  O  O99  1  0.68286620  0.12388217  0.78866692  1
  O  O100  1  0.98339955  0.89843433  0.09295546  1
  O  O101  1  0.77713832  0.72515633  0.32546723  1
  O  O102  1  0.18286620  0.37611783  0.21133308  1
  O  O103  1  0.61112662  0.06002229  0.17865180  1
