# generated using pymatgen
data_Pr2Ta2Cl2O7
_symmetry_space_group_name_H-M   'P 1'
_cell_length_a   3.96474697
_cell_length_b   6.97424453
_cell_length_c   8.06279317
_cell_angle_alpha   112.91603536
_cell_angle_beta   104.23373951
_cell_angle_gamma   89.99960403
_symmetry_Int_Tables_number   1
_chemical_formula_structural   Pr2Ta2Cl2O7
_chemical_formula_sum   'Pr2 Ta2 Cl2 O7'
_cell_volume   197.89789714
_cell_formula_units_Z   1
loop_
 _symmetry_equiv_pos_site_id
 _symmetry_equiv_pos_as_xyz
  1  'x, y, z'
loop_
 _atom_site_type_symbol
 _atom_site_label
 _atom_site_symmetry_multiplicity
 _atom_site_fract_x
 _atom_site_fract_y
 _atom_site_fract_z
 _atom_site_occupancy
  Pr  Pr0  1  0.30801572  0.83507560  0.61629013  1
  Pr  Pr1  1  0.69198428  0.16492440  0.38370987  1
  Ta  Ta2  1  0.96550857  0.20156245  0.93107351  1
  Ta  Ta3  1  0.03449143  0.79843755  0.06892649  1
  Cl  Cl4  1  0.67848871  0.56589950  0.35697994  1
  Cl  Cl5  1  0.32151129  0.43410050  0.64302006  1
  O  O6  1  0.45526119  0.16514646  0.91063190  1
  O  O7  1  0.54473881  0.83485354  0.08936810  1
  O  O8  1  0.91958959  0.84760699  0.83922551  1
  O  O9  1  0.00000000  0.50000000  0.00000000  1
  O  O10  1  0.82621208  0.07017112  0.65254979  1
  O  O11  1  0.08041041  0.15239301  0.16077449  1
  O  O12  1  0.17378792  0.92982888  0.34745021  1
