# generated using pymatgen
data_NdGaGe2O7
_symmetry_space_group_name_H-M   'P 1'
_cell_length_a   6.67053976
_cell_length_b   7.33698121
_cell_length_c   11.62996446
_cell_angle_alpha   96.43488740
_cell_angle_beta   90.00000000
_cell_angle_gamma   90.00000000
_symmetry_Int_Tables_number   1
_chemical_formula_structural   NdGaGe2O7
_chemical_formula_sum   'Nd4 Ga4 Ge8 O28'
_cell_volume   565.60338612
_cell_formula_units_Z   4
loop_
 _symmetry_equiv_pos_site_id
 _symmetry_equiv_pos_as_xyz
  1  'x, y, z'
loop_
 _atom_site_type_symbol
 _atom_site_label
 _atom_site_symmetry_multiplicity
 _atom_site_fract_x
 _atom_site_fract_y
 _atom_site_fract_z
 _atom_site_occupancy
  Nd  Nd0  1  0.64594190  0.73629779  0.97520473  1
  Nd  Nd1  1  0.14594190  0.76370221  0.52479527  1
  Nd  Nd2  1  0.85405810  0.23629779  0.47520473  1
  Nd  Nd3  1  0.35405810  0.26370221  0.02479527  1
  Ga  Ga4  1  0.39869950  0.98230357  0.76805666  1
  Ga  Ga5  1  0.89869950  0.51769643  0.73194334  1
  Ga  Ga6  1  0.60130050  0.01769643  0.23194334  1
  Ga  Ga7  1  0.10130050  0.48230357  0.26805666  1
  Ge  Ge8  1  0.34189930  0.24204719  0.45588263  1
  Ge  Ge9  1  0.91072658  0.07903116  0.78024007  1
  Ge  Ge10  1  0.15810070  0.74204719  0.95588263  1
  Ge  Ge11  1  0.84189930  0.25795281  0.04411737  1
  Ge  Ge12  1  0.65810070  0.75795281  0.54411737  1
  Ge  Ge13  1  0.08927342  0.92096884  0.21975993  1
  Ge  Ge14  1  0.41072658  0.42096884  0.71975993  1
  Ge  Ge15  1  0.58927342  0.57903116  0.28024007  1
  O  O16  1  0.82592832  0.92817512  0.51941618  1
  O  O17  1  0.37517324  0.23840245  0.80612832  1
  O  O18  1  0.05148682  0.33605622  0.12799680  1
  O  O19  1  0.89085248  0.06015195  0.27940514  1
  O  O20  1  0.10914752  0.93984805  0.72059486  1
  O  O21  1  0.94851318  0.66394378  0.87200320  1
  O  O22  1  0.18721446  0.53246908  0.68541671  1
  O  O23  1  0.31278554  0.03246908  0.18541671  1
  O  O24  1  0.17407168  0.07182488  0.48058382  1
  O  O25  1  0.66236486  0.08812418  0.07934966  1
  O  O26  1  0.55148682  0.16394378  0.37200320  1
  O  O27  1  0.39085248  0.43984805  0.22059486  1
  O  O28  1  0.83763514  0.58812418  0.57934966  1
  O  O29  1  0.12482676  0.73840245  0.30612832  1
  O  O30  1  0.62482676  0.76159755  0.19387168  1
  O  O31  1  0.87517324  0.26159755  0.69387168  1
  O  O32  1  0.81278554  0.46753092  0.31458329  1
  O  O33  1  0.49836837  0.32518389  0.57654766  1
  O  O34  1  0.16236486  0.41187582  0.42065034  1
  O  O35  1  0.33763514  0.91187582  0.92065034  1
  O  O36  1  0.50163163  0.67481611  0.42345234  1
  O  O37  1  0.32592832  0.57182488  0.98058382  1
  O  O38  1  0.99836837  0.17481611  0.92345234  1
  O  O39  1  0.60914752  0.56015195  0.77940514  1
  O  O40  1  0.44851318  0.83605622  0.62799680  1
  O  O41  1  0.67407168  0.42817512  0.01941618  1
  O  O42  1  0.68721446  0.96753092  0.81458329  1
  O  O43  1  0.00163163  0.82518389  0.07654766  1
