# generated using pymatgen
data_BaLa2Te5O14
_symmetry_space_group_name_H-M   'P 1'
_cell_length_a   6.09688829
_cell_length_b   10.18076803
_cell_length_c   13.42786060
_cell_angle_alpha   106.94652997
_cell_angle_beta   90.00000000
_cell_angle_gamma   107.42346980
_symmetry_Int_Tables_number   1
_chemical_formula_structural   BaLa2Te5O14
_chemical_formula_sum   'Ba2 La4 Te10 O28'
_cell_volume   757.22114691
_cell_formula_units_Z   2
loop_
 _symmetry_equiv_pos_site_id
 _symmetry_equiv_pos_as_xyz
  1  'x, y, z'
loop_
 _atom_site_type_symbol
 _atom_site_label
 _atom_site_symmetry_multiplicity
 _atom_site_fract_x
 _atom_site_fract_y
 _atom_site_fract_z
 _atom_site_occupancy
  Ba  Ba0  1  0.00000000  0.50000000  0.00000000  1
  Ba  Ba1  1  0.50000000  0.50000000  0.50000000  1
  La  La2  1  0.54806640  0.65167952  0.83167083  1
  La  La3  1  0.45193360  0.34832048  0.16832917  1
  La  La4  1  0.89638688  0.34832048  0.66832917  1
  La  La5  1  0.10361312  0.65167952  0.33167083  1
  Te  Te6  1  0.80728809  0.10812198  0.02951404  1
  Te  Te7  1  0.60314043  0.71326991  0.16057699  1
  Te  Te8  1  0.88987052  0.28673009  0.33942301  1
  Te  Te9  1  0.19271191  0.89187802  0.97048596  1
  Te  Te10  1  0.69916611  0.89187802  0.47048596  1
  Te  Te11  1  0.30083389  0.10812198  0.52951404  1
  Te  Te12  1  0.78837323  0.00000000  0.75000000  1
  Te  Te13  1  0.21162677  0.00000000  0.25000000  1
  Te  Te14  1  0.11012948  0.71326991  0.66057699  1
  Te  Te15  1  0.39685957  0.28673009  0.83942301  1
  O  O16  1  0.10319369  0.12987604  0.08831907  1
  O  O17  1  0.65188689  0.12014947  0.70673934  1
  O  O18  1  0.81199881  0.59503019  0.68045863  1
  O  O19  1  0.34811311  0.87985053  0.29326066  1
  O  O20  1  0.74324604  0.42537743  0.32861752  1
  O  O21  1  0.46826258  0.12014947  0.20673934  1
  O  O22  1  0.29162583  0.16447502  0.40447392  1
  O  O23  1  0.80807306  0.29641612  0.10769739  1
  O  O24  1  0.87284919  0.16447502  0.90447392  1
  O  O25  1  0.18800119  0.40496981  0.31954137  1
  O  O26  1  0.51165694  0.70358388  0.39230261  1
  O  O27  1  0.09077606  0.66335189  0.51378477  1
  O  O28  1  0.25675396  0.57462257  0.67138248  1
  O  O29  1  0.21696862  0.40496981  0.81954137  1
  O  O30  1  0.12715081  0.83552498  0.09552608  1
  O  O31  1  0.78303138  0.59503019  0.18045863  1
  O  O32  1  0.89680631  0.87012396  0.91168093  1
  O  O33  1  0.70837417  0.83552498  0.59552608  1
  O  O34  1  0.68213139  0.42537743  0.82861752  1
  O  O35  1  0.02668235  0.12987604  0.58831907  1
  O  O36  1  0.97331765  0.87012396  0.41168093  1
  O  O37  1  0.53173742  0.87985053  0.79326066  1
  O  O38  1  0.90922394  0.33664811  0.48621523  1
  O  O39  1  0.31786861  0.57462257  0.17138248  1
  O  O40  1  0.48834306  0.29641612  0.60769739  1
  O  O41  1  0.19192694  0.70358388  0.89230261  1
  O  O42  1  0.57257583  0.66335189  0.01378477  1
  O  O43  1  0.42742417  0.33664811  0.98621523  1
