# generated using pymatgen
data_Ta4S9Br8
_symmetry_space_group_name_H-M   'P 1'
_cell_length_a   7.58484039
_cell_length_b   10.22934487
_cell_length_c   10.22934512
_cell_angle_alpha   82.09981906
_cell_angle_beta   68.23878282
_cell_angle_gamma   68.23878278
_symmetry_Int_Tables_number   1
_chemical_formula_structural   Ta4S9Br8
_chemical_formula_sum   'Ta4 S9 Br8'
_cell_volume   684.58532108
_cell_formula_units_Z   1
loop_
 _symmetry_equiv_pos_site_id
 _symmetry_equiv_pos_as_xyz
  1  'x, y, z'
loop_
 _atom_site_type_symbol
 _atom_site_label
 _atom_site_symmetry_multiplicity
 _atom_site_fract_x
 _atom_site_fract_y
 _atom_site_fract_z
 _atom_site_occupancy
  Ta  Ta0  1  0.10874772  0.82446222  0.82446222  1
  Ta  Ta1  1  0.93320994  0.17553778  0.82446222  1
  Ta  Ta2  1  0.75767217  0.17553778  0.17553778  1
  Ta  Ta3  1  0.93320994  0.82446222  0.17553778  1
  S  S4  1  0.74162868  0.37691153  0.00000000  1
  S  S5  1  0.11854021  1.00000000  0.62308847  1
  S  S6  1  0.11854021  0.62308847  1.00000000  1
  S  S7  1  0.02919055  1.00000000  0.25943693  1
  S  S8  1  0.83203101  0.00000000  0.00000000  1
  S  S9  1  0.02919055  0.25943693  1.00000000  1
  S  S10  1  0.28862748  0.74056307  1.00000000  1
  S  S11  1  0.74162868  0.00000000  0.37691153  1
  S  S12  1  0.28862748  1.00000000  0.74056307  1
  Br  Br13  1  0.38968793  0.22545522  0.22545522  1
  Br  Br14  1  0.84059836  0.77454478  0.77454478  1
  Br  Br15  1  0.41246566  0.65419003  0.65419003  1
  Br  Br16  1  0.61514315  0.77454478  0.22545522  1
  Br  Br17  1  0.06665570  0.34580997  0.65419003  1
  Br  Br18  1  0.72084573  0.34580997  0.34580997  1
  Br  Br19  1  0.61514315  0.22545522  0.77454478  1
  Br  Br20  1  0.06665570  0.65419003  0.34580997  1
