# generated using pymatgen
data_LiPr(SO4)2
_symmetry_space_group_name_H-M   'P 1'
_cell_length_a   6.78547943
_cell_length_b   7.10598890
_cell_length_c   13.87694941
_cell_angle_alpha   104.84750531
_cell_angle_beta   90.00000000
_cell_angle_gamma   90.00000000
_symmetry_Int_Tables_number   1
_chemical_formula_structural   LiPr(SO4)2
_chemical_formula_sum   'Li4 Pr4 S8 O32'
_cell_volume   646.77156493
_cell_formula_units_Z   4
loop_
 _symmetry_equiv_pos_site_id
 _symmetry_equiv_pos_as_xyz
  1  'x, y, z'
loop_
 _atom_site_type_symbol
 _atom_site_label
 _atom_site_symmetry_multiplicity
 _atom_site_fract_x
 _atom_site_fract_y
 _atom_site_fract_z
 _atom_site_occupancy
  Li  Li0  1  0.25384148  0.51064161  0.55409567  1
  Li  Li1  1  0.75384148  0.98935839  0.44590433  1
  Li  Li2  1  0.24615852  0.01064161  0.55409567  1
  Li  Li3  1  0.74615852  0.48935839  0.44590433  1
  Pr  Pr4  1  0.38890979  0.83843679  0.18399809  1
  Pr  Pr5  1  0.61109021  0.16156321  0.81600191  1
  Pr  Pr6  1  0.11109021  0.33843679  0.18399809  1
  Pr  Pr7  1  0.88890979  0.66156321  0.81600191  1
  S  S8  1  0.57180578  0.29823147  0.10479221  1
  S  S9  1  0.07180578  0.20176853  0.89520779  1
  S  S10  1  0.59600318  0.80085757  0.61735451  1
  S  S11  1  0.42819422  0.70176853  0.89520779  1
  S  S12  1  0.90399682  0.30085757  0.61735451  1
  S  S13  1  0.92819422  0.79823147  0.10479221  1
  S  S14  1  0.40399682  0.19914243  0.38264549  1
  S  S15  1  0.09600318  0.69914243  0.38264549  1
  O  O16  1  0.24592534  0.15788254  0.30265162  1
  O  O17  1  0.11201993  0.24052255  0.00212923  1
  O  O18  1  0.88798007  0.75947745  0.99787077  1
  O  O19  1  0.05330453  0.64090991  0.12760794  1
  O  O20  1  0.75641708  0.32035665  0.16233427  1
  O  O21  1  0.44521971  0.47726954  0.13878933  1
  O  O22  1  0.74592534  0.34211746  0.69734838  1
  O  O23  1  0.18612219  0.71978356  0.48204889  1
  O  O24  1  0.55330453  0.85909009  0.87239206  1
  O  O25  1  0.98794269  0.87465402  0.37865621  1
  O  O26  1  0.81387781  0.28021644  0.51795111  1
  O  O27  1  0.94669547  0.35909009  0.87239206  1
  O  O28  1  0.46824268  0.98080259  0.64476740  1
  O  O29  1  0.94521971  0.02273046  0.86121067  1
  O  O30  1  0.68612219  0.78021644  0.51795111  1
  O  O31  1  0.38798007  0.74052255  0.00212923  1
  O  O32  1  0.01205731  0.12534598  0.62134379  1
  O  O33  1  0.25407466  0.65788254  0.30265162  1
  O  O34  1  0.44669547  0.14090991  0.12760794  1
  O  O35  1  0.48794269  0.62534598  0.62134379  1
  O  O36  1  0.25641708  0.17964335  0.83766573  1
  O  O37  1  0.03175732  0.48080259  0.64476740  1
  O  O38  1  0.24358292  0.67964335  0.83766573  1
  O  O39  1  0.53175732  0.01919741  0.35523260  1
  O  O40  1  0.31387781  0.21978356  0.48204889  1
  O  O41  1  0.05478029  0.97726954  0.13878933  1
  O  O42  1  0.55478029  0.52273046  0.86121067  1
  O  O43  1  0.61201993  0.25947745  0.99787077  1
  O  O44  1  0.74358292  0.82035665  0.16233427  1
  O  O45  1  0.51205731  0.37465402  0.37865621  1
  O  O46  1  0.75407466  0.84211746  0.69734838  1
  O  O47  1  0.96824268  0.51919741  0.35523260  1
