# generated using pymatgen
data_NaInAs2O7
_symmetry_space_group_name_H-M   'P 1'
_cell_length_a   6.86199082
_cell_length_b   6.86190534
_cell_length_c   14.08750133
_cell_angle_alpha   100.55207766
_cell_angle_beta   103.07291844
_cell_angle_gamma   99.19199234
_symmetry_Int_Tables_number   1
_chemical_formula_structural   NaInAs2O7
_chemical_formula_sum   'Na4 In4 As8 O28'
_cell_volume   621.03644861
_cell_formula_units_Z   4
loop_
 _symmetry_equiv_pos_site_id
 _symmetry_equiv_pos_as_xyz
  1  'x, y, z'
loop_
 _atom_site_type_symbol
 _atom_site_label
 _atom_site_symmetry_multiplicity
 _atom_site_fract_x
 _atom_site_fract_y
 _atom_site_fract_z
 _atom_site_occupancy
  Na  Na0  1  0.88380749  0.95799524  0.11925400  1
  Na  Na1  1  0.11619251  0.04200476  0.88074600  1
  Na  Na2  1  0.33857947  0.76446858  0.38075261  1
  Na  Na3  1  0.66142053  0.23553142  0.61924739  1
  In  In4  1  0.73084803  0.59382131  0.85956003  1
  In  In5  1  0.76569063  0.12853201  0.35951409  1
  In  In6  1  0.23430937  0.87146799  0.64048591  1
  In  In7  1  0.26915197  0.40617869  0.14043997  1
  As  As8  1  0.15665470  0.33338246  0.57565632  1
  As  As9  1  0.74235406  0.41911667  0.07572234  1
  As  As10  1  0.25764594  0.58088333  0.92427766  1
  As  As11  1  0.27533120  0.24724980  0.36549481  1
  As  As12  1  0.72466880  0.75275020  0.63450519  1
  As  As13  1  0.61832636  0.09013630  0.86557297  1
  As  As14  1  0.38167364  0.90986370  0.13442703  1
  As  As15  1  0.84334530  0.66661754  0.42434368  1
  O  O16  1  0.46491908  0.11567713  0.39296874  1
  O  O17  1  0.33171762  0.42651547  0.30134806  1
  O  O18  1  0.53508092  0.88432287  0.60703126  1
  O  O19  1  0.81526188  0.61191950  0.02087265  1
  O  O20  1  0.66828238  0.57348453  0.69865194  1
  O  O21  1  0.26300021  0.72969550  0.18343582  1
  O  O22  1  0.69381875  0.81166148  0.36934745  1
  O  O23  1  0.37486505  0.96959307  0.80140014  1
  O  O24  1  0.57560887  0.20638434  0.98134377  1
  O  O25  1  0.18473812  0.38808050  0.97912735  1
  O  O26  1  0.73699979  0.27030450  0.81656418  1
  O  O27  1  0.72506120  0.59426643  0.51872476  1
  O  O28  1  0.42439113  0.79361566  0.01865623  1
  O  O29  1  0.77729973  0.92798120  0.89304545  1
  O  O30  1  0.09102269  0.79443086  0.47916817  1
  O  O31  1  0.94242210  0.32458553  0.13069139  1
  O  O32  1  0.30618125  0.18833852  0.63065255  1
  O  O33  1  0.16363309  0.55898345  0.65003653  1
  O  O34  1  0.59114505  0.48647789  0.15010764  1
  O  O35  1  0.62513495  0.03040693  0.19859986  1
  O  O36  1  0.04615575  0.07948136  0.31649299  1
  O  O37  1  0.95384425  0.92051864  0.68350701  1
  O  O38  1  0.27493880  0.40573357  0.48127524  1
  O  O39  1  0.05757790  0.67541447  0.86930861  1
  O  O40  1  0.40885495  0.51352211  0.84989236  1
  O  O41  1  0.90897731  0.20556914  0.52083183  1
  O  O42  1  0.83636691  0.44101655  0.34996347  1
  O  O43  1  0.22270027  0.07201880  0.10695455  1
