# generated using pymatgen
data_Li3Gd(BO3)2
_symmetry_space_group_name_H-M   'P 1'
_cell_length_a   6.50026239
_cell_length_b   8.80703126
_cell_length_c   10.00206693
_cell_angle_alpha   114.84016379
_cell_angle_beta   90.00000000
_cell_angle_gamma   90.00000000
_symmetry_Int_Tables_number   1
_chemical_formula_structural   Li3Gd(BO3)2
_chemical_formula_sum   'Li12 Gd4 B8 O24'
_cell_volume   519.62350400
_cell_formula_units_Z   4
loop_
 _symmetry_equiv_pos_site_id
 _symmetry_equiv_pos_as_xyz
  1  'x, y, z'
loop_
 _atom_site_type_symbol
 _atom_site_label
 _atom_site_symmetry_multiplicity
 _atom_site_fract_x
 _atom_site_fract_y
 _atom_site_fract_z
 _atom_site_occupancy
  Li  Li0  1  0.43823096  0.03827824  0.33380153  1
  Li  Li1  1  0.74382594  0.12643894  0.52173977  1
  Li  Li2  1  0.75617406  0.62643894  0.02173977  1
  Li  Li3  1  0.24382594  0.37356106  0.97826023  1
  Li  Li4  1  0.21919615  0.29538079  0.45931654  1
  Li  Li5  1  0.93823096  0.46172176  0.16619847  1
  Li  Li6  1  0.56176904  0.96172176  0.66619847  1
  Li  Li7  1  0.78080385  0.70461921  0.54068346  1
  Li  Li8  1  0.25617406  0.87356106  0.47826023  1
  Li  Li9  1  0.71919615  0.20461921  0.04068346  1
  Li  Li10  1  0.28080385  0.79538079  0.95931654  1
  Li  Li11  1  0.06176904  0.53827824  0.83380153  1
  Gd  Gd12  1  0.02766187  0.98268398  0.80008015  1
  Gd  Gd13  1  0.52766187  0.51731602  0.69991985  1
  Gd  Gd14  1  0.97233813  0.01731602  0.19991985  1
  Gd  Gd15  1  0.47233813  0.48268398  0.30008015  1
  B  B16  1  0.33714310  0.21783551  0.67733988  1
  B  B17  1  0.32775537  0.15982615  0.10757758  1
  B  B18  1  0.66285690  0.78216449  0.32266012  1
  B  B19  1  0.16285690  0.71783551  0.17733988  1
  B  B20  1  0.82775537  0.34017385  0.39242242  1
  B  B21  1  0.67224463  0.84017385  0.89242242  1
  B  B22  1  0.83714310  0.28216449  0.82266012  1
  B  B23  1  0.17224463  0.65982615  0.60757758  1
  O  O24  1  0.28999246  0.07071776  0.68873067  1
  O  O25  1  0.56042734  0.78443960  0.44742657  1
  O  O26  1  0.21412598  0.02432432  0.01362470  1
  O  O27  1  0.71000754  0.92928224  0.31126933  1
  O  O28  1  0.18033388  0.69866863  0.75774813  1
  O  O29  1  0.78999246  0.42928224  0.81126933  1
  O  O30  1  0.43957266  0.21556040  0.55257343  1
  O  O31  1  0.29154816  0.37646290  0.78654021  1
  O  O32  1  0.06042734  0.71556040  0.05257343  1
  O  O33  1  0.93957266  0.28443960  0.94742657  1
  O  O34  1  0.71412598  0.47567568  0.48637530  1
  O  O35  1  0.78587402  0.97567568  0.98637530  1
  O  O36  1  0.56480052  0.73629302  0.93888248  1
  O  O37  1  0.21000754  0.57071776  0.18873067  1
  O  O38  1  0.20845184  0.87646290  0.28654021  1
  O  O39  1  0.06480052  0.76370698  0.56111752  1
  O  O40  1  0.68033388  0.80133137  0.74225187  1
  O  O41  1  0.43519948  0.26370698  0.06111752  1
  O  O42  1  0.81966612  0.30133137  0.24225187  1
  O  O43  1  0.70845184  0.62353710  0.21345979  1
  O  O44  1  0.79154816  0.12353710  0.71345979  1
  O  O45  1  0.28587402  0.52432432  0.51362470  1
  O  O46  1  0.93519948  0.23629302  0.43888248  1
  O  O47  1  0.31966612  0.19866863  0.25774813  1
