# generated using pymatgen
data_Rb2Na2SiO4
_symmetry_space_group_name_H-M   'P 1'
_cell_length_a   9.93228329
_cell_length_b   11.04929954
_cell_length_c   11.27316209
_cell_angle_alpha   90.00000000
_cell_angle_beta   90.00000000
_cell_angle_gamma   90.00000000
_symmetry_Int_Tables_number   1
_chemical_formula_structural   Rb2Na2SiO4
_chemical_formula_sum   'Rb16 Na16 Si8 O32'
_cell_volume   1237.17061667
_cell_formula_units_Z   8
loop_
 _symmetry_equiv_pos_site_id
 _symmetry_equiv_pos_as_xyz
  1  'x, y, z'
loop_
 _atom_site_type_symbol
 _atom_site_label
 _atom_site_symmetry_multiplicity
 _atom_site_fract_x
 _atom_site_fract_y
 _atom_site_fract_z
 _atom_site_occupancy
  Rb  Rb0  1  0.64018192  0.15049009  0.63649607  1
  Rb  Rb1  1  0.14018192  0.34950991  0.36350393  1
  Rb  Rb2  1  0.29838077  0.93718606  0.03553918  1
  Rb  Rb3  1  0.70161923  0.43718606  0.46446082  1
  Rb  Rb4  1  0.79838077  0.56281394  0.96446082  1
  Rb  Rb5  1  0.35981808  0.65049009  0.86350393  1
  Rb  Rb6  1  0.64018192  0.34950991  0.13649607  1
  Rb  Rb7  1  0.14018192  0.15049009  0.86350393  1
  Rb  Rb8  1  0.85981808  0.84950991  0.13649607  1
  Rb  Rb9  1  0.29838077  0.56281394  0.53553918  1
  Rb  Rb10  1  0.70161923  0.06281394  0.96446082  1
  Rb  Rb11  1  0.35981808  0.84950991  0.36350393  1
  Rb  Rb12  1  0.20161923  0.06281394  0.53553918  1
  Rb  Rb13  1  0.20161923  0.43718606  0.03553918  1
  Rb  Rb14  1  0.79838077  0.93718606  0.46446082  1
  Rb  Rb15  1  0.85981808  0.65049009  0.63649607  1
  Na  Na16  1  0.03313674  0.74927951  0.90640978  1
  Na  Na17  1  0.96686326  0.25072049  0.09359022  1
  Na  Na18  1  0.90815610  0.95130016  0.74650799  1
  Na  Na19  1  0.03313674  0.75072049  0.40640978  1
  Na  Na20  1  0.90815610  0.54869984  0.24650799  1
  Na  Na21  1  0.59184390  0.04869984  0.24650799  1
  Na  Na22  1  0.40815610  0.54869984  0.25349201  1
  Na  Na23  1  0.09184390  0.04869984  0.25349201  1
  Na  Na24  1  0.53313674  0.74927951  0.59359022  1
  Na  Na25  1  0.09184390  0.45130016  0.75349201  1
  Na  Na26  1  0.46686326  0.24927951  0.90640978  1
  Na  Na27  1  0.46686326  0.25072049  0.40640978  1
  Na  Na28  1  0.53313674  0.75072049  0.09359022  1
  Na  Na29  1  0.59184390  0.45130016  0.74650799  1
  Na  Na30  1  0.96686326  0.24927951  0.59359022  1
  Na  Na31  1  0.40815610  0.95130016  0.75349201  1
  Si  Si32  1  0.15764600  0.80443173  0.68216956  1
  Si  Si33  1  0.34235400  0.30443173  0.68216956  1
  Si  Si34  1  0.15764600  0.69556827  0.18216956  1
  Si  Si35  1  0.65764600  0.69556827  0.31783044  1
  Si  Si36  1  0.65764600  0.80443173  0.81783044  1
  Si  Si37  1  0.34235400  0.19556827  0.18216956  1
  Si  Si38  1  0.84235400  0.30443173  0.81783044  1
  Si  Si39  1  0.84235400  0.19556827  0.31783044  1
  O  O40  1  0.84186747  0.10596767  0.19783975  1
  O  O41  1  0.87813825  0.16320513  0.77391427  1
  O  O42  1  0.46078962  0.14804556  0.08835921  1
  O  O43  1  0.15813253  0.60596767  0.30216025  1
  O  O44  1  0.19065004  0.31043745  0.61929436  1
  O  O45  1  0.03921038  0.85195444  0.58835921  1
  O  O46  1  0.30934996  0.68956255  0.11929436  1
  O  O47  1  0.69065004  0.31043745  0.88070564  1
  O  O48  1  0.96078962  0.35195444  0.91164079  1
  O  O49  1  0.37813825  0.33679487  0.22608573  1
  O  O50  1  0.69065004  0.18956255  0.38070564  1
  O  O51  1  0.80934996  0.81043745  0.88070564  1
  O  O52  1  0.46078962  0.35195444  0.58835921  1
  O  O53  1  0.96078962  0.14804556  0.41164079  1
  O  O54  1  0.84186747  0.39403233  0.69783975  1
  O  O55  1  0.53921038  0.85195444  0.91164079  1
  O  O56  1  0.65813253  0.60596767  0.19783975  1
  O  O57  1  0.37813825  0.16320513  0.72608573  1
  O  O58  1  0.15813253  0.89403233  0.80216025  1
  O  O59  1  0.65813253  0.89403233  0.69783975  1
  O  O60  1  0.87813825  0.33679487  0.27391427  1
  O  O61  1  0.30934996  0.81043745  0.61929436  1
  O  O62  1  0.34186747  0.39403233  0.80216025  1
  O  O63  1  0.62186175  0.66320513  0.77391427  1
  O  O64  1  0.12186175  0.83679487  0.22608573  1
  O  O65  1  0.19065004  0.18956255  0.11929436  1
  O  O66  1  0.34186747  0.10596767  0.30216025  1
  O  O67  1  0.53921038  0.64804556  0.41164079  1
  O  O68  1  0.03921038  0.64804556  0.08835921  1
  O  O69  1  0.80934996  0.68956255  0.38070564  1
  O  O70  1  0.62186175  0.83679487  0.27391427  1
  O  O71  1  0.12186175  0.66320513  0.72608573  1
