# generated using pymatgen
data_Rb7NaZn2O6
_symmetry_space_group_name_H-M   'P 1'
_cell_length_a   7.20949522
_cell_length_b   9.59673621
_cell_length_c   11.44272721
_cell_angle_alpha   105.94762117
_cell_angle_beta   91.99618392
_cell_angle_gamma   108.73215102
_symmetry_Int_Tables_number   1
_chemical_formula_structural   Rb7NaZn2O6
_chemical_formula_sum   'Rb14 Na2 Zn4 O12'
_cell_volume   714.28870374
_cell_formula_units_Z   2
loop_
 _symmetry_equiv_pos_site_id
 _symmetry_equiv_pos_as_xyz
  1  'x, y, z'
loop_
 _atom_site_type_symbol
 _atom_site_label
 _atom_site_symmetry_multiplicity
 _atom_site_fract_x
 _atom_site_fract_y
 _atom_site_fract_z
 _atom_site_occupancy
  Rb  Rb0  1  0.95248292  0.66485087  0.59270105  1
  Rb  Rb1  1  0.56355277  0.33915473  0.01914252  1
  Rb  Rb2  1  0.03482976  0.51635613  0.18830813  1
  Rb  Rb3  1  0.47582495  0.48422493  0.68673749  1
  Rb  Rb4  1  0.43644723  0.66084527  0.98085748  1
  Rb  Rb5  1  0.04751708  0.33514913  0.40729895  1
  Rb  Rb6  1  0.52417505  0.51577507  0.31326251  1
  Rb  Rb7  1  0.02855533  0.86823768  0.36533835  1
  Rb  Rb8  1  0.20671129  0.92907280  0.90819740  1
  Rb  Rb9  1  0.48852098  0.12334815  0.68357153  1
  Rb  Rb10  1  0.79328871  0.07092720  0.09180260  1
  Rb  Rb11  1  0.51147902  0.87665185  0.31642847  1
  Rb  Rb12  1  0.96517024  0.48364387  0.81169187  1
  Rb  Rb13  1  0.97144467  0.13176232  0.63466165  1
  Na  Na14  1  0.30652043  0.11461853  0.21542948  1
  Na  Na15  1  0.69347957  0.88538147  0.78457052  1
  Zn  Zn16  1  0.58084463  0.25434110  0.43849310  1
  Zn  Zn17  1  0.41915537  0.74565890  0.56150690  1
  Zn  Zn18  1  0.09284841  0.24835001  0.94101955  1
  Zn  Zn19  1  0.90715159  0.75164999  0.05898045  1
  O  O20  1  0.18659436  0.82649042  0.12021581  1
  O  O21  1  0.22903067  0.66449541  0.41643293  1
  O  O22  1  0.18552457  0.25569952  0.10507700  1
  O  O23  1  0.77096933  0.33550459  0.58356707  1
  O  O24  1  0.30029603  0.17264111  0.44449705  1
  O  O25  1  0.71866133  0.68074691  0.16376719  1
  O  O26  1  0.81447543  0.74430048  0.89492300  1
  O  O27  1  0.65656110  0.24870353  0.27648001  1
  O  O28  1  0.81340564  0.17350958  0.87978419  1
  O  O29  1  0.34343890  0.75129647  0.72351999  1
  O  O30  1  0.28133867  0.31925309  0.83623281  1
  O  O31  1  0.69970397  0.82735889  0.55550295  1
