# generated using pymatgen
data_Nd3SiS6Cl
_symmetry_space_group_name_H-M   'P 1'
_cell_length_a   10.47931380
_cell_length_b   12.65027271
_cell_length_c   16.39011553
_cell_angle_alpha   90.00000000
_cell_angle_beta   90.00000000
_cell_angle_gamma   90.00000000
_symmetry_Int_Tables_number   1
_chemical_formula_structural   Nd3SiS6Cl
_chemical_formula_sum   'Nd24 Si8 S48 Cl8'
_cell_volume   2172.77496269
_cell_formula_units_Z   8
loop_
 _symmetry_equiv_pos_site_id
 _symmetry_equiv_pos_as_xyz
  1  'x, y, z'
loop_
 _atom_site_type_symbol
 _atom_site_label
 _atom_site_symmetry_multiplicity
 _atom_site_fract_x
 _atom_site_fract_y
 _atom_site_fract_z
 _atom_site_occupancy
  Nd  Nd0  1  0.25000000  0.37706640  0.36128387  1
  Nd  Nd1  1  0.96399249  0.61812032  0.11177299  1
  Nd  Nd2  1  0.25000000  0.11497812  0.87521430  1
  Nd  Nd3  1  0.46399249  0.38187968  0.88822701  1
  Nd  Nd4  1  0.25000000  0.87706640  0.13871613  1
  Nd  Nd5  1  0.53600751  0.61812032  0.11177299  1
  Nd  Nd6  1  0.25000000  0.61497812  0.62478570  1
  Nd  Nd7  1  0.54392417  0.31239055  0.59446458  1
  Nd  Nd8  1  0.04392417  0.68760945  0.40553542  1
  Nd  Nd9  1  0.95607583  0.31239055  0.59446458  1
  Nd  Nd10  1  0.45607583  0.18760945  0.09446458  1
  Nd  Nd11  1  0.95607583  0.81239055  0.90553542  1
  Nd  Nd12  1  0.45607583  0.68760945  0.40553542  1
  Nd  Nd13  1  0.03600751  0.38187968  0.88822701  1
  Nd  Nd14  1  0.96399249  0.11812032  0.38822701  1
  Nd  Nd15  1  0.53600751  0.11812032  0.38822701  1
  Nd  Nd16  1  0.75000000  0.12293360  0.86128387  1
  Nd  Nd17  1  0.04392417  0.18760945  0.09446458  1
  Nd  Nd18  1  0.46399249  0.88187968  0.61177299  1
  Nd  Nd19  1  0.03600751  0.88187968  0.61177299  1
  Nd  Nd20  1  0.75000000  0.88502188  0.12478570  1
  Nd  Nd21  1  0.54392417  0.81239055  0.90553542  1
  Nd  Nd22  1  0.75000000  0.38502188  0.37521430  1
  Nd  Nd23  1  0.75000000  0.62293360  0.63871613  1
  Si  Si24  1  0.25000000  0.33568833  0.72237538  1
  Si  Si25  1  0.25000000  0.83568833  0.77762462  1
  Si  Si26  1  0.75000000  0.16431167  0.22237538  1
  Si  Si27  1  0.25000000  0.61663346  0.24065628  1
  Si  Si28  1  0.75000000  0.88336654  0.74065628  1
  Si  Si29  1  0.75000000  0.66431167  0.27762462  1
  Si  Si30  1  0.25000000  0.11663346  0.25934372  1
  Si  Si31  1  0.75000000  0.38336654  0.75934372  1
  S  S32  1  0.75000000  0.02258534  0.29221336  1
  S  S33  1  0.00969752  0.34162877  0.43032875  1
  S  S34  1  0.75000000  0.61851745  0.40227907  1
  S  S35  1  0.25000000  0.06250779  0.04619892  1
  S  S36  1  0.58295389  0.97083609  0.77034539  1
  S  S37  1  0.50969752  0.65837123  0.56967125  1
  S  S38  1  0.25000000  0.97741466  0.70778664  1
  S  S39  1  0.40915238  0.73962094  0.74652250  1
  S  S40  1  0.99030248  0.15837123  0.93032875  1
  S  S41  1  0.49030248  0.34162877  0.43032875  1
  S  S42  1  0.75000000  0.68786804  0.02757479  1
  S  S43  1  0.25000000  0.56250779  0.45380108  1
  S  S44  1  0.25000000  0.47741466  0.79221336  1
  S  S45  1  0.09084762  0.23962094  0.75347750  1
  S  S46  1  0.41704611  0.52916391  0.27034539  1
  S  S47  1  0.25000000  0.76868195  0.30107293  1
  S  S48  1  0.75000000  0.23131805  0.69892707  1
  S  S49  1  0.75000000  0.35538965  0.88724923  1
  S  S50  1  0.75000000  0.85538965  0.61275077  1
  S  S51  1  0.08295389  0.52916391  0.27034539  1
  S  S52  1  0.25000000  0.64461035  0.11275077  1
  S  S53  1  0.75000000  0.18786804  0.47242521  1
  S  S54  1  0.91704611  0.47083609  0.72965461  1
  S  S55  1  0.09084762  0.73962094  0.74652250  1
  S  S56  1  0.99030248  0.65837123  0.56967125  1
  S  S57  1  0.75000000  0.43749221  0.54619892  1
  S  S58  1  0.75000000  0.11851745  0.09772093  1
  S  S59  1  0.25000000  0.14461035  0.38724923  1
  S  S60  1  0.50969752  0.15837123  0.93032875  1
  S  S61  1  0.25000000  0.88148255  0.90227907  1
  S  S62  1  0.25000000  0.38148255  0.59772093  1
  S  S63  1  0.91704611  0.97083609  0.77034539  1
  S  S64  1  0.25000000  0.81213196  0.52757479  1
  S  S65  1  0.00969752  0.84162877  0.06967125  1
  S  S66  1  0.41704611  0.02916391  0.22965461  1
  S  S67  1  0.59084762  0.26037906  0.25347750  1
  S  S68  1  0.40915238  0.23962094  0.75347750  1
  S  S69  1  0.59084762  0.76037906  0.24652250  1
  S  S70  1  0.75000000  0.93749221  0.95380108  1
  S  S71  1  0.08295389  0.02916391  0.22965461  1
  S  S72  1  0.25000000  0.26868195  0.19892707  1
  S  S73  1  0.90915238  0.26037906  0.25347750  1
  S  S74  1  0.49030248  0.84162877  0.06967125  1
  S  S75  1  0.58295389  0.47083609  0.72965461  1
  S  S76  1  0.90915238  0.76037906  0.24652250  1
  S  S77  1  0.75000000  0.52258534  0.20778664  1
  S  S78  1  0.25000000  0.31213196  0.97242521  1
  S  S79  1  0.75000000  0.73131805  0.80107293  1
  Cl  Cl80  1  0.95676355  0.89669057  0.44012504  1
  Cl  Cl81  1  0.54323645  0.39669057  0.05987496  1
  Cl  Cl82  1  0.54323645  0.89669057  0.44012504  1
  Cl  Cl83  1  0.04323645  0.10330943  0.55987496  1
  Cl  Cl84  1  0.95676355  0.39669057  0.05987496  1
  Cl  Cl85  1  0.45676355  0.10330943  0.55987496  1
  Cl  Cl86  1  0.04323645  0.60330943  0.94012504  1
  Cl  Cl87  1  0.45676355  0.60330943  0.94012504  1
