# generated using pymatgen
data_Na3B(PO4)2
_symmetry_space_group_name_H-M   'P 1'
_cell_length_a   8.21118048
_cell_length_b   8.21118054
_cell_length_c   10.33789989
_cell_angle_alpha   88.16907079
_cell_angle_beta   88.16907075
_cell_angle_gamma   78.57458239
_symmetry_Int_Tables_number   1
_chemical_formula_structural   Na3B(PO4)2
_chemical_formula_sum   'Na12 B4 P8 O32'
_cell_volume   682.62236020
_cell_formula_units_Z   4
loop_
 _symmetry_equiv_pos_site_id
 _symmetry_equiv_pos_as_xyz
  1  'x, y, z'
loop_
 _atom_site_type_symbol
 _atom_site_label
 _atom_site_symmetry_multiplicity
 _atom_site_fract_x
 _atom_site_fract_y
 _atom_site_fract_z
 _atom_site_occupancy
  Na  Na0  1  0.36351217  0.14289897  0.73181149  1
  Na  Na1  1  0.04210674  0.95789326  0.75000000  1
  Na  Na2  1  0.47367804  0.70355828  0.62004638  1
  Na  Na3  1  0.85710103  0.63648783  0.76818851  1
  Na  Na4  1  0.52632196  0.29644172  0.37995362  1
  Na  Na5  1  0.70355828  0.47367804  0.12004638  1
  Na  Na6  1  0.65280367  0.34719633  0.75000000  1
  Na  Na7  1  0.63648783  0.85710103  0.26818851  1
  Na  Na8  1  0.95789326  0.04210674  0.25000000  1
  Na  Na9  1  0.29644172  0.52632196  0.87995362  1
  Na  Na10  1  0.14289897  0.36351217  0.23181149  1
  Na  Na11  1  0.34719633  0.65280367  0.25000000  1
  B  B12  1  0.97808956  0.75485165  0.49859867  1
  B  B13  1  0.02191044  0.24514835  0.50140133  1
  B  B14  1  0.24514835  0.02191044  0.00140133  1
  B  B15  1  0.75485165  0.97808956  0.99859867  1
  P  P16  1  0.22706198  0.94525283  0.45775005  1
  P  P17  1  0.21017118  0.46887718  0.56134122  1
  P  P18  1  0.46887718  0.21017118  0.06134122  1
  P  P19  1  0.05474717  0.77293802  0.04224995  1
  P  P20  1  0.78982882  0.53112282  0.43865878  1
  P  P21  1  0.77293802  0.05474717  0.54224995  1
  P  P22  1  0.94525283  0.22706198  0.95775005  1
  P  P23  1  0.53112282  0.78982882  0.93865878  1
  O  O24  1  0.93539672  0.25718935  0.10257380  1
  O  O25  1  0.25718935  0.93539672  0.60257380  1
  O  O26  1  0.84124628  0.08960229  0.91994767  1
  O  O27  1  0.15875372  0.91039771  0.08005233  1
  O  O28  1  0.06460328  0.74281065  0.89742620  1
  O  O29  1  0.46856397  0.27285865  0.92159923  1
  O  O30  1  0.62973099  0.06979367  0.08958465  1
  O  O31  1  0.53982195  0.65851361  0.83679736  1
  O  O32  1  0.06979367  0.62973099  0.58958465  1
  O  O33  1  0.88622993  0.37939046  0.87371760  1
  O  O34  1  0.37026901  0.93020633  0.91041535  1
  O  O35  1  0.31599475  0.12101596  0.09344791  1
  O  O36  1  0.11377007  0.62060954  0.12628240  1
  O  O37  1  0.62060954  0.11377007  0.62628240  1
  O  O38  1  0.12991610  0.13842022  0.91314907  1
  O  O39  1  0.93020633  0.37026901  0.41041535  1
  O  O40  1  0.87898404  0.68400525  0.40655209  1
  O  O41  1  0.46017805  0.34148639  0.16320264  1
  O  O42  1  0.91039771  0.15875372  0.58005233  1
  O  O43  1  0.86157978  0.87008390  0.58685093  1
  O  O44  1  0.53143603  0.72714135  0.07840077  1
  O  O45  1  0.27285865  0.46856397  0.42159923  1
  O  O46  1  0.12101596  0.31599475  0.59344791  1
  O  O47  1  0.37939046  0.88622993  0.37371760  1
  O  O48  1  0.08960229  0.84124628  0.41994767  1
  O  O49  1  0.72714135  0.53143603  0.57840077  1
  O  O50  1  0.65851361  0.53982195  0.33679736  1
  O  O51  1  0.74281065  0.06460328  0.39742620  1
  O  O52  1  0.87008390  0.86157978  0.08685093  1
  O  O53  1  0.34148639  0.46017805  0.66320264  1
  O  O54  1  0.13842022  0.12991610  0.41314907  1
  O  O55  1  0.68400525  0.87898404  0.90655209  1
