# generated using pymatgen
data_K2Nb3Cl7O5
_symmetry_space_group_name_H-M   'P 1'
_cell_length_a   8.99939588
_cell_length_b   9.65668426
_cell_length_c   11.31733891
_cell_angle_alpha   110.08745156
_cell_angle_beta   90.00000000
_cell_angle_gamma   117.77283430
_symmetry_Int_Tables_number   1
_chemical_formula_structural   K2Nb3Cl7O5
_chemical_formula_sum   'K4 Nb6 Cl14 O10'
_cell_volume   801.98902384
_cell_formula_units_Z   2
loop_
 _symmetry_equiv_pos_site_id
 _symmetry_equiv_pos_as_xyz
  1  'x, y, z'
loop_
 _atom_site_type_symbol
 _atom_site_label
 _atom_site_symmetry_multiplicity
 _atom_site_fract_x
 _atom_site_fract_y
 _atom_site_fract_z
 _atom_site_occupancy
  K  K0  1  0.82981783  0.59104842  0.14328202  1
  K  K1  1  0.23876941  0.40895158  0.35671798  1
  K  K2  1  0.76123059  0.59104842  0.64328202  1
  K  K3  1  0.17018217  0.40895158  0.85671798  1
  Nb  Nb4  1  0.78552080  0.99420847  0.02710243  1
  Nb  Nb5  1  0.20868767  0.99420847  0.52710243  1
  Nb  Nb6  1  0.21447920  0.00579153  0.97289757  1
  Nb  Nb7  1  0.53701255  0.00000000  0.75000000  1
  Nb  Nb8  1  0.46298745  0.00000000  0.25000000  1
  Nb  Nb9  1  0.79131233  0.00579153  0.47289757  1
  Cl  Cl10  1  0.06170212  0.69568422  0.86596107  1
  Cl  Cl11  1  0.36601789  0.30431578  0.63403893  1
  Cl  Cl12  1  0.36301377  0.31352615  0.04622674  1
  Cl  Cl13  1  0.63398211  0.69568422  0.36596107  1
  Cl  Cl14  1  0.27296818  0.69603820  0.16132099  1
  Cl  Cl15  1  0.90982366  0.00000000  0.25000000  1
  Cl  Cl16  1  0.04948762  0.68647385  0.45377326  1
  Cl  Cl17  1  0.63698623  0.68647385  0.95377326  1
  Cl  Cl18  1  0.57692998  0.30396180  0.33867901  1
  Cl  Cl19  1  0.95051238  0.31352615  0.54622674  1
  Cl  Cl20  1  0.09017634  0.00000000  0.75000000  1
  Cl  Cl21  1  0.72703182  0.30396180  0.83867901  1
  Cl  Cl22  1  0.42307002  0.69603820  0.66132099  1
  Cl  Cl23  1  0.93829788  0.30431578  0.13403893  1
  O  O24  1  0.39660159  0.99545888  0.62540733  1
  O  O25  1  0.28887549  0.00450195  0.12102621  1
  O  O26  1  0.28437354  0.99549805  0.37897379  1
  O  O27  1  0.71112451  0.99549805  0.87897379  1
  O  O28  1  0.60339841  0.00454112  0.37459267  1
  O  O29  1  0.00000000  0.00000000  0.00000000  1
  O  O30  1  0.71562646  0.00450195  0.62102621  1
  O  O31  1  0.59885729  0.99545888  0.12540733  1
  O  O32  1  0.40114271  0.00454112  0.87459267  1
  O  O33  1  0.00000000  0.00000000  0.50000000  1
