# generated using pymatgen
data_ScIO
_symmetry_space_group_name_H-M   'P 1'
_cell_length_a   3.89111085
_cell_length_b   7.26309953
_cell_length_c   10.25431046
_cell_angle_alpha   93.16807183
_cell_angle_beta   100.90715575
_cell_angle_gamma   90.00288169
_symmetry_Int_Tables_number   1
_chemical_formula_structural   ScIO
_chemical_formula_sum   'Sc4 I4 O4'
_cell_volume   284.11598232
_cell_formula_units_Z   4
loop_
 _symmetry_equiv_pos_site_id
 _symmetry_equiv_pos_as_xyz
  1  'x, y, z'
loop_
 _atom_site_type_symbol
 _atom_site_label
 _atom_site_symmetry_multiplicity
 _atom_site_fract_x
 _atom_site_fract_y
 _atom_site_fract_z
 _atom_site_occupancy
  Sc  Sc0  1  0.29684436  0.38291289  0.59402811  1
  Sc  Sc1  1  0.70155853  0.11810470  0.40269870  1
  Sc  Sc2  1  0.70315564  0.61708711  0.40597189  1
  Sc  Sc3  1  0.29844147  0.88189530  0.59730130  1
  I  I4  1  0.10668289  0.35183363  0.21347352  1
  I  I5  1  0.41065503  0.15462671  0.82223728  1
  I  I6  1  0.58934497  0.84537329  0.17776272  1
  I  I7  1  0.89331711  0.64816637  0.78652648  1
  O  O8  1  0.24499744  0.62808316  0.48990751  1
  O  O9  1  0.75518354  0.87983726  0.51043102  1
  O  O10  1  0.75500256  0.37191684  0.51009249  1
  O  O11  1  0.24481646  0.12016274  0.48956898  1
