# generated using pymatgen
data_PrScO3
_symmetry_space_group_name_H-M   'P 1'
_cell_length_a   5.64312994
_cell_length_b   5.85553593
_cell_length_c   8.11186509
_cell_angle_alpha   90.00000000
_cell_angle_beta   90.00000000
_cell_angle_gamma   90.00000000
_symmetry_Int_Tables_number   1
_chemical_formula_structural   PrScO3
_chemical_formula_sum   'Pr4 Sc4 O12'
_cell_volume   268.04482068
_cell_formula_units_Z   4
loop_
 _symmetry_equiv_pos_site_id
 _symmetry_equiv_pos_as_xyz
  1  'x, y, z'
loop_
 _atom_site_type_symbol
 _atom_site_label
 _atom_site_symmetry_multiplicity
 _atom_site_fract_x
 _atom_site_fract_y
 _atom_site_fract_z
 _atom_site_occupancy
  Pr  Pr0  1  0.98522853  0.05455028  0.75000000  1
  Pr  Pr1  1  0.51477147  0.55455028  0.75000000  1
  Pr  Pr2  1  0.48522853  0.44544972  0.25000000  1
  Pr  Pr3  1  0.01477147  0.94544972  0.25000000  1
  Sc  Sc4  1  0.00000000  0.50000000  0.50000000  1
  Sc  Sc5  1  0.50000000  0.00000000  0.00000000  1
  Sc  Sc6  1  0.50000000  0.00000000  0.50000000  1
  Sc  Sc7  1  0.00000000  0.50000000  0.00000000  1
  O  O8  1  0.69991394  0.29943788  0.55643274  1
  O  O9  1  0.89342946  0.53945355  0.25000000  1
  O  O10  1  0.80008606  0.79943788  0.94356726  1
  O  O11  1  0.10657054  0.46054645  0.75000000  1
  O  O12  1  0.30008606  0.70056212  0.05643274  1
  O  O13  1  0.19991394  0.20056212  0.44356726  1
  O  O14  1  0.80008606  0.79943788  0.55643274  1
  O  O15  1  0.39342946  0.96054645  0.75000000  1
  O  O16  1  0.30008606  0.70056212  0.44356726  1
  O  O17  1  0.19991394  0.20056212  0.05643274  1
  O  O18  1  0.69991394  0.29943788  0.94356726  1
  O  O19  1  0.60657054  0.03945355  0.25000000  1
