# generated using pymatgen
data_Na5Ca2Al(PO4)4
_symmetry_space_group_name_H-M   'P 1'
_cell_length_a   9.00807021
_cell_length_b   9.00807050
_cell_length_c   10.62144983
_cell_angle_alpha   107.75763702
_cell_angle_beta   107.75763758
_cell_angle_gamma   102.99813480
_symmetry_Int_Tables_number   1
_chemical_formula_structural   Na5Ca2Al(PO4)4
_chemical_formula_sum   'Na10 Ca4 Al2 P8 O32'
_cell_volume   732.10601560
_cell_formula_units_Z   2
loop_
 _symmetry_equiv_pos_site_id
 _symmetry_equiv_pos_as_xyz
  1  'x, y, z'
loop_
 _atom_site_type_symbol
 _atom_site_label
 _atom_site_symmetry_multiplicity
 _atom_site_fract_x
 _atom_site_fract_y
 _atom_site_fract_z
 _atom_site_occupancy
  Na  Na0  1  0.57928364  0.32061899  0.44270581  1
  Na  Na1  1  0.77227769  0.74389466  0.61783071  1
  Na  Na2  1  0.32061899  0.57928364  0.94270581  1
  Na  Na3  1  0.88721727  0.24252156  0.27512683  1
  Na  Na4  1  0.81563209  0.07358166  0.48679693  1
  Na  Na5  1  0.07358166  0.81563209  0.98679693  1
  Na  Na6  1  0.28112734  0.26878158  0.62935587  1
  Na  Na7  1  0.74389466  0.77227769  0.11783071  1
  Na  Na8  1  0.26878158  0.28112734  0.12935587  1
  Na  Na9  1  0.24252156  0.88721727  0.77512683  1
  Ca  Ca10  1  0.01442973  0.80002385  0.42881791  1
  Ca  Ca11  1  0.80002385  0.01442973  0.92881791  1
  Ca  Ca12  1  0.55140642  0.33144162  0.96996944  1
  Ca  Ca13  1  0.33144162  0.55140642  0.46996944  1
  Al  Al14  1  0.40813082  0.92625645  0.33304774  1
  Al  Al15  1  0.92625645  0.40813082  0.83304774  1
  P  P16  1  0.47212893  0.96808725  0.63104951  1
  P  P17  1  0.01445494  0.50271089  0.60480839  1
  P  P18  1  0.06815270  0.12927436  0.78419687  1
  P  P19  1  0.55443994  0.64318990  0.29036855  1
  P  P20  1  0.64318990  0.55443994  0.79036855  1
  P  P21  1  0.96808725  0.47212893  0.13104951  1
  P  P22  1  0.12927436  0.06815270  0.28419687  1
  P  P23  1  0.50271089  0.01445494  0.10480839  1
  O  O24  1  0.48062980  0.17490095  0.09353711  1
  O  O25  1  0.20167884  0.91974969  0.26152931  1
  O  O26  1  0.27431646  0.23344352  0.38588600  1
  O  O27  1  0.60740810  0.89785861  0.68606207  1
  O  O28  1  0.17490095  0.48062980  0.59353711  1
  O  O29  1  0.03779330  0.53430480  0.76860496  1
  O  O30  1  0.56721195  0.53165759  0.63226253  1
  O  O31  1  0.04588079  0.51027659  0.02304120  1
  O  O32  1  0.45920553  0.09949451  0.75525404  1
  O  O33  1  0.50985309  0.51293118  0.84921003  1
  O  O34  1  0.66109494  0.99357515  0.08500421  1
  O  O35  1  0.73010249  0.77695659  0.38734436  1
  O  O36  1  0.23344352  0.27431646  0.88588600  1
  O  O37  1  0.72794533  0.41869254  0.79495378  1
  O  O38  1  -0.00101369  0.02410770  0.34631154  1
  O  O39  1  0.53165759  0.56721195  0.13226253  1
  O  O40  1  0.02410770  -0.00101369  0.84631154  1
  O  O41  1  0.77695659  0.73010249  0.88734436  1
  O  O42  1  0.51027659  0.04588079  0.52304120  1
  O  O43  1  0.29988367  0.82272868  0.54115870  1
  O  O44  1  0.06669162  0.04368094  0.63369937  1
  O  O45  1  0.89785861  0.60740810  0.18606207  1
  O  O46  1  0.82272868  0.29988367  0.04115870  1
  O  O47  1  0.99357515  0.66109494  0.58500421  1
  O  O48  1  0.91974969  0.20167884  0.76152931  1
  O  O49  1  0.41869254  0.72794533  0.29495378  1
  O  O50  1  0.34605228  0.86002218  0.00082625  1
  O  O51  1  0.04368094  0.06669162  0.13369937  1
  O  O52  1  0.86002218  0.34605228  0.50082625  1
  O  O53  1  0.09949451  0.45920553  0.25525404  1
  O  O54  1  0.53430480  0.03779330  0.26860496  1
  O  O55  1  0.51293118  0.50985309  0.34921003  1
