# generated using pymatgen
data_Nd3Si2ClO8
_symmetry_space_group_name_H-M   'P 1'
_cell_length_a   6.38213954
_cell_length_b   7.17106630
_cell_length_c   18.34258559
_cell_angle_alpha   90.00000000
_cell_angle_beta   90.00000000
_cell_angle_gamma   90.00000000
_symmetry_Int_Tables_number   1
_chemical_formula_structural   Nd3Si2ClO8
_chemical_formula_sum   'Nd12 Si8 Cl4 O32'
_cell_volume   839.48045159
_cell_formula_units_Z   4
loop_
 _symmetry_equiv_pos_site_id
 _symmetry_equiv_pos_as_xyz
  1  'x, y, z'
loop_
 _atom_site_type_symbol
 _atom_site_label
 _atom_site_symmetry_multiplicity
 _atom_site_fract_x
 _atom_site_fract_y
 _atom_site_fract_z
 _atom_site_occupancy
  Nd  Nd0  1  0.87419967  0.97484895  0.59074819  1
  Nd  Nd1  1  0.62580033  0.47484895  0.59074819  1
  Nd  Nd2  1  0.12580033  0.02515105  0.09074819  1
  Nd  Nd3  1  0.12580033  0.02515105  0.40925181  1
  Nd  Nd4  1  0.38336749  0.19061614  0.75000000  1
  Nd  Nd5  1  0.88336749  0.30938386  0.25000000  1
  Nd  Nd6  1  0.37419967  0.52515105  0.09074819  1
  Nd  Nd7  1  0.37419967  0.52515105  0.40925181  1
  Nd  Nd8  1  0.61663251  0.80938386  0.25000000  1
  Nd  Nd9  1  0.11663251  0.69061614  0.75000000  1
  Nd  Nd10  1  0.62580033  0.47484895  0.90925181  1
  Nd  Nd11  1  0.87419967  0.97484895  0.90925181  1
  Si  Si12  1  0.12005928  0.46538940  0.59995377  1
  Si  Si13  1  0.37994072  0.96538940  0.90004623  1
  Si  Si14  1  0.87994072  0.53461060  0.09995377  1
  Si  Si15  1  0.62005928  0.03461060  0.40004623  1
  Si  Si16  1  0.37994072  0.96538940  0.59995377  1
  Si  Si17  1  0.62005928  0.03461060  0.09995377  1
  Si  Si18  1  0.87994072  0.53461060  0.40004623  1
  Si  Si19  1  0.12005928  0.46538940  0.90004623  1
  Cl  Cl20  1  0.76424904  0.94383491  0.75000000  1
  Cl  Cl21  1  0.23575096  0.05616509  0.25000000  1
  Cl  Cl22  1  0.26424904  0.55616509  0.25000000  1
  Cl  Cl23  1  0.73575096  0.44383491  0.75000000  1
  O  O24  1  0.04957203  0.70420916  0.09465869  1
  O  O25  1  0.97094953  0.65019318  0.61874855  1
  O  O26  1  0.21748175  0.98142491  0.53146118  1
  O  O27  1  0.95042797  0.29579084  0.59465869  1
  O  O28  1  0.27320635  0.45107105  0.82589243  1
  O  O29  1  0.27320635  0.45107105  0.67410757  1
  O  O30  1  0.22679365  0.95107105  0.82589243  1
  O  O31  1  0.72679365  0.54892895  0.17410757  1
  O  O32  1  0.52905047  0.15019318  0.61874855  1
  O  O33  1  0.54957203  0.79579084  0.59465869  1
  O  O34  1  0.71748175  0.51857509  0.46853882  1
  O  O35  1  0.45042797  0.20420916  0.40534131  1
  O  O36  1  0.28251825  0.48142491  0.53146118  1
  O  O37  1  0.28251825  0.48142491  0.96853882  1
  O  O38  1  0.54957203  0.79579084  0.90534131  1
  O  O39  1  0.52905047  0.15019318  0.88125145  1
  O  O40  1  0.47094953  0.84980682  0.38125145  1
  O  O41  1  0.97094953  0.65019318  0.88125145  1
  O  O42  1  0.22679365  0.95107105  0.67410757  1
  O  O43  1  0.77320635  0.04892895  0.17410757  1
  O  O44  1  0.77320635  0.04892895  0.32589243  1
  O  O45  1  0.02905047  0.34980682  0.38125145  1
  O  O46  1  0.71748175  0.51857509  0.03146118  1
  O  O47  1  0.47094953  0.84980682  0.11874855  1
  O  O48  1  0.78251825  0.01857509  0.03146118  1
  O  O49  1  0.95042797  0.29579084  0.90534131  1
  O  O50  1  0.21748175  0.98142491  0.96853882  1
  O  O51  1  0.04957203  0.70420916  0.40534131  1
  O  O52  1  0.78251825  0.01857509  0.46853882  1
  O  O53  1  0.72679365  0.54892895  0.32589243  1
  O  O54  1  0.45042797  0.20420916  0.09465869  1
  O  O55  1  0.02905047  0.34980682  0.11874855  1
