# generated using pymatgen
data_CaAlBO4
_symmetry_space_group_name_H-M   'P 1'
_cell_length_a   5.80488300
_cell_length_b   8.35997663
_cell_length_c   8.75989799
_cell_angle_alpha   118.50093931
_cell_angle_beta   90.00000000
_cell_angle_gamma   90.00000000
_symmetry_Int_Tables_number   1
_chemical_formula_structural   CaAlBO4
_chemical_formula_sum   'Ca4 Al4 B4 O16'
_cell_volume   373.58740167
_cell_formula_units_Z   4
loop_
 _symmetry_equiv_pos_site_id
 _symmetry_equiv_pos_as_xyz
  1  'x, y, z'
loop_
 _atom_site_type_symbol
 _atom_site_label
 _atom_site_symmetry_multiplicity
 _atom_site_fract_x
 _atom_site_fract_y
 _atom_site_fract_z
 _atom_site_occupancy
  Ca  Ca0  1  0.00320634  0.95063168  0.18641144  1
  Ca  Ca1  1  0.50320634  0.76422024  0.81358856  1
  Ca  Ca2  1  0.00320634  0.04936832  0.81358856  1
  Ca  Ca3  1  0.50320634  0.23577976  0.18641144  1
  Al  Al4  1  0.73677231  0.28528793  0.58900343  1
  Al  Al5  1  0.73677231  0.71471207  0.41099657  1
  Al  Al6  1  0.23677231  0.69628449  0.41099657  1
  Al  Al7  1  0.23677231  0.30371551  0.58900343  1
  B  B8  1  0.47800953  0.15366582  0.78012308  1
  B  B9  1  0.97800953  0.62645726  0.78012308  1
  B  B10  1  0.97800953  0.37354274  0.21987692  1
  B  B11  1  0.47800953  0.84633418  0.21987692  1
  O  O12  1  0.77686971  0.47687049  0.26791096  1
  O  O13  1  0.98904679  0.79797846  0.53289873  1
  O  O14  1  0.19309999  0.45553422  0.27457831  1
  O  O15  1  0.19309999  0.54446578  0.72542169  1
  O  O16  1  0.69309999  0.18095592  0.72542169  1
  O  O17  1  0.69309999  0.81904408  0.27457831  1
  O  O18  1  0.48904679  0.73492027  0.53289873  1
  O  O19  1  0.45669534  0.92653887  0.11588077  1
  O  O20  1  0.27686971  0.20895952  0.73208904  1
  O  O21  1  0.98904679  0.20202154  0.46710127  1
  O  O22  1  0.45669534  0.07346113  0.88411923  1
  O  O23  1  0.48904679  0.26507973  0.46710127  1
  O  O24  1  0.95669534  0.81065810  0.88411923  1
  O  O25  1  0.77686971  0.52312951  0.73208904  1
  O  O26  1  0.27686971  0.79104048  0.26791096  1
  O  O27  1  0.95669534  0.18934190  0.11588077  1
