# generated using pymatgen
data_NaAs4BrO6
_symmetry_space_group_name_H-M   'P 1'
_cell_length_a   5.32698555
_cell_length_b   8.21356853
_cell_length_c   19.58551807
_cell_angle_alpha   90.00000000
_cell_angle_beta   90.00000000
_cell_angle_gamma   90.00000000
_symmetry_Int_Tables_number   1
_chemical_formula_structural   NaAs4BrO6
_chemical_formula_sum   'Na4 As16 Br4 O24'
_cell_volume   856.93615711
_cell_formula_units_Z   4
loop_
 _symmetry_equiv_pos_site_id
 _symmetry_equiv_pos_as_xyz
  1  'x, y, z'
loop_
 _atom_site_type_symbol
 _atom_site_label
 _atom_site_symmetry_multiplicity
 _atom_site_fract_x
 _atom_site_fract_y
 _atom_site_fract_z
 _atom_site_occupancy
  Na  Na0  1  0.75000000  0.39888465  0.55659486  1
  Na  Na1  1  0.25000000  0.89888465  0.94340514  1
  Na  Na2  1  0.75000000  0.10111535  0.05659486  1
  Na  Na3  1  0.25000000  0.60111535  0.44340514  1
  As  As4  1  0.75000000  0.40807647  0.17776957  1
  As  As5  1  0.25000000  0.66309450  0.61455451  1
  As  As6  1  0.75000000  0.09192353  0.67776957  1
  As  As7  1  0.25000000  0.83690550  0.11455451  1
  As  As8  1  0.25000000  0.90807647  0.32223043  1
  As  As9  1  0.75000000  0.70984901  0.33401289  1
  As  As10  1  0.25000000  0.15438925  0.45157106  1
  As  As11  1  0.75000000  0.79015099  0.83401289  1
  As  As12  1  0.75000000  0.16309450  0.88544549  1
  As  As13  1  0.25000000  0.59192353  0.82223043  1
  As  As14  1  0.75000000  0.33690550  0.38544549  1
  As  As15  1  0.25000000  0.29015099  0.66598711  1
  As  As16  1  0.25000000  0.34561075  0.95157106  1
  As  As17  1  0.75000000  0.65438925  0.04842894  1
  As  As18  1  0.25000000  0.20984901  0.16598711  1
  As  As19  1  0.75000000  0.84561075  0.54842894  1
  Br  Br20  1  0.75000000  0.00407757  0.21766425  1
  Br  Br21  1  0.25000000  0.99592243  0.78233575  1
  Br  Br22  1  0.25000000  0.50407757  0.28233575  1
  Br  Br23  1  0.75000000  0.49592243  0.71766425  1
  O  O24  1  0.99818270  0.30691395  0.45097749  1
  O  O25  1  0.50207639  0.17671695  0.62191482  1
  O  O26  1  0.49818270  0.69308605  0.54902251  1
  O  O27  1  0.99792361  0.17671695  0.62191482  1
  O  O28  1  0.75000000  0.61068700  0.13910378  1
  O  O29  1  0.50207639  0.32328305  0.12191482  1
  O  O30  1  0.25000000  0.38931300  0.86089622  1
  O  O31  1  0.50181730  0.30691395  0.45097749  1
  O  O32  1  0.75000000  0.55424643  0.40365778  1
  O  O33  1  0.49792361  0.82328305  0.37808518  1
  O  O34  1  0.00207639  0.82328305  0.37808518  1
  O  O35  1  0.49792361  0.67671695  0.87808518  1
  O  O36  1  0.75000000  0.94575357  0.90365778  1
  O  O37  1  0.25000000  0.11068700  0.36089622  1
  O  O38  1  0.25000000  0.44575357  0.59634222  1
  O  O39  1  0.25000000  0.05424643  0.09634222  1
  O  O40  1  0.00181730  0.80691395  0.04902251  1
  O  O41  1  0.00207639  0.67671695  0.87808518  1
  O  O42  1  0.00181730  0.69308605  0.54902251  1
  O  O43  1  0.49818270  0.80691395  0.04902251  1
  O  O44  1  0.50181730  0.19308605  0.95097749  1
  O  O45  1  0.75000000  0.88931300  0.63910378  1
  O  O46  1  0.99818270  0.19308605  0.95097749  1
  O  O47  1  0.99792361  0.32328305  0.12191482  1
