# generated using pymatgen
data_HoTeClO3
_symmetry_space_group_name_H-M   'P 1'
_cell_length_a   7.01111695
_cell_length_b   7.39180218
_cell_length_c   9.13794044
_cell_angle_alpha   90.00000000
_cell_angle_beta   90.00000000
_cell_angle_gamma   90.00000000
_symmetry_Int_Tables_number   1
_chemical_formula_structural   HoTeClO3
_chemical_formula_sum   'Ho4 Te4 Cl4 O12'
_cell_volume   473.57184027
_cell_formula_units_Z   4
loop_
 _symmetry_equiv_pos_site_id
 _symmetry_equiv_pos_as_xyz
  1  'x, y, z'
loop_
 _atom_site_type_symbol
 _atom_site_label
 _atom_site_symmetry_multiplicity
 _atom_site_fract_x
 _atom_site_fract_y
 _atom_site_fract_z
 _atom_site_occupancy
  Ho  Ho0  1  0.25000000  0.59307961  0.03626105  1
  Ho  Ho1  1  0.75000000  0.40692039  0.96373895  1
  Ho  Ho2  1  0.75000000  0.90692039  0.53626105  1
  Ho  Ho3  1  0.25000000  0.09307961  0.46373895  1
  Te  Te4  1  0.75000000  0.81672827  0.13077208  1
  Te  Te5  1  0.25000000  0.68327173  0.63077208  1
  Te  Te6  1  0.75000000  0.31672827  0.36922792  1
  Te  Te7  1  0.25000000  0.18327173  0.86922792  1
  Cl  Cl8  1  0.25000000  0.93153137  0.18687153  1
  Cl  Cl9  1  0.25000000  0.43153137  0.31312847  1
  Cl  Cl10  1  0.75000000  0.56846863  0.68687153  1
  Cl  Cl11  1  0.75000000  0.06846863  0.81312847  1
  O  O12  1  0.25000000  0.74206640  0.83017308  1
  O  O13  1  0.75000000  0.75793360  0.33017308  1
  O  O14  1  0.56598942  0.64453171  0.06462843  1
  O  O15  1  0.93401058  0.64453171  0.06462843  1
  O  O16  1  0.43401058  0.35546829  0.93537157  1
  O  O17  1  0.06598942  0.35546829  0.93537157  1
  O  O18  1  0.43401058  0.85546829  0.56462843  1
  O  O19  1  0.56598942  0.14453171  0.43537157  1
  O  O20  1  0.93401058  0.14453171  0.43537157  1
  O  O21  1  0.75000000  0.25793360  0.16982692  1
  O  O22  1  0.25000000  0.24206640  0.66982692  1
  O  O23  1  0.06598942  0.85546829  0.56462843  1
