# generated using pymatgen
data_LaSClO4
_symmetry_space_group_name_H-M   'P 1'
_cell_length_a   6.82492869
_cell_length_b   8.22704131
_cell_length_c   8.64233829
_cell_angle_alpha   90.00000000
_cell_angle_beta   112.40691988
_cell_angle_gamma   90.00000000
_symmetry_Int_Tables_number   1
_chemical_formula_structural   LaSClO4
_chemical_formula_sum   'La4 S4 Cl4 O16'
_cell_volume   448.62138859
_cell_formula_units_Z   4
loop_
 _symmetry_equiv_pos_site_id
 _symmetry_equiv_pos_as_xyz
  1  'x, y, z'
loop_
 _atom_site_type_symbol
 _atom_site_label
 _atom_site_symmetry_multiplicity
 _atom_site_fract_x
 _atom_site_fract_y
 _atom_site_fract_z
 _atom_site_occupancy
  La  La0  1  0.11019598  0.69248671  0.73130338  1
  La  La1  1  0.61019598  0.80751329  0.23130338  1
  La  La2  1  0.38980402  0.19248671  0.76869662  1
  La  La3  1  0.88980402  0.30751329  0.26869662  1
  S  S4  1  0.20969592  0.91820561  0.43395107  1
  S  S5  1  0.70969592  0.58179439  0.93395107  1
  S  S6  1  0.29030408  0.41820561  0.06604893  1
  S  S7  1  0.79030408  0.08179439  0.56604893  1
  Cl  Cl8  1  0.75723802  0.03602649  0.03109741  1
  Cl  Cl9  1  0.25723802  0.46397351  0.53109741  1
  Cl  Cl10  1  0.24276198  0.96397351  0.96890259  1
  Cl  Cl11  1  0.74276198  0.53602649  0.46890259  1
  O  O12  1  0.13723293  0.34905647  0.12949353  1
  O  O13  1  0.69961803  0.08798557  0.37577349  1
  O  O14  1  0.83326111  0.90868059  0.61491724  1
  O  O15  1  0.63723293  0.15094353  0.62949353  1
  O  O16  1  0.98673304  0.18137744  0.62005621  1
  O  O17  1  0.01326696  0.81862256  0.37994379  1
  O  O18  1  0.33326111  0.59131941  0.11491724  1
  O  O19  1  0.86276707  0.65094353  0.87050647  1
  O  O20  1  0.80038197  0.58798557  0.12422651  1
  O  O21  1  0.51326696  0.68137744  0.87994379  1
  O  O22  1  0.19961803  0.41201443  0.87577349  1
  O  O23  1  0.36276707  0.84905647  0.37050647  1
  O  O24  1  0.16673889  0.09131941  0.38508276  1
  O  O25  1  0.48673304  0.31862256  0.12005621  1
  O  O26  1  0.30038197  0.91201443  0.62422651  1
  O  O27  1  0.66673889  0.40868059  0.88508276  1
