# generated using pymatgen
data_Au2Se3O10
_symmetry_space_group_name_H-M   'P 1'
_cell_length_a   6.40896488
_cell_length_b   8.86195618
_cell_length_c   9.29309940
_cell_angle_alpha   90.00000000
_cell_angle_beta   110.17104503
_cell_angle_gamma   90.00000000
_symmetry_Int_Tables_number   1
_chemical_formula_structural   Au2Se3O10
_chemical_formula_sum   'Au4 Se6 O20'
_cell_volume   495.43856422
_cell_formula_units_Z   2
loop_
 _symmetry_equiv_pos_site_id
 _symmetry_equiv_pos_as_xyz
  1  'x, y, z'
loop_
 _atom_site_type_symbol
 _atom_site_label
 _atom_site_symmetry_multiplicity
 _atom_site_fract_x
 _atom_site_fract_y
 _atom_site_fract_z
 _atom_site_occupancy
  Au  Au0  1  0.36543938  0.81665824  0.68345007  1
  Au  Au1  1  0.63456062  0.31665824  0.31654993  1
  Au  Au2  1  0.31801069  0.31665824  0.68345007  1
  Au  Au3  1  0.68198931  0.81665824  0.31654993  1
  Se  Se4  1  0.35620538  0.96016296  0.00000000  1
  Se  Se5  1  0.13291092  0.20225169  0.32810355  1
  Se  Se6  1  0.19519262  0.70225169  0.32810355  1
  Se  Se7  1  0.64379462  0.46016296  1.00000000  1
  Se  Se8  1  0.80480738  0.20225169  0.67189645  1
  Se  Se9  1  0.86708908  0.70225169  0.67189645  1
  O  O10  1  0.00910184  0.33899390  0.69431103  1
  O  O11  1  0.71860615  0.15050392  0.47779791  1
  O  O12  1  0.95513848  0.35015110  0.33651066  1
  O  O13  1  0.25834751  0.78935608  0.00000000  1
  O  O14  1  0.39403546  0.48279267  0.84410640  1
  O  O15  1  0.61862783  0.35015110  0.66348934  1
  O  O16  1  0.79567392  0.60867792  1.00000000  1
  O  O17  1  0.31479080  0.33899390  0.30568897  1
  O  O18  1  0.54992906  0.48279267  0.15589360  1
  O  O19  1  0.24080824  0.15050392  0.52220209  1
  O  O20  1  0.68520920  0.83899390  0.69431103  1
  O  O21  1  0.75919176  0.65050392  0.47779791  1
  O  O22  1  0.04486152  0.85015110  0.66348934  1
  O  O23  1  0.38137217  0.85015110  0.33651066  1
  O  O24  1  0.74165249  0.28935608  1.00000000  1
  O  O25  1  0.20432608  0.10867792  0.00000000  1
  O  O26  1  0.28139385  0.65050392  0.52220209  1
  O  O27  1  0.60596454  0.98279267  0.15589360  1
  O  O28  1  0.99089816  0.83899390  0.30568897  1
  O  O29  1  0.45007094  0.98279267  0.84410640  1
