# generated using pymatgen
data_Fe2(SO4)3
_symmetry_space_group_name_H-M   'P 1'
_cell_length_a   8.95828228
_cell_length_b   8.95828183
_cell_length_c   8.95828196
_cell_angle_alpha   55.47859943
_cell_angle_beta   55.47860146
_cell_angle_gamma   55.47860008
_symmetry_Int_Tables_number   1
_chemical_formula_structural   Fe2(SO4)3
_chemical_formula_sum   'Fe4 S6 O24'
_cell_volume   454.97532157
_cell_formula_units_Z   2
loop_
 _symmetry_equiv_pos_site_id
 _symmetry_equiv_pos_as_xyz
  1  'x, y, z'
loop_
 _atom_site_type_symbol
 _atom_site_label
 _atom_site_symmetry_multiplicity
 _atom_site_fract_x
 _atom_site_fract_y
 _atom_site_fract_z
 _atom_site_occupancy
  Fe  Fe0  1  0.14487849  0.14487849  0.14487849  1
  Fe  Fe1  1  0.85512151  0.85512151  0.85512151  1
  Fe  Fe2  1  0.34924992  0.34924992  0.34924992  1
  Fe  Fe3  1  0.65075008  0.65075008  0.65075008  1
  S  S4  1  0.54064841  0.24889821  0.96207670  1
  S  S5  1  0.96207670  0.54064841  0.24889821  1
  S  S6  1  0.24889821  0.96207670  0.54064841  1
  S  S7  1  0.45935159  0.75110179  0.03792330  1
  S  S8  1  0.03792330  0.45935159  0.75110179  1
  S  S9  1  0.75110179  0.03792330  0.45935159  1
  O  O10  1  0.38681926  0.20925394  0.98666848  1
  O  O11  1  0.98666848  0.38681926  0.20925394  1
  O  O12  1  0.20925394  0.98666848  0.38681926  1
  O  O13  1  0.61318074  0.79074606  0.01333152  1
  O  O14  1  0.01333152  0.61318074  0.79074606  1
  O  O15  1  0.79074606  0.01333152  0.61318074  1
  O  O16  1  0.52282179  0.21707445  0.15269758  1
  O  O17  1  0.15269758  0.52282179  0.21707445  1
  O  O18  1  0.21707445  0.15269758  0.52282179  1
  O  O19  1  0.47717821  0.78292555  0.84730242  1
  O  O20  1  0.84730242  0.47717821  0.78292555  1
  O  O21  1  0.78292555  0.84730242  0.47717821  1
  O  O22  1  0.73397481  0.11523280  0.87887103  1
  O  O23  1  0.87887103  0.73397481  0.11523280  1
  O  O24  1  0.11523280  0.87887103  0.73397481  1
  O  O25  1  0.26602519  0.88476720  0.12112897  1
  O  O26  1  0.12112897  0.26602519  0.88476720  1
  O  O27  1  0.88476720  0.12112897  0.26602519  1
  O  O28  1  0.52088447  0.45256497  0.82740749  1
  O  O29  1  0.82740749  0.52088447  0.45256497  1
  O  O30  1  0.45256497  0.82740749  0.52088447  1
  O  O31  1  0.47911553  0.54743503  0.17259251  1
  O  O32  1  0.17259251  0.47911553  0.54743503  1
  O  O33  1  0.54743503  0.17259251  0.47911553  1
