# generated using pymatgen
data_InSb2S4Br
_symmetry_space_group_name_H-M   'P 1'
_cell_length_a   3.91280098
_cell_length_b   10.51330186
_cell_length_c   11.45243110
_cell_angle_alpha   66.93726428
_cell_angle_beta   80.16401280
_cell_angle_gamma   79.27542013
_symmetry_Int_Tables_number   1
_chemical_formula_structural   InSb2S4Br
_chemical_formula_sum   'In2 Sb4 S8 Br2'
_cell_volume   423.38193483
_cell_formula_units_Z   2
loop_
 _symmetry_equiv_pos_site_id
 _symmetry_equiv_pos_as_xyz
  1  'x, y, z'
loop_
 _atom_site_type_symbol
 _atom_site_label
 _atom_site_symmetry_multiplicity
 _atom_site_fract_x
 _atom_site_fract_y
 _atom_site_fract_z
 _atom_site_occupancy
  In  In0  1  0.66382108  0.10595961  0.56639824  1
  In  In1  1  0.33617892  0.89404039  0.43360176  1
  Sb  Sb2  1  0.29341055  0.31912382  0.09405507  1
  Sb  Sb3  1  0.95176594  0.31200388  0.78446423  1
  Sb  Sb4  1  0.04823406  0.68799612  0.21553577  1
  Sb  Sb5  1  0.70658945  0.68087618  0.90594493  1
  S  S6  1  0.68073525  0.50843165  0.13009785  1
  S  S7  1  0.10390602  0.81486647  0.97732148  1
  S  S8  1  0.21170311  0.92712591  0.64946788  1
  S  S9  1  0.53443035  0.14541247  0.78572683  1
  S  S10  1  0.78829689  0.07287409  0.35053212  1
  S  S11  1  0.46556965  0.85458753  0.21427317  1
  S  S12  1  0.31926475  0.49156835  0.86990215  1
  S  S13  1  0.89609398  0.18513353  0.02267852  1
  Br  Br14  1  0.89764300  0.67753972  0.52717429  1
  Br  Br15  1  0.10235700  0.32246028  0.47282571  1
