# generated using pymatgen
data_NaLa(CO3)2
_symmetry_space_group_name_H-M   'P 1'
_cell_length_a   5.21558039
_cell_length_b   6.50422885
_cell_length_c   7.28392682
_cell_angle_alpha   90.00000000
_cell_angle_beta   90.00000000
_cell_angle_gamma   90.00000000
_symmetry_Int_Tables_number   1
_chemical_formula_structural   NaLa(CO3)2
_chemical_formula_sum   'Na2 La2 C4 O12'
_cell_volume   247.09504186
_cell_formula_units_Z   2
loop_
 _symmetry_equiv_pos_site_id
 _symmetry_equiv_pos_as_xyz
  1  'x, y, z'
loop_
 _atom_site_type_symbol
 _atom_site_label
 _atom_site_symmetry_multiplicity
 _atom_site_fract_x
 _atom_site_fract_y
 _atom_site_fract_z
 _atom_site_occupancy
  Na  Na0  1  0.50000000  0.01729998  0.70254868  1
  Na  Na1  1  0.50000000  0.98270002  0.20254868  1
  La  La2  1  0.00000000  0.63230288  0.50297863  1
  La  La3  1  0.00000000  0.36769712  0.00297863  1
  C  C4  1  0.50000000  0.53388573  0.17402566  1
  C  C5  1  0.00000000  0.91866824  0.91742528  1
  C  C6  1  0.50000000  0.46611427  0.67402566  1
  C  C7  1  0.00000000  0.08133176  0.41742528  1
  O  O8  1  0.50000000  0.35898868  0.08888606  1
  O  O9  1  0.50000000  0.64101132  0.58888606  1
  O  O10  1  0.78818020  0.98638103  0.45436264  1
  O  O11  1  0.71808629  0.37881668  0.71081289  1
  O  O12  1  0.71808629  0.62118332  0.21081289  1
  O  O13  1  0.21181980  0.98638103  0.45436264  1
  O  O14  1  0.00000000  0.73774190  0.83978462  1
  O  O15  1  0.21181980  0.01361897  0.95436264  1
  O  O16  1  0.28191371  0.37881668  0.71081289  1
  O  O17  1  0.28191371  0.62118332  0.21081289  1
  O  O18  1  0.00000000  0.26225810  0.33978462  1
  O  O19  1  0.78818020  0.01361897  0.95436264  1
