# generated using pymatgen
data_Rb3CrF7
_symmetry_space_group_name_H-M   'P 1'
_cell_length_a   6.04437948
_cell_length_b   8.22464070
_cell_length_c   8.22464070
_cell_angle_alpha   90.00000000
_cell_angle_beta   90.00000000
_cell_angle_gamma   90.00000000
_symmetry_Int_Tables_number   1
_chemical_formula_structural   Rb3CrF7
_chemical_formula_sum   'Rb6 Cr2 F14'
_cell_volume   408.87032513
_cell_formula_units_Z   2
loop_
 _symmetry_equiv_pos_site_id
 _symmetry_equiv_pos_as_xyz
  1  'x, y, z'
loop_
 _atom_site_type_symbol
 _atom_site_label
 _atom_site_symmetry_multiplicity
 _atom_site_fract_x
 _atom_site_fract_y
 _atom_site_fract_z
 _atom_site_occupancy
  Rb  Rb0  1  0.50000000  0.69188175  0.19188175  1
  Rb  Rb1  1  0.50000000  0.80811825  0.69188175  1
  Rb  Rb2  1  0.50000000  0.19188175  0.30811825  1
  Rb  Rb3  1  0.50000000  0.30811825  0.80811825  1
  Rb  Rb4  1  0.00000000  0.50000000  0.50000000  1
  Rb  Rb5  1  0.00000000  0.00000000  0.00000000  1
  Cr  Cr6  1  0.00000000  0.50000000  0.00000000  1
  Cr  Cr7  1  0.00000000  0.00000000  0.50000000  1
  F  F8  1  0.77673856  0.88860683  0.38860683  1
  F  F9  1  0.77673856  0.11139317  0.61139317  1
  F  F10  1  0.77673856  0.38860683  0.11139317  1
  F  F11  1  0.77673856  0.61139317  0.88860683  1
  F  F12  1  0.22326144  0.88860683  0.38860683  1
  F  F13  1  0.22326144  0.61139317  0.88860683  1
  F  F14  1  0.22326144  0.38860683  0.11139317  1
  F  F15  1  0.22326144  0.11139317  0.61139317  1
  F  F16  1  0.50000000  0.00000000  0.00000000  1
  F  F17  1  0.50000000  0.50000000  0.50000000  1
  F  F18  1  0.00000000  0.34094931  0.84094931  1
  F  F19  1  0.00000000  0.15905069  0.34094931  1
  F  F20  1  0.00000000  0.84094931  0.65905069  1
  F  F21  1  0.00000000  0.65905069  0.15905069  1
