# generated using pymatgen
data_Li5SbS3I2
_symmetry_space_group_name_H-M   'P 1'
_cell_length_a   7.61569033
_cell_length_b   10.48105777
_cell_length_c   13.58059281
_cell_angle_alpha   90.00000000
_cell_angle_beta   90.00000000
_cell_angle_gamma   90.00000000
_symmetry_Int_Tables_number   1
_chemical_formula_structural   Li5SbS3I2
_chemical_formula_sum   'Li20 Sb4 S12 I8'
_cell_volume   1084.00957676
_cell_formula_units_Z   4
loop_
 _symmetry_equiv_pos_site_id
 _symmetry_equiv_pos_as_xyz
  1  'x, y, z'
loop_
 _atom_site_type_symbol
 _atom_site_label
 _atom_site_symmetry_multiplicity
 _atom_site_fract_x
 _atom_site_fract_y
 _atom_site_fract_z
 _atom_site_occupancy
  Li  Li0  1  0.23070015  0.06120691  0.09777448  1
  Li  Li1  1  0.26929985  0.56120691  0.40222552  1
  Li  Li2  1  0.50000000  0.31306807  0.96153760  1
  Li  Li3  1  0.73070015  0.56120691  0.40222552  1
  Li  Li4  1  0.24322658  0.30465724  0.25165625  1
  Li  Li5  1  0.76929985  0.93879309  0.90222552  1
  Li  Li6  1  0.50000000  0.68693193  0.03846240  1
  Li  Li7  1  0.75677342  0.30465724  0.25165625  1
  Li  Li8  1  0.75677342  0.69534276  0.74834375  1
  Li  Li9  1  0.26929985  0.43879309  0.59777448  1
  Li  Li10  1  0.76929985  0.06120691  0.09777448  1
  Li  Li11  1  0.25677342  0.19534276  0.75165625  1
  Li  Li12  1  0.25677342  0.80465724  0.24834375  1
  Li  Li13  1  0.24322658  0.69534276  0.74834375  1
  Li  Li14  1  0.00000000  0.18693193  0.46153760  1
  Li  Li15  1  0.23070015  0.93879309  0.90222552  1
  Li  Li16  1  0.74322658  0.80465724  0.24834375  1
  Li  Li17  1  0.74322658  0.19534276  0.75165625  1
  Li  Li18  1  0.00000000  0.81306807  0.53846240  1
  Li  Li19  1  0.73070015  0.43879309  0.59777448  1
  Sb  Sb20  1  0.00000000  0.30053845  0.99346257  1
  Sb  Sb21  1  0.50000000  0.80053845  0.50653743  1
  Sb  Sb22  1  0.50000000  0.19946155  0.49346257  1
  Sb  Sb23  1  0.00000000  0.69946155  0.00653743  1
  S  S24  1  0.00000000  0.79896250  0.84035764  1
  S  S25  1  0.74918265  0.67164085  0.56695207  1
  S  S26  1  0.24918265  0.17164085  0.93304793  1
  S  S27  1  0.75081735  0.17164085  0.93304793  1
  S  S28  1  0.50000000  0.70103750  0.34035764  1
  S  S29  1  0.74918265  0.32835915  0.43304793  1
  S  S30  1  0.50000000  0.29896250  0.65964236  1
  S  S31  1  0.75081735  0.82835915  0.06695207  1
  S  S32  1  0.24918265  0.82835915  0.06695207  1
  S  S33  1  0.25081735  0.67164085  0.56695207  1
  S  S34  1  0.00000000  0.20103750  0.15964236  1
  S  S35  1  0.25081735  0.32835915  0.43304793  1
  I  I36  1  0.00000000  0.42967026  0.73750490  1
  I  I37  1  0.00000000  0.94176401  0.35776641  1
  I  I38  1  0.00000000  0.05823599  0.64223359  1
  I  I39  1  0.50000000  0.07032974  0.23750490  1
  I  I40  1  0.50000000  0.92967026  0.76249510  1
  I  I41  1  0.50000000  0.55823599  0.85776641  1
  I  I42  1  0.00000000  0.57032974  0.26249510  1
  I  I43  1  0.50000000  0.44176401  0.14223359  1
