# generated using pymatgen
data_Na3(CuO2)2
_symmetry_space_group_name_H-M   'P 1'
_cell_length_a   5.72407055
_cell_length_b   8.16156790
_cell_length_c   11.14097236
_cell_angle_alpha   90.00000000
_cell_angle_beta   90.00000000
_cell_angle_gamma   108.25796291
_symmetry_Int_Tables_number   1
_chemical_formula_structural   Na3(CuO2)2
_chemical_formula_sum   'Na12 Cu8 O16'
_cell_volume   494.27404201
_cell_formula_units_Z   4
loop_
 _symmetry_equiv_pos_site_id
 _symmetry_equiv_pos_as_xyz
  1  'x, y, z'
loop_
 _atom_site_type_symbol
 _atom_site_label
 _atom_site_symmetry_multiplicity
 _atom_site_fract_x
 _atom_site_fract_y
 _atom_site_fract_z
 _atom_site_occupancy
  Na  Na0  1  0.19154942  0.05176336  0.89912980  1
  Na  Na1  1  0.27066492  0.38138741  0.79447767  1
  Na  Na2  1  0.30845058  0.44823664  0.39912980  1
  Na  Na3  1  0.69154942  0.55176336  0.60087020  1
  Na  Na4  1  0.77066492  0.88138741  0.70552233  1
  Na  Na5  1  0.72933508  0.61861259  0.20552233  1
  Na  Na6  1  0.27348914  0.38210116  0.07869699  1
  Na  Na7  1  0.80845058  0.94823664  0.10087020  1
  Na  Na8  1  0.22651086  0.11789884  0.57869699  1
  Na  Na9  1  0.22933508  0.11861259  0.29447767  1
  Na  Na10  1  0.72651086  0.61789884  0.92130301  1
  Na  Na11  1  0.77348914  0.88210116  0.42130301  1
  Cu  Cu12  1  0.73964002  0.23927223  0.82664320  1
  Cu  Cu13  1  0.23964002  0.73927223  0.67335680  1
  Cu  Cu14  1  0.76000815  0.23035646  0.57528918  1
  Cu  Cu15  1  0.76035998  0.26072777  0.32664320  1
  Cu  Cu16  1  0.26035998  0.76072777  0.17335680  1
  Cu  Cu17  1  0.73999185  0.26964354  0.07528918  1
  Cu  Cu18  1  0.26000815  0.73035646  0.92471082  1
  Cu  Cu19  1  0.23999185  0.76964354  0.42471082  1
  O  O20  1  0.44406376  0.72244599  0.30322740  1
  O  O21  1  0.56466389  0.29081206  0.45520799  1
  O  O22  1  0.94406376  0.22244599  0.19677260  1
  O  O23  1  0.05593624  0.77755401  0.80322740  1
  O  O24  1  0.56410020  0.32404264  0.20729664  1
  O  O25  1  0.54399531  0.30613583  0.94454207  1
  O  O26  1  0.95600469  0.19386417  0.44454207  1
  O  O27  1  0.55593624  0.27755401  0.69677260  1
  O  O28  1  0.43533611  0.70918794  0.54479201  1
  O  O29  1  0.93589980  0.17595736  0.70729664  1
  O  O30  1  0.45600469  0.69386417  0.05545793  1
  O  O31  1  0.43589980  0.67595736  0.79270336  1
  O  O32  1  0.93533611  0.20918794  0.95520799  1
  O  O33  1  0.06466389  0.79081206  0.04479201  1
  O  O34  1  0.04399531  0.80613583  0.55545793  1
  O  O35  1  0.06410020  0.82404264  0.29270336  1
