# generated using pymatgen
data_MnF4
_symmetry_space_group_name_H-M   'P 1'
_cell_length_a   6.29574087
_cell_length_b   9.62864468
_cell_length_c   9.62879098
_cell_angle_alpha   83.86551009
_cell_angle_beta   70.92709468
_cell_angle_gamma   70.91351050
_symmetry_Int_Tables_number   1
_chemical_formula_structural   MnF4
_chemical_formula_sum   'Mn8 F32'
_cell_volume   521.32305800
_cell_formula_units_Z   8
loop_
 _symmetry_equiv_pos_site_id
 _symmetry_equiv_pos_as_xyz
  1  'x, y, z'
loop_
 _atom_site_type_symbol
 _atom_site_label
 _atom_site_symmetry_multiplicity
 _atom_site_fract_x
 _atom_site_fract_y
 _atom_site_fract_z
 _atom_site_occupancy
  Mn  Mn0  1  0.61867716  0.23940609  0.49956146  1
  Mn  Mn1  1  0.11817769  0.00042323  0.23937252  1
  Mn  Mn2  1  0.35811639  0.49955060  0.26057016  1
  Mn  Mn3  1  0.35766750  0.26057931  0.00048577  1
  Mn  Mn4  1  0.38132284  0.76059391  0.50043854  1
  Mn  Mn5  1  0.88182231  0.99957677  0.76062748  1
  Mn  Mn6  1  0.64188361  0.50045040  0.73942984  1
  Mn  Mn7  1  0.64233250  0.73942069  0.99951423  1
  F  F8  1  0.66715074  0.09113701  0.64277543  1
  F  F9  1  0.30987166  0.85738310  0.09094056  1
  F  F10  1  0.25826589  0.64269092  0.40890564  1
  F  F11  1  0.40093339  0.40892049  0.85731079  1
  F  F12  1  0.33284926  0.90886299  0.35722457  1
  F  F13  1  0.69012834  0.14261690  0.90905944  1
  F  F14  1  0.74173411  0.35730908  0.59109436  1
  F  F15  1  0.59906661  0.59107951  0.14268921  1
  F  F16  1  0.66070485  0.88501261  0.85184090  1
  F  F17  1  0.51237307  0.64813338  0.88503853  1
  F  F18  1  0.04562191  0.85198522  0.61490313  1
  F  F19  1  0.39742722  0.61501175  0.64813142  1
  F  F20  1  0.33929515  0.11498739  0.14815910  1
  F  F21  1  0.48762693  0.35186662  0.11496147  1
  F  F22  1  0.95437809  0.14801478  0.38509687  1
  F  F23  1  0.60257278  0.38498825  0.35186858  1
  F  F24  1  0.33373911  0.32959779  0.61024164  1
  F  F25  1  0.94407828  0.88962118  0.32942421  1
  F  F26  1  0.16330340  0.61029752  0.17044492  1
  F  F27  1  0.27359591  0.17040333  0.88974010  1
  F  F28  1  0.66626089  0.67040221  0.38975836  1
  F  F29  1  0.05592172  0.11037882  0.67057579  1
  F  F30  1  0.83669660  0.38970248  0.82955508  1
  F  F31  1  0.72640409  0.82959667  0.11025990  1
  F  F32  1  0.53172813  0.13104988  0.40848666  1
  F  F33  1  0.94004402  0.09164808  0.13111585  1
  F  F34  1  0.16292185  0.40840495  0.36885700  1
  F  F35  1  0.07132184  0.36891946  0.09156030  1
  F  F36  1  0.46827187  0.86895012  0.59151334  1
  F  F37  1  0.05995598  0.90835192  0.86888415  1
  F  F38  1  0.83707815  0.59159505  0.63114300  1
  F  F39  1  0.92867816  0.63108054  0.90843970  1
