# generated using pymatgen
data_NaLi3SiO4
_symmetry_space_group_name_H-M   'P 1'
_cell_length_a   10.01527046
_cell_length_b   10.01527067
_cell_length_c   10.01527047
_cell_angle_alpha   100.70363232
_cell_angle_beta   114.02502077
_cell_angle_gamma   114.02502034
_symmetry_Int_Tables_number   1
_chemical_formula_structural   NaLi3SiO4
_chemical_formula_sum   'Na8 Li24 Si8 O32'
_cell_volume   760.05142311
_cell_formula_units_Z   8
loop_
 _symmetry_equiv_pos_site_id
 _symmetry_equiv_pos_as_xyz
  1  'x, y, z'
loop_
 _atom_site_type_symbol
 _atom_site_label
 _atom_site_symmetry_multiplicity
 _atom_site_fract_x
 _atom_site_fract_y
 _atom_site_fract_z
 _atom_site_occupancy
  Na  Na0  1  0.76406913  0.18331126  0.89016994  1
  Na  Na1  1  0.73593087  0.62610081  0.41924213  1
  Na  Na2  1  0.20685868  0.08075787  0.31668874  1
  Na  Na3  1  0.23593087  0.81668874  0.10983006  1
  Na  Na4  1  0.70685868  0.39016994  0.12610081  1
  Na  Na5  1  0.79314132  0.91924213  0.68331126  1
  Na  Na6  1  0.29314132  0.60983006  0.87389919  1
  Na  Na7  1  0.26406913  0.37389919  0.58075787  1
  Li  Li8  1  0.43996788  0.47306861  0.09340389  1
  Li  Li9  1  0.07144232  0.64770028  0.53550812  1
  Li  Li10  1  0.92855768  0.35229972  0.46449188  1
  Li  Li11  1  0.61713551  0.79391987  0.17943632  1
  Li  Li12  1  0.38780784  0.92374204  0.85229972  1
  Li  Li13  1  0.93996788  0.84656400  0.96689928  1
  Li  Li14  1  0.37966472  0.40659611  0.34656400  1
  Li  Li15  1  0.12033528  0.46689928  0.02693139  1
  Li  Li16  1  0.87966472  0.53310072  0.97306861  1
  Li  Li17  1  0.11448354  0.67678436  0.29391987  1
  Li  Li18  1  0.42855768  0.96406581  0.57625796  1
  Li  Li19  1  0.06003212  0.15343600  0.03310072  1
  Li  Li20  1  0.11219216  0.96449188  0.53593419  1
  Li  Li21  1  0.62033528  0.59340389  0.65343600  1
  Li  Li22  1  0.61448354  0.32056368  0.43769919  1
  Li  Li23  1  0.88286449  0.06230081  0.17678436  1
  Li  Li24  1  0.88780784  0.03550812  0.46406581  1
  Li  Li25  1  0.56003212  0.52693139  0.90659611  1
  Li  Li26  1  0.61219216  0.07625796  0.14770028  1
  Li  Li27  1  0.57144232  0.03593419  0.42374204  1
  Li  Li28  1  0.11713551  0.93769919  0.82321564  1
  Li  Li29  1  0.88551646  0.32321564  0.70608013  1
  Li  Li30  1  0.38551646  0.67943632  0.56230081  1
  Li  Li31  1  0.38286449  0.20608013  0.82056368  1
  Si  Si32  1  0.89269966  0.76637095  0.23661412  1
  Si  Si33  1  0.60730034  0.84391446  0.87367129  1
  Si  Si34  1  0.97024317  0.62632871  0.73362905  1
  Si  Si35  1  0.47024317  0.73661412  0.34391446  1
  Si  Si36  1  0.39269966  0.15608554  0.12632871  1
  Si  Si37  1  0.10730034  0.23362905  0.76338588  1
  Si  Si38  1  0.02975683  0.37367129  0.26637095  1
  Si  Si39  1  0.52975683  0.26338588  0.65608554  1
  O  O40  1  0.65857492  0.89332409  0.39912750  1
  O  O41  1  0.43649242  0.12560025  0.98501313  1
  O  O42  1  0.47461261  0.34964245  0.22239401  1
  O  O43  1  0.85941287  0.48501313  0.54852071  1
  O  O44  1  0.37275156  0.62497016  0.15035755  1
  O  O45  1  0.06350758  0.04852071  0.68910783  1
  O  O46  1  0.68264830  0.63228044  0.14272858  1
  O  O47  1  0.12724844  0.27760599  0.25221860  1
  O  O48  1  0.00580340  0.26525082  0.60667591  1
  O  O49  1  0.52538739  0.65035755  0.77760599  1
  O  O50  1  0.98955186  0.44963214  0.13228044  1
  O  O51  1  0.48955186  0.35727142  0.53991972  1
  O  O52  1  0.31735170  0.36771956  0.85727142  1
  O  O53  1  0.18264830  0.03991972  0.05036786  1
  O  O54  1  0.64058713  0.18910783  0.62560025  1
  O  O55  1  0.02538739  0.24778140  0.87502984  1
  O  O56  1  0.34142508  0.10667591  0.60087250  1
  O  O57  1  0.14058713  0.51498687  0.45147929  1
  O  O58  1  0.97461261  0.75221860  0.12497016  1
  O  O59  1  0.99419660  0.73474918  0.39332409  1
  O  O60  1  0.01044814  0.55036786  0.86771956  1
  O  O61  1  0.87275156  0.72239401  0.74778140  1
  O  O62  1  0.62724844  0.37502984  0.84964245  1
  O  O63  1  0.15857492  0.75944742  0.76525082  1
  O  O64  1  0.84142508  0.24055258  0.23474918  1
  O  O65  1  0.49419660  0.10087250  0.25944742  1
  O  O66  1  0.93649242  0.95147929  0.31089217  1
  O  O67  1  0.50580340  0.89912750  0.74055258  1
  O  O68  1  0.51044814  0.64272858  0.46008028  1
  O  O69  1  0.56350758  0.87439975  0.01498687  1
  O  O70  1  0.81735170  0.96008028  0.94963214  1
  O  O71  1  0.35941287  0.81089217  0.37439975  1
