# generated using pymatgen
data_K2Na2IrO4
_symmetry_space_group_name_H-M   'P 1'
_cell_length_a   6.08761578
_cell_length_b   9.03235940
_cell_length_c   11.29738813
_cell_angle_alpha   90.00000000
_cell_angle_beta   90.00000000
_cell_angle_gamma   105.41955758
_symmetry_Int_Tables_number   1
_chemical_formula_structural   K2Na2IrO4
_chemical_formula_sum   'K8 Na8 Ir4 O16'
_cell_volume   598.83289061
_cell_formula_units_Z   4
loop_
 _symmetry_equiv_pos_site_id
 _symmetry_equiv_pos_as_xyz
  1  'x, y, z'
loop_
 _atom_site_type_symbol
 _atom_site_label
 _atom_site_symmetry_multiplicity
 _atom_site_fract_x
 _atom_site_fract_y
 _atom_site_fract_z
 _atom_site_occupancy
  K  K0  1  0.16321387  0.49748398  0.63742910  1
  K  K1  1  0.37880810  0.72112748  0.36562733  1
  K  K2  1  0.62119190  0.27887252  0.63437267  1
  K  K3  1  0.12119190  0.77887252  0.86562733  1
  K  K4  1  0.87880810  0.22112748  0.13437267  1
  K  K5  1  0.83678613  0.50251602  0.36257090  1
  K  K6  1  0.66321387  0.99748398  0.86257090  1
  K  K7  1  0.33678613  0.00251602  0.13742910  1
  Na  Na8  1  0.52676713  0.59489299  0.88717328  1
  Na  Na9  1  0.65976762  0.09422282  0.39156460  1
  Na  Na10  1  0.34023238  0.90577718  0.60843540  1
  Na  Na11  1  0.97323287  0.90510701  0.38717328  1
  Na  Na12  1  0.15976762  0.59422282  0.10843540  1
  Na  Na13  1  0.02676713  0.09489299  0.61282672  1
  Na  Na14  1  0.84023238  0.40577718  0.89156460  1
  Na  Na15  1  0.47323287  0.40510701  0.11282672  1
  Ir  Ir16  1  0.74311702  0.72911867  0.62984710  1
  Ir  Ir17  1  0.25688298  0.27088133  0.37015290  1
  Ir  Ir18  1  0.24311702  0.22911867  0.87015290  1
  Ir  Ir19  1  0.75688298  0.77088133  0.12984710  1
  O  O20  1  0.99387091  0.27577759  0.46520117  1
  O  O21  1  0.50612909  0.22422241  0.96520117  1
  O  O22  1  0.21213242  0.43355623  0.26965021  1
  O  O23  1  0.71213242  0.93355623  0.23034979  1
  O  O24  1  0.69777095  0.89899026  0.53487579  1
  O  O25  1  0.80222905  0.60100974  0.03487579  1
  O  O26  1  0.00612909  0.72422241  0.53479883  1
  O  O27  1  0.19777095  0.39899026  0.96512421  1
  O  O28  1  0.01824497  0.76135301  0.22454465  1
  O  O29  1  0.98175503  0.23864699  0.77545535  1
  O  O30  1  0.48175503  0.73864699  0.72454465  1
  O  O31  1  0.30222905  0.10100974  0.46512421  1
  O  O32  1  0.51824497  0.26135301  0.27545535  1
  O  O33  1  0.78786758  0.56644377  0.73034979  1
  O  O34  1  0.28786758  0.06644377  0.76965021  1
  O  O35  1  0.49387091  0.77577759  0.03479883  1
