# generated using pymatgen
data_NaLa(SeO3)2
_symmetry_space_group_name_H-M   'P 1'
_cell_length_a   6.76633363
_cell_length_b   6.85678273
_cell_length_c   13.39524536
_cell_angle_alpha   90.00000000
_cell_angle_beta   101.15323773
_cell_angle_gamma   90.00000000
_symmetry_Int_Tables_number   1
_chemical_formula_structural   NaLa(SeO3)2
_chemical_formula_sum   'Na4 La4 Se8 O24'
_cell_volume   609.73855331
_cell_formula_units_Z   4
loop_
 _symmetry_equiv_pos_site_id
 _symmetry_equiv_pos_as_xyz
  1  'x, y, z'
loop_
 _atom_site_type_symbol
 _atom_site_label
 _atom_site_symmetry_multiplicity
 _atom_site_fract_x
 _atom_site_fract_y
 _atom_site_fract_z
 _atom_site_occupancy
  Na  Na0  1  0.69200779  0.66696670  0.61701486  1
  Na  Na1  1  0.19200779  0.83303330  0.11701486  1
  Na  Na2  1  0.30799221  0.33303330  0.38298514  1
  Na  Na3  1  0.80799221  0.16696670  0.88298514  1
  La  La4  1  0.15578267  0.37841856  0.66432315  1
  La  La5  1  0.34421733  0.87841856  0.83567685  1
  La  La6  1  0.65578267  0.12158144  0.16432315  1
  La  La7  1  0.84421733  0.62158144  0.33567685  1
  Se  Se8  1  0.10443093  0.33496645  0.13886110  1
  Se  Se9  1  0.30934320  0.35182387  0.93143885  1
  Se  Se10  1  0.39556907  0.83496645  0.36113890  1
  Se  Se11  1  0.89556907  0.66503355  0.86113890  1
  Se  Se12  1  0.19065680  0.85182387  0.56856115  1
  Se  Se13  1  0.69065680  0.64817613  0.06856115  1
  Se  Se14  1  0.60443093  0.16503355  0.63886110  1
  Se  Se15  1  0.80934320  0.14817613  0.43143885  1
  O  O16  1  0.35438847  0.71728037  0.66071705  1
  O  O17  1  0.00271467  0.68139173  0.53461153  1
  O  O18  1  0.20713265  0.66402059  0.33031465  1
  O  O19  1  0.59774070  0.48433786  0.14541188  1
  O  O20  1  0.49306751  0.16992039  0.74502888  1
  O  O21  1  0.49728533  0.18139173  0.96538847  1
  O  O22  1  0.40225930  0.51566214  0.85458812  1
  O  O23  1  0.92182357  0.20527471  0.05799244  1
  O  O24  1  0.50271467  0.81860827  0.03461153  1
  O  O25  1  0.29286735  0.16402059  0.16968535  1
  O  O26  1  0.70713265  0.83597941  0.83031465  1
  O  O27  1  0.50693249  0.83007961  0.25497112  1
  O  O28  1  0.57817643  0.70527471  0.44200756  1
  O  O29  1  0.79286735  0.33597941  0.66968535  1
  O  O30  1  0.07817643  0.79472529  0.94200756  1
  O  O31  1  0.64561153  0.28271963  0.33928295  1
  O  O32  1  0.99306751  0.33007961  0.24502888  1
  O  O33  1  0.14561153  0.21728037  0.83928295  1
  O  O34  1  0.42182357  0.29472529  0.55799244  1
  O  O35  1  0.85438847  0.78271963  0.16071705  1
  O  O36  1  0.90225930  0.98433786  0.35458812  1
  O  O37  1  0.00693249  0.66992039  0.75497112  1
  O  O38  1  0.99728533  0.31860827  0.46538847  1
  O  O39  1  0.09774070  0.01566214  0.64541188  1
