# generated using pymatgen
data_Sb2Te2O9
_symmetry_space_group_name_H-M   'P 1'
_cell_length_a   4.96184844
_cell_length_b   14.80402216
_cell_length_c   22.47514883
_cell_angle_alpha   109.19237680
_cell_angle_beta   90.00000000
_cell_angle_gamma   90.00000000
_symmetry_Int_Tables_number   1
_chemical_formula_structural   Sb2Te2O9
_chemical_formula_sum   'Sb16 Te16 O72'
_cell_volume   1559.16123000
_cell_formula_units_Z   8
loop_
 _symmetry_equiv_pos_site_id
 _symmetry_equiv_pos_as_xyz
  1  'x, y, z'
loop_
 _atom_site_type_symbol
 _atom_site_label
 _atom_site_symmetry_multiplicity
 _atom_site_fract_x
 _atom_site_fract_y
 _atom_site_fract_z
 _atom_site_occupancy
  Sb  Sb0  1  0.69454799  0.51105007  0.34724444  1
  Sb  Sb1  1  0.71604132  0.83410073  0.84400722  1
  Sb  Sb2  1  0.78395868  0.33410073  0.84400722  1
  Sb  Sb3  1  0.30545201  0.48894993  0.65275556  1
  Sb  Sb4  1  0.80545201  0.01105007  0.34724444  1
  Sb  Sb5  1  0.19454799  0.98894993  0.65275556  1
  Sb  Sb6  1  0.28395868  0.16589927  0.15599278  1
  Sb  Sb7  1  0.30123495  0.16799838  0.44765138  1
  Sb  Sb8  1  0.80123495  0.33200162  0.55234862  1
  Sb  Sb9  1  0.21477320  0.78024217  0.94589435  1
  Sb  Sb10  1  0.21604132  0.66589927  0.15599278  1
  Sb  Sb11  1  0.71477320  0.71975783  0.05410565  1
  Sb  Sb12  1  0.28522680  0.28024217  0.94589435  1
  Sb  Sb13  1  0.69876505  0.83200162  0.55234862  1
  Sb  Sb14  1  0.78522680  0.21975783  0.05410565  1
  Sb  Sb15  1  0.19876505  0.66799838  0.44765138  1
  Te  Te16  1  0.83774969  0.44650068  0.06054568  1
  Te  Te17  1  0.66474007  0.68787179  0.27490752  1
  Te  Te18  1  0.16474007  0.81212821  0.72509248  1
  Te  Te19  1  0.33525993  0.31212821  0.72509248  1
  Te  Te20  1  0.16225031  0.55349932  0.93945432  1
  Te  Te21  1  0.33774969  0.05349932  0.93945432  1
  Te  Te22  1  0.84851735  0.11147636  0.55710453  1
  Te  Te23  1  0.65148265  0.61147636  0.55710453  1
  Te  Te24  1  0.15148265  0.88852364  0.44289547  1
  Te  Te25  1  0.34851735  0.38852364  0.44289547  1
  Te  Te26  1  0.66225031  0.94650068  0.06054568  1
  Te  Te27  1  0.84216959  0.57935894  0.76548585  1
  Te  Te28  1  0.65783041  0.07935894  0.76548585  1
  Te  Te29  1  0.83525993  0.18787179  0.27490752  1
  Te  Te30  1  0.15783041  0.42064106  0.23451415  1
  Te  Te31  1  0.34216959  0.92064106  0.23451415  1
  O  O32  1  0.37694211  0.58159393  0.49156490  1
  O  O33  1  0.34605255  0.91608809  0.70726940  1
  O  O34  1  0.98045490  0.92790432  0.26333200  1
  O  O35  1  0.06799857  0.53435510  0.12306927  1
  O  O36  1  0.49827789  0.36265892  0.90941722  1
  O  O37  1  0.95521961  0.24310730  0.59537104  1
  O  O38  1  0.08520541  0.28519309  0.20845951  1
  O  O39  1  -0.00283706  0.25609537  0.88216666  1
  O  O40  1  0.48210729  0.77082499  0.47352882  1
  O  O41  1  0.50283706  0.75609537  0.88216666  1
  O  O42  1  0.91341501  0.90941852  0.38186941  1
  O  O43  1  0.48597272  0.92610169  0.31469981  1
  O  O44  1  0.54478039  0.74310730  0.59537104  1
  O  O45  1  0.51954510  0.42790432  0.26333200  1
  O  O46  1  0.43200143  0.03435510  0.12306927  1
  O  O47  1  0.38326065  0.90911290  0.99720067  1
  O  O48  1  0.47064633  0.79178079  0.76756456  1
  O  O49  1  0.02935367  0.29178079  0.76756456  1
  O  O50  1  0.08658499  0.09058148  0.61813059  1
  O  O51  1  1.00283706  0.74390463  0.11783334  1
  O  O52  1  0.65394745  0.08391191  0.29273060  1
  O  O53  1  0.01402728  0.42610169  0.31469981  1
  O  O54  1  0.56909053  0.85374160  0.10112592  1
  O  O55  1  0.89035401  0.89891591  0.63314060  1
  O  O56  1  0.60116545  0.07477631  0.42545155  1
  O  O57  1  0.49716294  0.24390463  0.11783334  1
  O  O58  1  0.39035401  0.60108409  0.36685940  1
  O  O59  1  0.10116545  0.42522369  0.57454845  1
  O  O60  1  0.98210729  0.72917501  0.52647118  1
  O  O61  1  0.61673935  0.09088710  0.00279933  1
  O  O62  1  0.00172211  0.86265892  0.90941722  1
  O  O63  1  0.41341501  0.59058148  0.61813059  1
  O  O64  1  0.58658499  0.40941852  0.38186941  1
  O  O65  1  0.88326065  0.59088710  0.00279933  1
  O  O66  1  0.41199877  0.70002630  0.99025341  1
  O  O67  1  0.93200143  0.46564490  0.87693073  1
  O  O68  1  0.58520541  0.21480691  0.79154049  1
  O  O69  1  0.87694211  0.91840607  0.50843510  1
  O  O70  1  0.10964599  0.10108409  0.36685940  1
  O  O71  1  0.45521961  0.25689270  0.40462896  1
  O  O72  1  0.84605255  0.58391191  0.29273060  1
  O  O73  1  0.91199877  0.79997370  0.00974659  1
  O  O74  1  0.52935367  0.20821921  0.23243544  1
  O  O75  1  0.51402728  0.07389831  0.68530019  1
  O  O76  1  0.93090947  0.35374160  0.10112592  1
  O  O77  1  0.11673935  0.40911290  0.99720067  1
  O  O78  1  0.45643959  0.60417629  0.20661085  1
  O  O79  1  0.95643959  0.89582371  0.79338915  1
  O  O80  1  0.43090947  0.14625840  0.89887408  1
  O  O81  1  0.56799857  0.96564490  0.87693073  1
  O  O82  1  0.01954510  0.07209568  0.73666800  1
  O  O83  1  0.39883455  0.92522369  0.57454845  1
  O  O84  1  0.04356041  0.10417629  0.20661085  1
  O  O85  1  0.08800123  0.20002630  0.99025341  1
  O  O86  1  0.58800123  0.29997370  0.00974659  1
  O  O87  1  0.48045490  0.57209568  0.73666800  1
  O  O88  1  0.89883455  0.57477631  0.42545155  1
  O  O89  1  0.62305789  0.41840607  0.50843510  1
  O  O90  1  0.99827789  0.13734108  0.09058278  1
  O  O91  1  0.60964599  0.39891591  0.63314060  1
  O  O92  1  0.98597272  0.57389831  0.68530019  1
  O  O93  1  0.12305789  0.08159393  0.49156490  1
  O  O94  1  0.06909053  0.64625840  0.89887408  1
  O  O95  1  0.15394745  0.41608809  0.70726940  1
  O  O96  1  0.51789271  0.22917501  0.52647118  1
  O  O97  1  0.97064633  0.70821921  0.23243544  1
  O  O98  1  0.54356041  0.39582371  0.79338915  1
  O  O99  1  0.50172211  0.63734108  0.09058278  1
  O  O100  1  0.41479459  0.78519309  0.20845951  1
  O  O101  1  0.91479459  0.71480691  0.79154049  1
  O  O102  1  0.01789271  0.27082499  0.47352882  1
  O  O103  1  0.04478039  0.75689270  0.40462896  1
