# generated using pymatgen
data_K2Ag6Sn3S10
_symmetry_space_group_name_H-M   'P 1'
_cell_length_a   6.44360377
_cell_length_b   13.51824044
_cell_length_c   24.76095432
_cell_angle_alpha   90.00000000
_cell_angle_beta   90.00000000
_cell_angle_gamma   90.00000000
_symmetry_Int_Tables_number   1
_chemical_formula_structural   K2Ag6Sn3S10
_chemical_formula_sum   'K8 Ag24 Sn12 S40'
_cell_volume   2156.83226933
_cell_formula_units_Z   4
loop_
 _symmetry_equiv_pos_site_id
 _symmetry_equiv_pos_as_xyz
  1  'x, y, z'
loop_
 _atom_site_type_symbol
 _atom_site_label
 _atom_site_symmetry_multiplicity
 _atom_site_fract_x
 _atom_site_fract_y
 _atom_site_fract_z
 _atom_site_occupancy
  K  K0  1  0.07467159  0.21436678  0.82061734  1
  K  K1  1  0.92532841  0.71436678  0.82061734  1
  K  K2  1  0.42532841  0.78563322  0.32061734  1
  K  K3  1  0.07467159  0.28563322  0.17938266  1
  K  K4  1  0.42532841  0.71436678  0.67938266  1
  K  K5  1  0.57467159  0.21436678  0.67938266  1
  K  K6  1  0.92532841  0.78563322  0.17938266  1
  K  K7  1  0.57467159  0.28563322  0.32061734  1
  Ag  Ag8  1  0.41887657  0.58529354  0.04075925  1
  Ag  Ag9  1  0.55083931  0.29021183  0.10034813  1
  Ag  Ag10  1  0.49126476  0.52884688  0.40785632  1
  Ag  Ag11  1  0.05083931  0.29021183  0.39965187  1
  Ag  Ag12  1  0.94916069  0.79021183  0.39965187  1
  Ag  Ag13  1  0.49126476  0.97115312  0.59214368  1
  Ag  Ag14  1  0.99126476  0.52884688  0.09214368  1
  Ag  Ag15  1  0.58112343  0.41470646  0.95924075  1
  Ag  Ag16  1  0.55083931  0.20978817  0.89965187  1
  Ag  Ag17  1  0.58112343  0.08529354  0.04075925  1
  Ag  Ag18  1  0.44916069  0.79021183  0.10034813  1
  Ag  Ag19  1  0.91887657  0.58529354  0.45924075  1
  Ag  Ag20  1  0.91887657  0.91470646  0.54075925  1
  Ag  Ag21  1  0.08112343  0.08529354  0.45924075  1
  Ag  Ag22  1  0.50873524  0.47115312  0.59214368  1
  Ag  Ag23  1  0.00873524  0.47115312  0.90785632  1
  Ag  Ag24  1  0.99126476  0.97115312  0.90785632  1
  Ag  Ag25  1  0.41887657  0.91470646  0.95924075  1
  Ag  Ag26  1  0.00873524  0.02884688  0.09214368  1
  Ag  Ag27  1  0.94916069  0.70978817  0.60034813  1
  Ag  Ag28  1  0.50873524  0.02884688  0.40785632  1
  Ag  Ag29  1  0.08112343  0.41470646  0.54075925  1
  Ag  Ag30  1  0.44916069  0.70978817  0.89965187  1
  Ag  Ag31  1  0.05083931  0.20978817  0.60034813  1
  Sn  Sn32  1  0.55005196  0.44162473  0.79930580  1
  Sn  Sn33  1  0.47526217  0.75000000  0.50000000  1
  Sn  Sn34  1  0.05005196  0.05837527  0.29930580  1
  Sn  Sn35  1  0.05005196  0.44162473  0.70069420  1
  Sn  Sn36  1  0.02473783  0.25000000  0.00000000  1
  Sn  Sn37  1  0.94994804  0.94162473  0.70069420  1
  Sn  Sn38  1  0.44994804  0.94162473  0.79930580  1
  Sn  Sn39  1  0.55005196  0.05837527  0.20069420  1
  Sn  Sn40  1  0.44994804  0.55837527  0.20069420  1
  Sn  Sn41  1  0.97526217  0.75000000  0.00000000  1
  Sn  Sn42  1  0.52473783  0.25000000  0.50000000  1
  Sn  Sn43  1  0.94994804  0.55837527  0.29930580  1
  S  S44  1  0.30218001  0.12227064  0.54031343  1
  S  S45  1  0.66270877  0.96747767  0.12106321  1
  S  S46  1  0.19781999  0.62227064  0.95968657  1
  S  S47  1  0.66270877  0.53252233  0.87893679  1
  S  S48  1  0.41025626  0.76799931  0.80382176  1
  S  S49  1  0.33729123  0.46747767  0.12106321  1
  S  S50  1  0.26119190  0.67175020  0.43114155  1
  S  S51  1  0.31064682  0.00182397  0.71183558  1
  S  S52  1  0.58974374  0.23200069  0.19617824  1
  S  S53  1  0.73880810  0.32824980  0.56885845  1
  S  S54  1  0.80218001  0.12227064  0.95968657  1
  S  S55  1  0.91025626  0.73200069  0.30382176  1
  S  S56  1  0.19781999  0.87772936  0.04031343  1
  S  S57  1  0.83729123  0.46747767  0.37893679  1
  S  S58  1  0.58974374  0.26799931  0.80382176  1
  S  S59  1  0.23880810  0.17175020  0.06885845  1
  S  S60  1  0.30218001  0.37772936  0.45968657  1
  S  S61  1  0.08974374  0.26799931  0.69617824  1
  S  S62  1  0.33729123  0.03252233  0.87893679  1
  S  S63  1  0.83729123  0.03252233  0.62106321  1
  S  S64  1  0.76119190  0.67175020  0.06885845  1
  S  S65  1  0.69781999  0.87772936  0.45968657  1
  S  S66  1  0.16270877  0.53252233  0.62106321  1
  S  S67  1  0.73880810  0.17175020  0.43114155  1
  S  S68  1  0.91025626  0.76799931  0.69617824  1
  S  S69  1  0.26119190  0.82824980  0.56885845  1
  S  S70  1  0.68935318  0.50182397  0.71183558  1
  S  S71  1  0.18935318  0.99817603  0.21183558  1
  S  S72  1  0.16270877  0.96747767  0.37893679  1
  S  S73  1  0.08974374  0.23200069  0.30382176  1
  S  S74  1  0.81064682  0.00182397  0.78816442  1
  S  S75  1  0.31064682  0.49817603  0.28816442  1
  S  S76  1  0.80218001  0.37772936  0.04031343  1
  S  S77  1  0.68935318  0.99817603  0.28816442  1
  S  S78  1  0.41025626  0.73200069  0.19617824  1
  S  S79  1  0.23880810  0.32824980  0.93114155  1
  S  S80  1  0.69781999  0.62227064  0.54031343  1
  S  S81  1  0.81064682  0.49817603  0.21183558  1
  S  S82  1  0.18935318  0.50182397  0.78816442  1
  S  S83  1  0.76119190  0.82824980  0.93114155  1
