# generated using pymatgen
data_Nb(PS4)2
_symmetry_space_group_name_H-M   'P 1'
_cell_length_a   10.82198190
_cell_length_b   11.96576293
_cell_length_c   11.78180668
_cell_angle_alpha   120.51785493
_cell_angle_beta   90.00000000
_cell_angle_gamma   90.00000000
_symmetry_Int_Tables_number   1
_chemical_formula_structural   Nb(PS4)2
_chemical_formula_sum   'Nb4 P8 S32'
_cell_volume   1314.31580208
_cell_formula_units_Z   4
loop_
 _symmetry_equiv_pos_site_id
 _symmetry_equiv_pos_as_xyz
  1  'x, y, z'
loop_
 _atom_site_type_symbol
 _atom_site_label
 _atom_site_symmetry_multiplicity
 _atom_site_fract_x
 _atom_site_fract_y
 _atom_site_fract_z
 _atom_site_occupancy
  Nb  Nb0  1  0.50000000  0.57166755  0.14333510  1
  Nb  Nb1  1  0.50000000  0.42833245  0.85666490  1
  Nb  Nb2  1  0.00000000  0.07166755  0.14333510  1
  Nb  Nb3  1  0.00000000  0.92833245  0.85666490  1
  P  P4  1  0.48642181  0.87446128  0.37869641  1
  P  P5  1  0.01357819  0.37446128  0.37869641  1
  P  P6  1  0.51357819  0.50423513  0.37869641  1
  P  P7  1  0.98642181  0.00423513  0.37869641  1
  P  P8  1  0.48642181  0.49576487  0.62130359  1
  P  P9  1  0.01357819  0.99576487  0.62130359  1
  P  P10  1  0.98642181  0.62553872  0.62130359  1
  P  P11  1  0.51357819  0.12553872  0.62130359  1
  S  S12  1  0.42678575  0.62959675  0.56609367  1
  S  S13  1  0.60754592  0.56956793  0.77125017  1
  S  S14  1  0.39245408  0.43043207  0.22874983  1
  S  S15  1  0.64797246  0.59004674  0.33447220  1
  S  S16  1  0.35202754  0.74442546  0.33447220  1
  S  S17  1  0.85202754  0.75557454  0.66552780  1
  S  S18  1  0.14797246  0.90995326  0.66552780  1
  S  S19  1  0.69034284  0.51408667  1.00000000  1
  S  S20  1  0.42678575  0.06350307  0.43390633  1
  S  S21  1  0.10754592  0.93043207  0.22874983  1
  S  S22  1  0.61109027  0.36103010  0.00000000  1
  S  S23  1  0.57321425  0.93649693  0.56609367  1
  S  S24  1  0.07321425  0.12959675  0.56609367  1
  S  S25  1  0.30965716  0.48591333  0.00000000  1
  S  S26  1  0.10754592  0.70168224  0.77125017  1
  S  S27  1  0.39245408  0.20168224  0.77125017  1
  S  S28  1  0.11109027  0.13896990  1.00000000  1
  S  S29  1  0.85202754  0.09004674  0.33447220  1
  S  S30  1  0.80965716  0.01408667  1.00000000  1
  S  S31  1  0.38890973  0.63896990  1.00000000  1
  S  S32  1  0.57321425  0.37040325  0.43390633  1
  S  S33  1  0.89245408  0.06956793  0.77125017  1
  S  S34  1  0.60754592  0.79831776  0.22874983  1
  S  S35  1  0.19034284  0.98591333  0.00000000  1
  S  S36  1  0.89245408  0.29831776  0.22874983  1
  S  S37  1  0.92678575  0.87040325  0.43390633  1
  S  S38  1  0.88890973  0.86103010  0.00000000  1
  S  S39  1  0.64797246  0.25557454  0.66552780  1
  S  S40  1  0.14797246  0.24442546  0.33447220  1
  S  S41  1  0.35202754  0.40995326  0.66552780  1
  S  S42  1  0.07321425  0.56350307  0.43390633  1
  S  S43  1  0.92678575  0.43649693  0.56609367  1
