# generated using pymatgen
data_V4S9Br4
_symmetry_space_group_name_H-M   'P 1'
_cell_length_a   7.33442970
_cell_length_b   11.00248781
_cell_length_c   11.00248781
_cell_angle_alpha   90.00000000
_cell_angle_beta   90.00000000
_cell_angle_gamma   90.00000000
_symmetry_Int_Tables_number   1
_chemical_formula_structural   V4S9Br4
_chemical_formula_sum   'V8 S18 Br8'
_cell_volume   887.86746578
_cell_formula_units_Z   2
loop_
 _symmetry_equiv_pos_site_id
 _symmetry_equiv_pos_as_xyz
  1  'x, y, z'
loop_
 _atom_site_type_symbol
 _atom_site_label
 _atom_site_symmetry_multiplicity
 _atom_site_fract_x
 _atom_site_fract_y
 _atom_site_fract_z
 _atom_site_occupancy
  V  V0  1  0.37653265  0.88520133  0.88520133  1
  V  V1  1  0.62346735  0.38520133  0.38520133  1
  V  V2  1  0.37653265  0.61479867  0.61479867  1
  V  V3  1  0.62346735  0.11479867  0.38520133  1
  V  V4  1  0.62346735  0.38520133  0.11479867  1
  V  V5  1  0.37653265  0.61479867  0.88520133  1
  V  V6  1  0.37653265  0.88520133  0.61479867  1
  V  V7  1  0.62346735  0.11479867  0.11479867  1
  S  S8  1  0.84892945  0.03834731  0.25000000  1
  S  S9  1  0.38913443  0.75000000  0.05500338  1
  S  S10  1  0.38913443  0.75000000  0.44499662  1
  S  S11  1  0.61086557  0.25000000  0.94499662  1
  S  S12  1  0.84892945  0.25000000  0.03834731  1
  S  S13  1  0.15107055  0.75000000  0.96165269  1
  S  S14  1  0.52298662  0.75000000  0.75000000  1
  S  S15  1  0.15107055  0.75000000  0.53834731  1
  S  S16  1  0.38913443  0.05500338  0.75000000  1
  S  S17  1  0.61086557  0.25000000  0.55500338  1
  S  S18  1  0.15107055  0.53834731  0.75000000  1
  S  S19  1  0.61086557  0.55500338  0.25000000  1
  S  S20  1  0.47701338  0.25000000  0.25000000  1
  S  S21  1  0.38913443  0.44499662  0.75000000  1
  S  S22  1  0.15107055  0.96165269  0.75000000  1
  S  S23  1  0.61086557  0.94499662  0.25000000  1
  S  S24  1  0.84892945  0.25000000  0.46165269  1
  S  S25  1  0.84892945  0.46165269  0.25000000  1
  Br  Br26  1  0.71008945  0.55118798  0.55118798  1
  Br  Br27  1  0.28991055  0.44881202  0.05118798  1
  Br  Br28  1  0.71008945  0.94881202  0.94881202  1
  Br  Br29  1  0.28991055  0.05118798  0.05118798  1
  Br  Br30  1  0.28991055  0.05118798  0.44881202  1
  Br  Br31  1  0.71008945  0.94881202  0.55118798  1
  Br  Br32  1  0.71008945  0.55118798  0.94881202  1
  Br  Br33  1  0.28991055  0.44881202  0.44881202  1
