# generated using pymatgen
data_KFeP2O7
_symmetry_space_group_name_H-M   'P 1'
_cell_length_a   7.48921675
_cell_length_b   8.32816451
_cell_length_c   10.15359090
_cell_angle_alpha   90.00000000
_cell_angle_beta   90.00000000
_cell_angle_gamma   106.67337047
_symmetry_Int_Tables_number   1
_chemical_formula_structural   KFeP2O7
_chemical_formula_sum   'K4 Fe4 P8 O28'
_cell_volume   606.66773151
_cell_formula_units_Z   4
loop_
 _symmetry_equiv_pos_site_id
 _symmetry_equiv_pos_as_xyz
  1  'x, y, z'
loop_
 _atom_site_type_symbol
 _atom_site_label
 _atom_site_symmetry_multiplicity
 _atom_site_fract_x
 _atom_site_fract_y
 _atom_site_fract_z
 _atom_site_occupancy
  K  K0  1  0.82202693  0.94623751  0.67917107  1
  K  K1  1  0.17797307  0.55376249  0.17917107  1
  K  K2  1  0.17797307  0.05376249  0.32082893  1
  K  K3  1  0.82202693  0.44623751  0.82082893  1
  Fe  Fe4  1  0.76370524  0.23895518  0.40072258  1
  Fe  Fe5  1  0.23629476  0.26104482  0.90072258  1
  Fe  Fe6  1  0.23629476  0.76104482  0.59927742  1
  Fe  Fe7  1  0.76370524  0.73895518  0.09927742  1
  P  P8  1  0.56041104  0.80840382  0.36369499  1
  P  P9  1  0.43958896  0.69159618  0.86369499  1
  P  P10  1  0.43958896  0.19159618  0.63630501  1
  P  P11  1  0.56041104  0.30840382  0.13630501  1
  P  P12  1  0.86715377  0.16925175  0.09654281  1
  P  P13  1  0.13284623  0.33074825  0.59654281  1
  P  P14  1  0.13284623  0.83074825  0.90345719  1
  P  P15  1  0.86715377  0.66925175  0.40345719  1
  O  O16  1  0.66180381  0.68588600  0.44076564  1
  O  O17  1  0.33819619  0.81411400  0.94076564  1
  O  O18  1  0.33819619  0.31411400  0.55923436  1
  O  O19  1  0.66180381  0.18588600  0.05923436  1
  O  O20  1  0.91887167  0.74472694  0.26552664  1
  O  O21  1  0.08112833  0.75527306  0.76552664  1
  O  O22  1  0.08112833  0.25527306  0.73447336  1
  O  O23  1  0.91887167  0.24472694  0.23447336  1
  O  O24  1  0.36336748  0.76653831  0.42085039  1
  O  O25  1  0.63663252  0.73346169  0.92085039  1
  O  O26  1  0.63663252  0.23346169  0.57914961  1
  O  O27  1  0.36336748  0.26653831  0.07914961  1
  O  O28  1  0.85471293  0.48548343  0.40998592  1
  O  O29  1  0.14528707  0.01451657  0.90998592  1
  O  O30  1  0.14528707  0.51451657  0.59001408  1
  O  O31  1  0.85471293  0.98548343  0.09001408  1
  O  O32  1  0.67952028  0.98613424  0.39406771  1
  O  O33  1  0.32047972  0.51386576  0.89406771  1
  O  O34  1  0.32047972  0.01386576  0.60593229  1
  O  O35  1  0.67952028  0.48613424  0.10593229  1
  O  O36  1  0.00040900  0.77731563  0.50509178  1
  O  O37  1  0.99959100  0.72268437  0.00509178  1
  O  O38  1  0.99959100  0.22268437  0.49490822  1
  O  O39  1  0.00040900  0.27731563  0.99490822  1
  O  O40  1  0.54929329  0.75726579  0.21755985  1
  O  O41  1  0.45070671  0.74273421  0.71755985  1
  O  O42  1  0.45070671  0.24273421  0.78244015  1
  O  O43  1  0.54929329  0.25726579  0.28244015  1
