# generated using pymatgen
data_Ba2CoMoO6
_symmetry_space_group_name_H-M   'P 1'
_cell_length_a   5.84748311
_cell_length_b   5.84785413
_cell_length_c   5.73443316
_cell_angle_alpha   60.65266036
_cell_angle_beta   60.65064757
_cell_angle_gamma   58.72531788
_symmetry_Int_Tables_number   1
_chemical_formula_structural   Ba2CoMoO6
_chemical_formula_sum   'Ba2 Co1 Mo1 O6'
_cell_volume   138.58358663
_cell_formula_units_Z   1
loop_
 _symmetry_equiv_pos_site_id
 _symmetry_equiv_pos_as_xyz
  1  'x, y, z'
loop_
 _atom_site_type_symbol
 _atom_site_label
 _atom_site_symmetry_multiplicity
 _atom_site_fract_x
 _atom_site_fract_y
 _atom_site_fract_z
 _atom_site_occupancy
  Ba  Ba0  1  0.74998719  0.75001967  0.75008185  1
  Ba  Ba1  1  0.25001281  0.24998033  0.24991815  1
  Co  Co2  1  -0.00000000  0.00000000  0.00000000  1
  Mo  Mo3  1  0.50000000  0.50000000  0.50000000  1
  O  O4  1  0.74186142  0.25807034  0.74161288  1
  O  O5  1  0.74157863  0.25842451  0.25809707  1
  O  O6  1  0.26767036  0.26772440  0.73228672  1
  O  O7  1  0.25842137  0.74157549  0.74190293  1
  O  O8  1  0.73232964  0.73227560  0.26771328  1
  O  O9  1  0.25813858  0.74192966  0.25838712  1
