# generated using pymatgen
data_MnP2PbO7
_symmetry_space_group_name_H-M   'P 1'
_cell_length_a   5.48951286
_cell_length_b   8.58511251
_cell_length_c   13.09623264
_cell_angle_alpha   90.00000000
_cell_angle_beta   90.20089556
_cell_angle_gamma   90.00000000
_symmetry_Int_Tables_number   1
_chemical_formula_structural   MnP2PbO7
_chemical_formula_sum   'Mn4 P8 Pb4 O28'
_cell_volume   617.19657826
_cell_formula_units_Z   4
loop_
 _symmetry_equiv_pos_site_id
 _symmetry_equiv_pos_as_xyz
  1  'x, y, z'
loop_
 _atom_site_type_symbol
 _atom_site_label
 _atom_site_symmetry_multiplicity
 _atom_site_fract_x
 _atom_site_fract_y
 _atom_site_fract_z
 _atom_site_occupancy
  Mn  Mn0  1  0.67354779  0.85072001  0.39699759  1
  Mn  Mn1  1  0.82645221  0.35072001  0.10300241  1
  Mn  Mn2  1  0.32645221  0.14927999  0.60300241  1
  Mn  Mn3  1  0.17354779  0.64927999  0.89699759  1
  P  P4  1  0.18540806  0.79443545  0.52100481  1
  P  P5  1  0.31459194  0.29443545  0.97899519  1
  P  P6  1  0.81459194  0.20556455  0.47899519  1
  P  P7  1  0.68540806  0.70556455  0.02100481  1
  P  P8  1  0.24480618  0.53784518  0.66796821  1
  P  P9  1  0.25519382  0.03784518  0.83203179  1
  P  P10  1  0.75519382  0.46215482  0.33203179  1
  P  P11  1  0.74480618  0.96215482  0.16796821  1
  Pb  Pb12  1  0.20325725  0.67774796  0.22531361  1
  Pb  Pb13  1  0.29674275  0.17774796  0.27468639  1
  Pb  Pb14  1  0.79674275  0.32225204  0.77468639  1
  Pb  Pb15  1  0.70325725  0.82225204  0.72531361  1
  O  O16  1  0.91159853  0.82820432  0.52632102  1
  O  O17  1  0.58840147  0.32820432  0.97367898  1
  O  O18  1  0.08840147  0.17179568  0.47367898  1
  O  O19  1  0.41159853  0.67179568  0.02632102  1
  O  O20  1  0.29311614  0.80066570  0.41282035  1
  O  O21  1  0.20688386  0.30066570  0.08717965  1
  O  O22  1  0.70688386  0.19933430  0.58717965  1
  O  O23  1  0.79311614  0.69933430  0.91282035  1
  O  O24  1  0.33429595  0.89655633  0.59559618  1
  O  O25  1  0.16570405  0.39655633  0.90440382  1
  O  O26  1  0.66570405  0.10344367  0.40440382  1
  O  O27  1  0.83429595  0.60344367  0.09559618  1
  O  O28  1  0.22601229  0.61401037  0.55533646  1
  O  O29  1  0.27398771  0.11401037  0.94466354  1
  O  O30  1  0.77398771  0.38598963  0.44466354  1
  O  O31  1  0.72601229  0.88598963  0.05533646  1
  O  O32  1  0.18174192  0.36566304  0.65462362  1
  O  O33  1  0.31825808  0.86566304  0.84537638  1
  O  O34  1  0.81825808  0.63433696  0.34537638  1
  O  O35  1  0.68174192  0.13433696  0.15462362  1
  O  O36  1  0.05263412  0.61675133  0.73672626  1
  O  O37  1  0.44736588  0.11675133  0.76327374  1
  O  O38  1  0.94736588  0.38324867  0.26327374  1
  O  O39  1  0.55263412  0.88324867  0.23672626  1
  O  O40  1  0.50426188  0.56506959  0.70827678  1
  O  O41  1  0.99573812  0.06506959  0.79172322  1
  O  O42  1  0.49573812  0.43493041  0.29172322  1
  O  O43  1  0.00426188  0.93493041  0.20827678  1
