# generated using pymatgen
data_CsNO3
_symmetry_space_group_name_H-M   'P 1'
_cell_length_a   11.14280681
_cell_length_b   11.14280685
_cell_length_c   7.91995237
_cell_angle_alpha   90.00000000
_cell_angle_beta   90.00000000
_cell_angle_gamma   119.99999989
_symmetry_Int_Tables_number   1
_chemical_formula_structural   CsNO3
_chemical_formula_sum   'Cs9 N9 O27'
_cell_volume   851.61324146
_cell_formula_units_Z   9
loop_
 _symmetry_equiv_pos_site_id
 _symmetry_equiv_pos_as_xyz
  1  'x, y, z'
loop_
 _atom_site_type_symbol
 _atom_site_label
 _atom_site_symmetry_multiplicity
 _atom_site_fract_x
 _atom_site_fract_y
 _atom_site_fract_z
 _atom_site_occupancy
  Cs  Cs0  1  0.44651404  0.55471640  0.65325567  1
  Cs  Cs1  1  0.78388272  0.22928479  0.63575771  1
  Cs  Cs2  1  0.44528360  0.89179763  0.98658867  1
  Cs  Cs3  1  0.44540207  0.21611728  0.30242471  1
  Cs  Cs4  1  0.10167549  0.88001711  0.66536017  1
  Cs  Cs5  1  0.77834162  0.89832451  0.33202617  1
  Cs  Cs6  1  0.77071521  0.55459793  0.96909071  1
  Cs  Cs7  1  0.11998289  0.22165838  0.99869317  1
  Cs  Cs8  1  0.10820237  0.55348596  0.31992267  1
  N  N9  1  0.79784811  0.90354283  0.86093729  1
  N  N10  1  0.46346537  0.22857652  0.77060572  1
  N  N11  1  0.76511115  0.53653463  0.43727172  1
  N  N12  1  0.77142348  0.23488885  0.10393872  1
  N  N13  1  0.09645717  0.89430528  0.19427129  1
  N  N14  1  0.10569472  0.20215189  0.52760429  1
  N  N15  1  0.13096502  0.53689133  0.82737221  1
  N  N16  1  0.46310867  0.59407369  0.16070521  1
  N  N17  1  0.40592631  0.86903498  0.49403821  1
  O  O18  1  0.00617434  0.77232156  0.23797242  1
  O  O19  1  0.67999528  0.57307067  0.38626644  1
  O  O20  1  0.77784796  0.44544105  0.35350610  1
  O  O21  1  0.22335511  0.55846088  0.93758130  1
  O  O22  1  0.88778914  0.89070459  0.94704970  1
  O  O23  1  0.22767844  0.23385278  0.57130542  1
  O  O24  1  0.34225479  0.89250910  0.37632866  1
  O  O25  1  0.53610474  0.93548702  0.50204004  1
  O  O26  1  0.66759309  0.22215204  0.02017310  1
  O  O27  1  0.44153912  0.66489423  0.27091430  1
  O  O28  1  0.89307539  0.32000472  0.05293344  1
  O  O29  1  0.74206023  0.82666047  0.73420837  1
  O  O30  1  0.17333953  0.91539977  0.06754237  1
  O  O31  1  0.76614722  0.99382566  0.90463842  1
  O  O32  1  0.75176623  0.16346216  0.23532420  1
  O  O33  1  0.33510577  0.77664489  0.60424730  1
  O  O34  1  0.55455895  0.33240691  0.68684010  1
  O  O35  1  0.10929541  0.99708455  0.28038370  1
  O  O36  1  0.41169592  0.24823377  0.90199120  1
  O  O37  1  0.39938227  0.46389526  0.16870704  1
  O  O38  1  0.00291545  0.11221086  0.61371670  1
  O  O39  1  0.08460023  0.25793977  0.40087537  1
  O  O40  1  0.06451298  0.60061773  0.83537404  1
  O  O41  1  0.42692933  0.10692461  0.71960044  1
  O  O42  1  0.10749090  0.44974568  0.70966266  1
  O  O43  1  0.55025432  0.65774521  0.04299566  1
  O  O44  1  0.83653784  0.58830408  0.56865720  1
