# generated using pymatgen
data_V2CdO6
_symmetry_space_group_name_H-M   'P 1'
_cell_length_a   3.65814893
_cell_length_b   5.36517891
_cell_length_c   7.22040989
_cell_angle_alpha   102.09037072
_cell_angle_beta   90.00027313
_cell_angle_gamma   109.93230026
_symmetry_Int_Tables_number   1
_chemical_formula_structural   V2CdO6
_chemical_formula_sum   'V2 Cd1 O6'
_cell_volume   129.87439457
_cell_formula_units_Z   1
loop_
 _symmetry_equiv_pos_site_id
 _symmetry_equiv_pos_as_xyz
  1  'x, y, z'
loop_
 _atom_site_type_symbol
 _atom_site_label
 _atom_site_symmetry_multiplicity
 _atom_site_fract_x
 _atom_site_fract_y
 _atom_site_fract_z
 _atom_site_occupancy
  V  V0  1  0.23321059  0.46644010  0.67220365  1
  V  V1  1  0.76679018  0.53356138  0.32779172  1
  Cd  Cd2  1  0.00000487  0.00000858  0.00000656  1
  O  O3  1  0.08348793  0.16705369  0.73422079  1
  O  O4  1  0.25234179  0.50467119  0.39890871  1
  O  O5  1  0.74766102  0.49533430  0.60108065  1
  O  O6  1  0.36092772  0.72188918  0.87408111  1
  O  O7  1  0.63906807  0.27810232  0.12593088  1
  O  O8  1  0.91650782  0.83293925  0.26577593  1
