# generated using pymatgen
data_BaCr2O4
_symmetry_space_group_name_H-M   'P 1'
_cell_length_a   5.28390981
_cell_length_b   6.09293175
_cell_length_c   12.40598101
_cell_angle_alpha   90.00000000
_cell_angle_beta   90.00000000
_cell_angle_gamma   90.00000000
_symmetry_Int_Tables_number   1
_chemical_formula_structural   BaCr2O4
_chemical_formula_sum   'Ba4 Cr8 O16'
_cell_volume   399.40437852
_cell_formula_units_Z   4
loop_
 _symmetry_equiv_pos_site_id
 _symmetry_equiv_pos_as_xyz
  1  'x, y, z'
loop_
 _atom_site_type_symbol
 _atom_site_label
 _atom_site_symmetry_multiplicity
 _atom_site_fract_x
 _atom_site_fract_y
 _atom_site_fract_z
 _atom_site_occupancy
  Ba  Ba0  1  0.86657474  0.25000000  0.75000000  1
  Ba  Ba1  1  0.13342526  0.75000000  0.25000000  1
  Ba  Ba2  1  0.55413703  0.25000000  0.25000000  1
  Ba  Ba3  1  0.44586297  0.75000000  0.75000000  1
  Cr  Cr4  1  0.50205964  0.75000000  0.49448223  1
  Cr  Cr5  1  0.50205964  0.75000000  0.00551777  1
  Cr  Cr6  1  0.49794036  0.25000000  0.50551777  1
  Cr  Cr7  1  0.49794036  0.25000000  0.99448223  1
  Cr  Cr8  1  0.00000000  0.50000000  0.50000000  1
  Cr  Cr9  1  0.00000000  0.00000000  0.00000000  1
  Cr  Cr10  1  0.00000000  0.00000000  0.50000000  1
  Cr  Cr11  1  0.00000000  0.50000000  0.00000000  1
  O  O12  1  0.83252302  0.75000000  0.41460947  1
  O  O13  1  0.83252302  0.75000000  0.08539053  1
  O  O14  1  0.16747698  0.25000000  0.58539053  1
  O  O15  1  0.16747698  0.25000000  0.91460947  1
  O  O16  1  0.16820238  0.75000000  0.57986166  1
  O  O17  1  0.16820238  0.75000000  0.92013834  1
  O  O18  1  0.83179762  0.25000000  0.42013834  1
  O  O19  1  0.83179762  0.25000000  0.07986166  1
  O  O20  1  0.66520185  0.50265499  0.58733722  1
  O  O21  1  0.66520185  0.99734501  0.91266278  1
  O  O22  1  0.33479815  0.00265499  0.41266278  1
  O  O23  1  0.33479815  0.49734501  0.08733722  1
  O  O24  1  0.33479815  0.49734501  0.41266278  1
  O  O25  1  0.33479815  0.00265499  0.08733722  1
  O  O26  1  0.66520185  0.99734501  0.58733722  1
  O  O27  1  0.66520185  0.50265499  0.91266278  1
