# generated using pymatgen
data_YbAu2F9
_symmetry_space_group_name_H-M   'P 1'
_cell_length_a   9.33264728
_cell_length_b   11.35603072
_cell_length_c   22.22209254
_cell_angle_alpha   90.00000000
_cell_angle_beta   90.00000000
_cell_angle_gamma   90.00000000
_symmetry_Int_Tables_number   1
_chemical_formula_structural   YbAu2F9
_chemical_formula_sum   'Yb12 Au24 F108'
_cell_volume   2355.13801628
_cell_formula_units_Z   12
loop_
 _symmetry_equiv_pos_site_id
 _symmetry_equiv_pos_as_xyz
  1  'x, y, z'
loop_
 _atom_site_type_symbol
 _atom_site_label
 _atom_site_symmetry_multiplicity
 _atom_site_fract_x
 _atom_site_fract_y
 _atom_site_fract_z
 _atom_site_occupancy
  Yb  Yb0  1  0.04245892  0.40452380  0.91545078  1
  Yb  Yb1  1  0.54245892  0.09547620  0.91545078  1
  Yb  Yb2  1  0.31497346  0.00000000  0.75000000  1
  Yb  Yb3  1  0.95754108  0.40452380  0.41545078  1
  Yb  Yb4  1  0.04245892  0.59547620  0.58454922  1
  Yb  Yb5  1  0.45754108  0.09547620  0.41545078  1
  Yb  Yb6  1  0.68502654  0.00000000  0.25000000  1
  Yb  Yb7  1  0.95754108  0.59547620  0.08454922  1
  Yb  Yb8  1  0.81497346  0.50000000  0.75000000  1
  Yb  Yb9  1  0.54245892  0.90452380  0.58454922  1
  Yb  Yb10  1  0.18502654  0.50000000  0.25000000  1
  Yb  Yb11  1  0.45754108  0.90452380  0.08454922  1
  Au  Au12  1  0.66051950  0.60955203  0.49078069  1
  Au  Au13  1  0.86190065  0.28682627  0.17119519  1
  Au  Au14  1  0.16051950  0.10955203  0.00921931  1
  Au  Au15  1  0.93269722  0.92602348  0.66488509  1
  Au  Au16  1  0.33948050  0.39044797  0.50921931  1
  Au  Au17  1  0.56730278  0.57397652  0.16488509  1
  Au  Au18  1  0.63809935  0.21317373  0.67119519  1
  Au  Au19  1  0.86190065  0.71317373  0.32880481  1
  Au  Au20  1  0.13809935  0.28682627  0.67119519  1
  Au  Au21  1  0.36190065  0.21317373  0.17119519  1
  Au  Au22  1  0.13809935  0.71317373  0.82880481  1
  Au  Au23  1  0.06730278  0.92602348  0.16488509  1
  Au  Au24  1  0.93269722  0.07397652  0.83511491  1
  Au  Au25  1  0.43269722  0.42602348  0.83511491  1
  Au  Au26  1  0.66051950  0.39044797  0.00921931  1
  Au  Au27  1  0.33948050  0.60955203  0.99078069  1
  Au  Au28  1  0.43269722  0.57397652  0.66488509  1
  Au  Au29  1  0.16051950  0.89044797  0.49078069  1
  Au  Au30  1  0.63809935  0.78682627  0.82880481  1
  Au  Au31  1  0.56730278  0.42602348  0.33511491  1
  Au  Au32  1  0.83948050  0.89044797  0.99078069  1
  Au  Au33  1  0.83948050  0.10955203  0.50921931  1
  Au  Au34  1  0.36190065  0.78682627  0.32880481  1
  Au  Au35  1  0.06730278  0.07397652  0.33511491  1
  F  F36  1  0.91311490  0.39415256  0.10605141  1
  F  F37  1  0.22162972  0.28514160  0.11924168  1
  F  F38  1  0.50747393  0.41507497  0.06690761  1
  F  F39  1  0.26761456  0.88000546  0.15233213  1
  F  F40  1  0.30303627  0.31859862  0.23621883  1
  F  F41  1  0.63113577  0.52579378  0.67721826  1
  F  F42  1  0.99252607  0.08492503  0.56690761  1
  F  F43  1  0.00364146  0.35846093  0.22441198  1
  F  F44  1  0.86886423  0.02579378  0.32278174  1
  F  F45  1  0.27837028  0.21485840  0.61924168  1
  F  F46  1  0.69696373  0.68140138  0.76378117  1
  F  F47  1  0.26761456  0.11999454  0.34766787  1
  F  F48  1  -0.00283093  0.22167954  0.87102100  1
  F  F49  1  0.19154094  0.63433779  0.05152103  1
  F  F50  1  0.92130084  0.26155510  0.48815704  1
  F  F51  1  0.69154094  0.13433779  0.44847897  1
  F  F52  1  0.42130084  0.76155510  0.01184296  1
  F  F53  1  0.57869916  0.76155510  0.51184296  1
  F  F54  1  1.00283093  0.22167954  0.37102100  1
  F  F55  1  0.07869916  0.73844490  0.51184296  1
  F  F56  1  0.50283093  0.72167954  0.12897900  1
  F  F57  1  0.76100602  0.95692705  0.53278766  1
  F  F58  1  0.99635854  0.35846093  0.72441198  1
  F  F59  1  0.22162972  0.71485840  0.38075832  1
  F  F60  1  0.13113577  0.02579378  0.82278174  1
  F  F61  1  -0.00283093  0.77832046  0.62897900  1
  F  F62  1  0.30845906  0.13433779  0.94847897  1
  F  F63  1  0.27837028  0.78514160  0.88075832  1
  F  F64  1  0.19696373  0.81859862  0.76378117  1
  F  F65  1  0.37250141  0.57510728  0.80028763  1
  F  F66  1  0.76761456  0.38000546  0.34766787  1
  F  F67  1  0.77837028  0.28514160  0.61924168  1
  F  F68  1  0.08688510  0.39415256  0.60605141  1
  F  F69  1  0.91844664  0.55000732  0.66497565  1
  F  F70  1  0.08688510  0.60584744  0.89394859  1
  F  F71  1  0.91311490  0.60584744  0.39394859  1
  F  F72  1  0.41311490  0.10584744  0.10605141  1
  F  F73  1  0.19696373  0.18140138  0.73621883  1
  F  F74  1  0.76761456  0.61999454  0.15233213  1
  F  F75  1  0.41844664  0.05000732  0.83502435  1
  F  F76  1  0.50364146  0.85846093  0.27558802  1
  F  F77  1  0.08155336  0.55000732  0.16497565  1
  F  F78  1  0.49716907  0.27832046  0.87102100  1
  F  F79  1  0.26100602  0.54307295  0.53278766  1
  F  F80  1  0.23238544  0.38000546  0.84766787  1
  F  F81  1  0.80845906  0.36566221  0.94847897  1
  F  F82  1  0.76100602  0.04307295  0.96721234  1
  F  F83  1  0.72162972  0.78514160  0.38075832  1
  F  F84  1  0.23899398  0.04307295  0.46721234  1
  F  F85  1  0.12749859  0.92489272  0.30028763  1
  F  F86  1  0.49635854  0.14153907  0.72441198  1
  F  F87  1  0.50000000  0.00000000  0.00000000  1
  F  F88  1  0.77837028  0.71485840  0.88075832  1
  F  F89  1  0.63113577  0.47420622  0.82278174  1
  F  F90  1  0.49252607  0.41507497  0.56690761  1
  F  F91  1  0.23899398  0.95692705  0.03278766  1
  F  F92  1  0.69696373  0.31859862  0.73621883  1
  F  F93  1  0.00747393  0.08492503  0.06690761  1
  F  F94  1  0.13113577  0.97420622  0.67721826  1
  F  F95  1  0.80303627  0.81859862  0.26378117  1
  F  F96  1  0.73899398  0.54307295  0.03278766  1
  F  F97  1  0.99252607  0.91507497  0.93309239  1
  F  F98  1  0.50283093  0.27832046  0.37102100  1
  F  F99  1  0.00364146  0.64153907  0.27558802  1
  F  F100  1  0.69154094  0.86566221  0.05152103  1
  F  F101  1  0.80303627  0.18140138  0.23621883  1
  F  F102  1  0.73238544  0.88000546  0.65233213  1
  F  F103  1  0.57869916  0.23844490  0.98815704  1
  F  F104  1  0.50747393  0.58492503  0.43309239  1
  F  F105  1  0.37250141  0.42489272  0.69971237  1
  F  F106  1  0.30845906  0.86566221  0.55152103  1
  F  F107  1  0.36886423  0.52579378  0.17721826  1
  F  F108  1  0.86886423  0.97420622  0.17721826  1
  F  F109  1  0.42130084  0.23844490  0.48815704  1
  F  F110  1  0.80845906  0.63433779  0.55152103  1
  F  F111  1  0.87250141  0.07510728  0.69971237  1
  F  F112  1  0.36886423  0.47420622  0.32278174  1
  F  F113  1  0.73238544  0.11999454  0.84766787  1
  F  F114  1  0.26100602  0.45692705  0.96721234  1
  F  F115  1  0.99635854  0.64153907  0.77558802  1
  F  F116  1  0.00000000  0.50000000  0.00000000  1
  F  F117  1  0.50000000  0.00000000  0.50000000  1
  F  F118  1  0.58688510  0.10584744  0.60605141  1
  F  F119  1  0.23238544  0.61999454  0.65233213  1
  F  F120  1  0.62749859  0.42489272  0.19971237  1
  F  F121  1  0.58155336  0.05000732  0.33502435  1
  F  F122  1  1.00283093  0.77832046  0.12897900  1
  F  F123  1  0.41844664  0.94999268  0.66497565  1
  F  F124  1  0.49716907  0.72167954  0.62897900  1
  F  F125  1  0.62749859  0.57510728  0.30028763  1
  F  F126  1  0.49635854  0.85846093  0.77558802  1
  F  F127  1  0.12749859  0.07510728  0.19971237  1
  F  F128  1  0.00747393  0.91507497  0.43309239  1
  F  F129  1  0.58155336  0.94999268  0.16497565  1
  F  F130  1  0.58688510  0.89415256  0.89394859  1
  F  F131  1  0.50364146  0.14153907  0.22441198  1
  F  F132  1  0.73899398  0.45692705  0.46721234  1
  F  F133  1  0.00000000  0.50000000  0.50000000  1
  F  F134  1  0.08155336  0.44999268  0.33502435  1
  F  F135  1  0.91844664  0.44999268  0.83502435  1
  F  F136  1  0.92130084  0.73844490  0.01184296  1
  F  F137  1  0.87250141  0.92489272  0.80028763  1
  F  F138  1  0.41311490  0.89415256  0.39394859  1
  F  F139  1  0.49252607  0.58492503  0.93309239  1
  F  F140  1  0.72162972  0.21485840  0.11924168  1
  F  F141  1  0.19154094  0.36566221  0.44847897  1
  F  F142  1  0.30303627  0.68140138  0.26378117  1
  F  F143  1  0.07869916  0.26155510  0.98815704  1
