# generated using pymatgen
data_CsAg3S2
_symmetry_space_group_name_H-M   'P 1'
_cell_length_a   4.37754016
_cell_length_b   8.44943644
_cell_length_c   9.16837135
_cell_angle_alpha   112.18886157
_cell_angle_beta   90.00000000
_cell_angle_gamma   105.01330381
_symmetry_Int_Tables_number   1
_chemical_formula_structural   CsAg3S2
_chemical_formula_sum   'Cs2 Ag6 S4'
_cell_volume   301.46543146
_cell_formula_units_Z   2
loop_
 _symmetry_equiv_pos_site_id
 _symmetry_equiv_pos_as_xyz
  1  'x, y, z'
loop_
 _atom_site_type_symbol
 _atom_site_label
 _atom_site_symmetry_multiplicity
 _atom_site_fract_x
 _atom_site_fract_y
 _atom_site_fract_z
 _atom_site_occupancy
  Cs  Cs0  1  0.13545299  0.27090599  0.04316915  1
  Cs  Cs1  1  0.86454701  0.72909401  0.95683085  1
  Ag  Ag2  1  0.05832420  0.11664841  0.40142979  1
  Ag  Ag3  1  0.94167580  0.88335159  0.59857021  1
  Ag  Ag4  1  0.40415997  0.80831994  0.35352551  1
  Ag  Ag5  1  0.59584003  0.19168006  0.64647449  1
  Ag  Ag6  1  0.68819826  0.37639651  0.41787997  1
  Ag  Ag7  1  0.31180174  0.62360349  0.58212003  1
  S  S8  1  0.80836725  0.61673450  0.31473431  1
  S  S9  1  0.19163275  0.38326550  0.68526569  1
  S  S10  1  0.52166912  0.04333824  0.23527770  1
  S  S11  1  0.47833088  0.95666176  0.76472230  1
