# generated using pymatgen
data_CsK4TlO4
_symmetry_space_group_name_H-M   'P 1'
_cell_length_a   6.96513296
_cell_length_b   12.24873178
_cell_length_c   21.73200742
_cell_angle_alpha   90.00000000
_cell_angle_beta   90.00000000
_cell_angle_gamma   90.00000000
_symmetry_Int_Tables_number   1
_chemical_formula_structural   CsK4TlO4
_chemical_formula_sum   'Cs8 K32 Tl8 O32'
_cell_volume   1854.04546851
_cell_formula_units_Z   8
loop_
 _symmetry_equiv_pos_site_id
 _symmetry_equiv_pos_as_xyz
  1  'x, y, z'
loop_
 _atom_site_type_symbol
 _atom_site_label
 _atom_site_symmetry_multiplicity
 _atom_site_fract_x
 _atom_site_fract_y
 _atom_site_fract_z
 _atom_site_occupancy
  Cs  Cs0  1  0.41703856  0.66023039  1.00104759  1
  Cs  Cs1  1  0.58296144  0.33976961  -0.00104759  1
  Cs  Cs2  1  0.08296144  0.66023039  0.50104759  1
  Cs  Cs3  1  0.91703856  0.83976961  1.00104759  1
  Cs  Cs4  1  0.91703856  0.33976961  0.49895241  1
  Cs  Cs5  1  0.58296144  0.83976961  0.50104759  1
  Cs  Cs6  1  0.08296144  0.16023039  -0.00104759  1
  Cs  Cs7  1  0.41703856  0.16023039  0.49895241  1
  K  K8  1  0.41910443  0.57581074  0.25129232  1
  K  K9  1  0.91068469  0.17364185  0.17500741  1
  K  K10  1  0.08931531  0.82635815  0.82499259  1
  K  K11  1  0.91169723  0.05737300  0.56665027  1
  K  K12  1  0.40853776  0.19664224  0.85455353  1
  K  K13  1  0.91169723  0.55737300  0.93334973  1
  K  K14  1  0.41169723  0.44262700  0.56665027  1
  K  K15  1  0.09146224  0.69664224  0.14544647  1
  K  K16  1  0.58089557  0.42418926  0.74870768  1
  K  K17  1  0.91068469  0.67364185  0.32499259  1
  K  K18  1  0.58931531  0.67364185  0.82499259  1
  K  K19  1  0.41068469  0.32635815  0.17500741  1
  K  K20  1  0.41910443  0.07581074  0.24870768  1
  K  K21  1  0.08830277  0.94262700  0.43334973  1
  K  K22  1  0.59146224  0.30335776  0.35455353  1
  K  K23  1  0.08931531  0.32635815  0.67500741  1
  K  K24  1  0.40853776  0.69664224  0.64544647  1
  K  K25  1  0.08830277  0.44262700  0.06665027  1
  K  K26  1  0.08089557  0.07581074  0.74870768  1
  K  K27  1  0.58830277  0.05737300  0.06665027  1
  K  K28  1  0.90853776  0.80335776  0.64544647  1
  K  K29  1  0.09146224  0.19664224  0.35455353  1
  K  K30  1  0.41068469  0.82635815  0.32499259  1
  K  K31  1  0.58089557  0.92418926  0.75129232  1
  K  K32  1  0.59146224  0.80335776  0.14544647  1
  K  K33  1  0.08089557  0.57581074  0.75129232  1
  K  K34  1  0.91910443  0.42418926  0.24870768  1
  K  K35  1  0.91910443  0.92418926  0.25129232  1
  K  K36  1  0.90853776  0.30335776  0.85455353  1
  K  K37  1  0.58830277  0.55737300  0.43334973  1
  K  K38  1  0.58931531  0.17364185  0.67500741  1
  K  K39  1  0.41169723  0.94262700  0.93334973  1
  Tl  Tl40  1  0.80868708  0.03723091  0.87280076  1
  Tl  Tl41  1  0.69131292  0.03723091  0.37280076  1
  Tl  Tl42  1  0.19131292  0.46276909  0.37280076  1
  Tl  Tl43  1  0.80868708  0.53723091  0.62719924  1
  Tl  Tl44  1  0.30868708  0.96276909  0.62719924  1
  Tl  Tl45  1  0.30868708  0.46276909  0.87280076  1
  Tl  Tl46  1  0.69131292  0.53723091  0.12719924  1
  Tl  Tl47  1  0.19131292  0.96276909  0.12719924  1
  O  O48  1  0.33674370  0.88037378  0.04940734  1
  O  O49  1  0.21625657  0.87331335  0.71204830  1
  O  O50  1  0.71511329  0.36407417  0.63432478  1
  O  O51  1  0.37488760  0.04219117  0.37597622  1
  O  O52  1  0.28488671  0.63592583  0.36567522  1
  O  O53  1  0.28374343  0.87331335  0.21204830  1
  O  O54  1  0.78374343  0.12668665  0.28795170  1
  O  O55  1  0.71625657  0.12668665  0.78795170  1
  O  O56  1  0.16325630  0.88037378  0.54940734  1
  O  O57  1  0.16325630  0.38037378  0.95059266  1
  O  O58  1  0.66325630  0.11962622  0.95059266  1
  O  O59  1  0.37488760  0.54219117  0.12402378  1
  O  O60  1  0.21625657  0.37331335  0.78795170  1
  O  O61  1  0.33674370  0.38037378  0.45059266  1
  O  O62  1  0.28488671  0.13592583  0.13432478  1
  O  O63  1  0.87488760  0.95780883  0.12402378  1
  O  O64  1  0.71511329  0.86407417  0.86567522  1
  O  O65  1  0.21511329  0.63592583  0.86567522  1
  O  O66  1  0.83674370  0.11962622  0.45059266  1
  O  O67  1  0.87488760  0.45780883  0.37597622  1
  O  O68  1  0.62511240  0.45780883  0.87597622  1
  O  O69  1  0.66325630  0.61962622  0.54940734  1
  O  O70  1  0.12511240  0.54219117  0.62402378  1
  O  O71  1  0.78488671  0.86407417  0.36567522  1
  O  O72  1  0.62511240  0.95780883  0.62402378  1
  O  O73  1  0.28374343  0.37331335  0.28795170  1
  O  O74  1  0.78488671  0.36407417  0.13432478  1
  O  O75  1  0.78374343  0.62668665  0.21204830  1
  O  O76  1  0.12511240  0.04219117  0.87597622  1
  O  O77  1  0.83674370  0.61962622  0.04940734  1
  O  O78  1  0.71625657  0.62668665  0.71204830  1
  O  O79  1  0.21511329  0.13592583  0.63432478  1
