# generated using pymatgen
data_SrMn2(PO4)2
_symmetry_space_group_name_H-M   'P 1'
_cell_length_a   8.97917397
_cell_length_b   9.20950792
_cell_length_c   9.22195521
_cell_angle_alpha   69.06094180
_cell_angle_beta   89.35392521
_cell_angle_gamma   89.68009371
_symmetry_Int_Tables_number   1
_chemical_formula_structural   SrMn2(PO4)2
_chemical_formula_sum   'Sr4 Mn8 P8 O32'
_cell_volume   712.19083885
_cell_formula_units_Z   4
loop_
 _symmetry_equiv_pos_site_id
 _symmetry_equiv_pos_as_xyz
  1  'x, y, z'
loop_
 _atom_site_type_symbol
 _atom_site_label
 _atom_site_symmetry_multiplicity
 _atom_site_fract_x
 _atom_site_fract_y
 _atom_site_fract_z
 _atom_site_occupancy
  Sr  Sr0  1  0.25676289  0.79780838  0.19151111  1
  Sr  Sr1  1  0.74323711  0.20219162  0.80848889  1
  Sr  Sr2  1  0.24961804  0.38820800  0.60913434  1
  Sr  Sr3  1  0.75038196  0.61179200  0.39086566  1
  Mn  Mn4  1  0.07146280  0.99259093  0.75215539  1
  Mn  Mn5  1  0.92853720  0.00740907  0.24784461  1
  Mn  Mn6  1  0.23834396  0.62667050  0.87653774  1
  Mn  Mn7  1  0.76165604  0.37332950  0.12346226  1
  Mn  Mn8  1  0.61011963  0.74515926  0.98269173  1
  Mn  Mn9  1  0.38988037  0.25484074  0.01730827  1
  Mn  Mn10  1  0.71605666  0.89401745  0.61085470  1
  Mn  Mn11  1  0.28394334  0.10598255  0.38914530  1
  P  P12  1  0.07071816  0.78084948  0.53029399  1
  P  P13  1  0.92928184  0.21915052  0.46970601  1
  P  P14  1  0.06163664  0.25503687  0.94607227  1
  P  P15  1  0.93836336  0.74496313  0.05392773  1
  P  P16  1  0.42656294  0.46880564  0.22485637  1
  P  P17  1  0.57343706  0.53119436  0.77514363  1
  P  P18  1  0.41949014  0.04448831  0.76601376  1
  P  P19  1  0.58050986  0.95551169  0.23398624  1
  O  O20  1  0.10851909  0.62395637  0.52112145  1
  O  O21  1  0.89148091  0.37604363  0.47887855  1
  O  O22  1  0.90119848  0.82040303  0.49652686  1
  O  O23  1  0.09880152  0.17959697  0.50347314  1
  O  O24  1  0.11220380  0.79189504  0.68954027  1
  O  O25  1  0.88779620  0.20810496  0.31045973  1
  O  O26  1  0.84443898  0.08855124  0.60422431  1
  O  O27  1  0.15556102  0.91144876  0.39577569  1
  O  O28  1  0.09204801  0.67988969  0.03232143  1
  O  O29  1  0.90795199  0.32011031  0.96767857  1
  O  O30  1  0.10982623  0.11524872  0.09063121  1
  O  O31  1  0.89017377  0.88475128  0.90936879  1
  O  O32  1  0.04885154  0.20410056  0.80235094  1
  O  O33  1  0.95114846  0.79589944  0.19764906  1
  O  O34  1  0.18673833  0.38123590  0.90771575  1
  O  O35  1  0.81326167  0.61876410  0.09228425  1
  O  O36  1  0.35289880  0.52469683  0.34686959  1
  O  O37  1  0.64710120  0.47530317  0.65313041  1
  O  O38  1  0.40641867  0.56660788  0.74014102  1
  O  O39  1  0.59358133  0.43339212  0.25985898  1
  O  O40  1  0.65495900  0.67687160  0.78432466  1
  O  O41  1  0.34504100  0.32312840  0.21567534  1
  O  O42  1  0.40942630  0.60461982  0.06108781  1
  O  O43  1  0.59057370  0.39538018  0.93891219  1
  O  O44  1  0.38799694  0.10951636  0.59048661  1
  O  O45  1  0.61200306  0.89048364  0.40951339  1
  O  O46  1  0.57637858  0.96359900  0.79414072  1
  O  O47  1  0.42362142  0.03640100  0.20585928  1
  O  O48  1  0.29680807  0.93059151  0.86078119  1
  O  O49  1  0.70319193  0.06940849  0.13921881  1
  O  O50  1  0.56873196  0.81348755  0.17963191  1
  O  O51  1  0.43126804  0.18651245  0.82036809  1
