# generated using pymatgen
data_KBa3
_symmetry_space_group_name_H-M   'P 1'
_cell_length_a   9.08014538
_cell_length_b   9.08014569
_cell_length_c   7.45221166
_cell_angle_alpha   90.00000000
_cell_angle_beta   90.00000000
_cell_angle_gamma   119.99999886
_symmetry_Int_Tables_number   1
_chemical_formula_structural   KBa3
_chemical_formula_sum   'K2 Ba6'
_cell_volume   532.11001981
_cell_formula_units_Z   2
loop_
 _symmetry_equiv_pos_site_id
 _symmetry_equiv_pos_as_xyz
  1  'x, y, z'
loop_
 _atom_site_type_symbol
 _atom_site_label
 _atom_site_symmetry_multiplicity
 _atom_site_fract_x
 _atom_site_fract_y
 _atom_site_fract_z
 _atom_site_occupancy
  K  K0  1  0.66666700  0.33333200  0.25000000  1
  K  K1  1  0.33333400  0.66666900  0.75000000  1
  Ba  Ba2  1  0.83730973  0.67461945  0.75000000  1
  Ba  Ba3  1  0.16269027  0.83731073  0.25000000  1
  Ba  Ba4  1  0.67462045  0.83731073  0.25000000  1
  Ba  Ba5  1  0.16269027  0.32538055  0.25000000  1
  Ba  Ba6  1  0.32537955  0.16268927  0.75000000  1
  Ba  Ba7  1  0.83730973  0.16268927  0.75000000  1
