# generated using pymatgen
data_Cs3SbO3
_symmetry_space_group_name_H-M   'P 1'
_cell_length_a   9.35897074
_cell_length_b   9.35897074
_cell_length_c   9.35897074
_cell_angle_alpha   90.00000000
_cell_angle_beta   90.00000000
_cell_angle_gamma   90.00000000
_symmetry_Int_Tables_number   1
_chemical_formula_structural   Cs3SbO3
_chemical_formula_sum   'Cs12 Sb4 O12'
_cell_volume   819.75536658
_cell_formula_units_Z   4
loop_
 _symmetry_equiv_pos_site_id
 _symmetry_equiv_pos_as_xyz
  1  'x, y, z'
loop_
 _atom_site_type_symbol
 _atom_site_label
 _atom_site_symmetry_multiplicity
 _atom_site_fract_x
 _atom_site_fract_y
 _atom_site_fract_z
 _atom_site_occupancy
  Cs  Cs0  1  0.27724423  0.72275577  0.22275577  1
  Cs  Cs1  1  0.48661449  0.98661449  0.51338551  1
  Cs  Cs2  1  0.22275577  0.27724423  0.72275577  1
  Cs  Cs3  1  0.01338551  0.01338551  0.01338551  1
  Cs  Cs4  1  0.77292893  0.22707107  0.72707107  1
  Cs  Cs5  1  0.72707107  0.77292893  0.22707107  1
  Cs  Cs6  1  0.51338551  0.48661449  0.98661449  1
  Cs  Cs7  1  0.98661449  0.51338551  0.48661449  1
  Cs  Cs8  1  0.22707107  0.72707107  0.77292893  1
  Cs  Cs9  1  0.72275577  0.22275577  0.27724423  1
  Cs  Cs10  1  0.77724423  0.77724423  0.77724423  1
  Cs  Cs11  1  0.27292893  0.27292893  0.27292893  1
  Sb  Sb12  1  0.50143903  0.50143903  0.50143903  1
  Sb  Sb13  1  0.99856097  0.49856097  0.00143903  1
  Sb  Sb14  1  0.49856097  0.00143903  0.99856097  1
  Sb  Sb15  1  0.00143903  0.99856097  0.49856097  1
  O  O16  1  0.46118617  0.00429109  0.20597025  1
  O  O17  1  0.70597025  0.03881383  0.99570891  1
  O  O18  1  0.00429109  0.20597025  0.46118617  1
  O  O19  1  0.96118617  0.49570891  0.79402975  1
  O  O20  1  0.03881383  0.99570891  0.70597025  1
  O  O21  1  0.49570891  0.79402975  0.96118617  1
  O  O22  1  0.79402975  0.96118617  0.49570891  1
  O  O23  1  0.20597025  0.46118617  0.00429109  1
  O  O24  1  0.99570891  0.70597025  0.03881383  1
  O  O25  1  0.53881383  0.50429109  0.29402975  1
  O  O26  1  0.29402975  0.53881383  0.50429109  1
  O  O27  1  0.50429109  0.29402975  0.53881383  1
