# generated using pymatgen
data_K(TeO3)2
_symmetry_space_group_name_H-M   'P 1'
_cell_length_a   7.29685763
_cell_length_b   7.29685737
_cell_length_c   12.19687312
_cell_angle_alpha   76.16810672
_cell_angle_beta   76.16810721
_cell_angle_gamma   60.58596733
_symmetry_Int_Tables_number   1
_chemical_formula_structural   K(TeO3)2
_chemical_formula_sum   'K4 Te8 O24'
_cell_volume   543.58226270
_cell_formula_units_Z   4
loop_
 _symmetry_equiv_pos_site_id
 _symmetry_equiv_pos_as_xyz
  1  'x, y, z'
loop_
 _atom_site_type_symbol
 _atom_site_label
 _atom_site_symmetry_multiplicity
 _atom_site_fract_x
 _atom_site_fract_y
 _atom_site_fract_z
 _atom_site_occupancy
  K  K0  1  0.43320723  0.43320723  0.69220798  1
  K  K1  1  0.56679277  0.56679277  0.30779202  1
  K  K2  1  0.08243150  0.08243150  0.81626969  1
  K  K3  1  0.91756850  0.91756850  0.18373031  1
  Te  Te4  1  0.00000000  0.00000000  0.50000000  1
  Te  Te5  1  0.73583016  0.73583016  0.74224601  1
  Te  Te6  1  0.50000000  0.50000000  0.00000000  1
  Te  Te7  1  0.26416984  0.26416984  0.25775399  1
  Te  Te8  1  0.50000000  0.00000000  0.50000000  1
  Te  Te9  1  0.00000000  0.50000000  0.00000000  1
  Te  Te10  1  0.50000000  0.00000000  0.00000000  1
  Te  Te11  1  0.00000000  0.50000000  0.50000000  1
  O  O12  1  0.00349168  0.00349168  0.34879462  1
  O  O13  1  0.74082033  0.74082033  0.44091583  1
  O  O14  1  0.80682863  0.80682863  0.98214746  1
  O  O15  1  0.19317137  0.19317137  0.01785254  1
  O  O16  1  0.08517215  0.68204720  0.54485692  1
  O  O17  1  0.99224891  0.49989110  0.15689311  1
  O  O18  1  0.31795280  0.91482785  0.45514308  1
  O  O19  1  0.85267118  0.48107356  0.65527876  1
  O  O20  1  0.91482785  0.31795280  0.45514308  1
  O  O21  1  0.77646867  0.39924730  0.04604517  1
  O  O22  1  0.51892644  0.14732882  0.34472124  1
  O  O23  1  0.50010890  0.00775109  0.84310689  1
  O  O24  1  0.60075270  0.22353133  0.95395483  1
  O  O25  1  0.41727776  0.41727776  0.16095747  1
  O  O26  1  0.49989110  0.99224891  0.15689311  1
  O  O27  1  0.39924730  0.77646867  0.04604517  1
  O  O28  1  0.25917967  0.25917967  0.55908417  1
  O  O29  1  0.14732882  0.51892644  0.34472124  1
  O  O30  1  0.58272224  0.58272224  0.83904253  1
  O  O31  1  0.00775109  0.50010890  0.84310689  1
  O  O32  1  0.22353133  0.60075270  0.95395483  1
  O  O33  1  0.48107356  0.85267118  0.65527876  1
  O  O34  1  0.99650832  0.99650832  0.65120538  1
  O  O35  1  0.68204720  0.08517215  0.54485692  1
