# generated using pymatgen
data_CsAlAgF6
_symmetry_space_group_name_H-M   'P 1'
_cell_length_a   7.34667604
_cell_length_b   7.57565455
_cell_length_c   10.54870110
_cell_angle_alpha   90.00000000
_cell_angle_beta   90.00000000
_cell_angle_gamma   90.00000000
_symmetry_Int_Tables_number   1
_chemical_formula_structural   CsAlAgF6
_chemical_formula_sum   'Cs4 Al4 Ag4 F24'
_cell_volume   587.09724015
_cell_formula_units_Z   4
loop_
 _symmetry_equiv_pos_site_id
 _symmetry_equiv_pos_as_xyz
  1  'x, y, z'
loop_
 _atom_site_type_symbol
 _atom_site_label
 _atom_site_symmetry_multiplicity
 _atom_site_fract_x
 _atom_site_fract_y
 _atom_site_fract_z
 _atom_site_occupancy
  Cs  Cs0  1  0.75000000  0.52081995  0.86602574  1
  Cs  Cs1  1  0.25000000  0.47918005  0.13397426  1
  Cs  Cs2  1  0.25000000  0.97918005  0.36602574  1
  Cs  Cs3  1  0.75000000  0.02081995  0.63397426  1
  Al  Al4  1  0.50000000  0.00000000  0.00000000  1
  Al  Al5  1  0.50000000  0.50000000  0.50000000  1
  Al  Al6  1  0.00000000  0.00000000  0.00000000  1
  Al  Al7  1  0.00000000  0.50000000  0.50000000  1
  Ag  Ag8  1  0.25000000  0.78441707  0.74585561  1
  Ag  Ag9  1  0.75000000  0.71558293  0.24585561  1
  Ag  Ag10  1  0.25000000  0.28441707  0.75414439  1
  Ag  Ag11  1  0.75000000  0.21558293  0.25414439  1
  F  F12  1  0.25000000  0.46415132  0.49461953  1
  F  F13  1  0.75000000  0.53584868  0.50538047  1
  F  F14  1  0.75000000  0.96271243  0.33130107  1
  F  F15  1  0.47023035  0.70040543  0.59314776  1
  F  F16  1  0.25000000  0.96415132  0.00538047  1
  F  F17  1  0.01292033  0.63205937  0.35526544  1
  F  F18  1  0.02976965  0.20040543  0.90685224  1
  F  F19  1  0.52976965  0.29959457  0.40685224  1
  F  F20  1  0.51292033  0.86794063  0.85526544  1
  F  F21  1  0.25000000  0.53728757  0.83130107  1
  F  F22  1  0.98707967  0.86794063  0.85526544  1
  F  F23  1  0.51292033  0.36794063  0.64473456  1
  F  F24  1  0.47023035  0.20040543  0.90685224  1
  F  F25  1  0.97023035  0.29959457  0.40685224  1
  F  F26  1  0.25000000  0.03728757  0.66869893  1
  F  F27  1  0.97023035  0.79959457  0.09314776  1
  F  F28  1  0.48707967  0.63205937  0.35526544  1
  F  F29  1  0.75000000  0.46271243  0.16869893  1
  F  F30  1  0.75000000  0.03584868  0.99461953  1
  F  F31  1  0.48707967  0.13205937  0.14473456  1
  F  F32  1  0.98707967  0.36794063  0.64473456  1
  F  F33  1  0.52976965  0.79959457  0.09314776  1
  F  F34  1  0.01292033  0.13205937  0.14473456  1
  F  F35  1  0.02976965  0.70040543  0.59314776  1
