# generated using pymatgen
data_BaCrF5
_symmetry_space_group_name_H-M   'P 1'
_cell_length_a   5.06828248
_cell_length_b   5.82100004
_cell_length_c   14.20438020
_cell_angle_alpha   90.00000000
_cell_angle_beta   90.00000000
_cell_angle_gamma   90.00000000
_symmetry_Int_Tables_number   1
_chemical_formula_structural   BaCrF5
_chemical_formula_sum   'Ba4 Cr4 F20'
_cell_volume   419.06433650
_cell_formula_units_Z   4
loop_
 _symmetry_equiv_pos_site_id
 _symmetry_equiv_pos_as_xyz
  1  'x, y, z'
loop_
 _atom_site_type_symbol
 _atom_site_label
 _atom_site_symmetry_multiplicity
 _atom_site_fract_x
 _atom_site_fract_y
 _atom_site_fract_z
 _atom_site_occupancy
  Ba  Ba0  1  0.98529941  0.91112497  0.90730388  1
  Ba  Ba1  1  0.48529941  0.08887503  0.59269612  1
  Ba  Ba2  1  0.51470059  0.41112497  0.09269612  1
  Ba  Ba3  1  0.01470059  0.58887503  0.40730388  1
  Cr  Cr4  1  0.57408989  0.39809137  0.83495166  1
  Cr  Cr5  1  0.07408989  0.60190863  0.66504834  1
  Cr  Cr6  1  0.92591011  0.89809137  0.16504834  1
  Cr  Cr7  1  0.42591011  0.10190863  0.33495166  1
  F  F8  1  0.21849878  0.85737142  0.73354303  1
  F  F9  1  0.71849878  0.14262858  0.76645697  1
  F  F10  1  0.28150122  0.35737142  0.26645697  1
  F  F11  1  0.78150122  0.64262858  0.23354303  1
  F  F12  1  0.91230831  0.81495469  0.57847312  1
  F  F13  1  0.41230831  0.18504531  0.92152688  1
  F  F14  1  0.58769169  0.31495469  0.42152688  1
  F  F15  1  0.08769169  0.68504531  0.07847312  1
  F  F16  1  0.44390630  0.65390461  0.90898579  1
  F  F17  1  0.94390630  0.34609539  0.59101421  1
  F  F18  1  0.05609370  0.15390461  0.09101421  1
  F  F19  1  0.55609370  0.84609539  0.40898579  1
  F  F20  1  0.86851758  0.39978176  0.92031992  1
  F  F21  1  0.36851758  0.60021824  0.57968008  1
  F  F22  1  0.63148242  0.89978176  0.07968008  1
  F  F23  1  0.13148242  0.10021824  0.42031992  1
  F  F24  1  0.76754185  0.61696113  0.75284143  1
  F  F25  1  0.26754185  0.38303887  0.74715857  1
  F  F26  1  0.73245815  0.11696113  0.24715857  1
  F  F27  1  0.23245815  0.88303887  0.25284143  1
