# generated using pymatgen
data_Ba2FeCoF9
_symmetry_space_group_name_H-M   'P 1'
_cell_length_a   5.79558646
_cell_length_b   7.60428718
_cell_length_c   18.01439978
_cell_angle_alpha   90.00000000
_cell_angle_beta   90.00000000
_cell_angle_gamma   91.10388479
_symmetry_Int_Tables_number   1
_chemical_formula_structural   Ba2FeCoF9
_chemical_formula_sum   'Ba8 Fe4 Co4 F36'
_cell_volume   793.77074163
_cell_formula_units_Z   4
loop_
 _symmetry_equiv_pos_site_id
 _symmetry_equiv_pos_as_xyz
  1  'x, y, z'
loop_
 _atom_site_type_symbol
 _atom_site_label
 _atom_site_symmetry_multiplicity
 _atom_site_fract_x
 _atom_site_fract_y
 _atom_site_fract_z
 _atom_site_occupancy
  Ba  Ba0  1  0.24484074  0.19770246  0.03607633  1
  Ba  Ba1  1  0.25515926  0.30229754  0.53607633  1
  Ba  Ba2  1  0.75515926  0.80229754  0.96392367  1
  Ba  Ba3  1  0.74484074  0.69770246  0.46392367  1
  Ba  Ba4  1  0.21721676  0.42849435  0.28268624  1
  Ba  Ba5  1  0.28278324  0.07150565  0.78268624  1
  Ba  Ba6  1  0.78278324  0.57150565  0.71731376  1
  Ba  Ba7  1  0.71721676  0.92849435  0.21731376  1
  Fe  Fe8  1  0.26516388  0.91231734  0.37429807  1
  Fe  Fe9  1  0.23483612  0.58768266  0.87429807  1
  Fe  Fe10  1  0.73483612  0.08768266  0.62570193  1
  Fe  Fe11  1  0.76516388  0.41231734  0.12570193  1
  Co  Co12  1  0.26877229  0.72852439  0.08714085  1
  Co  Co13  1  0.23122771  0.77147561  0.58714085  1
  Co  Co14  1  0.73122771  0.27147561  0.91285915  1
  Co  Co15  1  0.76877229  0.22852439  0.41285915  1
  F  F16  1  0.50289887  0.39876120  0.41473784  1
  F  F17  1  0.99710113  0.10123880  0.91473784  1
  F  F18  1  0.49710113  0.60123880  0.58526216  1
  F  F19  1  0.00289887  0.89876120  0.08526216  1
  F  F20  1  0.31215791  0.70412097  0.19450737  1
  F  F21  1  0.18784209  0.79587903  0.69450737  1
  F  F22  1  0.68784209  0.29587903  0.80549263  1
  F  F23  1  0.81215791  0.20412097  0.30549263  1
  F  F24  1  0.31002216  0.06473811  0.29072255  1
  F  F25  1  0.18997784  0.43526189  0.79072255  1
  F  F26  1  0.68997784  0.93526189  0.70927745  1
  F  F27  1  0.81002216  0.56473811  0.20927745  1
  F  F28  1  0.24380269  0.75938798  0.46707050  1
  F  F29  1  0.25619731  0.74061202  0.96707050  1
  F  F30  1  0.75619731  0.24061202  0.53292950  1
  F  F31  1  0.74380269  0.25938798  0.03292950  1
  F  F32  1  0.49995074  0.93156901  0.08207665  1
  F  F33  1  1.00004926  0.56843099  0.58207665  1
  F  F34  1  0.50004926  0.06843099  0.91792335  1
  F  F35  1  -0.00004926  0.43156901  0.41792335  1
  F  F36  1  0.49845458  0.28714669  0.16536914  1
  F  F37  1  1.00154542  0.21285331  0.66536914  1
  F  F38  1  0.50154542  0.71285331  0.83463086  1
  F  F39  1  -0.00154542  0.78714669  0.33463086  1
  F  F40  1  0.47995485  0.74038866  0.33621964  1
  F  F41  1  0.02004515  0.75961134  0.83621964  1
  F  F42  1  0.52004515  0.25961134  0.66378036  1
  F  F43  1  0.97995485  0.24038866  0.16378036  1
  F  F44  1  0.04250105  0.51808424  0.07652958  1
  F  F45  1  0.45749895  0.98191576  0.57652958  1
  F  F46  1  0.95749895  0.48191576  0.92347042  1
  F  F47  1  0.54250105  0.01808424  0.42347042  1
  F  F48  1  0.06429622  0.07229902  0.42896499  1
  F  F49  1  0.43570378  0.42770098  0.92896499  1
  F  F50  1  0.93570378  0.92770098  0.57103501  1
  F  F51  1  0.56429622  0.57229902  0.07103501  1
