# generated using pymatgen
data_KLiCO3
_symmetry_space_group_name_H-M   'P 1'
_cell_length_a   6.73627415
_cell_length_b   7.17483497
_cell_length_c   7.32305272
_cell_angle_alpha   90.00000000
_cell_angle_beta   113.04759874
_cell_angle_gamma   90.00000000
_symmetry_Int_Tables_number   1
_chemical_formula_structural   KLiCO3
_chemical_formula_sum   'K4 Li4 C4 O12'
_cell_volume   325.68412424
_cell_formula_units_Z   4
loop_
 _symmetry_equiv_pos_site_id
 _symmetry_equiv_pos_as_xyz
  1  'x, y, z'
loop_
 _atom_site_type_symbol
 _atom_site_label
 _atom_site_symmetry_multiplicity
 _atom_site_fract_x
 _atom_site_fract_y
 _atom_site_fract_z
 _atom_site_occupancy
  K  K0  1  0.17722283  0.64636611  0.34457051  1
  K  K1  1  0.32277717  0.14636611  0.15542949  1
  K  K2  1  0.82277717  0.35363389  0.65542949  1
  K  K3  1  0.67722283  0.85363389  0.84457051  1
  Li  Li4  1  0.39614648  0.43038490  0.79941588  1
  Li  Li5  1  0.60385352  0.56961510  0.20058412  1
  Li  Li6  1  0.10385352  0.93038490  0.70058412  1
  Li  Li7  1  0.89614648  0.06961510  0.29941588  1
  C  C8  1  0.78595917  0.33184367  0.08216021  1
  C  C9  1  0.21404083  0.66815633  0.91783979  1
  C  C10  1  0.71404083  0.83184367  0.41783979  1
  C  C11  1  0.28595917  0.16815633  0.58216021  1
  O  O12  1  0.77711942  0.33339776  0.25879411  1
  O  O13  1  0.22288058  0.66660224  0.74120589  1
  O  O14  1  0.70597542  0.47353736  0.96499803  1
  O  O15  1  0.27711942  0.16660224  0.75879411  1
  O  O16  1  0.72288058  0.83339776  0.24120589  1
  O  O17  1  0.37090751  0.30957845  0.53091287  1
  O  O18  1  0.87090751  0.19042155  0.03091287  1
  O  O19  1  0.20597542  0.02646264  0.46499803  1
  O  O20  1  0.29402458  0.52646264  0.03500197  1
  O  O21  1  0.12909249  0.80957845  0.96908713  1
  O  O22  1  0.79402458  0.97353736  0.53500197  1
  O  O23  1  0.62909249  0.69042155  0.46908713  1
