# generated using pymatgen
data_K2S2O7
_symmetry_space_group_name_H-M   'P 1'
_cell_length_a   7.35546183
_cell_length_b   7.35546230
_cell_length_c   7.42276995
_cell_angle_alpha   88.20565601
_cell_angle_beta   88.20565581
_cell_angle_gamma   60.93329788
_symmetry_Int_Tables_number   1
_chemical_formula_structural   K2S2O7
_chemical_formula_sum   'K4 S4 O14'
_cell_volume   350.78238348
_cell_formula_units_Z   2
loop_
 _symmetry_equiv_pos_site_id
 _symmetry_equiv_pos_as_xyz
  1  'x, y, z'
loop_
 _atom_site_type_symbol
 _atom_site_label
 _atom_site_symmetry_multiplicity
 _atom_site_fract_x
 _atom_site_fract_y
 _atom_site_fract_z
 _atom_site_occupancy
  K  K0  1  0.19861940  0.50921376  0.85094649  1
  K  K1  1  0.50921376  0.19861940  0.35094649  1
  K  K2  1  0.49078624  0.80138060  0.64905351  1
  K  K3  1  0.80138060  0.49078624  0.14905351  1
  S  S4  1  0.08421874  0.71324731  0.35629161  1
  S  S5  1  0.28675269  0.91578126  0.14370839  1
  S  S6  1  0.91578126  0.28675269  0.64370839  1
  S  S7  1  0.71324731  0.08421874  0.85629161  1
  O  O8  1  0.19809035  0.13284542  0.08812661  1
  O  O9  1  0.86715458  0.80190965  0.41187339  1
  O  O10  1  0.84973561  0.44922904  0.77870327  1
  O  O11  1  0.55077096  0.15026439  0.72129673  1
  O  O12  1  0.80190965  0.86715458  0.91187339  1
  O  O13  1  0.65363244  0.23184846  0.00295509  1
  O  O14  1  0.91823584  0.08176416  0.75000000  1
  O  O15  1  0.76815154  0.34636756  0.49704491  1
  O  O16  1  0.34636756  0.76815154  0.99704491  1
  O  O17  1  0.44922904  0.84973561  0.27870327  1
  O  O18  1  0.15026439  0.55077096  0.22129673  1
  O  O19  1  0.08176416  0.91823584  0.25000000  1
  O  O20  1  0.23184846  0.65363244  0.50295509  1
  O  O21  1  0.13284542  0.19809035  0.58812661  1
