# generated using pymatgen
data_K3EuV2O8
_symmetry_space_group_name_H-M   'P 1'
_cell_length_a   6.06213705
_cell_length_b   7.67775002
_cell_length_c   10.04879879
_cell_angle_alpha   91.18616501
_cell_angle_beta   90.00000000
_cell_angle_gamma   90.00000000
_symmetry_Int_Tables_number   1
_chemical_formula_structural   K3EuV2O8
_chemical_formula_sum   'K6 Eu2 V4 O16'
_cell_volume   467.60677409
_cell_formula_units_Z   2
loop_
 _symmetry_equiv_pos_site_id
 _symmetry_equiv_pos_as_xyz
  1  'x, y, z'
loop_
 _atom_site_type_symbol
 _atom_site_label
 _atom_site_symmetry_multiplicity
 _atom_site_fract_x
 _atom_site_fract_y
 _atom_site_fract_z
 _atom_site_occupancy
  K  K0  1  0.25000000  0.49667916  0.30693091  1
  K  K1  1  0.75000000  0.50332084  0.69306909  1
  K  K2  1  0.25000000  0.19112146  0.58245406  1
  K  K3  1  0.75000000  0.80887854  0.41754594  1
  V  V4  1  0.25000000  0.18867881  0.92729711  1
  V  V5  1  0.75000000  0.81132119  0.07270289  1
  O  O6  1  0.25000000  0.97308458  0.97150516  1
  O  O7  1  0.75000000  0.02691542  0.02849484  1
  O  O8  1  0.25000000  0.30511497  0.07664931  1
  O  O9  1  0.75000000  0.69488503  0.92335069  1
  O  O10  1  0.51448370  0.76221505  0.16719113  1
  O  O11  1  0.01448370  0.23778495  0.83280887  1
  O  O12  1  0.48551630  0.23778495  0.83280887  1
  O  O13  1  0.98551630  0.76221505  0.16719113  1
  K  K14  1  0.25000000  0.64129159  0.91960552  1
  K  K15  1  0.75000000  0.35870841  0.08039448  1
  Eu  Eu16  1  0.25000000  0.98619766  0.21662121  1
  Eu  Eu17  1  0.75000000  0.01380234  0.78337879  1
  V  V18  1  0.25000000  0.76041899  0.59019990  1
  V  V19  1  0.75000000  0.23958101  0.40980010  1
  O  O20  1  0.25000000  0.53786185  0.59410843  1
  O  O21  1  0.75000000  0.46213815  0.40589157  1
  O  O22  1  0.25000000  0.82889428  0.42456792  1
  O  O23  1  0.75000000  0.17110572  0.57543208  1
  O  O24  1  0.51207425  0.16041827  0.32958574  1
  O  O25  1  0.01207425  0.83958173  0.67041426  1
  O  O26  1  0.48792575  0.83958173  0.67041426  1
  O  O27  1  0.98792575  0.16041827  0.32958574  1
