# generated using pymatgen
data_Na2Te4WO12
_symmetry_space_group_name_H-M   'P 1'
_cell_length_a   5.87978586
_cell_length_b   9.24997960
_cell_length_c   11.46642166
_cell_angle_alpha   104.08846617
_cell_angle_beta   90.00000000
_cell_angle_gamma   108.53156292
_symmetry_Int_Tables_number   1
_chemical_formula_structural   Na2Te4WO12
_chemical_formula_sum   'Na4 Te8 W2 O24'
_cell_volume   571.47962622
_cell_formula_units_Z   2
loop_
 _symmetry_equiv_pos_site_id
 _symmetry_equiv_pos_as_xyz
  1  'x, y, z'
loop_
 _atom_site_type_symbol
 _atom_site_label
 _atom_site_symmetry_multiplicity
 _atom_site_fract_x
 _atom_site_fract_y
 _atom_site_fract_z
 _atom_site_occupancy
  Na  Na0  1  0.98318063  0.42314477  0.26603735  1
  Na  Na1  1  0.56003586  0.57685523  0.23396265  1
  Na  Na2  1  0.01681937  0.57685523  0.73396265  1
  Na  Na3  1  0.43996414  0.42314477  0.76603735  1
  Te  Te4  1  0.12123542  0.81172695  0.40134074  1
  Te  Te5  1  0.30950847  0.18827305  0.09865926  1
  Te  Te6  1  0.87876458  0.18827305  0.59865926  1
  Te  Te7  1  0.69049153  0.81172695  0.90134074  1
  Te  Te8  1  0.17234710  0.68604434  0.06371831  1
  Te  Te9  1  0.48630175  0.31395566  0.43628169  1
  Te  Te10  1  0.82765290  0.31395566  0.93628169  1
  Te  Te11  1  0.51369825  0.68604434  0.56371831  1
  W  W12  1  0.66003168  0.00000000  0.25000000  1
  W  W13  1  0.33996832  1.00000000  0.75000000  1
  O  O14  1  0.71693100  0.22226485  0.33810213  1
  O  O15  1  0.49466615  0.77773515  0.16189787  1
  O  O16  1  0.28306900  0.77773515  0.66189787  1
  O  O17  1  0.50533385  0.22226485  0.83810213  1
  O  O18  1  0.16649765  0.48154785  0.07079128  1
  O  O19  1  0.68494980  0.51845215  0.42920872  1
  O  O20  1  0.83350235  0.51845215  0.92920872  1
  O  O21  1  0.31505020  0.48154785  0.57079128  1
  O  O22  1  0.32023656  0.67445345  0.41039929  1
  O  O23  1  0.64578211  0.32554655  0.08960071  1
  O  O24  1  0.67976344  0.32554655  0.58960071  1
  O  O25  1  0.35421789  0.67445345  0.91039929  1
  O  O26  1  0.99335496  0.68191876  0.24521347  1
  O  O27  1  0.31143620  0.31808124  0.25478653  1
  O  O28  1  0.00664504  0.31808124  0.75478653  1
  O  O29  1  0.68856380  0.68191876  0.74521347  1
  O  O30  1  0.36925443  0.97685352  0.36403787  1
  O  O31  1  0.39240091  0.02314648  0.13596213  1
  O  O32  1  0.63074557  0.02314648  0.63596213  1
  O  O33  1  0.60759909  0.97685352  0.86403787  1
  O  O34  1  0.88047722  0.04749481  0.14246889  1
  O  O35  1  0.83298341  0.95250519  0.35753111  1
  O  O36  1  0.11952278  0.95250519  0.85753111  1
  O  O37  1  0.16701659  0.04749481  0.64246889  1
