# generated using pymatgen
data_Cs2PbO2
_symmetry_space_group_name_H-M   'P 1'
_cell_length_a   8.03025463
_cell_length_b   8.34491784
_cell_length_c   11.16478397
_cell_angle_alpha   85.06848898
_cell_angle_beta   70.62746976
_cell_angle_gamma   61.33257255
_symmetry_Int_Tables_number   1
_chemical_formula_structural   Cs2PbO2
_chemical_formula_sum   'Cs8 Pb4 O8'
_cell_volume   616.86915873
_cell_formula_units_Z   4
loop_
 _symmetry_equiv_pos_site_id
 _symmetry_equiv_pos_as_xyz
  1  'x, y, z'
loop_
 _atom_site_type_symbol
 _atom_site_label
 _atom_site_symmetry_multiplicity
 _atom_site_fract_x
 _atom_site_fract_y
 _atom_site_fract_z
 _atom_site_occupancy
  Cs  Cs0  1  0.24422748  0.26129717  0.49273885  1
  Cs  Cs1  1  0.07147946  0.93786495  0.18055028  1
  Cs  Cs2  1  0.93638020  0.54980360  0.82861063  1
  Cs  Cs3  1  0.92852054  0.06213505  0.81944972  1
  Cs  Cs4  1  0.59873314  0.43204491  0.14523197  1
  Cs  Cs5  1  0.06361980  0.45019640  0.17138937  1
  Cs  Cs6  1  0.40126686  0.56795509  0.85476803  1
  Cs  Cs7  1  0.75577252  0.73870283  0.50726115  1
  Pb  Pb8  1  0.59757308  0.94164149  0.11911110  1
  Pb  Pb9  1  0.31125833  0.69344840  0.47305620  1
  Pb  Pb10  1  0.68874167  0.30655160  0.52694380  1
  Pb  Pb11  1  0.40242692  0.05835851  0.88088890  1
  O  O12  1  0.49377354  0.81696230  0.00597769  1
  O  O13  1  0.79837998  0.40809786  0.63870553  1
  O  O14  1  0.91783003  0.79173190  0.02421222  1
  O  O15  1  0.50622646  0.18303770  0.99402231  1
  O  O16  1  0.08216997  0.20826810  0.97578778  1
  O  O17  1  0.20162002  0.59190214  0.36129447  1
  O  O18  1  0.65079354  0.51384530  0.37939741  1
  O  O19  1  0.34920646  0.48615470  0.62060259  1
