# generated using pymatgen
data_SrCr2O4
_symmetry_space_group_name_H-M   'P 1'
_cell_length_a   5.23613369
_cell_length_b   6.03802464
_cell_length_c   11.71517008
_cell_angle_alpha   90.00000000
_cell_angle_beta   90.00000000
_cell_angle_gamma   90.00000000
_symmetry_Int_Tables_number   1
_chemical_formula_structural   SrCr2O4
_chemical_formula_sum   'Sr4 Cr8 O16'
_cell_volume   370.38569539
_cell_formula_units_Z   4
loop_
 _symmetry_equiv_pos_site_id
 _symmetry_equiv_pos_as_xyz
  1  'x, y, z'
loop_
 _atom_site_type_symbol
 _atom_site_label
 _atom_site_symmetry_multiplicity
 _atom_site_fract_x
 _atom_site_fract_y
 _atom_site_fract_z
 _atom_site_occupancy
  Sr  Sr0  1  0.86072448  0.25000000  0.75000000  1
  Sr  Sr1  1  0.13927552  0.75000000  0.25000000  1
  Sr  Sr2  1  0.54424991  0.25000000  0.25000000  1
  Sr  Sr3  1  0.45575009  0.75000000  0.75000000  1
  Cr  Cr4  1  0.50357692  0.75000000  0.49269059  1
  Cr  Cr5  1  0.50357692  0.75000000  0.00730941  1
  Cr  Cr6  1  0.49642308  0.25000000  0.50730941  1
  Cr  Cr7  1  0.49642308  0.25000000  0.99269059  1
  Cr  Cr8  1  0.00000000  0.50000000  0.50000000  1
  Cr  Cr9  1  0.00000000  0.00000000  0.00000000  1
  Cr  Cr10  1  0.00000000  0.00000000  0.50000000  1
  Cr  Cr11  1  0.00000000  0.50000000  0.00000000  1
  O  O12  1  0.83699774  0.75000000  0.40872298  1
  O  O13  1  0.83699774  0.75000000  0.09127702  1
  O  O14  1  0.16300226  0.25000000  0.59127702  1
  O  O15  1  0.16300226  0.25000000  0.90872298  1
  O  O16  1  0.17366792  0.75000000  0.58469394  1
  O  O17  1  0.17366792  0.75000000  0.91530606  1
  O  O18  1  0.82633208  0.25000000  0.41530606  1
  O  O19  1  0.82633208  0.25000000  0.08469394  1
  O  O20  1  0.66500617  0.50293796  0.59439727  1
  O  O21  1  0.66500617  0.99706204  0.90560273  1
  O  O22  1  0.33499383  0.00293796  0.40560273  1
  O  O23  1  0.33499383  0.49706204  0.09439727  1
  O  O24  1  0.33499383  0.49706204  0.40560273  1
  O  O25  1  0.33499383  0.00293796  0.09439727  1
  O  O26  1  0.66500617  0.99706204  0.59439727  1
  O  O27  1  0.66500617  0.50293796  0.90560273  1
