# generated using pymatgen
data_La3Eu
_symmetry_space_group_name_H-M   'P 1'
_cell_length_a   7.55961053
_cell_length_b   7.55263779
_cell_length_c   5.97690419
_cell_angle_alpha   90.28076024
_cell_angle_beta   89.60065016
_cell_angle_gamma   120.06092414
_symmetry_Int_Tables_number   1
_chemical_formula_structural   La3Eu
_chemical_formula_sum   'La6 Eu2'
_cell_volume   295.34317125
_cell_formula_units_Z   2
loop_
 _symmetry_equiv_pos_site_id
 _symmetry_equiv_pos_as_xyz
  1  'x, y, z'
loop_
 _atom_site_type_symbol
 _atom_site_label
 _atom_site_symmetry_multiplicity
 _atom_site_fract_x
 _atom_site_fract_y
 _atom_site_fract_z
 _atom_site_occupancy
  La  La0  1  0.16380221  0.32738022  0.25007271  1
  La  La1  1  0.67258563  0.83629830  0.25015803  1
  La  La2  1  0.16366923  0.83630725  0.24991311  1
  La  La3  1  0.83632528  0.67251222  0.74984102  1
  La  La4  1  0.32762592  0.16369961  0.74997162  1
  La  La5  1  0.83606691  0.16364521  0.74988900  1
  Eu  Eu6  1  0.33344002  0.66687263  0.75028052  1
  Eu  Eu7  1  0.66648780  0.33328657  0.24987400  1
