# generated using pymatgen
data_Rb3(Cu4S3)2
_symmetry_space_group_name_H-M   'P 1'
_cell_length_a   3.85200617
_cell_length_b   9.11988104
_cell_length_c   10.01452883
_cell_angle_alpha   105.35096711
_cell_angle_beta   90.00000000
_cell_angle_gamma   102.19194036
_symmetry_Int_Tables_number   1
_chemical_formula_structural   Rb3(Cu4S3)2
_chemical_formula_sum   'Rb3 Cu8 S6'
_cell_volume   331.02148191
_cell_formula_units_Z   1
loop_
 _symmetry_equiv_pos_site_id
 _symmetry_equiv_pos_as_xyz
  1  'x, y, z'
loop_
 _atom_site_type_symbol
 _atom_site_label
 _atom_site_symmetry_multiplicity
 _atom_site_fract_x
 _atom_site_fract_y
 _atom_site_fract_z
 _atom_site_occupancy
  Rb  Rb0  1  0.30980315  0.61960630  0.69824884  1
  Rb  Rb1  1  0.69019685  0.38039370  0.30175116  1
  Rb  Rb2  1  0.50000000  0.00000000  0.00000000  1
  Cu  Cu3  1  0.51973474  0.03946948  0.64399435  1
  Cu  Cu4  1  0.91251597  0.82503193  0.47479160  1
  Cu  Cu5  1  0.10716084  0.21432169  0.78411602  1
  Cu  Cu6  1  0.29650728  0.59301455  0.06157949  1
  Cu  Cu7  1  0.70349272  0.40698545  0.93842051  1
  Cu  Cu8  1  0.08748403  0.17496807  0.52520840  1
  Cu  Cu9  1  0.89283916  0.78567831  0.21588398  1
  Cu  Cu10  1  0.48026526  0.96053052  0.35600565  1
  S  S11  1  0.65106355  0.30212709  0.64173636  1
  S  S12  1  0.84170727  0.68341454  0.98470102  1
  S  S13  1  0.03398821  0.06797642  0.29380520  1
  S  S14  1  0.96601179  0.93202358  0.70619480  1
  S  S15  1  0.34893645  0.69787291  0.35826364  1
  S  S16  1  0.15829273  0.31658546  0.01529898  1
