# generated using pymatgen
data_Cs3Mn4(PO3)12
_symmetry_space_group_name_H-M   'P 1'
_cell_length_a   9.68418430
_cell_length_b   9.68404309
_cell_length_c   11.30980211
_cell_angle_alpha   100.88601201
_cell_angle_beta   106.51379091
_cell_angle_gamma   116.58834112
_symmetry_Int_Tables_number   1
_chemical_formula_structural   Cs3Mn4(PO3)12
_chemical_formula_sum   'Cs3 Mn4 P12 O36'
_cell_volume   845.31007533
_cell_formula_units_Z   1
loop_
 _symmetry_equiv_pos_site_id
 _symmetry_equiv_pos_as_xyz
  1  'x, y, z'
loop_
 _atom_site_type_symbol
 _atom_site_label
 _atom_site_symmetry_multiplicity
 _atom_site_fract_x
 _atom_site_fract_y
 _atom_site_fract_z
 _atom_site_occupancy
  Cs  Cs0  1  0.50000000  0.00000000  0.50000000  1
  Cs  Cs1  1  0.78424541  0.78421430  0.00002440  1
  Cs  Cs2  1  0.21575459  0.21578570  0.99997560  1
  Mn  Mn3  1  0.20327816  0.20818804  0.41147450  1
  Mn  Mn4  1  0.79672184  0.79181196  0.58852550  1
  Mn  Mn5  1  0.32336819  0.74943041  0.07281403  1
  Mn  Mn6  1  0.67663181  0.25056959  0.92718597  1
  P  P7  1  0.38154899  0.83497423  0.80029413  1
  P  P8  1  0.03465732  0.58125257  0.19969839  1
  P  P9  1  0.61845101  0.16502577  0.19970587  1
  P  P10  1  0.96534268  0.41874743  0.80030161  1
  P  P11  1  0.43056046  0.60649353  0.62839388  1
  P  P12  1  0.97811460  0.80220138  0.37163412  1
  P  P13  1  0.56943954  0.39350647  0.37160612  1
  P  P14  1  0.02188540  0.19779862  0.62836588  1
  P  P15  1  0.39360619  0.33319620  0.72678514  1
  P  P16  1  0.60639381  0.66680380  0.27321486  1
  P  P17  1  0.06277804  0.76205679  0.82478491  1
  P  P18  1  0.93722196  0.23794321  0.17521509  1
  O  O19  1  0.32495779  0.68007112  0.67152144  1
  O  O20  1  0.00861049  0.65349797  0.32849219  1
  O  O21  1  0.67504221  0.31992888  0.32847856  1
  O  O22  1  0.99138951  0.34650203  0.67150781  1
  O  O23  1  0.49615290  0.99499667  0.79019074  1
  O  O24  1  0.20479173  0.70593023  0.20978435  1
  O  O25  1  0.50384710  0.00500333  0.20980926  1
  O  O26  1  0.79520827  0.29406977  0.79021565  1
  O  O27  1  0.19646966  0.81388862  0.76030177  1
  O  O28  1  0.05354376  0.43614794  0.23966036  1
  O  O29  1  0.80353034  0.18611138  0.23969823  1
  O  O30  1  0.94645624  0.56385206  0.76033964  1
  O  O31  1  0.43300499  0.80035228  0.92435184  1
  O  O32  1  0.87595658  0.50869251  0.07565118  1
  O  O33  1  0.56699501  0.19964772  0.07564816  1
  O  O34  1  0.12404342  0.49130749  0.92434882  1
  O  O35  1  0.60130902  0.75065409  0.65599828  1
  O  O36  1  0.09466731  0.94535838  0.34403327  1
  O  O37  1  0.39869098  0.24934591  0.34400172  1
  O  O38  1  0.90533269  0.05464162  0.65596673  1
  O  O39  1  0.31603739  0.47334143  0.49363796  1
  O  O40  1  0.97973839  0.82240283  0.50638154  1
  O  O41  1  0.68396261  0.52665857  0.50636204  1
  O  O42  1  0.02026161  0.17759717  0.49361846  1
  O  O43  1  0.46462264  0.52408770  0.73914142  1
  O  O44  1  0.78495323  0.72550439  0.26088248  1
  O  O45  1  0.53537736  0.47591230  0.26085858  1
  O  O46  1  0.21504677  0.27449561  0.73911752  1
  O  O47  1  0.51065663  0.33895841  0.84959540  1
  O  O48  1  0.48934337  0.66104159  0.15040460  1
  O  O49  1  0.36217190  0.23041749  0.59259804  1
  O  O50  1  0.63782810  0.76958251  0.40740196  1
  O  O51  1  0.94926936  0.82564065  0.77487644  1
  O  O52  1  0.05073064  0.17435935  0.22512356  1
  O  O53  1  0.15077864  0.82282486  0.97347677  1
  O  O54  1  0.84922136  0.17717514  0.02652323  1
