# generated using pymatgen
data_KVPbO4
_symmetry_space_group_name_H-M   'P 1'
_cell_length_a   5.89470873
_cell_length_b   7.86765669
_cell_length_c   10.35634539
_cell_angle_alpha   90.00000000
_cell_angle_beta   90.00000000
_cell_angle_gamma   90.00000000
_symmetry_Int_Tables_number   1
_chemical_formula_structural   KVPbO4
_chemical_formula_sum   'K4 V4 Pb4 O16'
_cell_volume   480.30186996
_cell_formula_units_Z   4
loop_
 _symmetry_equiv_pos_site_id
 _symmetry_equiv_pos_as_xyz
  1  'x, y, z'
loop_
 _atom_site_type_symbol
 _atom_site_label
 _atom_site_symmetry_multiplicity
 _atom_site_fract_x
 _atom_site_fract_y
 _atom_site_fract_z
 _atom_site_occupancy
  Pb  Pb0  1  0.75000000  0.97587394  0.28265562  1
  Pb  Pb1  1  0.25000000  0.02412606  0.71734438  1
  Pb  Pb2  1  0.75000000  0.47587394  0.21734438  1
  Pb  Pb3  1  0.25000000  0.52412606  0.78265562  1
  K  K4  1  0.25000000  0.67959492  0.41039744  1
  K  K5  1  0.75000000  0.32040508  0.58960256  1
  K  K6  1  0.25000000  0.17959492  0.08960256  1
  K  K7  1  0.75000000  0.82040508  0.91039744  1
  V  V8  1  0.75000000  0.75745031  0.57941177  1
  V  V9  1  0.25000000  0.24254969  0.42058823  1
  V  V10  1  0.75000000  0.25745031  0.92058823  1
  V  V11  1  0.25000000  0.74254969  0.07941177  1
  O  O12  1  0.25000000  0.02874035  0.39259718  1
  O  O13  1  0.75000000  0.97125965  0.60740282  1
  O  O14  1  0.25000000  0.52874035  0.10740282  1
  O  O15  1  0.75000000  0.47125965  0.89259718  1
  O  O16  1  0.75000000  0.72105751  0.40980708  1
  O  O17  1  0.25000000  0.27894249  0.59019292  1
  O  O18  1  0.75000000  0.22105751  0.09019292  1
  O  O19  1  0.25000000  0.77894249  0.90980708  1
  O  O20  1  0.50676479  0.66454530  0.64606195  1
  O  O21  1  0.00676479  0.33545470  0.35393805  1
  O  O22  1  0.99323521  0.16454530  0.85393805  1
  O  O23  1  0.49323521  0.83545470  0.14606195  1
  O  O24  1  0.49323521  0.33545470  0.35393805  1
  O  O25  1  0.99323521  0.66454530  0.64606195  1
  O  O26  1  0.00676479  0.83545470  0.14606195  1
  O  O27  1  0.50676479  0.16454530  0.85393805  1
