# generated using pymatgen
data_TlIn5S7
_symmetry_space_group_name_H-M   'P 1'
_cell_length_a   3.94942468
_cell_length_b   9.24582384
_cell_length_c   17.69433420
_cell_angle_alpha   102.24555598
_cell_angle_beta   90.00000000
_cell_angle_gamma   90.00000000
_symmetry_Int_Tables_number   1
_chemical_formula_structural   TlIn5S7
_chemical_formula_sum   'Tl2 In10 S14'
_cell_volume   631.41990865
_cell_formula_units_Z   2
loop_
 _symmetry_equiv_pos_site_id
 _symmetry_equiv_pos_as_xyz
  1  'x, y, z'
loop_
 _atom_site_type_symbol
 _atom_site_label
 _atom_site_symmetry_multiplicity
 _atom_site_fract_x
 _atom_site_fract_y
 _atom_site_fract_z
 _atom_site_occupancy
  Tl  Tl0  1  0.25000000  0.02627157  0.72528506  1
  Tl  Tl1  1  0.75000000  0.97372843  0.27471494  1
  In  In2  1  0.25000000  0.85478341  0.04538168  1
  In  In3  1  0.25000000  0.47717856  0.39810330  1
  In  In4  1  0.75000000  0.14521659  0.95461832  1
  In  In5  1  0.75000000  0.56624990  0.11878714  1
  In  In6  1  0.75000000  0.82805019  0.46772245  1
  In  In7  1  0.25000000  0.68068187  0.81153160  1
  In  In8  1  0.75000000  0.31931813  0.18846840  1
  In  In9  1  0.25000000  0.17194981  0.53227755  1
  In  In10  1  0.75000000  0.52282144  0.60189670  1
  In  In11  1  0.25000000  0.43375010  0.88121286  1
  S  S12  1  0.75000000  0.03598572  0.58796729  1
  S  S13  1  0.25000000  0.66851705  0.53221672  1
  S  S14  1  0.25000000  0.33505525  0.00576468  1
  S  S15  1  0.25000000  0.94280275  0.91075758  1
  S  S16  1  0.75000000  0.33148295  0.46778328  1
  S  S17  1  0.75000000  0.73676017  0.72870106  1
  S  S18  1  0.75000000  0.25694075  0.82941322  1
  S  S19  1  0.25000000  0.26323983  0.27129894  1
  S  S20  1  0.25000000  0.96401428  0.41203271  1
  S  S21  1  0.75000000  0.61446135  0.34913803  1
  S  S22  1  0.25000000  0.38553865  0.65086197  1
  S  S23  1  0.75000000  0.66494475  0.99423532  1
  S  S24  1  0.25000000  0.74305925  0.17058678  1
  S  S25  1  0.75000000  0.05719725  0.08924242  1
