# generated using pymatgen
data_Mg16Al12Ir
_symmetry_space_group_name_H-M   'P 1'
_cell_length_a   9.28386254
_cell_length_b   8.97774105
_cell_length_c   8.97774210
_cell_angle_alpha   108.77022198
_cell_angle_beta   110.16344084
_cell_angle_gamma   110.16344089
_symmetry_Int_Tables_number   1
_chemical_formula_structural   Mg16Al12Ir
_chemical_formula_sum   'Mg16 Al12 Ir1'
_cell_volume   571.03052448
_cell_formula_units_Z   1
loop_
 _symmetry_equiv_pos_site_id
 _symmetry_equiv_pos_as_xyz
  1  'x, y, z'
loop_
 _atom_site_type_symbol
 _atom_site_label
 _atom_site_symmetry_multiplicity
 _atom_site_fract_x
 _atom_site_fract_y
 _atom_site_fract_z
 _atom_site_occupancy
  Mg  Mg0  1  0.98447596  0.00000100  0.99999900  1
  Mg  Mg1  1  0.31840108  0.58892612  0.00000000  1
  Mg  Mg2  1  0.00297457  0.35606714  0.00000000  1
  Mg  Mg3  1  0.56286379  0.24804756  0.00000000  1
  Mg  Mg4  1  0.56286379  0.00000000  0.24804756  1
  Mg  Mg5  1  0.68123494  0.67101242  0.27257349  1
  Mg  Mg6  1  0.01022352  0.60156207  0.32898858  1
  Mg  Mg7  1  0.00297457  0.00000100  0.35606714  1
  Mg  Mg8  1  0.40866245  0.72742651  0.39843893  1
  Mg  Mg9  1  0.72947597  0.41107488  0.41107488  1
  Mg  Mg10  1  0.31840108  0.00000000  0.58892612  1
  Mg  Mg11  1  0.01022352  0.32898858  0.60156207  1
  Mg  Mg12  1  0.64690543  0.64393286  0.64393286  1
  Mg  Mg13  1  0.68123494  0.27257349  0.67101142  1
  Mg  Mg14  1  0.40866245  0.39843893  0.72742751  1
  Mg  Mg15  1  0.31481723  0.75195244  0.75195244  1
  Al  Al16  1  0.65436227  0.80805265  1.00000000  1
  Al  Al17  1  0.81188493  0.60747320  0.00000100  1
  Al  Al18  1  0.18338119  0.81795362  0.17838949  1
  Al  Al19  1  0.36542857  0.36043487  0.18204538  1
  Al  Al20  1  0.84630761  0.19194735  0.19194735  1
  Al  Al21  1  0.36542857  0.18204538  0.36043487  1
  Al  Al22  1  0.20441173  0.39252780  0.39252780  1
  Al  Al23  1  0.81188493  1.00000000  0.60747320  1
  Al  Al24  1  0.00499270  0.82160951  0.63956513  1
  Al  Al25  1  0.65436227  1.00000000  0.80805265  1
  Al  Al26  1  0.18338219  0.17838849  0.81795362  1
  Al  Al27  1  0.00499170  0.63956513  0.82161051  1
  Ir  Ir28  1  0.26479308  0.00000100  0.00000000  1
