# generated using pymatgen
data_Cs4Li2(Si2O5)3
_symmetry_space_group_name_H-M   'P 1'
_cell_length_a   8.63763833
_cell_length_b   11.12878667
_cell_length_c   19.28343140
_cell_angle_alpha   90.18760242
_cell_angle_beta   90.00000000
_cell_angle_gamma   90.00000000
_symmetry_Int_Tables_number   1
_chemical_formula_structural   Cs4Li2(Si2O5)3
_chemical_formula_sum   'Cs16 Li8 Si24 O60'
_cell_volume   1853.63756555
_cell_formula_units_Z   4
loop_
 _symmetry_equiv_pos_site_id
 _symmetry_equiv_pos_as_xyz
  1  'x, y, z'
loop_
 _atom_site_type_symbol
 _atom_site_label
 _atom_site_symmetry_multiplicity
 _atom_site_fract_x
 _atom_site_fract_y
 _atom_site_fract_z
 _atom_site_occupancy
  Cs  Cs0  1  0.75000000  0.54485874  0.51404280  1
  Cs  Cs1  1  0.75000000  0.47968630  0.99243715  1
  Cs  Cs2  1  0.75000000  0.04288342  0.01905172  1
  Cs  Cs3  1  0.75000000  0.72193521  0.72062126  1
  Cs  Cs4  1  0.25000000  0.79584595  0.73278196  1
  Cs  Cs5  1  0.75000000  0.29476166  0.77658167  1
  Cs  Cs6  1  0.75000000  0.20415405  0.26721804  1
  Cs  Cs7  1  0.75000000  0.77749929  0.22750923  1
  Cs  Cs8  1  0.25000000  0.22250071  0.77249077  1
  Cs  Cs9  1  0.25000000  0.70523834  0.22341833  1
  Cs  Cs10  1  0.25000000  0.52031370  0.00756285  1
  Cs  Cs11  1  0.75000000  0.96729310  0.48151063  1
  Cs  Cs12  1  0.25000000  0.45514126  0.48595720  1
  Cs  Cs13  1  0.25000000  0.03270690  0.51848937  1
  Cs  Cs14  1  0.25000000  0.95711658  0.98094828  1
  Cs  Cs15  1  0.25000000  0.27806479  0.27937874  1
  Li  Li16  1  0.98147423  0.23760669  0.42122777  1
  Li  Li17  1  0.48752477  0.26031057  0.92801503  1
  Li  Li18  1  0.01247523  0.26031057  0.92801503  1
  Li  Li19  1  0.48147423  0.76239331  0.57877223  1
  Li  Li20  1  0.51247523  0.73968943  0.07198497  1
  Li  Li21  1  0.51852577  0.23760669  0.42122777  1
  Li  Li22  1  0.98752477  0.73968943  0.07198497  1
  Li  Li23  1  0.01852577  0.76239331  0.57877223  1
  Si  Si24  1  0.43455109  0.49471187  0.66482149  1
  Si  Si25  1  0.06009467  0.99489467  0.16538755  1
  Si  Si26  1  0.93990533  0.00510533  0.83461245  1
  Si  Si27  1  0.93455109  0.50528813  0.33517851  1
  Si  Si28  1  0.56124692  0.25609911  0.58816356  1
  Si  Si29  1  0.06544891  0.49471187  0.66482149  1
  Si  Si30  1  0.43942391  0.25006794  0.09612340  1
  Si  Si31  1  0.06057609  0.25006794  0.09612340  1
  Si  Si32  1  0.43990533  0.99489467  0.16538755  1
  Si  Si33  1  0.06124692  0.74390089  0.41183644  1
  Si  Si34  1  0.93600823  0.48492527  0.17020906  1
  Si  Si35  1  0.43600823  0.51507473  0.82979094  1
  Si  Si36  1  0.56544891  0.50528813  0.33517851  1
  Si  Si37  1  0.06399177  0.51507473  0.82979094  1
  Si  Si38  1  0.56009467  0.00510533  0.83461245  1
  Si  Si39  1  0.43875308  0.74390089  0.41183644  1
  Si  Si40  1  0.93942391  0.74993206  0.90387660  1
  Si  Si41  1  0.56057609  0.74993206  0.90387660  1
  Si  Si42  1  0.44009212  0.98285030  0.32885619  1
  Si  Si43  1  0.93875308  0.25609911  0.58816356  1
  Si  Si44  1  0.94009212  0.01714970  0.67114381  1
  Si  Si45  1  0.05990788  0.98285030  0.32885619  1
  Si  Si46  1  0.56399177  0.48492527  0.17020906  1
  Si  Si47  1  0.55990788  0.01714970  0.67114381  1
  O  O48  1  0.75000000  0.01679832  0.67468513  1
  O  O49  1  0.49473852  0.11433107  0.87899233  1
  O  O50  1  0.46887411  0.35885788  0.15392354  1
  O  O51  1  0.75000000  1.00040926  0.83133390  1
  O  O52  1  0.98097698  0.59395470  0.12125733  1
  O  O53  1  0.97437538  0.37722991  0.36667561  1
  O  O54  1  0.47437538  0.62277009  0.63332439  1
  O  O55  1  0.50526148  0.88566893  0.12100767  1
  O  O56  1  0.53666999  0.38688281  0.62773431  1
  O  O57  1  0.46333001  0.61311719  0.37226569  1
  O  O58  1  0.49447792  0.84671112  0.35424617  1
  O  O59  1  0.51902302  0.59395470  0.12125733  1
  O  O60  1  0.96333001  0.38688281  0.62773431  1
  O  O61  1  0.98224114  0.51661936  0.25194692  1
  O  O62  1  0.50052806  0.12697206  0.13672303  1
  O  O63  1  0.97327113  0.75358397  0.48386075  1
  O  O64  1  0.25000000  0.23758885  0.08888911  1
  O  O65  1  0.52281580  0.26907094  0.02377678  1
  O  O66  1  0.00552208  0.84671112  0.35424617  1
  O  O67  1  0.25000000  -0.00040926  0.16866610  1
  O  O68  1  0.02672887  0.24641603  0.51613925  1
  O  O69  1  0.97718420  0.26907094  0.02377678  1
  O  O70  1  0.99090107  0.08927427  0.37430970  1
  O  O71  1  0.00526148  0.11433107  0.87899233  1
  O  O72  1  0.99447792  0.15328888  0.64575383  1
  O  O73  1  0.00052806  0.87302794  0.86327697  1
  O  O74  1  0.01902302  0.40604530  0.87874267  1
  O  O75  1  0.52562462  0.37722991  0.36667561  1
  O  O76  1  0.50199398  0.98957475  0.24710094  1
  O  O77  1  0.49947194  0.87302794  0.86327697  1
  O  O78  1  0.75000000  0.44784958  0.16932217  1
  O  O79  1  0.53112589  0.64114212  0.84607646  1
  O  O80  1  0.25000000  0.75901551  0.42111477  1
  O  O81  1  0.00909893  0.91072573  0.62569030  1
  O  O82  1  0.49800602  0.01042525  0.75289906  1
  O  O83  1  0.02562462  0.62277009  0.63332439  1
  O  O84  1  0.25000000  0.45397393  0.65825165  1
  O  O85  1  0.50552208  0.15328888  0.64575383  1
  O  O86  1  0.99800602  0.98957475  0.24710094  1
  O  O87  1  0.99947194  0.12697206  0.13672303  1
  O  O88  1  0.75000000  0.76241115  0.91111089  1
  O  O89  1  0.47327113  0.24641603  0.51613925  1
  O  O90  1  0.01775886  0.48338064  0.74805308  1
  O  O91  1  0.47718420  0.73092906  0.97622322  1
  O  O92  1  0.50909893  0.08927427  0.37430970  1
  O  O93  1  0.51775886  0.51661936  0.25194692  1
  O  O94  1  0.49090107  0.91072573  0.62569030  1
  O  O95  1  0.75000000  0.24098449  0.57888523  1
  O  O96  1  0.99473852  0.88566893  0.12100767  1
  O  O97  1  0.03666999  0.61311719  0.37226569  1
  O  O98  1  0.03112589  0.35885788  0.15392354  1
  O  O99  1  0.75000000  0.54602607  0.34174835  1
  O  O100  1  0.48097698  0.40604530  0.87874267  1
  O  O101  1  0.52672887  0.75358397  0.48386075  1
  O  O102  1  0.02281580  0.73092906  0.97622322  1
  O  O103  1  0.96887411  0.64114212  0.84607646  1
  O  O104  1  0.25000000  0.98320168  0.32531487  1
  O  O105  1  0.48224114  0.48338064  0.74805308  1
  O  O106  1  0.25000000  0.55215042  0.83067783  1
  O  O107  1  0.00199398  0.01042525  0.75289906  1
