# generated using pymatgen
data_Cs3Ta5O14
_symmetry_space_group_name_H-M   'P 1'
_cell_length_a   7.49224028
_cell_length_b   7.53350066
_cell_length_c   26.61273171
_cell_angle_alpha   90.00000000
_cell_angle_beta   90.00000000
_cell_angle_gamma   90.00000000
_symmetry_Int_Tables_number   1
_chemical_formula_structural   Cs3Ta5O14
_chemical_formula_sum   'Cs12 Ta20 O56'
_cell_volume   1502.09701603
_cell_formula_units_Z   4
loop_
 _symmetry_equiv_pos_site_id
 _symmetry_equiv_pos_as_xyz
  1  'x, y, z'
loop_
 _atom_site_type_symbol
 _atom_site_label
 _atom_site_symmetry_multiplicity
 _atom_site_fract_x
 _atom_site_fract_y
 _atom_site_fract_z
 _atom_site_occupancy
  Cs  Cs0  1  0.00000000  0.33951177  0.79113168  1
  Cs  Cs1  1  0.00000000  0.66048823  0.20886832  1
  Cs  Cs2  1  0.50000000  0.84002411  0.62051098  1
  Cs  Cs3  1  0.00000000  0.16048823  0.29113168  1
  Cs  Cs4  1  0.50000000  0.25789146  0.52371188  1
  Cs  Cs5  1  0.00000000  0.83951177  0.70886832  1
  Cs  Cs6  1  0.50000000  0.15997589  0.37948902  1
  Cs  Cs7  1  0.50000000  0.24210854  0.02371188  1
  Cs  Cs8  1  0.50000000  0.74210854  0.47628812  1
  Cs  Cs9  1  0.50000000  0.34002411  0.87948902  1
  Cs  Cs10  1  0.50000000  0.75789146  0.97628812  1
  Cs  Cs11  1  0.50000000  0.65997589  0.12051098  1
  Ta  Ta12  1  0.74546745  0.83797469  0.84817453  1
  Ta  Ta13  1  0.00000000  0.42858719  0.05442978  1
  Ta  Ta14  1  0.50000000  0.59882428  0.74602643  1
  Ta  Ta15  1  0.25453255  0.16202531  0.15182547  1
  Ta  Ta16  1  0.00000000  0.07141281  0.55442978  1
  Ta  Ta17  1  0.00000000  0.41347781  0.44320436  1
  Ta  Ta18  1  0.74546745  0.16202531  0.15182547  1
  Ta  Ta19  1  0.50000000  0.90117572  0.24602643  1
  Ta  Ta20  1  0.50000000  0.40117572  0.25397357  1
  Ta  Ta21  1  0.00000000  0.57141281  0.94557022  1
  Ta  Ta22  1  0.00000000  0.91347781  0.05679564  1
  Ta  Ta23  1  0.25453255  0.66202531  0.34817453  1
  Ta  Ta24  1  0.00000000  0.08652219  0.94320436  1
  Ta  Ta25  1  0.74546745  0.66202531  0.34817453  1
  Ta  Ta26  1  0.00000000  0.58652219  0.55679564  1
  Ta  Ta27  1  0.50000000  0.09882428  0.75397357  1
  Ta  Ta28  1  0.00000000  0.92858719  0.44557022  1
  Ta  Ta29  1  0.25453255  0.83797469  0.84817453  1
  Ta  Ta30  1  0.74546745  0.33797469  0.65182547  1
  Ta  Ta31  1  0.25453255  0.33797469  0.65182547  1
  O  O32  1  0.18916233  0.34024967  0.09771913  1
  O  O33  1  0.00000000  0.16018231  0.01579508  1
  O  O34  1  0.50000000  0.85447407  0.72786474  1
  O  O35  1  0.50000000  0.65791427  0.37416449  1
  O  O36  1  0.00000000  0.33101915  0.91956211  1
  O  O37  1  0.00000000  0.86680100  0.83198826  1
  O  O38  1  0.50000000  0.64552593  0.22786474  1
  O  O39  1  0.81083767  0.65975033  0.90228087  1
  O  O40  1  0.00000000  0.33981769  0.51579508  1
  O  O41  1  0.31475895  0.45805582  0.30367247  1
  O  O42  1  0.50000000  0.14552593  0.27213526  1
  O  O43  1  0.69186893  0.33662707  0.20112564  1
  O  O44  1  0.82540612  0.00000000  0.50000000  1
  O  O45  1  0.69186893  0.83662707  0.29887436  1
  O  O46  1  0.00000000  0.36680100  0.66801174  1
  O  O47  1  0.20934989  0.97497918  0.08954101  1
  O  O48  1  0.82540612  0.50000000  0.00000000  1
  O  O49  1  0.68524105  0.45805582  0.30367247  1
  O  O50  1  0.30813107  0.83662707  0.29887436  1
  O  O51  1  0.30813107  0.16337293  0.70112564  1
  O  O52  1  0.81083767  0.34024967  0.09771913  1
  O  O53  1  0.69186893  0.66337293  0.79887436  1
  O  O54  1  0.30813107  0.33662707  0.20112564  1
  O  O55  1  0.00000000  0.83981769  0.98420492  1
  O  O56  1  0.20934989  0.02502082  0.91045899  1
  O  O57  1  0.31475895  0.95805582  0.19632753  1
  O  O58  1  0.50000000  0.35447407  0.77213526  1
  O  O59  1  0.00000000  0.13319900  0.16801174  1
  O  O60  1  0.18916233  0.65975033  0.90228087  1
  O  O61  1  0.81083767  0.15975033  0.59771913  1
  O  O62  1  0.00000000  0.83101915  0.58043789  1
  O  O63  1  0.30813107  0.66337293  0.79887436  1
  O  O64  1  0.50000000  0.84208573  0.87416449  1
  O  O65  1  0.68524105  0.04194418  0.80367247  1
  O  O66  1  0.31475895  0.54194418  0.69632753  1
  O  O67  1  0.79065011  0.47497918  0.41045899  1
  O  O68  1  0.79065011  0.52502082  0.58954101  1
  O  O69  1  0.00000000  0.66898085  0.08043789  1
  O  O70  1  0.00000000  0.66018231  0.48420492  1
  O  O71  1  0.69186893  0.16337293  0.70112564  1
  O  O72  1  0.68524105  0.95805582  0.19632753  1
  O  O73  1  0.00000000  0.63319900  0.33198826  1
  O  O74  1  0.50000000  0.15791427  0.12583551  1
  O  O75  1  0.68524105  0.54194418  0.69632753  1
  O  O76  1  0.17459388  0.00000000  0.50000000  1
  O  O77  1  0.79065011  0.97497918  0.08954101  1
  O  O78  1  0.81083767  0.84024967  0.40228087  1
  O  O79  1  0.50000000  0.34208573  0.62583551  1
  O  O80  1  0.79065011  0.02502082  0.91045899  1
  O  O81  1  0.18916233  0.84024967  0.40228087  1
  O  O82  1  0.20934989  0.52502082  0.58954101  1
  O  O83  1  0.18916233  0.15975033  0.59771913  1
  O  O84  1  0.00000000  0.16898085  0.41956211  1
  O  O85  1  0.20934989  0.47497918  0.41045899  1
  O  O86  1  0.31475895  0.04194418  0.80367247  1
  O  O87  1  0.17459388  0.50000000  0.00000000  1
