# generated using pymatgen
data_Cs2Si2O5
_symmetry_space_group_name_H-M   'P 1'
_cell_length_a   8.78692088
_cell_length_b   10.21839504
_cell_length_c   15.77328746
_cell_angle_alpha   90.28980578
_cell_angle_beta   90.00000000
_cell_angle_gamma   90.00000000
_symmetry_Int_Tables_number   1
_chemical_formula_structural   Cs2Si2O5
_chemical_formula_sum   'Cs16 Si16 O40'
_cell_volume   1416.23742569
_cell_formula_units_Z   8
loop_
 _symmetry_equiv_pos_site_id
 _symmetry_equiv_pos_as_xyz
  1  'x, y, z'
loop_
 _atom_site_type_symbol
 _atom_site_label
 _atom_site_symmetry_multiplicity
 _atom_site_fract_x
 _atom_site_fract_y
 _atom_site_fract_z
 _atom_site_occupancy
  Cs  Cs0  1  0.86713478  0.40989674  0.59029982  1
  Cs  Cs1  1  0.90149144  0.84659458  0.58194059  1
  Cs  Cs2  1  0.12550189  0.84161300  0.08396809  1
  Cs  Cs3  1  0.40149144  0.65340542  0.91805941  1
  Cs  Cs4  1  0.09850856  0.15340542  0.41805941  1
  Cs  Cs5  1  0.12051113  0.40992545  0.09154247  1
  Cs  Cs6  1  0.59850856  0.34659458  0.08194059  1
  Cs  Cs7  1  0.87948887  0.59007455  0.90845753  1
  Cs  Cs8  1  0.62550189  0.65838700  0.41603191  1
  Cs  Cs9  1  0.63286522  0.90989674  0.09029982  1
  Cs  Cs10  1  0.13286522  0.59010326  0.40970018  1
  Cs  Cs11  1  0.36713478  0.09010326  0.90970018  1
  Cs  Cs12  1  0.37948887  0.90992545  0.59154247  1
  Cs  Cs13  1  0.62051113  0.09007455  0.40845753  1
  Cs  Cs14  1  0.37449811  0.34161300  0.58396809  1
  Cs  Cs15  1  0.87449811  0.15838700  0.91603191  1
  Si  Si16  1  0.55954264  0.36285744  0.80164711  1
  Si  Si17  1  0.05954264  0.13714256  0.69835289  1
  Si  Si18  1  0.42296745  0.37694359  0.30309289  1
  Si  Si19  1  0.31433155  0.88242633  0.30710734  1
  Si  Si20  1  0.92296745  0.12305641  0.19690711  1
  Si  Si21  1  0.29854031  0.13339839  0.19554584  1
  Si  Si22  1  0.57703255  0.62305641  0.69690711  1
  Si  Si23  1  0.20145969  0.63339839  0.69554584  1
  Si  Si24  1  0.94045736  0.86285744  0.30164711  1
  Si  Si25  1  0.44045736  0.63714256  0.19835289  1
  Si  Si26  1  0.70145969  0.86660161  0.80445416  1
  Si  Si27  1  0.68566845  0.11757367  0.69289266  1
  Si  Si28  1  0.79854031  0.36660161  0.30445416  1
  Si  Si29  1  0.81433155  0.61757367  0.19289266  1
  Si  Si30  1  0.18566845  0.38242633  0.80710734  1
  Si  Si31  1  0.07703255  0.87694359  0.80309289  1
  O  O32  1  0.87610177  0.88768670  0.39465798  1
  O  O33  1  0.14395160  0.78143357  0.72603916  1
  O  O34  1  0.35604840  0.28143357  0.22603916  1
  O  O35  1  0.85604840  0.21856643  0.27396084  1
  O  O36  1  0.12581083  0.36295823  0.90135825  1
  O  O37  1  0.62389823  0.38768670  0.89465798  1
  O  O38  1  0.87143051  0.13762739  0.70372716  1
  O  O39  1  0.35367402  0.03248558  0.27224938  1
  O  O40  1  0.11014460  0.13970916  0.20176872  1
  O  O41  1  0.37143051  0.36237261  0.79627284  1
  O  O42  1  0.14632598  0.53248558  0.77224938  1
  O  O43  1  0.14614153  0.85111185  0.89463241  1
  O  O44  1  0.64632598  0.96751442  0.72775062  1
  O  O45  1  0.38369482  0.52879105  0.27060772  1
  O  O46  1  0.37610177  0.61231330  0.10534202  1
  O  O47  1  0.85385847  0.14888815  0.10536759  1
  O  O48  1  0.12856949  0.86237261  0.29627284  1
  O  O49  1  0.38985540  0.63970916  0.70176872  1
  O  O50  1  0.62856949  0.63762739  0.20372716  1
  O  O51  1  0.87418917  0.63704177  0.09864175  1
  O  O52  1  0.61014460  0.36029084  0.29823128  1
  O  O53  1  0.39062419  0.78272962  0.23557199  1
  O  O54  1  0.64614153  0.64888815  0.60536759  1
  O  O55  1  0.61630518  0.47120895  0.72939228  1
  O  O56  1  0.62581083  0.13704177  0.59864175  1
  O  O57  1  0.64395160  0.71856643  0.77396084  1
  O  O58  1  0.60937581  0.21727038  0.76442801  1
  O  O59  1  0.63994468  0.90145184  0.89675325  1
  O  O60  1  0.10937581  0.28272962  0.73557199  1
  O  O61  1  0.88985540  0.86029084  0.79823128  1
  O  O62  1  0.12389823  0.11231330  0.60534202  1
  O  O63  1  0.85367402  0.46751442  0.22775062  1
  O  O64  1  0.36005532  0.09854816  0.10324675  1
  O  O65  1  0.89062419  0.71727038  0.26442801  1
  O  O66  1  0.37418917  0.86295823  0.40135825  1
  O  O67  1  0.35385847  0.35111185  0.39463241  1
  O  O68  1  0.11630518  0.02879105  0.77060772  1
  O  O69  1  0.88369482  0.97120895  0.22939228  1
  O  O70  1  0.86005532  0.40145184  0.39675325  1
  O  O71  1  0.13994468  0.59854816  0.60324675  1
