# generated using pymatgen
data_USeO6
_symmetry_space_group_name_H-M   'P 1'
_cell_length_a   5.74059767
_cell_length_b   6.98045821
_cell_length_c   13.49384516
_cell_angle_alpha   104.31945916
_cell_angle_beta   90.00000000
_cell_angle_gamma   90.00000000
_symmetry_Int_Tables_number   1
_chemical_formula_structural   USeO6
_chemical_formula_sum   'U4 Se4 O24'
_cell_volume   523.92602114
_cell_formula_units_Z   4
loop_
 _symmetry_equiv_pos_site_id
 _symmetry_equiv_pos_as_xyz
  1  'x, y, z'
loop_
 _atom_site_type_symbol
 _atom_site_label
 _atom_site_symmetry_multiplicity
 _atom_site_fract_x
 _atom_site_fract_y
 _atom_site_fract_z
 _atom_site_occupancy
  U  U0  1  0.21108843  0.66315180  0.85031772  1
  U  U1  1  0.71108843  0.33684820  0.64968228  1
  U  U2  1  0.78891157  0.33684820  0.14968228  1
  U  U3  1  0.28891157  0.66315180  0.35031772  1
  Se  Se4  1  0.04969847  0.20232065  0.38723505  1
  Se  Se5  1  0.45030153  0.20232065  0.88723505  1
  Se  Se6  1  0.95030153  0.79767935  0.61276495  1
  Se  Se7  1  0.54969847  0.79767935  0.11276495  1
  O  O8  1  0.48209500  0.57071281  0.77984923  1
  O  O9  1  0.28230540  0.34747789  0.38618100  1
  O  O10  1  0.06421389  0.26727448  0.08895898  1
  O  O11  1  0.43578611  0.26727448  0.58895898  1
  O  O12  1  0.56421389  0.73272552  0.41104102  1
  O  O13  1  0.60483670  0.17546329  0.77979247  1
  O  O14  1  0.51790500  0.42928719  0.22015077  1
  O  O15  1  0.35689758  0.98209113  0.89673884  1
  O  O16  1  0.10483670  0.82453671  0.72020753  1
  O  O17  1  0.78230540  0.65252211  0.11381900  1
  O  O18  1  0.93578611  0.73272552  0.91104102  1
  O  O19  1  0.85689758  0.01790887  0.60326116  1
  O  O20  1  0.98209500  0.42928719  0.72015077  1
  O  O21  1  0.64310242  0.01790887  0.10326116  1
  O  O22  1  0.39516330  0.82453671  0.22020753  1
  O  O23  1  0.87755241  0.29902796  0.48607482  1
  O  O24  1  0.14310242  0.98209113  0.39673884  1
  O  O25  1  0.12244759  0.70097204  0.51392518  1
  O  O26  1  0.21769460  0.34747789  0.88618100  1
  O  O27  1  0.62244759  0.29902796  0.98607482  1
  O  O28  1  0.89516330  0.17546329  0.27979247  1
  O  O29  1  0.37755241  0.70097204  0.01392518  1
  O  O30  1  0.01790500  0.57071281  0.27984923  1
  O  O31  1  0.71769460  0.65252211  0.61381900  1
