# generated using pymatgen
data_CsAsOF4
_symmetry_space_group_name_H-M   'P 1'
_cell_length_a   5.32989756
_cell_length_b   6.67879236
_cell_length_c   14.30704266
_cell_angle_alpha   90.00000000
_cell_angle_beta   95.98086741
_cell_angle_gamma   90.00000000
_symmetry_Int_Tables_number   1
_chemical_formula_structural   CsAsOF4
_chemical_formula_sum   'Cs4 As4 O4 F16'
_cell_volume   506.51958531
_cell_formula_units_Z   4
loop_
 _symmetry_equiv_pos_site_id
 _symmetry_equiv_pos_as_xyz
  1  'x, y, z'
loop_
 _atom_site_type_symbol
 _atom_site_label
 _atom_site_symmetry_multiplicity
 _atom_site_fract_x
 _atom_site_fract_y
 _atom_site_fract_z
 _atom_site_occupancy
  Cs  Cs0  1  0.59357741  0.87703468  0.65413463  1
  Cs  Cs1  1  0.59357741  0.62296532  0.15413463  1
  Cs  Cs2  1  0.40642259  0.37703468  0.84586537  1
  Cs  Cs3  1  0.40642259  0.12296532  0.34586537  1
  As  As4  1  0.02747634  0.89271722  0.92093671  1
  As  As5  1  0.97252366  0.39271722  0.57906329  1
  As  As6  1  0.97252366  0.10728278  0.07906329  1
  As  As7  1  0.02747634  0.60728278  0.42093671  1
  O  O8  1  0.79880919  0.91468606  0.00728334  1
  O  O9  1  0.20119081  0.41468606  0.49271666  1
  O  O10  1  0.79880919  0.58531394  0.50728334  1
  O  O11  1  0.20119081  0.08531394  0.99271666  1
  F  F12  1  0.80675796  0.31376413  0.01877137  1
  F  F13  1  0.15583174  0.29316692  0.14646920  1
  F  F14  1  0.84416826  0.70683308  0.85353080  1
  F  F15  1  0.86775961  0.42318611  0.34215095  1
  F  F16  1  0.13224039  0.92318611  0.15784905  1
  F  F17  1  0.26322867  0.88524492  0.83979684  1
  F  F18  1  0.26322867  0.61475508  0.33979684  1
  F  F19  1  0.84416826  0.79316692  0.35353080  1
  F  F20  1  0.19324204  0.81376413  0.48122863  1
  F  F21  1  0.19324204  0.68623587  0.98122863  1
  F  F22  1  0.73677133  0.11475508  0.16020316  1
  F  F23  1  0.13224039  0.57681389  0.65784905  1
  F  F24  1  0.86775961  0.07681389  0.84215095  1
  F  F25  1  0.80675796  0.18623587  0.51877137  1
  F  F26  1  0.73677133  0.38524492  0.66020316  1
  F  F27  1  0.15583174  0.20683308  0.64646920  1
