# generated using pymatgen
data_Cs2U3(TeO7)2
_symmetry_space_group_name_H-M   'P 1'
_cell_length_a   7.04113256
_cell_length_b   7.81428988
_cell_length_c   8.74638122
_cell_angle_alpha   111.70429510
_cell_angle_beta   99.77603039
_cell_angle_gamma   98.73058979
_symmetry_Int_Tables_number   1
_chemical_formula_structural   Cs2U3(TeO7)2
_chemical_formula_sum   'Cs2 U3 Te2 O14'
_cell_volume   428.35700255
_cell_formula_units_Z   1
loop_
 _symmetry_equiv_pos_site_id
 _symmetry_equiv_pos_as_xyz
  1  'x, y, z'
loop_
 _atom_site_type_symbol
 _atom_site_label
 _atom_site_symmetry_multiplicity
 _atom_site_fract_x
 _atom_site_fract_y
 _atom_site_fract_z
 _atom_site_occupancy
  Cs  Cs0  1  0.70107387  0.36729447  0.82255913  1
  Cs  Cs1  1  0.29892613  0.63270553  0.17744087  1
  U  U2  1  0.59987853  0.17800699  0.22988331  1
  U  U3  1  0.00000000  0.00000000  0.00000000  1
  U  U4  1  0.40012147  0.82199301  0.77011669  1
  Te  Te5  1  0.15017834  0.32718489  0.47112409  1
  Te  Te6  1  0.84982166  0.67281511  0.52887591  1
  O  O7  1  0.03560253  0.19112381  0.92376866  1
  O  O8  1  0.03353225  0.77662408  0.74597963  1
  O  O9  1  0.62470316  0.99410794  0.31029786  1
  O  O10  1  0.39919737  0.61700715  0.82999581  1
  O  O11  1  0.80114202  0.41660221  0.50422191  1
  O  O12  1  0.67997738  0.00439954  0.97459016  1
  O  O13  1  0.19885798  0.58339779  0.49577809  1
  O  O14  1  0.96439747  0.80887619  0.07623134  1
  O  O15  1  0.96646775  0.22337592  0.25402037  1
  O  O16  1  0.60080263  0.38299285  0.17000419  1
  O  O17  1  0.36103397  0.25615616  0.37383585  1
  O  O18  1  0.32002262  0.99560046  0.02540984  1
  O  O19  1  0.37529684  0.00589206  0.68970214  1
  O  O20  1  0.63896603  0.74384384  0.62616415  1
