# generated using pymatgen
data_Cs2SeO4
_symmetry_space_group_name_H-M   'P 1'
_cell_length_a   6.57429955
_cell_length_b   8.54940193
_cell_length_c   11.53184077
_cell_angle_alpha   90.00000000
_cell_angle_beta   90.00000000
_cell_angle_gamma   90.00000000
_symmetry_Int_Tables_number   1
_chemical_formula_structural   Cs2SeO4
_chemical_formula_sum   'Cs8 Se4 O16'
_cell_volume   648.16243931
_cell_formula_units_Z   4
loop_
 _symmetry_equiv_pos_site_id
 _symmetry_equiv_pos_as_xyz
  1  'x, y, z'
loop_
 _atom_site_type_symbol
 _atom_site_label
 _atom_site_symmetry_multiplicity
 _atom_site_fract_x
 _atom_site_fract_y
 _atom_site_fract_z
 _atom_site_occupancy
  Cs  Cs0  1  0.75000000  0.17646361  0.91085221  1
  Cs  Cs1  1  0.75000000  0.99047052  0.29565461  1
  Cs  Cs2  1  0.25000000  0.00952948  0.70434539  1
  Cs  Cs3  1  0.25000000  0.50952948  0.79565461  1
  Cs  Cs4  1  0.75000000  0.49047052  0.20434539  1
  Cs  Cs5  1  0.25000000  0.82353639  0.08914779  1
  Cs  Cs6  1  0.75000000  0.67646361  0.58914779  1
  Cs  Cs7  1  0.25000000  0.32353639  0.41085221  1
  Se  Se8  1  0.25000000  0.26559914  0.08055739  1
  Se  Se9  1  0.75000000  0.73440086  0.91944261  1
  Se  Se10  1  0.75000000  0.23440086  0.58055739  1
  Se  Se11  1  0.25000000  0.76559914  0.41944261  1
  O  O12  1  0.75000000  0.53862881  0.91731173  1
  O  O13  1  0.45894759  0.69768486  0.35181151  1
  O  O14  1  0.04105241  0.19768486  0.14818849  1
  O  O15  1  0.25000000  0.69870548  0.55697121  1
  O  O16  1  0.75000000  0.03862881  0.58268827  1
  O  O17  1  0.54105241  0.80231514  0.85181151  1
  O  O18  1  0.95894759  0.80231514  0.85181151  1
  O  O19  1  0.95894759  0.30231514  0.64818849  1
  O  O20  1  0.75000000  0.30129452  0.44302879  1
  O  O21  1  0.45894759  0.19768486  0.14818849  1
  O  O22  1  0.04105241  0.69768486  0.35181151  1
  O  O23  1  0.25000000  0.19870548  0.94302879  1
  O  O24  1  0.25000000  0.96137119  0.41731173  1
  O  O25  1  0.75000000  0.80129452  0.05697121  1
  O  O26  1  0.54105241  0.30231514  0.64818849  1
  O  O27  1  0.25000000  0.46137119  0.08268827  1
