# generated using pymatgen
data_Mn3Ag2(P2O7)2
_symmetry_space_group_name_H-M   'P 1'
_cell_length_a   5.46161136
_cell_length_b   6.67433040
_cell_length_c   16.69377813
_cell_angle_alpha   80.77788116
_cell_angle_beta   81.92487562
_cell_angle_gamma   72.63077563
_symmetry_Int_Tables_number   1
_chemical_formula_structural   Mn3Ag2(P2O7)2
_chemical_formula_sum   'Mn6 Ag4 P8 O28'
_cell_volume   570.49822717
_cell_formula_units_Z   2
loop_
 _symmetry_equiv_pos_site_id
 _symmetry_equiv_pos_as_xyz
  1  'x, y, z'
loop_
 _atom_site_type_symbol
 _atom_site_label
 _atom_site_symmetry_multiplicity
 _atom_site_fract_x
 _atom_site_fract_y
 _atom_site_fract_z
 _atom_site_occupancy
  Mn  Mn0  1  0.25165490  0.96846539  0.33852679  1
  Mn  Mn1  1  0.74834510  0.03153461  0.66147321  1
  Mn  Mn2  1  0.82800581  0.71171870  0.42284542  1
  Mn  Mn3  1  0.17199419  0.28828130  0.57715458  1
  Mn  Mn4  1  0.97244345  0.37617735  0.19621983  1
  Mn  Mn5  1  0.02755655  0.62382265  0.80378017  1
  Ag  Ag6  1  0.89327368  0.74258348  0.02138867  1
  Ag  Ag7  1  0.10672632  0.25741652  0.97861133  1
  Ag  Ag8  1  0.40782764  0.72855646  0.12853247  1
  Ag  Ag9  1  0.59217236  0.27144354  0.87146753  1
  P  P10  1  0.57594169  0.24052305  0.08553478  1
  P  P11  1  0.42405831  0.75947695  0.91446522  1
  P  P12  1  0.82482387  0.90832644  0.22004794  1
  P  P13  1  0.17517613  0.09167356  0.77995206  1
  P  P14  1  0.71602742  0.21860110  0.46017143  1
  P  P15  1  0.28397258  0.78139890  0.53982857  1
  P  P16  1  0.37015757  0.44035066  0.32255183  1
  P  P17  1  0.62984243  0.55964934  0.67744817  1
  O  O18  1  0.72953025  0.39042569  0.09871068  1
  O  O19  1  0.27046975  0.60957431  0.90128932  1
  O  O20  1  0.69106351  0.12947862  0.00932322  1
  O  O21  1  0.30893649  0.87052138  0.99067678  1
  O  O22  1  0.28339817  0.34295543  0.09010793  1
  O  O23  1  0.71660183  0.65704457  0.90989207  1
  O  O24  1  0.60245185  0.05531306  0.16356185  1
  O  O25  1  0.39754815  0.94468694  0.83643815  1
  O  O26  1  0.95897213  0.71391862  0.17441366  1
  O  O27  1  0.04102787  0.28608138  0.82558634  1
  O  O28  1  0.01614922  0.03296086  0.22652556  1
  O  O29  1  0.98385078  0.96703914  0.77347444  1
  O  O30  1  0.66733107  0.86134376  0.30040626  1
  O  O31  1  0.33266893  0.13865624  0.69959374  1
  O  O32  1  0.85697853  0.38457091  0.46112966  1
  O  O33  1  0.14302147  0.61542909  0.53887034  1
  O  O34  1  0.88810489  0.02464392  0.42083827  1
  O  O35  1  0.11189511  0.97535608  0.57916173  1
  O  O36  1  0.58131185  0.15896005  0.54421680  1
  O  O37  1  0.41868815  0.84103995  0.45578320  1
  O  O38  1  0.46823592  0.31674730  0.40868137  1
  O  O39  1  0.53176408  0.68325270  0.59131863  1
  O  O40  1  0.59657612  0.46760885  0.26289186  1
  O  O41  1  0.40342388  0.53239115  0.73710814  1
  O  O42  1  0.22122336  0.30122250  0.29668533  1
  O  O43  1  0.77877664  0.69877750  0.70331467  1
  O  O44  1  0.18596339  0.65391793  0.34365042  1
  O  O45  1  0.81403661  0.34608207  0.65634958  1
