# generated using pymatgen
data_Cs3AlO3
_symmetry_space_group_name_H-M   'P 1'
_cell_length_a   7.28388945
_cell_length_b   13.05653491
_cell_length_c   14.65446139
_cell_angle_alpha   90.00000000
_cell_angle_beta   92.79647506
_cell_angle_gamma   90.00000000
_symmetry_Int_Tables_number   1
_chemical_formula_structural   Cs3AlO3
_chemical_formula_sum   'Cs24 Al8 O24'
_cell_volume   1392.01414664
_cell_formula_units_Z   8
loop_
 _symmetry_equiv_pos_site_id
 _symmetry_equiv_pos_as_xyz
  1  'x, y, z'
loop_
 _atom_site_type_symbol
 _atom_site_label
 _atom_site_symmetry_multiplicity
 _atom_site_fract_x
 _atom_site_fract_y
 _atom_site_fract_z
 _atom_site_occupancy
  Cs  Cs0  1  0.82698697  0.30425731  0.96355504  1
  Cs  Cs1  1  0.81690926  0.64952869  0.25827093  1
  Cs  Cs2  1  0.17301303  0.69574269  0.03644496  1
  Cs  Cs3  1  0.68309222  0.14929665  0.74152696  1
  Cs  Cs4  1  0.67307203  0.80483074  0.03604521  1
  Cs  Cs5  1  0.65340429  0.43919488  0.63618170  1
  Cs  Cs6  1  0.32692797  0.19516926  0.96395479  1
  Cs  Cs7  1  0.18309074  0.35047131  0.74172907  1
  Cs  Cs8  1  0.32692797  0.30483074  0.46395479  1
  Cs  Cs9  1  0.84660705  0.93927695  0.36431232  1
  Cs  Cs10  1  0.65340429  0.06080512  0.13618170  1
  Cs  Cs11  1  0.67307203  0.69516926  0.53604521  1
  Cs  Cs12  1  0.84660705  0.56072305  0.86431232  1
  Cs  Cs13  1  0.31690778  0.85070335  0.25847304  1
  Cs  Cs14  1  0.18309074  0.14952869  0.24172907  1
  Cs  Cs15  1  0.82698697  0.19574269  0.46355504  1
  Cs  Cs16  1  0.15339295  0.43927695  0.13568768  1
  Cs  Cs17  1  0.34659571  0.56080512  0.36381830  1
  Cs  Cs18  1  0.15339295  0.06072305  0.63568768  1
  Cs  Cs19  1  0.17301303  0.80425731  0.53644496  1
  Cs  Cs20  1  0.68309222  0.35070335  0.24152696  1
  Cs  Cs21  1  0.31690778  0.64929665  0.75847304  1
  Cs  Cs22  1  0.34659571  0.93919488  0.86381830  1
  Cs  Cs23  1  0.81690926  0.85047131  0.75827093  1
  Al  Al24  1  0.08408400  0.54457202  0.57025242  1
  Al  Al25  1  0.91591600  0.45542798  0.42974758  1
  Al  Al26  1  0.58416354  0.95519920  0.57009834  1
  Al  Al27  1  0.08408400  0.95542798  0.07025242  1
  Al  Al28  1  0.58416354  0.54480080  0.07009834  1
  Al  Al29  1  0.41583646  0.04480080  0.42990166  1
  Al  Al30  1  0.41583646  0.45519920  0.92990166  1
  Al  Al31  1  0.91591600  0.04457202  0.92974758  1
  O  O32  1  0.03509488  0.09920132  0.83811319  1
  O  O33  1  0.98986567  0.58792595  0.45685170  1
  O  O34  1  0.48873067  0.91209149  0.45687779  1
  O  O35  1  0.32490274  0.93885768  0.08412095  1
  O  O36  1  0.46510267  0.90113007  0.66202912  1
  O  O37  1  0.96490512  0.59920132  0.66188681  1
  O  O38  1  0.53489733  0.40113007  0.83797088  1
  O  O39  1  0.01013433  0.08792595  0.04314830  1
  O  O40  1  0.17509634  0.43776260  0.91649025  1
  O  O41  1  0.67509726  0.43885768  0.41587905  1
  O  O42  1  0.03509488  0.40079868  0.33811319  1
  O  O43  1  0.32490274  0.56114232  0.58412095  1
  O  O44  1  0.82490366  0.93776260  0.58350975  1
  O  O45  1  0.51126933  0.41209149  0.04312221  1
  O  O46  1  0.51126933  0.08790851  0.54312221  1
  O  O47  1  0.17509634  0.06223740  0.41649025  1
  O  O48  1  0.46510267  0.59886993  0.16202912  1
  O  O49  1  0.53489733  0.09886993  0.33797088  1
  O  O50  1  0.82490366  0.56223740  0.08350975  1
  O  O51  1  0.01013433  0.41207405  0.54314830  1
  O  O52  1  0.67509726  0.06114232  0.91587905  1
  O  O53  1  0.98986567  0.91207405  0.95685170  1
  O  O54  1  0.96490512  0.90079868  0.16188681  1
  O  O55  1  0.48873067  0.58790851  0.95687779  1
