# generated using pymatgen
data_CsGaS3
_symmetry_space_group_name_H-M   'P 1'
_cell_length_a   6.54818197
_cell_length_b   7.74615156
_cell_length_c   12.73744093
_cell_angle_alpha   90.00000000
_cell_angle_beta   90.00000000
_cell_angle_gamma   107.59456160
_symmetry_Int_Tables_number   1
_chemical_formula_structural   CsGaS3
_chemical_formula_sum   'Cs4 Ga4 S12'
_cell_volume   615.85967564
_cell_formula_units_Z   4
loop_
 _symmetry_equiv_pos_site_id
 _symmetry_equiv_pos_as_xyz
  1  'x, y, z'
loop_
 _atom_site_type_symbol
 _atom_site_label
 _atom_site_symmetry_multiplicity
 _atom_site_fract_x
 _atom_site_fract_y
 _atom_site_fract_z
 _atom_site_occupancy
  Cs  Cs0  1  0.28093347  0.25277322  0.91706022  1
  Cs  Cs1  1  0.78093347  0.25277322  0.58293978  1
  Cs  Cs2  1  0.21906653  0.74722678  0.41706022  1
  Cs  Cs3  1  0.71906653  0.74722678  0.08293978  1
  Ga  Ga4  1  0.35657250  0.80963849  0.77079164  1
  Ga  Ga5  1  0.14342750  0.19036151  0.27079164  1
  Ga  Ga6  1  0.85657250  0.80963849  0.72920836  1
  Ga  Ga7  1  0.64342750  0.19036151  0.22920836  1
  S  S8  1  0.81200797  0.02023917  0.32375502  1
  S  S9  1  0.31200797  0.02023917  0.17624498  1
  S  S10  1  0.36935016  0.56001418  0.67238523  1
  S  S11  1  0.64439538  0.69213988  0.58555009  1
  S  S12  1  0.35560462  0.30786012  0.41444991  1
  S  S13  1  0.14439538  0.69213988  0.91444991  1
  S  S14  1  0.86935016  0.56001418  0.82761477  1
  S  S15  1  0.13064984  0.43998582  0.17238523  1
  S  S16  1  0.68799203  0.97976083  0.82375502  1
  S  S17  1  0.18799203  0.97976083  0.67624498  1
  S  S18  1  0.63064984  0.43998582  0.32761477  1
  S  S19  1  0.85560462  0.30786012  0.08555009  1
