# generated using pymatgen
data_Ba7B4S13
_symmetry_space_group_name_H-M   'P 1'
_cell_length_a   10.28688641
_cell_length_b   10.29667096
_cell_length_c   13.18921924
_cell_angle_alpha   67.02408097
_cell_angle_beta   89.98055226
_cell_angle_gamma   89.95017322
_symmetry_Int_Tables_number   1
_chemical_formula_structural   Ba7B4S13
_chemical_formula_sum   'Ba14 B8 S26'
_cell_volume   1286.18434515
_cell_formula_units_Z   2
loop_
 _symmetry_equiv_pos_site_id
 _symmetry_equiv_pos_as_xyz
  1  'x, y, z'
loop_
 _atom_site_type_symbol
 _atom_site_label
 _atom_site_symmetry_multiplicity
 _atom_site_fract_x
 _atom_site_fract_y
 _atom_site_fract_z
 _atom_site_occupancy
  Ba  Ba0  1  0.75000000  0.99155312  0.01689377  1
  Ba  Ba1  1  0.25000000  0.00844688  0.98310623  1
  Ba  Ba2  1  0.14418186  0.89521479  0.65082536  1
  Ba  Ba3  1  0.25000000  0.50235572  0.99528856  1
  Ba  Ba4  1  0.85581814  0.10478521  0.34917464  1
  Ba  Ba5  1  0.75000000  0.49764428  0.00471144  1
  Ba  Ba6  1  0.47019177  0.93396896  0.34363228  1
  Ba  Ba7  1  0.02980823  0.72239875  0.34363228  1
  Ba  Ba8  1  0.75000000  0.66860485  0.66279030  1
  Ba  Ba9  1  0.52980823  0.06603104  0.65636772  1
  Ba  Ba10  1  0.25000000  0.33139515  0.33720970  1
  Ba  Ba11  1  0.97019177  0.27760125  0.65636772  1
  Ba  Ba12  1  0.64418186  0.54604014  0.34917464  1
  Ba  Ba13  1  0.35581814  0.45395986  0.65082536  1
  B  B14  1  0.84991730  0.93216726  0.77599950  1
  B  B15  1  0.56759531  0.28385273  0.23429873  1
  B  B16  1  0.93240469  0.48184854  0.23429873  1
  B  B17  1  0.43240469  0.71614727  0.76570127  1
  B  B18  1  0.65008270  0.29183324  0.77599950  1
  B  B19  1  0.34991730  0.70816676  0.22400050  1
  B  B20  1  0.06759531  0.51815146  0.76570127  1
  B  B21  1  0.15008270  0.06783274  0.22400050  1
  S  S22  1  0.84800485  0.00129593  0.62273156  1
  S  S23  1  0.65199515  0.37597251  0.62273156  1
  S  S24  1  0.70728173  0.83517941  0.84627615  1
  S  S25  1  0.00205460  0.62520922  0.83509821  1
  S  S26  1  0.15199515  0.99870407  0.37726844  1
  S  S27  1  0.99794540  0.37479078  0.16490179  1
  S  S28  1  0.20728173  0.68145556  0.15372385  1
  S  S29  1  0.25000000  0.20417475  0.59165050  1
  S  S30  1  0.51649061  0.17647285  0.84800235  1
  S  S31  1  0.01649061  0.02447520  0.15199765  1
  S  S32  1  0.35274773  0.81306267  0.83819544  1
  S  S33  1  0.34800485  0.62402749  0.37726844  1
  S  S34  1  0.50205460  0.46030743  0.16490179  1
  S  S35  1  0.79271827  0.31854444  0.84627615  1
  S  S36  1  0.29271827  0.16482059  0.15372385  1
  S  S37  1  0.98350939  0.97552480  0.84800235  1
  S  S38  1  0.14725227  0.34874189  0.83819544  1
  S  S39  1  0.75000000  0.79582525  0.40834950  1
  S  S40  1  0.64725227  0.18693733  0.16180456  1
  S  S41  1  0.43877227  0.79208980  0.61308739  1
  S  S42  1  0.06122773  0.59482281  0.61308739  1
  S  S43  1  0.93877227  0.40517719  0.38691261  1
  S  S44  1  0.48350939  0.82352715  0.15199765  1
  S  S45  1  0.85274773  0.65125811  0.16180456  1
  S  S46  1  0.56122773  0.20791020  0.38691261  1
  S  S47  1  0.49794540  0.53969257  0.83509821  1
