# generated using pymatgen
data_KMo(PO4)2
_symmetry_space_group_name_H-M   'P 1'
_cell_length_a   5.18354990
_cell_length_b   11.71182358
_cell_length_c   11.97091684
_cell_angle_alpha   90.00000000
_cell_angle_beta   90.00000000
_cell_angle_gamma   91.20600406
_symmetry_Int_Tables_number   1
_chemical_formula_structural   KMo(PO4)2
_chemical_formula_sum   'K4 Mo4 P8 O32'
_cell_volume   726.57927446
_cell_formula_units_Z   4
loop_
 _symmetry_equiv_pos_site_id
 _symmetry_equiv_pos_as_xyz
  1  'x, y, z'
loop_
 _atom_site_type_symbol
 _atom_site_label
 _atom_site_symmetry_multiplicity
 _atom_site_fract_x
 _atom_site_fract_y
 _atom_site_fract_z
 _atom_site_occupancy
  K  K0  1  0.72594065  0.05267166  0.63079813  1
  K  K1  1  0.77405935  0.44732834  0.13079813  1
  K  K2  1  0.27405935  0.94732834  0.36920187  1
  K  K3  1  0.22594065  0.55267166  0.86920187  1
  Mo  Mo4  1  0.74009397  0.83539973  0.87997923  1
  Mo  Mo5  1  0.75990603  0.66460027  0.37997923  1
  Mo  Mo6  1  0.25990603  0.16460027  0.12002077  1
  Mo  Mo7  1  0.24009397  0.33539973  0.62002077  1
  P  P8  1  0.73554184  0.35216535  0.80694892  1
  P  P9  1  0.76445816  0.14783465  0.30694892  1
  P  P10  1  0.26445816  0.64783465  0.19305108  1
  P  P11  1  0.23554184  0.85216535  0.69305108  1
  P  P12  1  0.74670733  0.13619387  0.93703108  1
  P  P13  1  0.75329267  0.36380613  0.43703108  1
  P  P14  1  0.25329267  0.86380613  0.06296892  1
  P  P15  1  0.24670733  0.63619387  0.56296892  1
  O  O16  1  0.80835269  0.01791939  0.89480861  1
  O  O17  1  0.69164731  0.48208061  0.39480861  1
  O  O18  1  0.19164731  0.98208061  0.10519139  1
  O  O19  1  0.30835269  0.51791939  0.60519139  1
  O  O20  1  0.06900987  0.81671845  0.97355792  1
  O  O21  1  0.43099013  0.68328155  0.47355792  1
  O  O22  1  0.93099013  0.18328155  0.02644208  1
  O  O23  1  0.56900987  0.31671845  0.52644208  1
  O  O24  1  0.95542058  0.85924552  0.73750667  1
  O  O25  1  0.54457942  0.64075448  0.23750667  1
  O  O26  1  0.04457942  0.14075448  0.26249333  1
  O  O27  1  0.45542058  0.35924552  0.76249333  1
  O  O28  1  0.77993294  0.21530157  0.82664668  1
  O  O29  1  0.72006706  0.28469843  0.32664668  1
  O  O30  1  0.22006706  0.78469843  0.17335332  1
  O  O31  1  0.27993294  0.71530157  0.67335332  1
  O  O32  1  0.53561824  0.85194787  0.02614470  1
  O  O33  1  0.96438176  0.64805213  0.52614470  1
  O  O34  1  0.46438176  0.14805213  0.97385530  1
  O  O35  1  0.03561824  0.35194787  0.47385530  1
  O  O36  1  0.77276606  0.41894530  0.91222748  1
  O  O37  1  0.72723394  0.08105470  0.41222748  1
  O  O38  1  0.22723394  0.58105470  0.08777252  1
  O  O39  1  0.27276606  0.91894530  0.58777252  1
  O  O40  1  0.68513752  0.69114915  0.86462672  1
  O  O41  1  0.81486248  0.80885085  0.36462672  1
  O  O42  1  0.31486248  0.30885085  0.13537328  1
  O  O43  1  0.18513752  0.19114915  0.63537328  1
  O  O44  1  0.42904006  0.88399569  0.78630797  1
  O  O45  1  0.07095994  0.61600431  0.28630797  1
  O  O46  1  0.57095994  0.11600431  0.21369203  1
  O  O47  1  0.92904006  0.38399569  0.71369203  1
