# generated using pymatgen
data_Ca2YAs(WO6)2
_symmetry_space_group_name_H-M   'P 1'
_cell_length_a   5.20893519
_cell_length_b   5.20893475
_cell_length_c   17.67691274
_cell_angle_alpha   98.47265012
_cell_angle_beta   98.47264941
_cell_angle_gamma   90.00000431
_symmetry_Int_Tables_number   1
_chemical_formula_structural   Ca2YAs(WO6)2
_chemical_formula_sum   'Ca4 Y2 As2 W4 O24'
_cell_volume   469.10030933
_cell_formula_units_Z   2
loop_
 _symmetry_equiv_pos_site_id
 _symmetry_equiv_pos_as_xyz
  1  'x, y, z'
loop_
 _atom_site_type_symbol
 _atom_site_label
 _atom_site_symmetry_multiplicity
 _atom_site_fract_x
 _atom_site_fract_y
 _atom_site_fract_z
 _atom_site_occupancy
  Ca  Ca0  1  0.46133443  0.21133443  0.42266985  1
  Ca  Ca1  1  0.21133443  0.46133443  0.92266985  1
  Ca  Ca2  1  0.53866557  0.78866557  0.57733015  1
  Ca  Ca3  1  0.78866557  0.53866557  0.07733015  1
  Y  Y4  1  0.87500000  0.12500000  0.25000000  1
  Y  Y5  1  0.12500000  0.87500000  0.75000000  1
  As  As6  1  0.62500000  0.37500000  0.75000000  1
  As  As7  1  0.37500000  0.62500000  0.25000000  1
  W  W8  1  0.30029848  0.05029848  0.10059696  1
  W  W9  1  0.69970152  0.94970152  0.89940304  1
  W  W10  1  0.94970152  0.69970152  0.39940304  1
  W  W11  1  0.05029848  0.30029848  0.60059696  1
  O  O12  1  0.45906533  0.19815929  0.80426135  1
  O  O13  1  0.60610206  0.45906533  0.30426135  1
  O  O14  1  0.19815929  0.84519602  0.30426135  1
  O  O15  1  0.84519602  0.60610206  0.80426135  1
  O  O16  1  0.54093467  0.80184071  0.19573865  1
  O  O17  1  0.39389794  0.54093467  0.69573865  1
  O  O18  1  0.80184071  0.15480398  0.69573865  1
  O  O19  1  0.15480398  0.39389794  0.19573865  1
  O  O20  1  0.96481944  0.09616416  0.85744107  1
  O  O21  1  0.76127692  0.96481944  0.35744107  1
  O  O22  1  0.09616416  0.39262063  0.35744107  1
  O  O23  1  0.39262063  0.76127692  0.85744107  1
  O  O24  1  0.13515611  0.25894506  0.03603093  1
  O  O25  1  0.77708587  0.13515611  0.53603093  1
  O  O26  1  0.25894506  0.40087381  0.53603093  1
  O  O27  1  0.40087381  0.77708587  0.03603093  1
  O  O28  1  0.86484389  0.74105494  0.96396907  1
  O  O29  1  0.22291413  0.86484389  0.46396907  1
  O  O30  1  0.74105494  0.59912619  0.46396907  1
  O  O31  1  0.59912619  0.22291413  0.96396907  1
  O  O32  1  0.60737937  0.23872308  0.14255893  1
  O  O33  1  0.90383584  0.60737937  0.64255893  1
  O  O34  1  0.23872308  0.03518056  0.64255893  1
  O  O35  1  0.03518056  0.90383584  0.14255893  1
