# generated using pymatgen
data_Cs2Na3TlO4
_symmetry_space_group_name_H-M   'P 1'
_cell_length_a   6.50598612
_cell_length_b   10.33736868
_cell_length_c   12.13752863
_cell_angle_alpha   90.00000000
_cell_angle_beta   99.44356835
_cell_angle_gamma   90.00000000
_symmetry_Int_Tables_number   1
_chemical_formula_structural   Cs2Na3TlO4
_chemical_formula_sum   'Cs8 Na12 Tl4 O16'
_cell_volume   805.24393420
_cell_formula_units_Z   4
loop_
 _symmetry_equiv_pos_site_id
 _symmetry_equiv_pos_as_xyz
  1  'x, y, z'
loop_
 _atom_site_type_symbol
 _atom_site_label
 _atom_site_symmetry_multiplicity
 _atom_site_fract_x
 _atom_site_fract_y
 _atom_site_fract_z
 _atom_site_occupancy
  Cs  Cs0  1  0.10655451  0.72889882  0.39156970  1
  Cs  Cs1  1  0.39344549  0.22889882  0.10843030  1
  Cs  Cs2  1  0.89344549  0.27110118  0.60843030  1
  Cs  Cs3  1  0.14386108  0.00166140  0.86537934  1
  Cs  Cs4  1  0.60655451  0.77110118  0.89156970  1
  Cs  Cs5  1  0.85613892  0.99833860  0.13462066  1
  Cs  Cs6  1  0.64386108  0.49833860  0.36537934  1
  Cs  Cs7  1  0.35613892  0.50166140  0.63462066  1
  Na  Na8  1  0.58673901  0.74408964  0.19878949  1
  Na  Na9  1  0.38108154  0.97402105  0.29396968  1
  Na  Na10  1  0.88108154  0.52597895  0.79396968  1
  Na  Na11  1  0.41326099  0.25591036  0.80121051  1
  Na  Na12  1  0.20827184  0.99157983  0.56844082  1
  Na  Na13  1  0.91326099  0.24408964  0.30121051  1
  Na  Na14  1  0.70827184  0.50842017  0.06844082  1
  Na  Na15  1  0.11891846  0.47402105  0.20603032  1
  Na  Na16  1  0.29172816  0.49157983  0.93155918  1
  Na  Na17  1  0.61891846  0.02597895  0.70603032  1
  Na  Na18  1  0.79172816  0.00842017  0.43155918  1
  Na  Na19  1  0.08673901  0.75591036  0.69878949  1
  Tl  Tl20  1  0.83729862  0.28074107  0.93662467  1
  Tl  Tl21  1  0.33729862  0.21925893  0.43662467  1
  Tl  Tl22  1  0.16270138  0.71925893  0.06337533  1
  Tl  Tl23  1  0.66270138  0.78074107  0.56337533  1
  O  O24  1  0.89622194  0.30943569  0.11894891  1
  O  O25  1  0.39622194  0.19056431  0.61894891  1
  O  O26  1  0.60377806  0.80943569  0.38105109  1
  O  O27  1  0.66916316  0.09778443  0.89183305  1
  O  O28  1  0.09304966  0.32236908  0.84393013  1
  O  O29  1  0.33083684  0.90221557  0.10816695  1
  O  O30  1  0.83083684  0.59778443  0.60816695  1
  O  O31  1  0.59304966  0.17763092  0.34393013  1
  O  O32  1  0.90695034  0.67763092  0.15606987  1
  O  O33  1  0.10986478  0.05881362  0.37676842  1
  O  O34  1  0.60986478  0.44118638  0.87676842  1
  O  O35  1  0.40695034  0.82236908  0.65606987  1
  O  O36  1  0.10377806  0.69056431  0.88105109  1
  O  O37  1  0.89013522  0.94118638  0.62323158  1
  O  O38  1  0.16916316  0.40221557  0.39183305  1
  O  O39  1  0.39013522  0.55881362  0.12323158  1
