# generated using pymatgen
data_Cs4NaHf3H2F19
_symmetry_space_group_name_H-M   'P 1'
_cell_length_a   6.98446590
_cell_length_b   11.62983736
_cell_length_c   13.47003535
_cell_angle_alpha   110.67365511
_cell_angle_beta   90.00000000
_cell_angle_gamma   90.00000000
_symmetry_Int_Tables_number   1
_chemical_formula_structural   Cs4NaHf3H2F19
_chemical_formula_sum   'Cs8 Na2 Hf6 H4 F38'
_cell_volume   1023.69077737
_cell_formula_units_Z   2
loop_
 _symmetry_equiv_pos_site_id
 _symmetry_equiv_pos_as_xyz
  1  'x, y, z'
loop_
 _atom_site_type_symbol
 _atom_site_label
 _atom_site_symmetry_multiplicity
 _atom_site_fract_x
 _atom_site_fract_y
 _atom_site_fract_z
 _atom_site_occupancy
  Cs  Cs0  1  0.25000000  0.64381828  0.42675170  1
  Cs  Cs1  1  0.75000000  0.52401479  0.92806302  1
  Cs  Cs2  1  0.75000000  0.35618172  0.57324830  1
  Cs  Cs3  1  0.75000000  0.97014837  0.58366002  1
  Cs  Cs4  1  0.25000000  0.02985163  0.41633998  1
  Cs  Cs5  1  0.25000000  0.47598521  0.07193698  1
  Cs  Cs6  1  0.25000000  0.86277823  0.07590752  1
  Cs  Cs7  1  0.75000000  0.13722177  0.92409248  1
  Na  Na8  1  0.25000000  0.26366039  0.25045906  1
  Na  Na9  1  0.75000000  0.73633961  0.74954094  1
  Hf  Hf10  1  0.75000000  0.08402653  0.24552500  1
  Hf  Hf11  1  0.75000000  0.40564219  0.25245160  1
  Hf  Hf12  1  0.25000000  0.91597347  0.75447500  1
  Hf  Hf13  1  0.75000000  0.76991046  0.25097243  1
  Hf  Hf14  1  0.25000000  0.59435781  0.74754840  1
  Hf  Hf15  1  0.25000000  0.23008954  0.74902757  1
  H  H16  1  0.75000000  0.62394468  0.49598791  1
  H  H17  1  0.25000000  0.13107042  0.99804977  1
  H  H18  1  0.25000000  0.37605532  0.50401209  1
  H  H19  1  0.75000000  0.86892958  0.00195023  1
  F  F20  1  0.94480067  0.80125387  0.36920816  1
  F  F21  1  0.25000000  0.71678994  0.65950154  1
  F  F22  1  0.75000000  0.28321006  0.34049846  1
  F  F23  1  0.25000000  0.48836455  0.58414945  1
  F  F24  1  0.25000000  0.01950954  0.91675869  1
  F  F25  1  0.03638763  0.41530873  0.25877821  1
  F  F26  1  0.25000000  0.29924457  0.43876611  1
  F  F27  1  0.25000000  0.78350988  0.84316267  1
  F  F28  1  0.75000000  0.78913493  0.93997143  1
  F  F29  1  0.97131746  0.87621754  0.75902111  1
  F  F30  1  0.44605702  0.31739303  0.86171508  1
  F  F31  1  0.75000000  0.21649012  0.15683733  1
  F  F32  1  0.58234589  0.91738630  0.23672984  1
  F  F33  1  0.94605702  0.68260697  0.13828492  1
  F  F34  1  0.02868254  0.12378246  0.24097889  1
  F  F35  1  0.75000000  0.70075543  0.56123389  1
  F  F36  1  0.52868254  0.87621754  0.75902111  1
  F  F37  1  0.05394298  0.31739303  0.86171508  1
  F  F38  1  0.25000000  0.40693888  0.73363286  1
  F  F39  1  0.44480067  0.19874613  0.63079184  1
  F  F40  1  0.08234589  0.08261370  0.76327016  1
  F  F41  1  0.75000000  0.09278103  0.39677437  1
  F  F42  1  0.75000000  0.51163545  0.41585055  1
  F  F43  1  0.46361237  0.41530873  0.25877821  1
  F  F44  1  0.55519933  0.80125387  0.36920816  1
  F  F45  1  0.96361237  0.58469127  0.74122179  1
  F  F46  1  0.91765411  0.91738630  0.23672984  1
  F  F47  1  0.75000000  0.98049046  0.08324131  1
  F  F48  1  0.05519933  0.19874613  0.63079184  1
  F  F49  1  0.53638763  0.58469127  0.74122179  1
  F  F50  1  0.25000000  0.21086507  0.06002857  1
  F  F51  1  0.47131746  0.12378246  0.24097889  1
  F  F52  1  0.41765411  0.08261370  0.76327016  1
  F  F53  1  0.25000000  0.60003039  0.89842263  1
  F  F54  1  0.55394298  0.68260697  0.13828492  1
  F  F55  1  0.75000000  0.59306112  0.26636714  1
  F  F56  1  0.75000000  0.39996961  0.10157737  1
  F  F57  1  0.25000000  0.90721897  0.60322563  1
