# generated using pymatgen
data_Ta2Ni3S8
_symmetry_space_group_name_H-M   'P 1'
_cell_length_a   3.34630074
_cell_length_b   10.17301518
_cell_length_c   14.22004461
_cell_angle_alpha   90.00000000
_cell_angle_beta   90.00000000
_cell_angle_gamma   90.00000000
_symmetry_Int_Tables_number   1
_chemical_formula_structural   Ta2Ni3S8
_chemical_formula_sum   'Ta4 Ni6 S16'
_cell_volume   484.07830677
_cell_formula_units_Z   2
loop_
 _symmetry_equiv_pos_site_id
 _symmetry_equiv_pos_as_xyz
  1  'x, y, z'
loop_
 _atom_site_type_symbol
 _atom_site_label
 _atom_site_symmetry_multiplicity
 _atom_site_fract_x
 _atom_site_fract_y
 _atom_site_fract_z
 _atom_site_occupancy
  Ta  Ta0  1  0.50000000  0.20141595  0.11908930  1
  Ta  Ta1  1  0.50000000  0.70141595  0.38091070  1
  Ta  Ta2  1  0.50000000  0.29858405  0.61908930  1
  Ta  Ta3  1  0.50000000  0.79858405  0.88091070  1
  Ni  Ni4  1  0.00000000  0.36961379  0.22524741  1
  Ni  Ni5  1  0.00000000  0.63038621  0.77475259  1
  Ni  Ni6  1  0.00000000  0.00000000  0.00000000  1
  Ni  Ni7  1  0.00000000  0.86961379  0.27475259  1
  Ni  Ni8  1  0.00000000  0.13038621  0.72524741  1
  Ni  Ni9  1  0.00000000  0.50000000  0.50000000  1
  S  S10  1  0.00000000  0.97269334  0.84498120  1
  S  S11  1  0.50000000  0.74829853  0.21457045  1
  S  S12  1  0.50000000  0.75170147  0.71457045  1
  S  S13  1  0.00000000  0.52730666  0.34498120  1
  S  S14  1  0.50000000  0.24829853  0.28542955  1
  S  S15  1  0.00000000  0.71793907  0.50783043  1
  S  S16  1  0.00000000  0.21793907  0.99216957  1
  S  S17  1  0.50000000  0.55988265  0.86791056  1
  S  S18  1  0.00000000  0.28206093  0.49216957  1
  S  S19  1  0.50000000  0.44011735  0.13208944  1
  S  S20  1  0.50000000  0.05988265  0.63208944  1
  S  S21  1  0.00000000  0.02730666  0.15501880  1
  S  S22  1  0.50000000  0.94011735  0.36791056  1
  S  S23  1  0.00000000  0.78206093  0.00783043  1
  S  S24  1  0.50000000  0.25170147  0.78542955  1
  S  S25  1  0.00000000  0.47269334  0.65501880  1
