# generated using pymatgen
data_Cs2GaP3O10
_symmetry_space_group_name_H-M   'P 1'
_cell_length_a   9.16220348
_cell_length_b   9.68903934
_cell_length_c   12.50495628
_cell_angle_alpha   95.18234691
_cell_angle_beta   90.00000000
_cell_angle_gamma   90.00000000
_symmetry_Int_Tables_number   1
_chemical_formula_structural   Cs2GaP3O10
_chemical_formula_sum   'Cs8 Ga4 P12 O40'
_cell_volume   1105.56406781
_cell_formula_units_Z   4
loop_
 _symmetry_equiv_pos_site_id
 _symmetry_equiv_pos_as_xyz
  1  'x, y, z'
loop_
 _atom_site_type_symbol
 _atom_site_label
 _atom_site_symmetry_multiplicity
 _atom_site_fract_x
 _atom_site_fract_y
 _atom_site_fract_z
 _atom_site_occupancy
  Cs  Cs0  1  0.60358667  0.73527739  0.53937127  1
  Cs  Cs1  1  0.89641333  0.23527739  0.53937127  1
  Cs  Cs2  1  0.39641333  0.26472261  0.46062873  1
  Cs  Cs3  1  0.12033589  0.00549419  0.14757017  1
  Cs  Cs4  1  0.87966411  0.99450581  0.85242983  1
  Cs  Cs5  1  0.62033589  0.49450581  0.85242983  1
  Cs  Cs6  1  0.37966411  0.50549419  0.14757017  1
  Cs  Cs7  1  0.10358667  0.76472261  0.46062873  1
  Ga  Ga8  1  0.14852839  0.35588130  0.84727477  1
  Ga  Ga9  1  0.35147161  0.85588130  0.84727477  1
  Ga  Ga10  1  0.64852839  0.14411870  0.15272523  1
  Ga  Ga11  1  0.85147161  0.64411870  0.15272523  1
  P  P12  1  0.08272993  0.67898473  0.95194618  1
  P  P13  1  0.71464954  0.43080015  0.31094468  1
  P  P14  1  0.53349774  0.08154644  0.74104622  1
  P  P15  1  0.96650226  0.58154644  0.74104622  1
  P  P16  1  0.78535046  0.93080015  0.31094468  1
  P  P17  1  0.03349774  0.41845356  0.25895378  1
  P  P18  1  0.91727007  0.32101527  0.04805382  1
  P  P19  1  0.58272993  0.82101527  0.04805382  1
  P  P20  1  0.28535046  0.56919985  0.68905532  1
  P  P21  1  0.46650226  0.91845356  0.25895378  1
  P  P22  1  0.21464954  0.06919985  0.68905532  1
  P  P23  1  0.41727007  0.17898473  0.95194618  1
  O  O24  1  0.99666341  0.71895206  0.05449337  1
  O  O25  1  0.71906284  0.56845191  0.25832376  1
  O  O26  1  0.87194004  0.82055525  0.24074031  1
  O  O27  1  0.62805996  0.32055525  0.24074031  1
  O  O28  1  0.88537445  0.37172488  0.31262524  1
  O  O29  1  0.47749649  0.06994133  0.23519560  1
  O  O30  1  0.18366097  0.80066812  0.93365084  1
  O  O31  1  0.50333659  0.21895206  0.05449337  1
  O  O32  1  0.68366097  0.69933188  0.06634916  1
  O  O33  1  0.54059594  0.17523457  0.85559617  1
  O  O34  1  0.12805996  0.17944475  0.75925969  1
  O  O35  1  0.66718873  0.44491813  0.42640082  1
  O  O36  1  0.28093716  0.43154809  0.74167624  1
  O  O37  1  0.37194004  0.67944475  0.75925969  1
  O  O38  1  0.33281127  0.55508187  0.57359918  1
  O  O39  1  0.97749649  0.43005867  0.76480440  1
  O  O40  1  0.65729233  0.96214960  0.05559753  1
  O  O41  1  0.34270767  0.03785040  0.94440247  1
  O  O42  1  0.15729233  0.53785040  0.94440247  1
  O  O43  1  0.95940406  0.67523457  0.85559617  1
  O  O44  1  0.61462555  0.87172488  0.31262524  1
  O  O45  1  0.21906284  0.93154809  0.74167624  1
  O  O46  1  0.45940406  0.82476543  0.14440383  1
  O  O47  1  0.02250351  0.56994133  0.23519560  1
  O  O48  1  0.78093716  0.06845191  0.25832376  1
  O  O49  1  0.33892660  0.87877327  0.32318771  1
  O  O50  1  0.11462555  0.62827512  0.68737476  1
  O  O51  1  0.16718873  0.05508187  0.57359918  1
  O  O52  1  0.49666341  0.78104794  0.94550663  1
  O  O53  1  0.83892660  0.62122673  0.67681229  1
  O  O54  1  0.00333659  0.28104794  0.94550663  1
  O  O55  1  0.38537445  0.12827512  0.68737476  1
  O  O56  1  0.16107340  0.37877327  0.32318771  1
  O  O57  1  0.04059594  0.32476543  0.14440383  1
  O  O58  1  0.83281127  0.94491813  0.42640082  1
  O  O59  1  0.81633903  0.19933188  0.06634916  1
  O  O60  1  0.52250351  0.93005867  0.76480440  1
  O  O61  1  0.66107340  0.12122673  0.67681229  1
  O  O62  1  0.31633903  0.30066812  0.93365084  1
  O  O63  1  0.84270767  0.46214960  0.05559753  1
