# generated using pymatgen
data_Eu2(MoO4)3
_symmetry_space_group_name_H-M   'P 1'
_cell_length_a   7.06579986
_cell_length_b   7.06579960
_cell_length_c   11.65353839
_cell_angle_alpha   100.36346493
_cell_angle_beta   100.36346465
_cell_angle_gamma   112.56279428
_symmetry_Int_Tables_number   1
_chemical_formula_structural   Eu2(MoO4)3
_chemical_formula_sum   'Eu4 Mo6 O24'
_cell_volume   508.28327880
_cell_formula_units_Z   2
loop_
 _symmetry_equiv_pos_site_id
 _symmetry_equiv_pos_as_xyz
  1  'x, y, z'
loop_
 _atom_site_type_symbol
 _atom_site_label
 _atom_site_symmetry_multiplicity
 _atom_site_fract_x
 _atom_site_fract_y
 _atom_site_fract_z
 _atom_site_occupancy
  Eu  Eu0  1  0.80464134  0.04789093  0.59184436  1
  Eu  Eu1  1  0.45210907  0.69535866  0.90815564  1
  Eu  Eu2  1  0.19535866  0.95210907  0.40815564  1
  Eu  Eu3  1  0.54789093  0.30464134  0.09184436  1
  Mo  Mo4  1  0.62143214  0.87856786  0.25000000  1
  Mo  Mo5  1  0.37856786  0.12143214  0.75000000  1
  Mo  Mo6  1  0.30201551  0.51521235  0.55252529  1
  Mo  Mo7  1  0.98478765  0.19798449  0.94747471  1
  Mo  Mo8  1  0.69798449  0.48478765  0.44747471  1
  Mo  Mo9  1  0.01521235  0.80201551  0.05252529  1
  O  O10  1  0.52869735  0.94773609  0.11397695  1
  O  O11  1  0.55226391  0.97130265  0.38602305  1
  O  O12  1  0.47130265  0.05226391  0.88602305  1
  O  O13  1  0.44773609  0.02869735  0.61397695  1
  O  O14  1  0.17783385  0.60836307  0.44585988  1
  O  O15  1  0.89163693  0.32216615  0.05414012  1
  O  O16  1  0.82216615  0.39163693  0.55414012  1
  O  O17  1  0.10836307  0.67783385  0.94585988  1
  O  O18  1  0.85922896  0.21192553  0.80302216  1
  O  O19  1  0.28807447  0.64077104  0.69697784  1
  O  O20  1  0.14077104  0.78807447  0.19697784  1
  O  O21  1  0.71192553  0.35922896  0.30302216  1
  O  O22  1  0.40062698  0.32721201  0.42182273  1
  O  O23  1  0.17278799  0.09937302  0.07817727  1
  O  O24  1  0.59937302  0.67278799  0.57817727  1
  O  O25  1  0.82721201  0.90062698  0.92182273  1
  O  O26  1  0.09593260  0.01204499  0.71931525  1
  O  O27  1  0.48795501  0.40406740  0.78068475  1
  O  O28  1  0.90406740  0.98795501  0.28068475  1
  O  O29  1  0.51204499  0.59593260  0.21931525  1
  O  O30  1  0.72816764  0.63396668  0.04138857  1
  O  O31  1  0.86603332  0.77183236  0.45861143  1
  O  O32  1  0.27183236  0.36603332  0.95861143  1
  O  O33  1  0.13396668  0.22816764  0.54138857  1
