# generated using pymatgen
data_CsPPbS4
_symmetry_space_group_name_H-M   'P 1'
_cell_length_a   6.50971156
_cell_length_b   6.89285271
_cell_length_c   18.41195995
_cell_angle_alpha   90.00000000
_cell_angle_beta   90.00000000
_cell_angle_gamma   90.00000000
_symmetry_Int_Tables_number   1
_chemical_formula_structural   CsPPbS4
_chemical_formula_sum   'Cs4 P4 Pb4 S16'
_cell_volume   826.15353534
_cell_formula_units_Z   4
loop_
 _symmetry_equiv_pos_site_id
 _symmetry_equiv_pos_as_xyz
  1  'x, y, z'
loop_
 _atom_site_type_symbol
 _atom_site_label
 _atom_site_symmetry_multiplicity
 _atom_site_fract_x
 _atom_site_fract_y
 _atom_site_fract_z
 _atom_site_occupancy
  Cs  Cs0  1  0.93719514  0.75000000  0.20453446  1
  Cs  Cs1  1  0.06280486  0.25000000  0.79546554  1
  Cs  Cs2  1  0.43719514  0.25000000  0.29546554  1
  Cs  Cs3  1  0.56280486  0.75000000  0.70453446  1
  P  P4  1  0.21699885  0.25000000  0.09278571  1
  P  P5  1  0.28300115  0.25000000  0.59278571  1
  P  P6  1  0.71699885  0.75000000  0.40721429  1
  P  P7  1  0.78300115  0.75000000  0.90721429  1
  Pb  Pb8  1  0.21137589  0.75000000  0.48431467  1
  Pb  Pb9  1  0.28862411  0.75000000  0.98431467  1
  Pb  Pb10  1  0.78862411  0.25000000  0.51568533  1
  Pb  Pb11  1  0.71137589  0.25000000  0.01568533  1
  S  S12  1  0.39240843  0.49094898  0.11511344  1
  S  S13  1  0.15088213  0.25000000  0.98311365  1
  S  S14  1  0.10759157  0.49094898  0.61511344  1
  S  S15  1  0.45257443  0.75000000  0.34722431  1
  S  S16  1  0.60759157  0.99094898  0.88488656  1
  S  S17  1  0.39240843  0.00905102  0.11511344  1
  S  S18  1  0.10759157  0.00905102  0.61511344  1
  S  S19  1  0.34911787  0.25000000  0.48311365  1
  S  S20  1  0.84911787  0.75000000  0.01688635  1
  S  S21  1  0.04742557  0.75000000  0.84722431  1
  S  S22  1  0.54742557  0.25000000  0.65277569  1
  S  S23  1  0.89240843  0.50905102  0.38488656  1
  S  S24  1  0.95257443  0.25000000  0.15277569  1
  S  S25  1  0.60759157  0.50905102  0.88488656  1
  S  S26  1  0.89240843  0.99094898  0.38488656  1
  S  S27  1  0.65088213  0.75000000  0.51688635  1
