# generated using pymatgen
data_Mg16Al12P
_symmetry_space_group_name_H-M   'P 1'
_cell_length_a   9.23559512
_cell_length_b   9.05128666
_cell_length_c   9.05128716
_cell_angle_alpha   109.05507026
_cell_angle_beta   109.88424281
_cell_angle_gamma   109.88423548
_symmetry_Int_Tables_number   1
_chemical_formula_structural   Mg16Al12P
_chemical_formula_sum   'Mg16 Al12 P1'
_cell_volume   579.46138474
_cell_formula_units_Z   1
loop_
 _symmetry_equiv_pos_site_id
 _symmetry_equiv_pos_as_xyz
  1  'x, y, z'
loop_
 _atom_site_type_symbol
 _atom_site_label
 _atom_site_symmetry_multiplicity
 _atom_site_fract_x
 _atom_site_fract_y
 _atom_site_fract_z
 _atom_site_occupancy
  Mg  Mg0  1  -0.00055358  0.99999900  0.00000000  1
  Mg  Mg1  1  0.00165053  0.34776968  1.00000000  1
  Mg  Mg2  1  0.58141597  0.28421796  1.00000000  1
  Mg  Mg3  1  0.31735782  0.59553810  0.00000100  1
  Mg  Mg4  1  0.68338891  0.68000723  0.27693472  1
  Mg  Mg5  1  0.58141597  1.00000000  0.28421896  1
  Mg  Mg6  1  0.00338168  0.59692649  0.31999177  1
  Mg  Mg7  1  0.00165053  1.00000000  0.34777068  1
  Mg  Mg8  1  0.40645519  0.72306528  0.40307351  1
  Mg  Mg9  1  0.72182172  0.40446390  0.40446390  1
  Mg  Mg10  1  0.31735782  0.00000000  0.59553810  1
  Mg  Mg11  1  0.00338168  0.31999277  0.59692649  1
  Mg  Mg12  1  0.65387986  0.65222932  0.65223032  1
  Mg  Mg13  1  0.68338891  0.27693472  0.68000723  1
  Mg  Mg14  1  0.29719702  0.71578104  0.71578104  1
  Mg  Mg15  1  0.40645519  0.40307351  0.72306528  1
  Al  Al16  1  0.81545150  0.62136966  0.00000000  1
  Al  Al17  1  0.64428618  0.81116283  1.00000000  1
  Al  Al18  1  0.36950540  0.37121019  0.18656148  1
  Al  Al19  1  0.18294292  0.81343852  0.18464871  1
  Al  Al20  1  0.83312135  0.18883717  0.18883717  1
  Al  Al21  1  0.36950540  0.18656048  0.37121019  1
  Al  Al22  1  0.19408085  0.37863134  0.37863134  1
  Al  Al23  1  0.81545050  0.00000000  0.62136966  1
  Al  Al24  1  0.99829521  0.81535229  0.62879081  1
  Al  Al25  1  0.64428518  0.00000000  0.81116383  1
  Al  Al26  1  0.99829521  0.62879181  0.81535129  1
  Al  Al27  1  0.18294392  0.18464871  0.81343852  1
  P  P28  1  0.29219310  0.00000000  1.00000000  1
