# generated using pymatgen
data_MgNi5
_symmetry_space_group_name_H-M   'P 1'
_cell_length_a   4.41218065
_cell_length_b   4.41282447
_cell_length_c   4.85490088
_cell_angle_alpha   117.06028497
_cell_angle_beta   62.92181968
_cell_angle_gamma   120.01149338
_symmetry_Int_Tables_number   1
_chemical_formula_structural   MgNi5
_chemical_formula_sum   'Mg1 Ni5'
_cell_volume   69.64263059
_cell_formula_units_Z   1
loop_
 _symmetry_equiv_pos_site_id
 _symmetry_equiv_pos_as_xyz
  1  'x, y, z'
loop_
 _atom_site_type_symbol
 _atom_site_label
 _atom_site_symmetry_multiplicity
 _atom_site_fract_x
 _atom_site_fract_y
 _atom_site_fract_z
 _atom_site_occupancy
  Mg  Mg0  1  0.83335090  0.49994380  0.49999034  1
  Ni  Ni1  1  0.33331637  0.67660254  0.00001388  1
  Ni  Ni2  1  0.00987157  0.99998407  0.99997819  1
  Ni  Ni3  1  0.65671262  0.32339664  0.00000698  1
  Ni  Ni4  1  0.50369998  0.82973018  0.48908925  1
  Ni  Ni5  1  0.16304556  0.17034476  0.51092236  1
