# generated using pymatgen
data_Rb2Te(WO4)3
_symmetry_space_group_name_H-M   'P 1'
_cell_length_a   7.42208666
_cell_length_b   7.42208630
_cell_length_c   12.49736916
_cell_angle_alpha   90.00000000
_cell_angle_beta   90.00000000
_cell_angle_gamma   120.00000161
_symmetry_Int_Tables_number   1
_chemical_formula_structural   Rb2Te(WO4)3
_chemical_formula_sum   'Rb4 Te2 W6 O24'
_cell_volume   596.21272901
_cell_formula_units_Z   2
loop_
 _symmetry_equiv_pos_site_id
 _symmetry_equiv_pos_as_xyz
  1  'x, y, z'
loop_
 _atom_site_type_symbol
 _atom_site_label
 _atom_site_symmetry_multiplicity
 _atom_site_fract_x
 _atom_site_fract_y
 _atom_site_fract_z
 _atom_site_occupancy
  Rb  Rb0  1  0.33333300  0.66666700  0.87829922  1
  Rb  Rb1  1  0.66666700  0.33333300  0.37829922  1
  Rb  Rb2  1  0.66666700  0.33333300  0.99670233  1
  Rb  Rb3  1  0.33333300  0.66666700  0.49670233  1
  Te  Te4  1  0.00000000  0.00000000  0.43115764  1
  Te  Te5  1  0.00000000  0.00000000  0.93115764  1
  W  W6  1  0.66229462  0.82821643  0.17028377  1
  W  W7  1  0.33770538  0.16592181  0.67028377  1
  W  W8  1  0.17178356  0.83407819  0.17028377  1
  W  W9  1  0.16592181  0.33770538  0.17028377  1
  W  W10  1  0.83407819  0.17178357  0.67028377  1
  W  W11  1  0.82821644  0.66229462  0.67028377  1
  O  O12  1  0.19655103  0.80860176  0.31102086  1
  O  O13  1  0.13286020  0.87025235  0.00387008  1
  O  O14  1  0.91155705  0.45692322  0.63276814  1
  O  O15  1  0.24802897  0.12520074  0.18042741  1
  O  O16  1  0.12974765  0.26260784  0.00387008  1
  O  O17  1  0.12520074  0.24802897  0.68042741  1
  O  O18  1  0.80860176  0.19655103  0.81102086  1
  O  O19  1  0.80344897  0.61205073  0.81102086  1
  O  O20  1  0.87479926  0.12282823  0.18042741  1
  O  O21  1  0.12282823  0.87479926  0.68042741  1
  O  O22  1  0.38794927  0.19139824  0.81102086  1
  O  O23  1  0.45463383  0.54307678  0.13276814  1
  O  O24  1  0.19139824  0.38794927  0.31102086  1
  O  O25  1  0.08844295  0.54536617  0.13276814  1
  O  O26  1  0.54536617  0.08844295  0.63276814  1
  O  O27  1  0.54307678  0.45463383  0.63276814  1
  O  O28  1  0.61205073  0.80344897  0.31102086  1
  O  O29  1  0.87025235  0.13286020  0.50387008  1
  O  O30  1  0.86713980  0.73739216  0.50387008  1
  O  O31  1  0.26260784  0.12974765  0.50387008  1
  O  O32  1  0.73739216  0.86713980  0.00387008  1
  O  O33  1  0.87717177  0.75197103  0.18042741  1
  O  O34  1  0.75197103  0.87717177  0.68042741  1
  O  O35  1  0.45692322  0.91155705  0.13276814  1
