# generated using pymatgen
data_CdMoPO6
_symmetry_space_group_name_H-M   'P 1'
_cell_length_a   4.98769998
_cell_length_b   8.67668227
_cell_length_c   11.25231330
_cell_angle_alpha   90.00000000
_cell_angle_beta   95.77660566
_cell_angle_gamma   90.00000000
_symmetry_Int_Tables_number   1
_chemical_formula_structural   CdMoPO6
_chemical_formula_sum   'Cd4 Mo4 P4 O24'
_cell_volume   484.49000017
_cell_formula_units_Z   4
loop_
 _symmetry_equiv_pos_site_id
 _symmetry_equiv_pos_as_xyz
  1  'x, y, z'
loop_
 _atom_site_type_symbol
 _atom_site_label
 _atom_site_symmetry_multiplicity
 _atom_site_fract_x
 _atom_site_fract_y
 _atom_site_fract_z
 _atom_site_occupancy
  Cd  Cd0  1  0.90455820  0.82831669  0.57601907  1
  Cd  Cd1  1  0.59544180  0.32831669  0.92398093  1
  Cd  Cd2  1  0.40455820  0.67168331  0.07601907  1
  Cd  Cd3  1  0.09544180  0.17168331  0.42398093  1
  Mo  Mo4  1  0.89736376  0.91022910  0.88611530  1
  Mo  Mo5  1  0.10263624  0.08977090  0.11388470  1
  Mo  Mo6  1  0.60263624  0.41022910  0.61388470  1
  Mo  Mo7  1  0.39736376  0.58977090  0.38611530  1
  P  P8  1  0.10919630  0.55759002  0.79062164  1
  P  P9  1  0.89080370  0.44240998  0.20937836  1
  P  P10  1  0.39080370  0.05759002  0.70937836  1
  P  P11  1  0.60919630  0.94240998  0.29062164  1
  O  O12  1  0.33747256  0.39007345  0.46521940  1
  O  O13  1  0.22077486  0.01958995  0.81112246  1
  O  O14  1  0.16365243  0.53639063  0.22310432  1
  O  O15  1  0.83634757  0.46360937  0.77689568  1
  O  O16  1  0.75683728  0.98119746  0.41403132  1
  O  O17  1  0.33634757  0.03639063  0.27689568  1
  O  O18  1  0.66252744  0.60992655  0.53478060  1
  O  O19  1  0.74316272  0.48119746  0.08596868  1
  O  O20  1  0.72077486  0.48041005  0.31112246  1
  O  O21  1  0.77922514  0.98041005  0.18887754  1
  O  O22  1  0.27922514  0.51958995  0.68887754  1
  O  O23  1  0.83747256  0.10992655  0.96521940  1
  O  O24  1  0.16009653  0.71323878  0.43816308  1
  O  O25  1  0.46269798  0.23238778  0.72388160  1
  O  O26  1  0.25683728  0.51880254  0.91403132  1
  O  O27  1  0.96269798  0.26761222  0.22388160  1
  O  O28  1  0.53730202  0.76761222  0.27611840  1
  O  O29  1  0.83990347  0.28676122  0.56183692  1
  O  O30  1  0.03730202  0.73238778  0.77611840  1
  O  O31  1  0.66365243  0.96360937  0.72310432  1
  O  O32  1  0.16252744  0.89007345  0.03478060  1
  O  O33  1  0.24316272  0.01880254  0.58596868  1
  O  O34  1  0.33990347  0.21323878  0.06183692  1
  O  O35  1  0.66009653  0.78676122  0.93816308  1
