# generated using pymatgen
data_Tb8Ni18P11
_symmetry_space_group_name_H-M   'P 1'
_cell_length_a   18.03008806
_cell_length_b   18.03008848
_cell_length_c   3.82218017
_cell_angle_alpha   90.00000000
_cell_angle_beta   90.00000000
_cell_angle_gamma   119.99999923
_symmetry_Int_Tables_number   1
_chemical_formula_structural   Tb8Ni18P11
_chemical_formula_sum   'Tb16 Ni36 P22'
_cell_volume   1076.06249783
_cell_formula_units_Z   2
loop_
 _symmetry_equiv_pos_site_id
 _symmetry_equiv_pos_as_xyz
  1  'x, y, z'
loop_
 _atom_site_type_symbol
 _atom_site_label
 _atom_site_symmetry_multiplicity
 _atom_site_fract_x
 _atom_site_fract_y
 _atom_site_fract_z
 _atom_site_occupancy
  Tb  Tb0  1  0.59394069  0.40605931  0.00000000  1
  Tb  Tb1  1  0.33471228  0.45104180  0.50000000  1
  Tb  Tb2  1  0.33471228  0.88367047  0.50000000  1
  Tb  Tb3  1  0.54895820  0.66528772  0.50000000  1
  Tb  Tb4  1  0.54895820  0.88367047  0.50000000  1
  Tb  Tb5  1  0.38085050  0.19042525  0.00000000  1
  Tb  Tb6  1  0.11632953  0.66528772  0.50000000  1
  Tb  Tb7  1  0.77386859  0.88693429  0.50000000  1
  Tb  Tb8  1  0.80957475  0.19042525  0.00000000  1
  Tb  Tb9  1  0.80957475  0.61914950  0.00000000  1
  Tb  Tb10  1  0.59394069  0.18788138  0.00000000  1
  Tb  Tb11  1  0.11632953  0.45104180  0.50000000  1
  Tb  Tb12  1  0.81211862  0.40605931  0.00000000  1
  Tb  Tb13  1  0.11306571  0.88693429  0.50000000  1
  Tb  Tb14  1  0.33333300  0.66666700  0.50000000  1
  Tb  Tb15  1  0.11306571  0.22613141  0.50000000  1
  Ni  Ni16  1  0.20430724  0.03487626  0.00000000  1
  Ni  Ni17  1  0.04424498  0.08848996  0.00000000  1
  Ni  Ni18  1  0.51800573  0.03601147  0.50000000  1
  Ni  Ni19  1  0.96385034  0.59063349  0.00000000  1
  Ni  Ni20  1  0.18918471  0.81081529  0.00000000  1
  Ni  Ni21  1  0.96385034  0.37321684  0.00000000  1
  Ni  Ni22  1  0.40595521  0.59404479  0.00000000  1
  Ni  Ni23  1  0.96398853  0.48199427  0.50000000  1
  Ni  Ni24  1  0.10360326  0.05180163  0.50000000  1
  Ni  Ni25  1  0.96289381  0.26812536  0.50000000  1
  Ni  Ni26  1  0.40595521  0.81191041  0.00000000  1
  Ni  Ni27  1  0.73187464  0.69476845  0.50000000  1
  Ni  Ni28  1  0.94819837  0.05180163  0.50000000  1
  Ni  Ni29  1  0.04424498  0.95575502  0.00000000  1
  Ni  Ni30  1  0.73876571  0.47753142  0.50000000  1
  Ni  Ni31  1  0.94819837  0.89639674  0.50000000  1
  Ni  Ni32  1  0.62678316  0.03614966  0.00000000  1
  Ni  Ni33  1  0.30523155  0.03710619  0.50000000  1
  Ni  Ni34  1  0.40936651  0.37321684  0.00000000  1
  Ni  Ni35  1  0.62163058  0.81081529  0.00000000  1
  Ni  Ni36  1  0.83056902  0.03487626  0.00000000  1
  Ni  Ni37  1  0.83056902  0.79569276  0.00000000  1
  Ni  Ni38  1  0.18808959  0.59404479  0.00000000  1
  Ni  Ni39  1  0.18918471  0.37836942  0.00000000  1
  Ni  Ni40  1  0.96512374  0.16943098  0.00000000  1
  Ni  Ni41  1  0.52246858  0.26123429  0.50000000  1
  Ni  Ni42  1  0.96512374  0.79569276  0.00000000  1
  Ni  Ni43  1  0.30523155  0.26812536  0.50000000  1
  Ni  Ni44  1  0.91151004  0.95575502  0.00000000  1
  Ni  Ni45  1  0.73876571  0.26123429  0.50000000  1
  Ni  Ni46  1  0.73187464  0.03710619  0.50000000  1
  Ni  Ni47  1  0.51800573  0.48199427  0.50000000  1
  Ni  Ni48  1  0.20430724  0.16943098  0.00000000  1
  Ni  Ni49  1  0.40936651  0.03614966  0.00000000  1
  Ni  Ni50  1  0.62678316  0.59063349  0.00000000  1
  Ni  Ni51  1  0.96289381  0.69476845  0.50000000  1
  P  P52  1  0.26204287  0.31020601  0.00000000  1
  P  P53  1  0.66566510  0.11889422  0.50000000  1
  P  P54  1  0.87910226  0.12089774  0.50000000  1
  P  P55  1  0.47676578  0.73838289  0.00000000  1
  P  P56  1  0.04816314  0.31020601  0.00000000  1
  P  P57  1  0.66566510  0.54677087  0.50000000  1
  P  P58  1  0.87910226  0.75820452  0.50000000  1
  P  P59  1  0.26161711  0.73838289  0.00000000  1
  P  P60  1  0.45322913  0.11889422  0.50000000  1
  P  P61  1  0.26161711  0.52323422  0.00000000  1
  P  P62  1  0.04816314  0.73795713  0.00000000  1
  P  P63  1  0.68979399  0.73795713  0.00000000  1
  P  P64  1  0.88110578  0.33433490  0.50000000  1
  P  P65  1  0.45322913  0.33433490  0.50000000  1
  P  P66  1  0.24179548  0.12089774  0.50000000  1
  P  P67  1  0.47737833  0.95475666  0.00000000  1
  P  P68  1  0.88110578  0.54677087  0.50000000  1
  P  P69  1  0.68979399  0.95183686  0.00000000  1
  P  P70  1  0.66666700  0.33333300  0.50000000  1
  P  P71  1  0.26204287  0.95183686  0.00000000  1
  P  P72  1  0.47737833  0.52262167  0.00000000  1
  P  P73  1  0.04524334  0.52262167  0.00000000  1
