# generated using pymatgen
data_CsNb2BiO7
_symmetry_space_group_name_H-M   'P 1'
_cell_length_a   5.49111193
_cell_length_b   5.58750362
_cell_length_c   11.66247731
_cell_angle_alpha   90.00000000
_cell_angle_beta   90.00000000
_cell_angle_gamma   90.00000000
_symmetry_Int_Tables_number   1
_chemical_formula_structural   CsNb2BiO7
_chemical_formula_sum   'Cs2 Nb4 Bi2 O14'
_cell_volume   357.82355465
_cell_formula_units_Z   2
loop_
 _symmetry_equiv_pos_site_id
 _symmetry_equiv_pos_as_xyz
  1  'x, y, z'
loop_
 _atom_site_type_symbol
 _atom_site_label
 _atom_site_symmetry_multiplicity
 _atom_site_fract_x
 _atom_site_fract_y
 _atom_site_fract_z
 _atom_site_occupancy
  Cs  Cs0  1  0.25716715  0.24783403  0.50000000  1
  Cs  Cs1  1  0.74283285  0.74783403  0.50000000  1
  Nb  Nb2  1  0.24611990  0.75336507  0.79457508  1
  Nb  Nb3  1  0.75388010  0.25336507  0.20542492  1
  Nb  Nb4  1  0.75388010  0.25336507  0.79457508  1
  Nb  Nb5  1  0.24611990  0.75336507  0.20542492  1
  Bi  Bi6  1  0.27525196  0.18729920  0.00000000  1
  Bi  Bi7  1  0.72474804  0.68729920  0.00000000  1
  O  O8  1  0.44494409  0.07435637  0.81627738  1
  O  O9  1  0.96743910  0.98664259  0.84347278  1
  O  O10  1  0.77826450  0.24983359  0.35893643  1
  O  O11  1  0.96743910  0.98664259  0.15652722  1
  O  O12  1  0.03256090  0.48664259  0.15652722  1
  O  O13  1  0.67455499  0.29347154  0.00000000  1
  O  O14  1  0.22173550  0.74983359  0.64106357  1
  O  O15  1  0.55505591  0.57435637  0.81627738  1
  O  O16  1  0.32544501  0.79347154  0.00000000  1
  O  O17  1  0.55505591  0.57435637  0.18372262  1
  O  O18  1  0.77826450  0.24983359  0.64106357  1
  O  O19  1  0.22173550  0.74983359  0.35893643  1
  O  O20  1  0.44494409  0.07435637  0.18372262  1
  O  O21  1  0.03256090  0.48664259  0.84347278  1
