# generated using pymatgen
data_RbNbS2O9
_symmetry_space_group_name_H-M   'P 1'
_cell_length_a   5.25480333
_cell_length_b   9.08004151
_cell_length_c   17.67494357
_cell_angle_alpha   90.00000000
_cell_angle_beta   90.00000000
_cell_angle_gamma   90.00000000
_symmetry_Int_Tables_number   1
_chemical_formula_structural   RbNbS2O9
_chemical_formula_sum   'Rb4 Nb4 S8 O36'
_cell_volume   843.33929453
_cell_formula_units_Z   4
loop_
 _symmetry_equiv_pos_site_id
 _symmetry_equiv_pos_as_xyz
  1  'x, y, z'
loop_
 _atom_site_type_symbol
 _atom_site_label
 _atom_site_symmetry_multiplicity
 _atom_site_fract_x
 _atom_site_fract_y
 _atom_site_fract_z
 _atom_site_occupancy
  Rb  Rb0  1  0.75000000  0.67110790  0.06502041  1
  Rb  Rb1  1  0.25000000  0.17110790  0.43497959  1
  Rb  Rb2  1  0.75000000  0.82889210  0.56502041  1
  Rb  Rb3  1  0.25000000  0.32889210  0.93497959  1
  Nb  Nb4  1  0.75000000  0.57934385  0.30967480  1
  Nb  Nb5  1  0.25000000  0.07934385  0.19032520  1
  Nb  Nb6  1  0.75000000  0.92065615  0.80967480  1
  Nb  Nb7  1  0.25000000  0.42065615  0.69032520  1
  S  S8  1  0.75000000  0.97724310  0.30485655  1
  S  S9  1  0.75000000  0.36906690  0.56957595  1
  S  S10  1  0.25000000  0.63093310  0.43042405  1
  S  S11  1  0.25000000  0.02275690  0.69514345  1
  S  S12  1  0.25000000  0.86906690  0.93042405  1
  S  S13  1  0.75000000  0.13093310  0.06957595  1
  S  S14  1  0.75000000  0.52275690  0.80485655  1
  S  S15  1  0.25000000  0.47724310  0.19514345  1
  O  O16  1  0.75000000  0.52124045  0.54657119  1
  O  O17  1  0.25000000  0.75727207  0.98888777  1
  O  O18  1  0.75000000  0.10159894  0.84041966  1
  O  O19  1  0.75000000  0.97875955  0.04657119  1
  O  O20  1  0.01949468  0.93619807  0.72307108  1
  O  O21  1  0.25000000  0.16827254  0.73132891  1
  O  O22  1  0.02305497  0.66286575  0.37779915  1
  O  O23  1  0.75000000  0.66827254  0.76867109  1
  O  O24  1  0.01949468  0.56380193  0.22307108  1
  O  O25  1  0.51949468  0.43619807  0.77692892  1
  O  O26  1  0.97694503  0.33713425  0.62220085  1
  O  O27  1  0.75000000  0.25727207  0.51111223  1
  O  O28  1  0.25000000  0.74272793  0.48888777  1
  O  O29  1  0.75000000  0.97903588  0.38678907  1
  O  O30  1  0.52305497  0.16286575  0.12220085  1
  O  O31  1  0.48050532  0.93619807  0.72307108  1
  O  O32  1  0.25000000  0.33172746  0.23132891  1
  O  O33  1  0.47694503  0.66286575  0.37779915  1
  O  O34  1  0.75000000  0.83172746  0.26867109  1
  O  O35  1  0.47694503  0.83713425  0.87779915  1
  O  O36  1  0.98050532  0.06380193  0.27692892  1
  O  O37  1  0.52305497  0.33713425  0.62220085  1
  O  O38  1  0.25000000  0.02096412  0.61321093  1
  O  O39  1  0.75000000  0.24272793  0.01111223  1
  O  O40  1  0.75000000  0.39840106  0.34041966  1
  O  O41  1  0.02305497  0.83713425  0.87779915  1
  O  O42  1  0.25000000  0.47875955  0.45342881  1
  O  O43  1  0.97694503  0.16286575  0.12220085  1
  O  O44  1  0.75000000  0.52096412  0.88678907  1
  O  O45  1  0.25000000  0.47903588  0.11321093  1
  O  O46  1  0.48050532  0.56380193  0.22307108  1
  O  O47  1  0.25000000  0.60159894  0.65958034  1
  O  O48  1  0.51949468  0.06380193  0.27692892  1
  O  O49  1  0.25000000  0.02124045  0.95342881  1
  O  O50  1  0.25000000  0.89840106  0.15958034  1
  O  O51  1  0.98050532  0.43619807  0.77692892  1
