# generated using pymatgen
data_SrCrSn(PO4)3
_symmetry_space_group_name_H-M   'P 1'
_cell_length_a   9.15501474
_cell_length_b   9.15501429
_cell_length_c   9.15501390
_cell_angle_alpha   55.95127703
_cell_angle_beta   55.95127899
_cell_angle_gamma   55.95127835
_symmetry_Int_Tables_number   1
_chemical_formula_structural   SrCrSn(PO4)3
_chemical_formula_sum   'Sr2 Cr2 Sn2 P6 O24'
_cell_volume   491.67452775
_cell_formula_units_Z   2
loop_
 _symmetry_equiv_pos_site_id
 _symmetry_equiv_pos_as_xyz
  1  'x, y, z'
loop_
 _atom_site_type_symbol
 _atom_site_label
 _atom_site_symmetry_multiplicity
 _atom_site_fract_x
 _atom_site_fract_y
 _atom_site_fract_z
 _atom_site_occupancy
  Sr  Sr0  1  0.00000000  0.00000000  0.00000000  1
  Sr  Sr1  1  0.50000000  0.50000000  0.50000000  1
  Cr  Cr2  1  0.15006485  0.15006485  0.15006485  1
  Cr  Cr3  1  0.84993515  0.84993515  0.84993515  1
  Sn  Sn4  1  0.64924793  0.64924793  0.64924793  1
  Sn  Sn5  1  0.35075207  0.35075207  0.35075207  1
  P  P6  1  0.46042691  0.03946084  0.75510697  1
  P  P7  1  0.96053917  0.24489303  0.53957309  1
  P  P8  1  0.24489303  0.53957309  0.96053916  1
  P  P9  1  0.03946083  0.75510697  0.46042691  1
  P  P10  1  0.53957309  0.96053916  0.24489303  1
  P  P11  1  0.75510697  0.46042691  0.03946084  1
  O  O12  1  0.28083330  0.52448717  0.11658431  1
  O  O13  1  0.88341569  0.71916670  0.47551283  1
  O  O14  1  0.64128700  0.01702747  0.74959025  1
  O  O15  1  0.29100424  0.04487884  0.94189290  1
  O  O16  1  0.74959025  0.64128700  0.01702747  1
  O  O17  1  0.40930375  0.23267144  0.59302817  1
  O  O18  1  0.71916670  0.47551283  0.88341569  1
  O  O19  1  0.59069625  0.76732856  0.40697183  1
  O  O20  1  0.76732855  0.40697183  0.59069625  1
  O  O21  1  0.40697184  0.59069625  0.76732856  1
  O  O22  1  0.05810710  0.70899576  0.95512116  1
  O  O23  1  0.59302816  0.40930375  0.23267144  1
  O  O24  1  0.95512116  0.05810710  0.70899576  1
  O  O25  1  0.70899576  0.95512116  0.05810710  1
  O  O26  1  0.23267145  0.59302817  0.40930375  1
  O  O27  1  0.52448717  0.11658431  0.28083330  1
  O  O28  1  0.25040975  0.35871300  0.98297253  1
  O  O29  1  0.04487884  0.94189290  0.29100424  1
  O  O30  1  0.98297253  0.25040975  0.35871300  1
  O  O31  1  0.94189290  0.29100424  0.04487884  1
  O  O32  1  0.35871300  0.98297253  0.25040975  1
  O  O33  1  0.01702747  0.74959025  0.64128700  1
  O  O34  1  0.11658431  0.28083330  0.52448717  1
  O  O35  1  0.47551283  0.88341569  0.71916670  1
