# generated using pymatgen
data_SnHg6(P2Cl3)2
_symmetry_space_group_name_H-M   'P 1'
_cell_length_a   12.13392049
_cell_length_b   12.13392049
_cell_length_c   12.13392049
_cell_angle_alpha   90.00000000
_cell_angle_beta   90.00000000
_cell_angle_gamma   90.00000000
_symmetry_Int_Tables_number   1
_chemical_formula_structural   SnHg6(P2Cl3)2
_chemical_formula_sum   'Sn4 Hg24 P16 Cl24'
_cell_volume   1786.50170262
_cell_formula_units_Z   4
loop_
 _symmetry_equiv_pos_site_id
 _symmetry_equiv_pos_as_xyz
  1  'x, y, z'
loop_
 _atom_site_type_symbol
 _atom_site_label
 _atom_site_symmetry_multiplicity
 _atom_site_fract_x
 _atom_site_fract_y
 _atom_site_fract_z
 _atom_site_occupancy
  Sn  Sn0  1  0.72489416  0.72489416  0.72489416  1
  Sn  Sn1  1  0.77510584  0.27510584  0.22489416  1
  Sn  Sn2  1  0.22489416  0.77510584  0.27510584  1
  Sn  Sn3  1  0.27510584  0.22489416  0.77510584  1
  Hg  Hg4  1  0.97130219  0.01640302  0.76170080  1
  Hg  Hg5  1  0.97478611  0.76451426  0.46136647  1
  Hg  Hg6  1  0.52869781  0.98359698  0.26170080  1
  Hg  Hg7  1  0.48359698  0.23829920  0.47130219  1
  Hg  Hg8  1  0.73829920  0.02869781  0.51640302  1
  Hg  Hg9  1  0.26170080  0.52869781  0.98359698  1
  Hg  Hg10  1  0.98359698  0.26170080  0.52869781  1
  Hg  Hg11  1  0.02869781  0.51640302  0.73829920  1
  Hg  Hg12  1  0.02521389  0.26451426  0.03863353  1
  Hg  Hg13  1  0.52521389  0.23548574  0.96136647  1
  Hg  Hg14  1  0.51640302  0.73829920  0.02869781  1
  Hg  Hg15  1  0.23829920  0.47130219  0.48359698  1
  Hg  Hg16  1  0.26451426  0.03863353  0.02521389  1
  Hg  Hg17  1  0.01640302  0.76170080  0.97130219  1
  Hg  Hg18  1  0.53863353  0.47478611  0.73548574  1
  Hg  Hg19  1  0.47478611  0.73548574  0.53863353  1
  Hg  Hg20  1  0.03863353  0.02521389  0.26451426  1
  Hg  Hg21  1  0.76170080  0.97130219  0.01640302  1
  Hg  Hg22  1  0.73548574  0.53863353  0.47478611  1
  Hg  Hg23  1  0.46136647  0.97478611  0.76451426  1
  Hg  Hg24  1  0.23548574  0.96136647  0.52521389  1
  Hg  Hg25  1  0.47130219  0.48359698  0.23829920  1
  Hg  Hg26  1  0.76451426  0.46136647  0.97478611  1
  Hg  Hg27  1  0.96136647  0.52521389  0.23548574  1
  P  P28  1  0.43631926  0.93631926  0.56368074  1
  P  P29  1  0.56471969  0.93528031  0.06471969  1
  P  P30  1  0.95903325  0.95903325  0.95903325  1
  P  P31  1  0.54046197  0.54046197  0.54046197  1
  P  P32  1  0.93631926  0.56368074  0.43631926  1
  P  P33  1  0.43528031  0.43528031  0.43528031  1
  P  P34  1  0.45903325  0.54096675  0.04096675  1
  P  P35  1  0.04096675  0.45903325  0.54096675  1
  P  P36  1  0.56368074  0.43631926  0.93631926  1
  P  P37  1  0.93528031  0.06471969  0.56471969  1
  P  P38  1  0.06368074  0.06368074  0.06368074  1
  P  P39  1  0.45953803  0.04046197  0.95953803  1
  P  P40  1  0.06471969  0.56471969  0.93528031  1
  P  P41  1  0.95953803  0.45953803  0.04046197  1
  P  P42  1  0.04046197  0.95953803  0.45953803  1
  P  P43  1  0.54096675  0.04096675  0.45903325  1
  Cl  Cl44  1  0.02828449  0.26455023  0.29777578  1
  Cl  Cl45  1  0.52828449  0.23544977  0.70222422  1
  Cl  Cl46  1  0.74298664  0.29204601  0.43944421  1
  Cl  Cl47  1  0.06055579  0.25701336  0.79204601  1
  Cl  Cl48  1  0.70795399  0.93944421  0.75701336  1
  Cl  Cl49  1  0.29204601  0.43944421  0.74298664  1
  Cl  Cl50  1  0.25701336  0.79204601  0.06055579  1
  Cl  Cl51  1  0.73544977  0.79777578  0.47171551  1
  Cl  Cl52  1  0.70222422  0.52828449  0.23544977  1
  Cl  Cl53  1  0.79777578  0.47171551  0.73544977  1
  Cl  Cl54  1  0.75701336  0.70795399  0.93944421  1
  Cl  Cl55  1  0.24298664  0.20795399  0.56055579  1
  Cl  Cl56  1  0.43944421  0.74298664  0.29204601  1
  Cl  Cl57  1  0.97171551  0.76455023  0.20222422  1
  Cl  Cl58  1  0.23544977  0.70222422  0.52828449  1
  Cl  Cl59  1  0.76455023  0.20222422  0.97171551  1
  Cl  Cl60  1  0.47171551  0.73544977  0.79777578  1
  Cl  Cl61  1  0.79204601  0.06055579  0.25701336  1
  Cl  Cl62  1  0.29777578  0.02828449  0.26455023  1
  Cl  Cl63  1  0.56055579  0.24298664  0.20795399  1
  Cl  Cl64  1  0.93944421  0.75701336  0.70795399  1
  Cl  Cl65  1  0.26455023  0.29777578  0.02828449  1
  Cl  Cl66  1  0.20222422  0.97171551  0.76455023  1
  Cl  Cl67  1  0.20795399  0.56055579  0.24298664  1
