# generated using pymatgen
data_KCuPSe3
_symmetry_space_group_name_H-M   'P 1'
_cell_length_a   8.86784183
_cell_length_b   10.83389445
_cell_length_c   20.22779109
_cell_angle_alpha   90.00000000
_cell_angle_beta   92.96677665
_cell_angle_gamma   90.00000000
_symmetry_Int_Tables_number   1
_chemical_formula_structural   KCuPSe3
_chemical_formula_sum   'K12 Cu12 P12 Se36'
_cell_volume   1940.74523640
_cell_formula_units_Z   12
loop_
 _symmetry_equiv_pos_site_id
 _symmetry_equiv_pos_as_xyz
  1  'x, y, z'
loop_
 _atom_site_type_symbol
 _atom_site_label
 _atom_site_symmetry_multiplicity
 _atom_site_fract_x
 _atom_site_fract_y
 _atom_site_fract_z
 _atom_site_occupancy
  K  K0  1  0.52223226  0.29650288  0.50832721  1
  K  K1  1  0.14667542  0.50849380  0.89774802  1
  K  K2  1  0.47776774  0.79650288  0.99167279  1
  K  K3  1  0.85332458  0.49150620  0.10225198  1
  K  K4  1  0.85332458  0.00849380  0.60225198  1
  K  K5  1  0.14667542  0.99150620  0.39774802  1
  K  K6  1  0.52223226  0.20349712  0.00832721  1
  K  K7  1  0.80564670  0.82525164  0.79301098  1
  K  K8  1  0.47776774  0.70349712  0.49167279  1
  K  K9  1  0.80564670  0.67474836  0.29301098  1
  K  K10  1  0.19435330  0.32525164  0.70698902  1
  K  K11  1  0.19435330  0.17474836  0.20698902  1
  Cu  Cu12  1  0.17552770  0.00717355  0.86333851  1
  Cu  Cu13  1  0.52981246  0.35805265  0.27411972  1
  Cu  Cu14  1  0.47018754  0.64194735  0.72588028  1
  Cu  Cu15  1  0.86473077  0.29332026  0.39203814  1
  Cu  Cu16  1  0.82447230  0.50717355  0.63666149  1
  Cu  Cu17  1  0.82447230  0.99282645  0.13666149  1
  Cu  Cu18  1  0.13526923  0.70667974  0.60796186  1
  Cu  Cu19  1  0.13526923  0.79332026  0.10796186  1
  Cu  Cu20  1  0.52981246  0.14194735  0.77411972  1
  Cu  Cu21  1  0.47018754  0.85805265  0.22588028  1
  Cu  Cu22  1  0.17552770  0.49282645  0.36333851  1
  Cu  Cu23  1  0.86473077  0.20667974  0.89203814  1
  P  P24  1  0.60469865  0.05637381  0.35651984  1
  P  P25  1  0.60469865  0.44362619  0.85651984  1
  P  P26  1  0.39530135  0.94362619  0.64348016  1
  P  P27  1  0.26799302  0.59320556  0.23720423  1
  P  P28  1  0.39530135  0.55637381  0.14348016  1
  P  P29  1  0.06914907  0.41927737  0.52169763  1
  P  P30  1  0.26799302  0.90679444  0.73720423  1
  P  P31  1  0.73200698  0.40679444  0.76279577  1
  P  P32  1  0.73200698  0.09320556  0.26279577  1
  P  P33  1  0.93085093  0.58072263  0.47830237  1
  P  P34  1  0.93085093  0.91927737  0.97830237  1
  P  P35  1  0.06914907  0.08072263  0.02169763  1
  Se  Se36  1  0.42133603  0.19721331  0.34852499  1
  Se  Se37  1  0.43605506  0.54932548  0.32112753  1
  Se  Se38  1  0.86881676  0.68565802  0.56877195  1
  Se  Se39  1  0.52890006  0.86165704  0.34850229  1
  Se  Se40  1  0.07517142  0.46421686  0.24296756  1
  Se  Se41  1  0.57866397  0.80278669  0.65147501  1
  Se  Se42  1  0.92482858  0.96421686  0.25703244  1
  Se  Se43  1  0.77130241  0.40005363  0.93921921  1
  Se  Se44  1  0.20395703  0.70750190  0.72701896  1
  Se  Se45  1  0.79604297  0.29249810  0.27298104  1
  Se  Se46  1  0.57866397  0.69721331  0.15147501  1
  Se  Se47  1  0.22869759  0.90005363  0.56078079  1
  Se  Se48  1  0.56394494  0.04932548  0.17887247  1
  Se  Se49  1  0.22869759  0.59994637  0.06078079  1
  Se  Se50  1  0.08323697  0.68048502  0.41344553  1
  Se  Se51  1  0.07517142  0.03578314  0.74296756  1
  Se  Se52  1  0.52890006  0.63834296  0.84850229  1
  Se  Se53  1  0.20395703  0.79249810  0.22701896  1
  Se  Se54  1  0.91676303  0.31951498  0.58655447  1
  Se  Se55  1  0.92482858  0.53578314  0.75703244  1
  Se  Se56  1  0.86881676  0.81434198  0.06877195  1
  Se  Se57  1  0.73772912  0.00910976  0.92339002  1
  Se  Se58  1  0.47109994  0.36165704  0.15149771  1
  Se  Se59  1  0.08323697  0.81951498  0.91344553  1
  Se  Se60  1  0.43605506  0.95067452  0.82112753  1
  Se  Se61  1  0.77130241  0.09994637  0.43921921  1
  Se  Se62  1  0.73772912  0.49089024  0.42339002  1
  Se  Se63  1  0.91676303  0.18048502  0.08655447  1
  Se  Se64  1  0.79604297  0.20750190  0.77298104  1
  Se  Se65  1  0.26227088  0.99089024  0.07660998  1
  Se  Se66  1  0.13118324  0.31434198  0.43122805  1
  Se  Se67  1  0.47109994  0.13834296  0.65149771  1
  Se  Se68  1  0.13118324  0.18565802  0.93122805  1
  Se  Se69  1  0.56394494  0.45067452  0.67887247  1
  Se  Se70  1  0.26227088  0.50910976  0.57660998  1
  Se  Se71  1  0.42133603  0.30278669  0.84852499  1
