# generated using pymatgen
data_CsFeI4
_symmetry_space_group_name_H-M   'P 1'
_cell_length_a   7.55450318
_cell_length_b   8.65886325
_cell_length_c   19.00120177
_cell_angle_alpha   90.00000000
_cell_angle_beta   90.00000000
_cell_angle_gamma   107.81064493
_symmetry_Int_Tables_number   1
_chemical_formula_structural   CsFeI4
_chemical_formula_sum   'Cs4 Fe4 I16'
_cell_volume   1183.36281214
_cell_formula_units_Z   4
loop_
 _symmetry_equiv_pos_site_id
 _symmetry_equiv_pos_as_xyz
  1  'x, y, z'
loop_
 _atom_site_type_symbol
 _atom_site_label
 _atom_site_symmetry_multiplicity
 _atom_site_fract_x
 _atom_site_fract_y
 _atom_site_fract_z
 _atom_site_occupancy
  Cs  Cs0  1  0.81871997  0.70348004  0.36696769  1
  Cs  Cs1  1  0.18128003  0.29651996  0.63303231  1
  Cs  Cs2  1  0.81871997  0.20348004  0.13303231  1
  Cs  Cs3  1  0.18128003  0.79651996  0.86696769  1
  Fe  Fe4  1  0.18823673  0.79499639  0.12709243  1
  Fe  Fe5  1  0.81176327  0.70500361  0.62709243  1
  Fe  Fe6  1  0.81176327  0.20500361  0.87290757  1
  Fe  Fe7  1  0.18823673  0.29499639  0.37290757  1
  I  I8  1  0.72851921  0.42234093  0.94450888  1
  I  I9  1  0.83593255  0.20446270  0.34846029  1
  I  I10  1  0.63876896  0.65442435  0.74384421  1
  I  I11  1  0.16406745  0.79553730  0.65153971  1
  I  I12  1  0.36123104  0.84557565  0.24384421  1
  I  I13  1  0.27220547  0.56075266  0.44362675  1
  I  I14  1  0.16406745  0.29553730  0.84846029  1
  I  I15  1  0.72779453  0.43924734  0.55637325  1
  I  I16  1  0.27220547  0.06075266  0.05637325  1
  I  I17  1  0.72779453  0.93924734  0.94362675  1
  I  I18  1  0.83593255  0.70446270  0.15153971  1
  I  I19  1  0.72851921  0.92234093  0.55549112  1
  I  I20  1  0.27148079  0.57765907  0.05549112  1
  I  I21  1  0.63876896  0.15442435  0.75615579  1
  I  I22  1  0.27148079  0.07765907  0.44450888  1
  I  I23  1  0.36123104  0.34557565  0.25615579  1
