# generated using pymatgen
data_CsHg5Cl11
_symmetry_space_group_name_H-M   'P 1'
_cell_length_a   6.94094513
_cell_length_b   9.71804887
_cell_length_c   9.71804920
_cell_angle_alpha   99.97979079
_cell_angle_beta   108.90415528
_cell_angle_gamma   108.90415270
_symmetry_Int_Tables_number   1
_chemical_formula_structural   CsHg5Cl11
_chemical_formula_sum   'Cs1 Hg5 Cl11'
_cell_volume   557.62398076
_cell_formula_units_Z   1
loop_
 _symmetry_equiv_pos_site_id
 _symmetry_equiv_pos_as_xyz
  1  'x, y, z'
loop_
 _atom_site_type_symbol
 _atom_site_label
 _atom_site_symmetry_multiplicity
 _atom_site_fract_x
 _atom_site_fract_y
 _atom_site_fract_z
 _atom_site_occupancy
  Cs  Cs0  1  0.00000000  0.00000000  0.00000000  1
  Hg  Hg1  1  0.68214484  0.01593696  0.34972485  1
  Hg  Hg2  1  0.00000000  0.50000000  0.50000000  1
  Hg  Hg3  1  0.31785516  0.98406304  0.65027515  1
  Hg  Hg4  1  0.31785516  0.65027515  0.98406304  1
  Hg  Hg5  1  0.68214484  0.34972485  0.01593696  1
  Cl  Cl6  1  0.94186827  0.83186895  0.58136405  1
  Cl  Cl7  1  0.68675557  0.13986395  0.70061533  1
  Cl  Cl8  1  0.68675557  0.70061533  0.13986395  1
  Cl  Cl9  1  0.50000000  0.00000000  0.00000000  1
  Cl  Cl10  1  0.31324443  0.86013605  0.29938467  1
  Cl  Cl11  1  0.94186827  0.58136405  0.83186895  1
  Cl  Cl12  1  0.37876292  0.64656740  0.64656740  1
  Cl  Cl13  1  0.62123708  0.35343260  0.35343260  1
  Cl  Cl14  1  0.05813173  0.41863595  0.16813105  1
  Cl  Cl15  1  0.31324443  0.29938467  0.86013605  1
  Cl  Cl16  1  0.05813173  0.16813105  0.41863595  1
