# generated using pymatgen
data_K9InSe7
_symmetry_space_group_name_H-M   'P 1'
_cell_length_a   8.29699820
_cell_length_b   11.42009268
_cell_length_c   25.32008803
_cell_angle_alpha   102.49654101
_cell_angle_beta   90.00000000
_cell_angle_gamma   90.00000000
_symmetry_Int_Tables_number   1
_chemical_formula_structural   K9InSe7
_chemical_formula_sum   'K36 In4 Se28'
_cell_volume   2342.30346308
_cell_formula_units_Z   4
loop_
 _symmetry_equiv_pos_site_id
 _symmetry_equiv_pos_as_xyz
  1  'x, y, z'
loop_
 _atom_site_type_symbol
 _atom_site_label
 _atom_site_symmetry_multiplicity
 _atom_site_fract_x
 _atom_site_fract_y
 _atom_site_fract_z
 _atom_site_occupancy
  K  K0  1  0.07586793  0.20913551  0.20141237  1
  K  K1  1  0.42413207  0.20913551  0.70141237  1
  K  K2  1  0.45827221  0.33549710  0.43535041  1
  K  K3  1  0.86033580  0.61686307  0.45180873  1
  K  K4  1  0.04172779  0.33549710  0.93535041  1
  K  K5  1  0.41429666  0.85661744  0.45731924  1
  K  K6  1  0.43012241  0.76522083  0.71609603  1
  K  K7  1  0.05710241  0.73575283  0.59072810  1
  K  K8  1  0.57586793  0.79086449  0.29858763  1
  K  K9  1  0.08570334  0.85661744  0.95731924  1
  K  K10  1  0.63966420  0.61686307  0.95180873  1
  K  K11  1  0.05931348  0.07419356  0.57847742  1
  K  K12  1  0.92428131  0.51403400  0.27231928  1
  K  K13  1  0.91429666  0.14338256  0.04268076  1
  K  K14  1  0.55931348  0.92580644  0.92152258  1
  K  K15  1  0.24105128  0.04331713  0.33425888  1
  K  K16  1  0.42428131  0.48596600  0.22768072  1
  K  K17  1  0.54172779  0.66450290  0.56464959  1
  K  K18  1  0.06987759  0.76522083  0.21609603  1
  K  K19  1  0.94289759  0.26424717  0.40927190  1
  K  K20  1  0.92413207  0.79086449  0.79858763  1
  K  K21  1  0.25894872  0.04331713  0.83425888  1
  K  K22  1  0.74105128  0.95668287  0.16574112  1
  K  K23  1  0.13966420  0.38313693  0.54819127  1
  K  K24  1  0.58570334  0.14338256  0.54268076  1
  K  K25  1  0.57571869  0.51403400  0.77231928  1
  K  K26  1  0.95827221  0.66450290  0.06464959  1
  K  K27  1  0.75894872  0.95668287  0.66574112  1
  K  K28  1  0.56987759  0.23477917  0.28390397  1
  K  K29  1  0.36033580  0.38313693  0.04819127  1
  K  K30  1  0.07571869  0.48596600  0.72768072  1
  K  K31  1  0.93012241  0.23477917  0.78390397  1
  K  K32  1  0.44068652  0.07419356  0.07847742  1
  K  K33  1  0.44289759  0.73575283  0.09072810  1
  K  K34  1  0.94068652  0.92580644  0.42152258  1
  K  K35  1  0.55710241  0.26424717  0.90927190  1
  In  In36  1  0.69582635  0.44454578  0.62767187  1
  In  In37  1  0.80417365  0.44454578  0.12767187  1
  In  In38  1  0.30417365  0.55545422  0.37232813  1
  In  In39  1  0.19582635  0.55545422  0.87232813  1
  Se  Se40  1  0.63009110  0.06327848  0.37387760  1
  Se  Se41  1  0.86990890  0.06327848  0.87387760  1
  Se  Se42  1  0.76609619  0.87679237  0.53135658  1
  Se  Se43  1  0.36990890  0.93672152  0.62612240  1
  Se  Se44  1  0.61621788  0.53431374  0.35159399  1
  Se  Se45  1  0.18957449  0.73503576  0.33471492  1
  Se  Se46  1  0.19370449  0.34470233  0.32132686  1
  Se  Se47  1  0.74492062  0.40934477  0.02344110  1
  Se  Se48  1  0.68957449  0.26496424  0.16528508  1
  Se  Se49  1  0.34018586  0.97352080  0.19681003  1
  Se  Se50  1  0.11621788  0.46568626  0.14840601  1
  Se  Se51  1  0.69370449  0.65529767  0.17867314  1
  Se  Se52  1  0.88378212  0.53431374  0.85159399  1
  Se  Se53  1  0.24492062  0.59065523  0.47655890  1
  Se  Se54  1  0.23390381  0.12320763  0.46864342  1
  Se  Se55  1  0.80629551  0.65529767  0.67867314  1
  Se  Se56  1  0.75507938  0.40934477  0.52344110  1
  Se  Se57  1  0.81042551  0.26496424  0.66528508  1
  Se  Se58  1  0.65981414  0.02647920  0.80318997  1
  Se  Se59  1  0.25507938  0.59065523  0.97655890  1
  Se  Se60  1  0.13009110  0.93672152  0.12612240  1
  Se  Se61  1  0.26609619  0.12320763  0.96864342  1
  Se  Se62  1  0.73390381  0.87679237  0.03135658  1
  Se  Se63  1  0.15981414  0.97352080  0.69681003  1
  Se  Se64  1  0.30629551  0.34470233  0.82132686  1
  Se  Se65  1  0.84018586  0.02647920  0.30318997  1
  Se  Se66  1  0.38378212  0.46568626  0.64840601  1
  Se  Se67  1  0.31042551  0.73503576  0.83471492  1
