# generated using pymatgen
data_RbC8
_symmetry_space_group_name_H-M   'P 1'
_cell_length_a   4.97534861
_cell_length_b   4.97533455
_cell_length_c   11.75262698
_cell_angle_alpha   96.02477986
_cell_angle_beta   96.02958922
_cell_angle_gamma   120.02732017
_symmetry_Int_Tables_number   1
_chemical_formula_structural   RbC8
_chemical_formula_sum   'Rb2 C16'
_cell_volume   246.25760655
_cell_formula_units_Z   2
loop_
 _symmetry_equiv_pos_site_id
 _symmetry_equiv_pos_as_xyz
  1  'x, y, z'
loop_
 _atom_site_type_symbol
 _atom_site_label
 _atom_site_symmetry_multiplicity
 _atom_site_fract_x
 _atom_site_fract_y
 _atom_site_fract_z
 _atom_site_occupancy
  Rb  Rb0  1  0.87502486  0.12504339  0.25006253  1
  Rb  Rb1  1  0.12497514  0.87495661  0.74993747  1
  C  C2  1  0.83333012  0.41648138  0.50002942  1
  C  C3  1  0.58352479  0.16665253  0.99996485  1
  C  C4  1  0.16669024  0.08354370  0.50002099  1
  C  C5  1  0.83330976  0.91645630  0.49997901  1
  C  C6  1  0.66572644  0.58248212  0.49791992  1
  C  C7  1  0.08456614  0.66778594  0.00207911  1
  C  C8  1  0.41647521  0.83334747  0.00003515  1
  C  C9  1  0.33427356  0.41751788  0.50208008  1
  C  C10  1  0.66779396  0.08456051  0.50208402  1
  C  C11  1  0.91543386  0.33221406  0.99792089  1
  C  C12  1  0.08352863  0.16665694  0.00001964  1
  C  C13  1  0.16666988  0.58351862  0.49997058  1
  C  C14  1  0.91647137  0.83334306  0.99998036  1
  C  C15  1  0.33220604  0.91543949  0.49791598  1
  C  C16  1  0.58247970  0.66569751  0.99792806  1
  C  C17  1  0.41752030  0.33430249  0.00207194  1
