# generated using pymatgen
data_Sc44Os7
_symmetry_space_group_name_H-M   'P 1'
_cell_length_a   14.68609411
_cell_length_b   14.68609374
_cell_length_c   14.68609428
_cell_angle_alpha   60.00000103
_cell_angle_beta   60.00000187
_cell_angle_gamma   59.99999910
_symmetry_Int_Tables_number   1
_chemical_formula_structural   Sc44Os7
_chemical_formula_sum   'Sc88 Os14'
_cell_volume   2239.77257903
_cell_formula_units_Z   2
loop_
 _symmetry_equiv_pos_site_id
 _symmetry_equiv_pos_as_xyz
  1  'x, y, z'
loop_
 _atom_site_type_symbol
 _atom_site_label
 _atom_site_symmetry_multiplicity
 _atom_site_fract_x
 _atom_site_fract_y
 _atom_site_fract_z
 _atom_site_occupancy
  Sc  Sc0  1  0.42487803  0.78862270  0.99787657  1
  Sc  Sc1  1  0.16371968  0.16371968  0.50884095  1
  Sc  Sc2  1  0.51455461  0.09173512  0.87915566  1
  Sc  Sc3  1  0.85693293  0.64306707  0.64306707  1
  Sc  Sc4  1  0.64306707  0.85693293  0.85693293  1
  Sc  Sc5  1  0.30895325  0.07314024  0.30895325  1
  Sc  Sc6  1  0.87915566  0.51455461  0.51455461  1
  Sc  Sc7  1  0.78862270  0.78862270  0.99787657  1
  Sc  Sc8  1  0.09173512  0.51455461  0.87915566  1
  Sc  Sc9  1  0.02150792  0.29817836  0.02150792  1
  Sc  Sc10  1  0.28476021  0.89339105  0.53708853  1
  Sc  Sc11  1  0.44052266  0.44052266  0.44052266  1
  Sc  Sc12  1  0.02150792  0.65880580  0.29817836  1
  Sc  Sc13  1  0.65880580  0.29817836  0.02150792  1
  Sc  Sc14  1  0.53708853  0.89339105  0.28476021  1
  Sc  Sc15  1  0.66339127  0.22315021  0.66339127  1
  Sc  Sc16  1  0.18926817  0.18926817  0.81073183  1
  Sc  Sc17  1  0.99787657  0.42487803  0.78862270  1
  Sc  Sc18  1  0.44052266  0.67843201  0.44052266  1
  Sc  Sc19  1  0.66339127  0.66339127  0.22315021  1
  Sc  Sc20  1  0.02150792  0.02150792  0.65880580  1
  Sc  Sc21  1  0.29817836  0.02150792  0.65880580  1
  Sc  Sc22  1  0.09173512  0.51455461  0.51455461  1
  Sc  Sc23  1  0.16371968  0.16371968  0.16371968  1
  Sc  Sc24  1  0.18926817  0.81073183  0.18926817  1
  Sc  Sc25  1  0.65880580  0.02150792  0.02150792  1
  Sc  Sc26  1  0.81073183  0.18926817  0.81073183  1
  Sc  Sc27  1  0.78862270  0.99787657  0.78862270  1
  Sc  Sc28  1  0.64306707  0.85693293  0.64306707  1
  Sc  Sc29  1  0.53708853  0.28476021  0.89339105  1
  Sc  Sc30  1  0.85693293  0.64306707  0.85693293  1
  Sc  Sc31  1  0.89339105  0.28476021  0.28476021  1
  Sc  Sc32  1  0.28476021  0.53708853  0.28476021  1
  Sc  Sc33  1  0.30895325  0.30895325  0.07314024  1
  Sc  Sc34  1  0.87915566  0.51455461  0.09173512  1
  Sc  Sc35  1  0.42487803  0.78862270  0.78862270  1
  Sc  Sc36  1  0.51455461  0.09173512  0.51455461  1
  Sc  Sc37  1  0.22315021  0.66339127  0.45006726  1
  Sc  Sc38  1  0.81073183  0.81073183  0.18926817  1
  Sc  Sc39  1  0.29817836  0.02150792  0.02150792  1
  Sc  Sc40  1  0.51455461  0.87915566  0.51455461  1
  Sc  Sc41  1  0.78862270  0.42487803  0.78862270  1
  Sc  Sc42  1  0.05696314  0.82911059  0.05696314  1
  Sc  Sc43  1  0.66339127  0.45006726  0.22315021  1
  Sc  Sc44  1  0.51455461  0.87915566  0.09173512  1
  Sc  Sc45  1  0.44052266  0.44052266  0.67843201  1
  Sc  Sc46  1  0.66339127  0.22315021  0.45006726  1
  Sc  Sc47  1  0.53708853  0.28476021  0.28476021  1
  Sc  Sc48  1  0.78862270  0.78862270  0.42487803  1
  Sc  Sc49  1  0.07314024  0.30895325  0.30895325  1
  Sc  Sc50  1  0.78862270  0.99787657  0.42487803  1
  Sc  Sc51  1  0.99787657  0.78862270  0.42487803  1
  Sc  Sc52  1  0.51455461  0.51455461  0.09173512  1
  Sc  Sc53  1  0.28476021  0.53708853  0.89339105  1
  Sc  Sc54  1  0.45006726  0.66339127  0.66339127  1
  Sc  Sc55  1  0.28476021  0.28476021  0.53708853  1
  Sc  Sc56  1  0.87915566  0.09173512  0.51455461  1
  Sc  Sc57  1  0.50884095  0.16371968  0.16371968  1
  Sc  Sc58  1  0.85693293  0.85693293  0.64306707  1
  Sc  Sc59  1  0.28476021  0.28476021  0.89339105  1
  Sc  Sc60  1  0.02150792  0.65880580  0.02150792  1
  Sc  Sc61  1  0.22315021  0.66339127  0.66339127  1
  Sc  Sc62  1  0.18926817  0.81073183  0.81073183  1
  Sc  Sc63  1  0.22315021  0.45006726  0.66339127  1
  Sc  Sc64  1  0.89339105  0.28476021  0.53708853  1
  Sc  Sc65  1  0.82911059  0.05696314  0.05696314  1
  Sc  Sc66  1  0.67843201  0.44052266  0.44052266  1
  Sc  Sc67  1  0.51455461  0.51455461  0.87915566  1
  Sc  Sc68  1  0.66339127  0.45006726  0.66339127  1
  Sc  Sc69  1  0.05696314  0.05696314  0.05696314  1
  Sc  Sc70  1  0.81073183  0.18926817  0.18926817  1
  Sc  Sc71  1  0.65880580  0.02150792  0.29817836  1
  Sc  Sc72  1  0.05696314  0.05696314  0.82911059  1
  Sc  Sc73  1  0.66339127  0.66339127  0.45006726  1
  Sc  Sc74  1  0.28476021  0.89339105  0.28476021  1
  Sc  Sc75  1  0.45006726  0.66339127  0.22315021  1
  Sc  Sc76  1  0.89339105  0.53708853  0.28476021  1
  Sc  Sc77  1  0.99787657  0.78862270  0.78862270  1
  Sc  Sc78  1  0.42487803  0.99787657  0.78862270  1
  Sc  Sc79  1  0.09173512  0.87915566  0.51455461  1
  Sc  Sc80  1  0.02150792  0.29817836  0.65880580  1
  Sc  Sc81  1  0.29817836  0.65880580  0.02150792  1
  Sc  Sc82  1  0.45006726  0.22315021  0.66339127  1
  Sc  Sc83  1  0.02150792  0.02150792  0.29817836  1
  Sc  Sc84  1  0.16371968  0.50884095  0.16371968  1
  Sc  Sc85  1  0.78862270  0.42487803  0.99787657  1
  Sc  Sc86  1  0.30895325  0.30895325  0.30895325  1
  Sc  Sc87  1  0.64306707  0.64306707  0.85693293  1
  Os  Os88  1  0.09033144  0.40966856  0.09033144  1
  Os  Os89  1  0.24324659  0.91891780  0.91891780  1
  Os  Os90  1  0.40966856  0.40966856  0.09033144  1
  Os  Os91  1  0.40966856  0.09033144  0.40966856  1
  Os  Os92  1  0.91891780  0.24324659  0.91891780  1
  Os  Os93  1  0.65043891  0.04868328  0.65043891  1
  Os  Os94  1  0.04868328  0.65043891  0.65043891  1
  Os  Os95  1  0.40966856  0.09033144  0.09033144  1
  Os  Os96  1  0.65043891  0.65043891  0.04868328  1
  Os  Os97  1  0.91891780  0.91891780  0.24324659  1
  Os  Os98  1  0.65043891  0.65043891  0.65043891  1
  Os  Os99  1  0.09033144  0.09033144  0.40966856  1
  Os  Os100  1  0.09033144  0.40966856  0.40966856  1
  Os  Os101  1  0.91891780  0.91891780  0.91891780  1
