# generated using pymatgen
data_Gd(Al3Ni)3
_symmetry_space_group_name_H-M   'P 1'
_cell_length_a   10.08338535
_cell_length_b   10.08338545
_cell_length_c   10.08338621
_cell_angle_alpha   42.42987318
_cell_angle_beta   42.42987254
_cell_angle_gamma   42.42987017
_symmetry_Int_Tables_number   1
_chemical_formula_structural   Gd(Al3Ni)3
_chemical_formula_sum   'Gd2 Al18 Ni6'
_cell_volume   422.51490213
_cell_formula_units_Z   2
loop_
 _symmetry_equiv_pos_site_id
 _symmetry_equiv_pos_as_xyz
  1  'x, y, z'
loop_
 _atom_site_type_symbol
 _atom_site_label
 _atom_site_symmetry_multiplicity
 _atom_site_fract_x
 _atom_site_fract_y
 _atom_site_fract_z
 _atom_site_occupancy
  Gd  Gd0  1  0.16686404  0.16686404  0.16686404  1
  Gd  Gd1  1  0.83313596  0.83313596  0.83313596  1
  Al  Al2  1  0.05163679  0.05163679  0.05163679  1
  Al  Al3  1  0.50000000  0.70795756  0.29204244  1
  Al  Al4  1  0.33408126  0.66591874  0.00000000  1
  Al  Al5  1  0.43224469  0.10281967  0.76169349  1
  Al  Al6  1  0.76169349  0.43224469  0.10281967  1
  Al  Al7  1  0.38662552  0.38662552  0.38662552  1
  Al  Al8  1  0.00000000  0.33408126  0.66591874  1
  Al  Al9  1  0.61337448  0.61337448  0.61337448  1
  Al  Al10  1  0.56775531  0.23830651  0.89718033  1
  Al  Al11  1  0.89718033  0.56775531  0.23830651  1
  Al  Al12  1  0.29204244  0.50000000  0.70795756  1
  Al  Al13  1  0.10281967  0.76169349  0.43224469  1
  Al  Al14  1  0.94836321  0.94836321  0.94836321  1
  Al  Al15  1  0.70795756  0.29204244  0.50000000  1
  Al  Al16  1  0.66591874  1.00000000  0.33408126  1
  Al  Al17  1  0.71786231  0.71786231  0.71786231  1
  Al  Al18  1  0.28213769  0.28213769  0.28213769  1
  Al  Al19  1  0.23830651  0.89718033  0.56775531  1
  Ni  Ni20  1  0.92156411  0.24203490  0.58181362  1
  Ni  Ni21  1  0.58181362  0.92156411  0.24203490  1
  Ni  Ni22  1  0.41818638  0.75796510  0.07843589  1
  Ni  Ni23  1  0.75796510  0.07843589  0.41818638  1
  Ni  Ni24  1  0.07843589  0.41818638  0.75796510  1
  Ni  Ni25  1  0.24203490  0.58181362  0.92156411  1
