# generated using pymatgen
data_RbAuI3
_symmetry_space_group_name_H-M   'P 1'
_cell_length_a   7.99834710
_cell_length_b   7.99834754
_cell_length_c   8.88058950
_cell_angle_alpha   66.17844800
_cell_angle_beta   66.17844647
_cell_angle_gamma   60.62972404
_symmetry_Int_Tables_number   1
_chemical_formula_structural   RbAuI3
_chemical_formula_sum   'Rb2 Au2 I6'
_cell_volume   437.57094226
_cell_formula_units_Z   2
loop_
 _symmetry_equiv_pos_site_id
 _symmetry_equiv_pos_as_xyz
  1  'x, y, z'
loop_
 _atom_site_type_symbol
 _atom_site_label
 _atom_site_symmetry_multiplicity
 _atom_site_fract_x
 _atom_site_fract_y
 _atom_site_fract_z
 _atom_site_occupancy
  Rb  Rb0  1  0.26905407  0.26905407  0.23250925  1
  Rb  Rb1  1  0.73094593  0.73094593  0.76749075  1
  Au  Au2  1  0.00000000  0.00000000  0.00000000  1
  Au  Au3  1  0.50000000  0.50000000  0.50000000  1
  I  I4  1  0.71457498  0.71457498  0.35413022  1
  I  I5  1  0.19994432  0.72788069  0.81642991  1
  I  I6  1  0.80005568  0.27211931  0.18357009  1
  I  I7  1  0.27211931  0.80005568  0.18357009  1
  I  I8  1  0.72788069  0.19994432  0.81642991  1
  I  I9  1  0.28542502  0.28542502  0.64586978  1
