# generated using pymatgen
data_Dy2Ni7Sn3
_symmetry_space_group_name_H-M   'P 1'
_cell_length_a   7.55798908
_cell_length_b   8.59536257
_cell_length_c   12.62326500
_cell_angle_alpha   109.90472854
_cell_angle_beta   90.00000000
_cell_angle_gamma   90.00000000
_symmetry_Int_Tables_number   1
_chemical_formula_structural   Dy2Ni7Sn3
_chemical_formula_sum   'Dy8 Ni28 Sn12'
_cell_volume   771.06348480
_cell_formula_units_Z   4
loop_
 _symmetry_equiv_pos_site_id
 _symmetry_equiv_pos_as_xyz
  1  'x, y, z'
loop_
 _atom_site_type_symbol
 _atom_site_label
 _atom_site_symmetry_multiplicity
 _atom_site_fract_x
 _atom_site_fract_y
 _atom_site_fract_z
 _atom_site_occupancy
  Dy  Dy0  1  0.50000000  0.70667348  0.00000000  1
  Dy  Dy1  1  0.42706058  0.80644998  0.61289997  1
  Dy  Dy2  1  0.00000000  0.79332652  1.00000000  1
  Dy  Dy3  1  0.57293942  0.19355002  0.38710003  1
  Dy  Dy4  1  0.00000000  0.20667348  0.00000000  1
  Dy  Dy5  1  0.50000000  0.29332652  1.00000000  1
  Dy  Dy6  1  0.92706058  0.69355002  0.38710003  1
  Dy  Dy7  1  0.07293942  0.30644998  0.61289997  1
  Ni  Ni8  1  0.80990497  0.83489318  0.66978635  1
  Ni  Ni9  1  0.40816328  0.35558224  0.23236460  1
  Ni  Ni10  1  0.90816328  0.62321764  0.76763540  1
  Ni  Ni11  1  0.57845333  0.84623173  0.39490418  1
  Ni  Ni12  1  0.42154667  0.15376827  0.60509582  1
  Ni  Ni13  1  0.92154667  0.34623173  0.39490418  1
  Ni  Ni14  1  0.59183672  0.64441776  0.76763540  1
  Ni  Ni15  1  0.92154667  0.04867245  0.39490418  1
  Ni  Ni16  1  0.57845333  0.54867245  0.39490418  1
  Ni  Ni17  1  0.44455868  0.39906521  0.79813041  1
  Ni  Ni18  1  0.05544132  0.89906521  0.79813041  1
  Ni  Ni19  1  0.40816328  0.87678236  0.23236460  1
  Ni  Ni20  1  0.69009503  0.33489318  0.66978635  1
  Ni  Ni21  1  0.07845333  0.95132755  0.60509582  1
  Ni  Ni22  1  0.09183672  0.85558224  0.23236460  1
  Ni  Ni23  1  0.07845333  0.65376827  0.60509582  1
  Ni  Ni24  1  0.09183672  0.37678236  0.23236460  1
  Ni  Ni25  1  0.64672451  0.04644729  0.09289458  1
  Ni  Ni26  1  0.94455868  0.10093479  0.20186959  1
  Ni  Ni27  1  0.19009503  0.16510682  0.33021365  1
  Ni  Ni28  1  0.90816328  0.14441776  0.76763540  1
  Ni  Ni29  1  0.42154667  0.45132755  0.60509582  1
  Ni  Ni30  1  0.55544132  0.60093479  0.20186959  1
  Ni  Ni31  1  0.35327549  0.95355271  0.90710542  1
  Ni  Ni32  1  0.14672451  0.45355271  0.90710542  1
  Ni  Ni33  1  0.85327549  0.54644729  0.09289458  1
  Ni  Ni34  1  0.59183672  0.12321764  0.76763540  1
  Ni  Ni35  1  0.30990497  0.66510682  0.33021365  1
  Sn  Sn36  1  0.25000000  0.46849393  0.43698785  1
  Sn  Sn37  1  0.75000000  0.03150607  0.56301215  1
  Sn  Sn38  1  0.20486595  0.56196528  0.12393055  1
  Sn  Sn39  1  0.25000000  0.14394856  0.78789712  1
  Sn  Sn40  1  0.75000000  0.35605144  0.21210288  1
  Sn  Sn41  1  0.70486595  0.93803472  0.87606945  1
  Sn  Sn42  1  0.75000000  0.85605144  0.21210288  1
  Sn  Sn43  1  0.25000000  0.96849393  0.43698785  1
  Sn  Sn44  1  0.79513405  0.43803472  0.87606945  1
  Sn  Sn45  1  0.29513405  0.06196528  0.12393055  1
  Sn  Sn46  1  0.75000000  0.53150607  0.56301215  1
  Sn  Sn47  1  0.25000000  0.64394856  0.78789712  1
