# generated using pymatgen
data_CsPr9Nb(Br5N2)3
_symmetry_space_group_name_H-M   'P 1'
_cell_length_a   12.46944189
_cell_length_b   12.46944225
_cell_length_c   13.86577028
_cell_angle_alpha   90.00000000
_cell_angle_beta   90.00000000
_cell_angle_gamma   119.99999905
_symmetry_Int_Tables_number   1
_chemical_formula_structural   CsPr9Nb(Br5N2)3
_chemical_formula_sum   'Cs2 Pr18 Nb2 Br30 N12'
_cell_volume   1867.10473529
_cell_formula_units_Z   2
loop_
 _symmetry_equiv_pos_site_id
 _symmetry_equiv_pos_as_xyz
  1  'x, y, z'
loop_
 _atom_site_type_symbol
 _atom_site_label
 _atom_site_symmetry_multiplicity
 _atom_site_fract_x
 _atom_site_fract_y
 _atom_site_fract_z
 _atom_site_occupancy
  Cs  Cs0  1  0.00000000  0.00000000  0.25000000  1
  Cs  Cs1  1  0.00000000  0.00000000  0.75000000  1
  Pr  Pr2  1  0.97530379  0.41792103  0.25000000  1
  Pr  Pr3  1  0.72242986  0.18416635  0.06506934  1
  Pr  Pr4  1  0.18416635  0.46173649  0.56506934  1
  Pr  Pr5  1  0.81583365  0.53826351  0.43493066  1
  Pr  Pr6  1  0.27757014  0.81583365  0.93493066  1
  Pr  Pr7  1  0.58207897  0.55738276  0.25000000  1
  Pr  Pr8  1  0.53826351  0.72242986  0.93493066  1
  Pr  Pr9  1  0.53826351  0.72242986  0.56506934  1
  Pr  Pr10  1  0.81583365  0.53826351  0.06506934  1
  Pr  Pr11  1  0.27757014  0.81583365  0.56506934  1
  Pr  Pr12  1  0.46173649  0.27757014  0.43493066  1
  Pr  Pr13  1  0.18416635  0.46173649  0.93493066  1
  Pr  Pr14  1  0.44261724  0.02469621  0.25000000  1
  Pr  Pr15  1  0.55738276  0.97530379  0.75000000  1
  Pr  Pr16  1  0.46173649  0.27757014  0.06506934  1
  Pr  Pr17  1  0.02469621  0.58207897  0.75000000  1
  Pr  Pr18  1  0.41792103  0.44261724  0.75000000  1
  Pr  Pr19  1  0.72242986  0.18416635  0.43493066  1
  Nb  Nb20  1  0.66666700  0.33333300  0.25000000  1
  Nb  Nb21  1  0.33333300  0.66666700  0.75000000  1
  Br  Br22  1  0.13612097  0.61231461  0.09161204  1
  Br  Br23  1  0.05705371  0.32710927  0.75000000  1
  Br  Br24  1  0.86387903  0.38768539  0.59161204  1
  Br  Br25  1  0.75525560  0.01146832  0.59584022  1
  Br  Br26  1  0.67289073  0.72994443  0.75000000  1
  Br  Br27  1  0.01146832  0.25621271  0.09584022  1
  Br  Br28  1  0.98853168  0.74378729  0.90415978  1
  Br  Br29  1  0.61231461  0.47619364  0.59161204  1
  Br  Br30  1  0.72994443  0.05705371  0.25000000  1
  Br  Br31  1  0.32710927  0.27005557  0.25000000  1
  Br  Br32  1  0.86387903  0.38768539  0.90838796  1
  Br  Br33  1  0.98853168  0.74378729  0.59584022  1
  Br  Br34  1  0.38768539  0.52380636  0.09161204  1
  Br  Br35  1  0.27005557  0.94294629  0.75000000  1
  Br  Br36  1  0.13612097  0.61231461  0.40838796  1
  Br  Br37  1  0.94294629  0.67289073  0.25000000  1
  Br  Br38  1  0.24474440  0.98853168  0.09584022  1
  Br  Br39  1  0.01146832  0.25621271  0.40415978  1
  Br  Br40  1  0.25621271  0.24474440  0.59584022  1
  Br  Br41  1  0.52380636  0.13612097  0.59161204  1
  Br  Br42  1  0.61231461  0.47619364  0.90838796  1
  Br  Br43  1  0.74378729  0.75525560  0.09584022  1
  Br  Br44  1  0.24474440  0.98853168  0.40415978  1
  Br  Br45  1  0.38768539  0.52380636  0.40838796  1
  Br  Br46  1  0.47619364  0.86387903  0.09161204  1
  Br  Br47  1  0.75525560  0.01146832  0.90415978  1
  Br  Br48  1  0.25621271  0.24474440  0.90415978  1
  Br  Br49  1  0.47619364  0.86387903  0.40838796  1
  Br  Br50  1  0.74378729  0.75525560  0.40415978  1
  Br  Br51  1  0.52380636  0.13612097  0.90838796  1
  N  N52  1  0.37267559  0.56043945  0.85116940  1
  N  N53  1  0.37267559  0.56043945  0.64883060  1
  N  N54  1  0.43956055  0.81223614  0.85116940  1
  N  N55  1  0.81223614  0.37267559  0.35116940  1
  N  N56  1  0.56043945  0.18776386  0.35116940  1
  N  N57  1  0.56043945  0.18776386  0.14883060  1
  N  N58  1  0.18776386  0.62732441  0.85116940  1
  N  N59  1  0.62732441  0.43956055  0.35116940  1
  N  N60  1  0.81223614  0.37267559  0.14883060  1
  N  N61  1  0.18776386  0.62732441  0.64883060  1
  N  N62  1  0.62732441  0.43956055  0.14883060  1
  N  N63  1  0.43956055  0.81223614  0.64883060  1
