# generated using pymatgen
data_NaAl3NiCl12
_symmetry_space_group_name_H-M   'P 1'
_cell_length_a   12.21289496
_cell_length_b   12.69074902
_cell_length_c   13.82127634
_cell_angle_alpha   106.83734797
_cell_angle_beta   90.00000000
_cell_angle_gamma   90.00000000
_symmetry_Int_Tables_number   1
_chemical_formula_structural   NaAl3NiCl12
_chemical_formula_sum   'Na4 Al12 Ni4 Cl48'
_cell_volume   2050.33752452
_cell_formula_units_Z   4
loop_
 _symmetry_equiv_pos_site_id
 _symmetry_equiv_pos_as_xyz
  1  'x, y, z'
loop_
 _atom_site_type_symbol
 _atom_site_label
 _atom_site_symmetry_multiplicity
 _atom_site_fract_x
 _atom_site_fract_y
 _atom_site_fract_z
 _atom_site_occupancy
  Na  Na0  1  0.79229643  0.48302904  0.70928727  1
  Na  Na1  1  0.20770357  0.51697096  0.29071273  1
  Na  Na2  1  0.70770357  0.98302904  0.70928727  1
  Na  Na3  1  0.29229643  0.01697096  0.29071273  1
  Al  Al4  1  0.01309856  0.82378877  0.27797084  1
  Al  Al5  1  0.24689265  0.38694080  0.01918564  1
  Al  Al6  1  0.91969301  0.32487878  0.38911820  1
  Al  Al7  1  0.51309856  0.67621123  0.72202916  1
  Al  Al8  1  0.25310735  0.88694080  0.01918564  1
  Al  Al9  1  0.58030699  0.82487878  0.38911820  1
  Al  Al10  1  0.41969301  0.17512122  0.61088180  1
  Al  Al11  1  0.08030699  0.67512122  0.61088180  1
  Al  Al12  1  0.48690144  0.32378877  0.27797084  1
  Al  Al13  1  0.74689265  0.11305920  0.98081436  1
  Al  Al14  1  0.98690144  0.17621123  0.72202916  1
  Al  Al15  1  0.75310735  0.61305920  0.98081436  1
  Ni  Ni16  1  0.26223449  0.74127750  0.78569932  1
  Ni  Ni17  1  0.76223449  0.75872250  0.21430068  1
  Ni  Ni18  1  0.73776551  0.25872250  0.21430068  1
  Ni  Ni19  1  0.23776551  0.24127750  0.78569932  1
  Cl  Cl20  1  0.88552296  0.75360514  0.35233466  1
  Cl  Cl21  1  0.38528694  0.33257641  0.72406203  1
  Cl  Cl22  1  0.66209585  0.76065129  0.06364723  1
  Cl  Cl23  1  0.16892853  0.41920407  0.88765614  1
  Cl  Cl24  1  0.11447704  0.24639486  0.64766534  1
  Cl  Cl25  1  0.08910519  0.36686343  0.40069405  1
  Cl  Cl26  1  0.38552296  0.74639486  0.64766534  1
  Cl  Cl27  1  0.90758745  0.86029806  0.16320266  1
  Cl  Cl28  1  0.85246172  0.98577005  0.89729512  1
  Cl  Cl29  1  0.58910519  0.13313657  0.59930595  1
  Cl  Cl30  1  0.61471306  0.66742359  0.27593797  1
  Cl  Cl31  1  0.11471306  0.83257641  0.72406203  1
  Cl  Cl32  1  0.61447704  0.25360514  0.35233466  1
  Cl  Cl33  1  0.09241255  0.13970194  0.83679734  1
  Cl  Cl34  1  0.14777432  0.68316916  0.46999906  1
  Cl  Cl35  1  0.64753828  0.48577005  0.89729512  1
  Cl  Cl36  1  0.86629297  0.29604160  0.79120966  1
  Cl  Cl37  1  0.67689663  0.92833056  0.31862028  1
  Cl  Cl38  1  0.64777432  0.81683084  0.53000094  1
  Cl  Cl39  1  0.32310337  0.07166944  0.68137972  1
  Cl  Cl40  1  0.82310337  0.42833056  0.31862028  1
  Cl  Cl41  1  0.33107147  0.91920407  0.88765614  1
  Cl  Cl42  1  0.87444706  0.64261436  0.88000331  1
  Cl  Cl43  1  0.91311021  0.02997236  0.62647704  1
  Cl  Cl44  1  0.83107147  0.58079593  0.11234386  1
  Cl  Cl45  1  0.85222568  0.31683084  0.53000094  1
  Cl  Cl46  1  0.83790415  0.26065129  0.06364723  1
  Cl  Cl47  1  0.08688979  0.97002764  0.37352296  1
  Cl  Cl48  1  0.63370703  0.79604160  0.79120966  1
  Cl  Cl49  1  0.37444706  0.85738564  0.11999669  1
  Cl  Cl50  1  0.41311021  0.47002764  0.37352296  1
  Cl  Cl51  1  0.13370703  0.70395840  0.20879034  1
  Cl  Cl52  1  0.14753828  0.01422995  0.10270488  1
  Cl  Cl53  1  0.12555294  0.35738564  0.11999669  1
  Cl  Cl54  1  0.59241255  0.36029806  0.16320266  1
  Cl  Cl55  1  0.62555294  0.14261436  0.88000331  1
  Cl  Cl56  1  0.66892853  0.08079593  0.11234386  1
  Cl  Cl57  1  0.35246172  0.51422995  0.10270488  1
  Cl  Cl58  1  0.17689663  0.57166944  0.68137972  1
  Cl  Cl59  1  0.16209585  0.73934871  0.93635277  1
  Cl  Cl60  1  0.35222568  0.18316916  0.46999906  1
  Cl  Cl61  1  0.41089481  0.86686343  0.40069405  1
  Cl  Cl62  1  0.40758745  0.63970194  0.83679734  1
  Cl  Cl63  1  0.58688979  0.52997236  0.62647704  1
  Cl  Cl64  1  0.33790415  0.23934871  0.93635277  1
  Cl  Cl65  1  0.36629297  0.20395840  0.20879034  1
  Cl  Cl66  1  0.88528694  0.16742359  0.27593797  1
  Cl  Cl67  1  0.91089481  0.63313657  0.59930595  1
