# generated using pymatgen
data_Sr3(B3Rh4)2
_symmetry_space_group_name_H-M   'P 1'
_cell_length_a   5.62332212
_cell_length_b   5.75956394
_cell_length_c   9.05473564
_cell_angle_alpha   81.28112631
_cell_angle_beta   71.90953077
_cell_angle_gamma   60.77946203
_symmetry_Int_Tables_number   1
_chemical_formula_structural   Sr3(B3Rh4)2
_chemical_formula_sum   'Sr3 B6 Rh8'
_cell_volume   243.29304456
_cell_formula_units_Z   1
loop_
 _symmetry_equiv_pos_site_id
 _symmetry_equiv_pos_as_xyz
  1  'x, y, z'
loop_
 _atom_site_type_symbol
 _atom_site_label
 _atom_site_symmetry_multiplicity
 _atom_site_fract_x
 _atom_site_fract_y
 _atom_site_fract_z
 _atom_site_occupancy
  Sr  Sr0  1  0.31656775  0.00000000  0.36686449  1
  Sr  Sr1  1  0.50000000  0.00000000  0.00000000  1
  Sr  Sr2  1  0.68343225  1.00000000  0.63313551  1
  B  B3  1  0.99552646  0.67054378  0.33840330  1
  B  B4  1  0.00447354  0.32945622  0.66159670  1
  B  B5  1  0.16455237  0.67089527  1.00000000  1
  B  B6  1  0.66607024  0.32945622  0.33840330  1
  B  B7  1  0.33392976  0.67054378  0.66159670  1
  B  B8  1  0.83544763  0.32910473  0.00000000  1
  Rh  Rh9  1  0.41570987  0.50000000  0.16858026  1
  Rh  Rh10  1  0.91311505  1.00000000  0.17376991  1
  Rh  Rh11  1  0.91570987  0.50000000  0.16858026  1
  Rh  Rh12  1  0.75000000  0.50000000  0.50000000  1
  Rh  Rh13  1  0.08429013  0.50000000  0.83141974  1
  Rh  Rh14  1  0.58429013  0.50000000  0.83141974  1
  Rh  Rh15  1  0.25000000  0.50000000  0.50000000  1
  Rh  Rh16  1  0.08688495  0.00000000  0.82623009  1
