# generated using pymatgen
data_YbGePd
_symmetry_space_group_name_H-M   'P 1'
_cell_length_a   4.44504587
_cell_length_b   7.51124564
_cell_length_c   11.49403867
_cell_angle_alpha   109.07242709
_cell_angle_beta   101.15267708
_cell_angle_gamma   89.99875866
_symmetry_Int_Tables_number   1
_chemical_formula_structural   YbGePd
_chemical_formula_sum   'Yb6 Ge6 Pd6'
_cell_volume   355.01851105
_cell_formula_units_Z   6
loop_
 _symmetry_equiv_pos_site_id
 _symmetry_equiv_pos_as_xyz
  1  'x, y, z'
loop_
 _atom_site_type_symbol
 _atom_site_label
 _atom_site_symmetry_multiplicity
 _atom_site_fract_x
 _atom_site_fract_y
 _atom_site_fract_z
 _atom_site_occupancy
  Yb  Yb0  1  1.00000344  0.46280207  0.99999696  1
  Yb  Yb1  1  0.50000886  0.05024947  1.00000490  1
  Yb  Yb2  1  0.66399651  0.11902405  0.32796563  1
  Yb  Yb3  1  0.33601423  0.79103725  0.67204353  1
  Yb  Yb4  1  0.83127609  0.38622334  0.66253932  1
  Yb  Yb5  1  0.16871724  0.72370097  0.33745355  1
  Ge  Ge6  1  0.06235556  0.90540601  0.12472195  1
  Ge  Ge7  1  0.76898054  0.93615338  0.53807156  1
  Ge  Ge8  1  0.93767025  0.78066710  0.87528243  1
  Ge  Ge9  1  0.39882097  0.23945326  0.79757335  1
  Ge  Ge10  1  0.60116593  0.44193627  0.20241311  1
  Ge  Ge11  1  0.23100597  0.39812627  0.46194058  1
  Pd  Pd12  1  0.57089228  0.73894041  0.14185919  1
  Pd  Pd13  1  0.42911033  0.59703065  0.85813463  1
  Pd  Pd14  1  0.89586734  0.06866155  0.79175666  1
  Pd  Pd15  1  0.26955195  0.10926693  0.53912855  1
  Pd  Pd16  1  0.10412375  0.27696428  0.20825396  1
  Pd  Pd17  1  0.73043877  0.57015670  0.46086014  1
