# generated using pymatgen
data_Ba2Cd3Bi4
_symmetry_space_group_name_H-M   'P 1'
_cell_length_a   7.11212225
_cell_length_b   9.43250154
_cell_length_c   9.57007115
_cell_angle_alpha   90.00000000
_cell_angle_beta   111.81318489
_cell_angle_gamma   90.00000000
_symmetry_Int_Tables_number   1
_chemical_formula_structural   Ba2Cd3Bi4
_chemical_formula_sum   'Ba4 Cd6 Bi8'
_cell_volume   596.04157993
_cell_formula_units_Z   2
loop_
 _symmetry_equiv_pos_site_id
 _symmetry_equiv_pos_as_xyz
  1  'x, y, z'
loop_
 _atom_site_type_symbol
 _atom_site_label
 _atom_site_symmetry_multiplicity
 _atom_site_fract_x
 _atom_site_fract_y
 _atom_site_fract_z
 _atom_site_occupancy
  Ba  Ba0  1  0.88360270  0.57748154  0.76720539  1
  Ba  Ba1  1  0.38360270  0.92251846  0.76720539  1
  Ba  Ba2  1  0.61639730  0.07748154  0.23279461  1
  Ba  Ba3  1  0.11639730  0.42251846  0.23279461  1
  Cd  Cd4  1  0.47159652  0.75000000  0.44319304  1
  Cd  Cd5  1  0.52840348  0.25000000  0.55680696  1
  Cd  Cd6  1  0.02840348  0.25000000  0.55680696  1
  Cd  Cd7  1  0.97159652  0.75000000  0.44319304  1
  Cd  Cd8  1  0.50000000  0.50000000  0.00000000  1
  Cd  Cd9  1  0.00000000  0.00000000  0.00000000  1
  Bi  Bi10  1  0.81468045  0.94872160  0.62936090  1
  Bi  Bi11  1  0.68531955  0.44872160  0.37063910  1
  Bi  Bi12  1  0.18531955  0.05127840  0.37063910  1
  Bi  Bi13  1  0.69742019  0.25000000  0.89484037  1
  Bi  Bi14  1  0.80257981  0.75000000  0.10515963  1
  Bi  Bi15  1  0.19742019  0.25000000  0.89484037  1
  Bi  Bi16  1  0.30257981  0.75000000  0.10515963  1
  Bi  Bi17  1  0.31468045  0.55127840  0.62936090  1
