# generated using pymatgen
data_CuTeBr
_symmetry_space_group_name_H-M   'P 1'
_cell_length_a   13.96520133
_cell_length_b   13.96520040
_cell_length_c   13.82297892
_cell_angle_alpha   108.12884815
_cell_angle_beta   108.12884393
_cell_angle_gamma   112.58339539
_symmetry_Int_Tables_number   1
_chemical_formula_structural   CuTeBr
_chemical_formula_sum   'Cu24 Te24 Br24'
_cell_volume   2061.09599356
_cell_formula_units_Z   24
loop_
 _symmetry_equiv_pos_site_id
 _symmetry_equiv_pos_as_xyz
  1  'x, y, z'
loop_
 _atom_site_type_symbol
 _atom_site_label
 _atom_site_symmetry_multiplicity
 _atom_site_fract_x
 _atom_site_fract_y
 _atom_site_fract_z
 _atom_site_occupancy
  Cu  Cu0  1  0.20895578  0.45895578  0.25000000  1
  Cu  Cu1  1  0.04228975  0.29228975  0.25000000  1
  Cu  Cu2  1  0.07172028  0.32164617  0.97790581  1
  Cu  Cu3  1  0.65625963  0.40618552  0.47790581  1
  Cu  Cu4  1  0.29228975  0.04228975  0.75000000  1
  Cu  Cu5  1  0.70771025  0.95771025  0.25000000  1
  Cu  Cu6  1  0.34374037  0.59381448  0.52209419  1
  Cu  Cu7  1  0.45895578  0.20895578  0.75000000  1
  Cu  Cu8  1  0.54104422  0.79104422  0.25000000  1
  Cu  Cu9  1  0.37500000  0.62500000  0.25000000  1
  Cu  Cu10  1  0.67835383  0.92827972  0.52209419  1
  Cu  Cu11  1  0.92827972  0.67835383  0.02209419  1
  Cu  Cu12  1  0.98972123  0.73972123  0.47944247  1
  Cu  Cu13  1  0.59381448  0.34374037  0.02209419  1
  Cu  Cu14  1  0.79104422  0.54104422  0.75000000  1
  Cu  Cu15  1  0.95771025  0.70771025  0.75000000  1
  Cu  Cu16  1  0.01027877  0.26027877  0.52055753  1
  Cu  Cu17  1  0.40618552  0.65625963  0.97790581  1
  Cu  Cu18  1  0.87500000  0.12500000  0.25000000  1
  Cu  Cu19  1  0.32164617  0.07172028  0.47790581  1
  Cu  Cu20  1  0.62500000  0.37500000  0.75000000  1
  Cu  Cu21  1  0.26027877  0.01027877  0.02055753  1
  Cu  Cu22  1  0.73972123  0.98972123  0.97944247  1
  Cu  Cu23  1  0.12500000  0.87500000  0.75000000  1
  Te  Te24  1  0.48172404  0.33910959  0.13570375  1
  Te  Te25  1  0.53446916  0.18064311  0.36272386  1
  Te  Te26  1  0.18064311  0.53446916  0.86272386  1
  Te  Te27  1  0.48593414  0.13382418  0.13526050  1
  Te  Te28  1  0.84602030  0.20340584  0.86429625  1
  Te  Te29  1  0.51406586  0.86617582  0.86473950  1
  Te  Te30  1  0.15397970  0.79659416  0.13570375  1
  Te  Te31  1  0.85067364  0.99856269  0.86473950  1
  Te  Te32  1  0.86617582  0.51406586  0.36473950  1
  Te  Te33  1  0.46553084  0.81935689  0.63727614  1
  Te  Te34  1  0.81935689  0.46553084  0.13727614  1
  Te  Te35  1  0.32825470  0.18208075  0.36272386  1
  Te  Te36  1  0.66089041  0.51827596  0.36429625  1
  Te  Te37  1  0.20340584  0.84602030  0.36429625  1
  Te  Te38  1  0.67174530  0.81791925  0.63727614  1
  Te  Te39  1  0.33910959  0.48172404  0.63570375  1
  Te  Te40  1  0.79659416  0.15397970  0.63570375  1
  Te  Te41  1  0.13382418  0.48593414  0.63526050  1
  Te  Te42  1  0.99856269  0.85067364  0.36473950  1
  Te  Te43  1  0.00143731  0.14932636  0.63526050  1
  Te  Te44  1  0.81791925  0.67174530  0.13727614  1
  Te  Te45  1  0.18208075  0.32825470  0.86272386  1
  Te  Te46  1  0.51827596  0.66089041  0.86429625  1
  Te  Te47  1  0.14932636  0.00143731  0.13526050  1
  Br  Br48  1  0.75498028  0.87591693  0.38241494  1
  Br  Br49  1  0.16095961  0.53985827  0.11700012  1
  Br  Br50  1  0.79044119  0.91103345  0.11822832  1
  Br  Br51  1  0.17221287  0.79280513  0.88177168  1
  Br  Br52  1  0.53985827  0.16095961  0.61700012  1
  Br  Br53  1  0.46014173  0.83904039  0.38299988  1
  Br  Br54  1  0.82778713  0.20719487  0.11822832  1
  Br  Br55  1  0.49350199  0.87256534  0.11758506  1
  Br  Br56  1  0.50649801  0.12743466  0.88241494  1
  Br  Br57  1  0.08896655  0.20955881  0.38177168  1
  Br  Br58  1  0.54395949  0.42285815  0.88299988  1
  Br  Br59  1  0.79280513  0.17221287  0.38177168  1
  Br  Br60  1  0.87591693  0.75498028  0.88241494  1
  Br  Br61  1  0.45604051  0.57714185  0.11700012  1
  Br  Br62  1  0.12408307  0.24501972  0.11758506  1
  Br  Br63  1  0.91103345  0.79044119  0.61822832  1
  Br  Br64  1  0.87256534  0.49350199  0.61758506  1
  Br  Br65  1  0.12743466  0.50649801  0.38241494  1
  Br  Br66  1  0.42285815  0.54395949  0.38299988  1
  Br  Br67  1  0.83904039  0.46014173  0.88299988  1
  Br  Br68  1  0.57714185  0.45604051  0.61700012  1
  Br  Br69  1  0.20719487  0.82778713  0.61822832  1
  Br  Br70  1  0.24501972  0.12408307  0.61758506  1
  Br  Br71  1  0.20955881  0.08896655  0.88177168  1
