# generated using pymatgen
data_NaNd4I7N2
_symmetry_space_group_name_H-M   'P 1'
_cell_length_a   11.20904411
_cell_length_b   12.11780998
_cell_length_c   14.48376495
_cell_angle_alpha   90.00000000
_cell_angle_beta   90.00000000
_cell_angle_gamma   90.00000000
_symmetry_Int_Tables_number   1
_chemical_formula_structural   NaNd4I7N2
_chemical_formula_sum   'Na4 Nd16 I28 N8'
_cell_volume   1967.31627376
_cell_formula_units_Z   4
loop_
 _symmetry_equiv_pos_site_id
 _symmetry_equiv_pos_as_xyz
  1  'x, y, z'
loop_
 _atom_site_type_symbol
 _atom_site_label
 _atom_site_symmetry_multiplicity
 _atom_site_fract_x
 _atom_site_fract_y
 _atom_site_fract_z
 _atom_site_occupancy
  Na  Na0  1  0.04875543  0.25409950  0.90288365  1
  Na  Na1  1  0.54875543  0.75409950  0.59711635  1
  Na  Na2  1  0.45124457  0.25409950  0.40288365  1
  Na  Na3  1  0.95124457  0.75409950  0.09711635  1
  Nd  Nd4  1  0.91699885  0.32533986  0.40000103  1
  Nd  Nd5  1  0.12197511  0.31839253  0.58406338  1
  Nd  Nd6  1  0.39834789  0.06236780  0.91326780  1
  Nd  Nd7  1  0.12312375  0.58389215  0.41828966  1
  Nd  Nd8  1  0.37802489  0.31839253  0.08406338  1
  Nd  Nd9  1  0.62312375  0.08389215  0.08171034  1
  Nd  Nd10  1  0.37687625  0.58389215  0.91828966  1
  Nd  Nd11  1  0.62197511  0.81839253  0.91593662  1
  Nd  Nd12  1  0.87802489  0.81839253  0.41593662  1
  Nd  Nd13  1  0.41699885  0.82533986  0.09999897  1
  Nd  Nd14  1  0.08300115  0.82533986  0.59999897  1
  Nd  Nd15  1  0.10165211  0.06236780  0.41326780  1
  Nd  Nd16  1  0.87687625  0.08389215  0.58171034  1
  Nd  Nd17  1  0.58300115  0.32533986  0.90000103  1
  Nd  Nd18  1  0.60165211  0.56236780  0.08673220  1
  Nd  Nd19  1  0.89834789  0.56236780  0.58673220  1
  I  I20  1  0.18711276  0.29491849  0.29525324  1
  I  I21  1  0.65291401  0.96061613  0.48578516  1
  I  I22  1  0.43572485  0.03796701  0.24548714  1
  I  I23  1  0.69021688  0.29137854  0.52254186  1
  I  I24  1  0.80978312  0.29137854  0.02254186  1
  I  I25  1  0.93572485  0.53796701  0.25451286  1
  I  I26  1  0.19021688  0.79137854  0.97745814  1
  I  I27  1  0.15291401  0.46061613  0.01421484  1
  I  I28  1  0.36848331  0.59877024  0.22391609  1
  I  I29  1  0.84708599  0.96061613  0.98578516  1
  I  I30  1  0.86848331  0.09877024  0.27608391  1
  I  I31  1  0.09220104  0.83724909  0.26966842  1
  I  I32  1  0.13151669  0.59877024  0.72391609  1
  I  I33  1  0.34708599  0.46061613  0.51421484  1
  I  I34  1  0.31642468  0.11548782  0.54689169  1
  I  I35  1  0.81288724  0.79491849  0.70474676  1
  I  I36  1  0.63151669  0.09877024  0.77608391  1
  I  I37  1  0.18357532  0.11548782  0.04689169  1
  I  I38  1  0.59220104  0.33724909  0.23033158  1
  I  I39  1  0.31288724  0.29491849  0.79525324  1
  I  I40  1  0.40779896  0.83724909  0.76966842  1
  I  I41  1  0.68357532  0.61548782  0.45310831  1
  I  I42  1  0.68711276  0.79491849  0.20474676  1
  I  I43  1  0.06427515  0.03796701  0.74548714  1
  I  I44  1  0.81642468  0.61548782  0.95310831  1
  I  I45  1  0.30978312  0.79137854  0.47745814  1
  I  I46  1  0.90779896  0.33724909  0.73033158  1
  I  I47  1  0.56427515  0.53796701  0.75451286  1
  N  N48  1  0.99524054  0.69711027  0.50277016  1
  N  N49  1  0.51566752  0.94782055  0.00299477  1
  N  N50  1  0.48433248  0.44782055  0.99700523  1
  N  N51  1  0.50475946  0.69711027  0.00277016  1
  N  N52  1  0.01566752  0.44782055  0.49700523  1
  N  N53  1  0.98433248  0.94782055  0.50299477  1
  N  N54  1  0.00475946  0.19711027  0.49722984  1
  N  N55  1  0.49524054  0.19711027  0.99722984  1
