# generated using pymatgen
data_Dy(PPt4)2
_symmetry_space_group_name_H-M   'P 1'
_cell_length_a   4.05994590
_cell_length_b   6.34117275
_cell_length_c   7.74755036
_cell_angle_alpha   83.16177659
_cell_angle_beta   74.80185569
_cell_angle_gamma   71.30654504
_symmetry_Int_Tables_number   1
_chemical_formula_structural   Dy(PPt4)2
_chemical_formula_sum   'Dy1 P2 Pt8'
_cell_volume   182.19507134
_cell_formula_units_Z   1
loop_
 _symmetry_equiv_pos_site_id
 _symmetry_equiv_pos_as_xyz
  1  'x, y, z'
loop_
 _atom_site_type_symbol
 _atom_site_label
 _atom_site_symmetry_multiplicity
 _atom_site_fract_x
 _atom_site_fract_y
 _atom_site_fract_z
 _atom_site_occupancy
  Dy  Dy0  1  0.50000000  0.50000000  0.50000000  1
  P  P1  1  0.05849947  0.17383129  0.70944028  1
  P  P2  1  0.94150053  0.82616871  0.29055972  1
  Pt  Pt3  1  0.22359087  0.13903264  0.41370667  1
  Pt  Pt4  1  0.82326173  0.50984569  0.84413271  1
  Pt  Pt5  1  0.17673827  0.49015431  0.15586729  1
  Pt  Pt6  1  0.16608489  0.81943666  0.84790128  1
  Pt  Pt7  1  0.47507944  0.18117506  0.86890253  1
  Pt  Pt8  1  0.52492056  0.81882494  0.13109747  1
  Pt  Pt9  1  0.77640913  0.86096736  0.58629333  1
  Pt  Pt10  1  0.83391511  0.18056334  0.15209872  1
