# generated using pymatgen
data_Yb2(CN2)3
_symmetry_space_group_name_H-M   'P 1'
_cell_length_a   11.04958760
_cell_length_b   11.04958756
_cell_length_c   11.04958700
_cell_angle_alpha   33.71963301
_cell_angle_beta   33.71963328
_cell_angle_gamma   33.71963319
_symmetry_Int_Tables_number   1
_chemical_formula_structural   Yb2(CN2)3
_chemical_formula_sum   'Yb4 C6 N12'
_cell_volume   370.41270511
_cell_formula_units_Z   2
loop_
 _symmetry_equiv_pos_site_id
 _symmetry_equiv_pos_as_xyz
  1  'x, y, z'
loop_
 _atom_site_type_symbol
 _atom_site_label
 _atom_site_symmetry_multiplicity
 _atom_site_fract_x
 _atom_site_fract_y
 _atom_site_fract_z
 _atom_site_occupancy
  Yb  Yb0  1  0.16451111  0.16451111  0.16451111  1
  Yb  Yb1  1  0.66451111  0.66451111  0.66451111  1
  Yb  Yb2  1  0.83548889  0.83548889  0.83548889  1
  Yb  Yb3  1  0.33548889  0.33548889  0.33548889  1
  C  C4  1  0.04843963  0.75000000  0.45156037  1
  C  C5  1  0.75000000  0.45156037  0.04843963  1
  C  C6  1  0.54843963  0.95156037  0.25000000  1
  C  C7  1  0.95156037  0.25000000  0.54843963  1
  C  C8  1  0.25000000  0.54843963  0.95156037  1
  C  C9  1  0.45156037  0.04843963  0.75000000  1
  N  N10  1  0.84860352  0.46126655  0.05383036  1
  N  N11  1  0.65139648  0.44616964  0.03873345  1
  N  N12  1  0.03873345  0.65139648  0.44616964  1
  N  N13  1  0.53873345  0.94616964  0.15139648  1
  N  N14  1  0.44616964  0.03873345  0.65139648  1
  N  N15  1  0.55383036  0.96126655  0.34860352  1
  N  N16  1  0.96126655  0.34860352  0.55383036  1
  N  N17  1  0.15139648  0.53873345  0.94616964  1
  N  N18  1  0.94616964  0.15139648  0.53873345  1
  N  N19  1  0.34860352  0.55383036  0.96126655  1
  N  N20  1  0.46126655  0.05383036  0.84860352  1
  N  N21  1  0.05383036  0.84860352  0.46126655  1
