# generated using pymatgen
data_MoPbO3
_symmetry_space_group_name_H-M   'P 1'
_cell_length_a   4.08256505
_cell_length_b   4.11755346
_cell_length_c   4.12252015
_cell_angle_alpha   91.12733514
_cell_angle_beta   89.38076561
_cell_angle_gamma   90.65674220
_symmetry_Int_Tables_number   1
_chemical_formula_structural   MoPbO3
_chemical_formula_sum   'Mo1 Pb1 O3'
_cell_volume   69.27845867
_cell_formula_units_Z   1
loop_
 _symmetry_equiv_pos_site_id
 _symmetry_equiv_pos_as_xyz
  1  'x, y, z'
loop_
 _atom_site_type_symbol
 _atom_site_label
 _atom_site_symmetry_multiplicity
 _atom_site_fract_x
 _atom_site_fract_y
 _atom_site_fract_z
 _atom_site_occupancy
  Mo  Mo0  1  0.49993481  0.49985239  0.49989217  1
  Pb  Pb1  1  0.99987812  0.99987725  0.99898220  1
  O  O2  1  0.50012518  0.50019243  0.00003807  1
  O  O3  1  0.50013270  0.99993563  0.50052957  1
  O  O4  1  0.99992519  0.50014030  0.50055599  1
