# generated using pymatgen
data_Pr3CuSiSe7
_symmetry_space_group_name_H-M   'P 1'
_cell_length_a   10.71505938
_cell_length_b   10.71505910
_cell_length_c   6.10878869
_cell_angle_alpha   90.00000000
_cell_angle_beta   90.00000000
_cell_angle_gamma   120.00000086
_symmetry_Int_Tables_number   1
_chemical_formula_structural   Pr3CuSiSe7
_chemical_formula_sum   'Pr6 Cu2 Si2 Se14'
_cell_volume   607.40013425
_cell_formula_units_Z   2
loop_
 _symmetry_equiv_pos_site_id
 _symmetry_equiv_pos_as_xyz
  1  'x, y, z'
loop_
 _atom_site_type_symbol
 _atom_site_label
 _atom_site_symmetry_multiplicity
 _atom_site_fract_x
 _atom_site_fract_y
 _atom_site_fract_z
 _atom_site_occupancy
  Pr  Pr0  1  0.87363488  0.64473684  0.25335455  1
  Pr  Pr1  1  0.22889928  0.87363614  0.75335408  1
  Pr  Pr2  1  0.77110196  0.12636512  0.25335455  1
  Pr  Pr3  1  0.64473686  0.77110072  0.75335408  1
  Pr  Pr4  1  0.12636386  0.35526314  0.75335408  1
  Pr  Pr5  1  0.35526316  0.22889804  0.25335455  1
  Cu  Cu6  1  0.00000000  0.00000000  0.22664457  1
  Si  Si7  1  0.66666700  0.33333300  0.83958908  1
  Cu  Cu8  1  0.00000000  0.00000000  0.72676373  1
  Si  Si9  1  0.33333300  0.66666700  0.33958860  1
  Se  Se10  1  0.25421920  0.16423391  0.73979289  1
  Se  Se11  1  0.41489194  0.52240162  0.48784988  1
  Se  Se12  1  0.83576609  0.08998529  0.73979289  1
  Se  Se13  1  0.47759838  0.89249033  0.48784988  1
  Se  Se14  1  0.16423480  0.91001426  0.23979035  1
  Se  Se15  1  0.10750967  0.58510806  0.48784988  1
  Se  Se16  1  0.74577945  0.83576520  0.23979035  1
  Se  Se17  1  0.58510822  0.47759839  0.98784981  1
  Se  Se18  1  0.33333300  0.66666700  0.96801945  1
  Se  Se19  1  0.91001471  0.74578080  0.73979289  1
  Se  Se20  1  0.66666700  0.33333300  0.46801988  1
  Se  Se21  1  0.08998574  0.25422055  0.23979035  1
  Se  Se22  1  0.52240161  0.10750983  0.98784981  1
  Se  Se23  1  0.89249017  0.41489178  0.98784981  1
