# generated using pymatgen
data_Ca14GaAs11
_symmetry_space_group_name_H-M   'P 1'
_cell_length_a   15.38141504
_cell_length_b   15.38141081
_cell_length_c   15.38141072
_cell_angle_alpha   92.50852438
_cell_angle_beta   118.56242485
_cell_angle_gamma   118.56242541
_symmetry_Int_Tables_number   1
_chemical_formula_structural   Ca14GaAs11
_chemical_formula_sum   'Ca56 Ga4 As44'
_cell_volume   2626.39031616
_cell_formula_units_Z   4
loop_
 _symmetry_equiv_pos_site_id
 _symmetry_equiv_pos_as_xyz
  1  'x, y, z'
loop_
 _atom_site_type_symbol
 _atom_site_label
 _atom_site_symmetry_multiplicity
 _atom_site_fract_x
 _atom_site_fract_y
 _atom_site_fract_z
 _atom_site_occupancy
  Ca  Ca0  1  0.85370658  0.37052104  0.46938176  1
  Ca  Ca1  1  0.35370680  0.88432445  0.48318574  1
  Ca  Ca2  1  0.91463364  0.93764528  0.66322034  1
  Ca  Ca3  1  0.14629342  0.62947896  0.53061824  1
  Ca  Ca4  1  0.41463346  0.75141293  0.97698841  1
  Ca  Ca5  1  0.38265874  0.28535224  0.25584374  1
  Ca  Ca6  1  0.64809467  0.75000003  0.39809464  1
  Ca  Ca7  1  0.85190533  0.10190536  0.74999997  1
  Ca  Ca8  1  0.58536636  0.83677966  0.56235472  1
  Ca  Ca9  1  0.52950868  0.90269337  0.28535228  1
  Ca  Ca10  1  0.47049132  0.09730663  0.71464772  1
  Ca  Ca11  1  0.64629342  0.03061824  0.12947896  1
  Ca  Ca12  1  0.22557524  0.97698850  0.06235474  1
  Ca  Ca13  1  0.88265862  0.62681499  0.09730635  1
  Ca  Ca14  1  0.72557549  0.66322040  0.24858722  1
  Ca  Ca15  1  0.88265874  0.75584374  0.78535224  1
  Ca  Ca16  1  0.14809451  0.74999988  0.89809471  1
  Ca  Ca17  1  0.02950868  0.78535228  0.40269337  1
  Ca  Ca18  1  0.09886105  0.12947916  0.98318593  1
  Ca  Ca19  1  0.14629320  0.01681426  0.61567555  1
  Ca  Ca20  1  0.59886175  0.61567568  0.96938259  1
  Ca  Ca21  1  0.35190549  0.60190529  0.75000012  1
  Ca  Ca22  1  0.14809467  0.89809464  0.25000003  1
  Ca  Ca23  1  0.58536654  0.24858707  0.02301159  1
  Ca  Ca24  1  0.09886175  0.46938259  0.11567568  1
  Ca  Ca25  1  0.91463346  0.47698841  0.25141293  1
  Ca  Ca26  1  0.64629320  0.11567555  0.51681426  1
  Ca  Ca27  1  0.41463364  0.16322034  0.43764528  1
  Ca  Ca28  1  0.35190533  0.24999997  0.60190536  1
  Ca  Ca29  1  0.08536636  0.06235472  0.33677966  1
  Ca  Ca30  1  0.61734138  0.40269365  0.87318501  1
  Ca  Ca31  1  0.97049143  0.25584366  0.37318487  1
  Ca  Ca32  1  0.72557524  0.56235474  0.47698850  1
  Ca  Ca33  1  0.77442451  0.25141278  0.83677960  1
  Ca  Ca34  1  0.61734126  0.71464776  0.74415626  1
  Ca  Ca35  1  0.11734126  0.24415626  0.21464776  1
  Ca  Ca36  1  0.27442476  0.43764526  0.52301150  1
  Ca  Ca37  1  0.38265862  0.59730635  0.12681499  1
  Ca  Ca38  1  0.52950857  0.12681513  0.24415634  1
  Ca  Ca39  1  0.11734138  0.37318501  0.90269365  1
  Ca  Ca40  1  0.35370658  0.96938176  0.87052104  1
  Ca  Ca41  1  0.40113825  0.38432432  0.03061741  1
  Ca  Ca42  1  0.08536654  0.52301159  0.74858707  1
  Ca  Ca43  1  0.59886105  0.48318593  0.62947916  1
  Ca  Ca44  1  0.40113895  0.51681407  0.37052084  1
  Ca  Ca45  1  0.85190549  0.25000012  0.10190529  1
  Ca  Ca46  1  0.22557549  0.74858722  0.16322040  1
  Ca  Ca47  1  0.90113895  0.87052084  0.01681407  1
  Ca  Ca48  1  0.97049132  0.21464772  0.59730663  1
  Ca  Ca49  1  0.90113825  0.53061741  0.88432432  1
  Ca  Ca50  1  0.85370680  0.98318574  0.38432445  1
  Ca  Ca51  1  0.47049143  0.87318487  0.75584366  1
  Ca  Ca52  1  0.77442476  0.02301150  0.93764526  1
  Ca  Ca53  1  0.27442451  0.33677960  0.75141278  1
  Ca  Ca54  1  0.02950857  0.74415634  0.62681513  1
  Ca  Ca55  1  0.64809451  0.39809471  0.24999988  1
  Ga  Ga56  1  0.75000005  0.87499977  0.12500032  1
  Ga  Ga57  1  0.74999995  0.37499968  0.62500023  1
  Ga  Ga58  1  0.25000005  0.62500032  0.37499977  1
  Ga  Ga59  1  0.24999995  0.12500023  0.87499968  1
  As  As60  1  0.89535683  0.82336055  0.47804551  1
  As  As61  1  0.34531504  0.52195444  0.91731119  1
  As  As62  1  0.65468496  0.47804556  0.08268881  1
  As  As63  1  0.88257987  0.07811890  0.18791220  1
  As  As64  1  0.39020685  0.19553915  0.07811904  1
  As  As65  1  0.84531504  0.41731119  0.02195444  1
  As  As66  1  0.75000000  0.12499983  0.37500017  1
  As  As67  1  0.61742013  0.31208780  0.42188110  1
  As  As68  1  0.39535668  0.91731122  0.07199606  1
  As  As69  1  0.10979315  0.42188096  0.30446085  1
  As  As70  1  0.75000000  0.25869212  0.24130788  1
  As  As71  1  0.34531517  0.32336055  0.42800389  1
  As  As72  1  0.10464332  0.42800394  0.58268878  1
  As  As73  1  0.60979336  0.30533248  0.68791233  1
  As  As74  1  0.38257987  0.68791220  0.57811890  1
  As  As75  1  0.11742023  0.69553916  0.30533234  1
  As  As76  1  0.15468483  0.07199611  0.17663945  1
  As  As77  1  0.75000000  0.99130805  0.50869195  1
  As  As78  1  0.88257977  0.30446084  0.69466766  1
  As  As79  1  0.98261592  0.24130775  0.99130769  1
  As  As80  1  0.10979336  0.18791233  0.80533248  1
  As  As81  1  0.25000000  0.87500017  0.62499983  1
  As  As82  1  0.39020664  0.69466752  0.31208767  1
  As  As83  1  0.15468496  0.58268881  0.97804556  1
  As  As84  1  0.89020685  0.57811904  0.69553915  1
  As  As85  1  0.38257977  0.19466766  0.80446084  1
  As  As86  1  0.39535683  0.97804551  0.32336055  1
  As  As87  1  0.89535668  0.57199606  0.41731122  1
  As  As88  1  0.25000000  0.00869195  0.49130805  1
  As  As89  1  0.61742023  0.80533234  0.19553916  1
  As  As90  1  0.65468483  0.67663945  0.57199611  1
  As  As91  1  0.75000000  0.62500000  0.87500000  1
  As  As92  1  0.48261592  0.49130769  0.74130775  1
  As  As93  1  0.01738408  0.75869225  0.00869231  1
  As  As94  1  0.60464332  0.08268878  0.92800394  1
  As  As95  1  0.25000000  0.37500000  0.12500000  1
  As  As96  1  0.51738408  0.50869231  0.25869225  1
  As  As97  1  0.84531517  0.92800389  0.82336055  1
  As  As98  1  0.60464317  0.02195449  0.67663945  1
  As  As99  1  0.25000000  0.74130788  0.75869212  1
  As  As100  1  0.10464317  0.17663945  0.52195449  1
  As  As101  1  0.89020664  0.81208767  0.19466752  1
  As  As102  1  0.11742013  0.92188110  0.81208780  1
  As  As103  1  0.60979315  0.80446085  0.92188096  1
