# generated using pymatgen
data_Gd3CuSnSe7
_symmetry_space_group_name_H-M   'P 1'
_cell_length_a   10.36984550
_cell_length_b   10.36984529
_cell_length_c   6.45313234
_cell_angle_alpha   90.00000000
_cell_angle_beta   90.00000000
_cell_angle_gamma   120.00000069
_symmetry_Int_Tables_number   1
_chemical_formula_structural   Gd3CuSnSe7
_chemical_formula_sum   'Gd6 Cu2 Sn2 Se14'
_cell_volume   600.96027291
_cell_formula_units_Z   2
loop_
 _symmetry_equiv_pos_site_id
 _symmetry_equiv_pos_as_xyz
  1  'x, y, z'
loop_
 _atom_site_type_symbol
 _atom_site_label
 _atom_site_symmetry_multiplicity
 _atom_site_fract_x
 _atom_site_fract_y
 _atom_site_fract_z
 _atom_site_occupancy
  Gd  Gd0  1  0.20877233  0.35716383  0.91504070  1
  Gd  Gd1  1  0.79122767  0.64283617  0.41504070  1
  Gd  Gd2  1  0.85160850  0.20877233  0.41504070  1
  Gd  Gd3  1  0.64283617  0.85160850  0.91504070  1
  Gd  Gd4  1  0.14839150  0.79122767  0.91504070  1
  Gd  Gd5  1  0.35716383  0.14839150  0.41504070  1
  Cu  Cu6  1  0.00000000  0.00000000  0.50005038  1
  Cu  Cu7  1  0.00000000  0.00000000  1.00005038  1
  Sn  Sn8  1  0.33333300  0.66666700  0.34209745  1
  Sn  Sn9  1  0.66666700  0.33333300  0.84209745  1
  Se  Se10  1  0.85063227  0.73791647  0.97578194  1
  Se  Se11  1  0.88728420  0.14936773  0.97578194  1
  Se  Se12  1  0.73791647  0.88728420  0.47578194  1
  Se  Se13  1  0.43819674  0.92075510  0.16333601  1
  Se  Se14  1  0.51744163  0.43819674  0.66333601  1
  Se  Se15  1  0.11271580  0.85063227  0.47578194  1
  Se  Se16  1  0.48255837  0.56180326  0.16333601  1
  Se  Se17  1  0.14936773  0.26208353  0.47578194  1
  Se  Se18  1  0.56180326  0.07924490  0.66333601  1
  Se  Se19  1  0.66666700  0.33333300  0.23667621  1
  Se  Se20  1  0.33333300  0.66666700  0.73667621  1
  Se  Se21  1  0.07924490  0.51744163  0.16333601  1
  Se  Se22  1  0.26208353  0.11271580  0.97578194  1
  Se  Se23  1  0.92075510  0.48255837  0.66333601  1
