# generated using pymatgen
data_YbAu3
_symmetry_space_group_name_H-M   'P 1'
_cell_length_a   5.07578009
_cell_length_b   5.33798624
_cell_length_c   5.83008986
_cell_angle_alpha   90.00000000
_cell_angle_beta   90.00000000
_cell_angle_gamma   90.00000000
_symmetry_Int_Tables_number   1
_chemical_formula_structural   YbAu3
_chemical_formula_sum   'Yb2 Au6'
_cell_volume   157.96304485
_cell_formula_units_Z   2
loop_
 _symmetry_equiv_pos_site_id
 _symmetry_equiv_pos_as_xyz
  1  'x, y, z'
loop_
 _atom_site_type_symbol
 _atom_site_label
 _atom_site_symmetry_multiplicity
 _atom_site_fract_x
 _atom_site_fract_y
 _atom_site_fract_z
 _atom_site_occupancy
  Yb  Yb0  1  0.25000000  0.65627499  0.25000000  1
  Yb  Yb1  1  0.75000000  0.34372501  0.75000000  1
  Au  Au2  1  0.75000000  0.83688884  0.00233257  1
  Au  Au3  1  0.25000000  0.16311116  0.50233257  1
  Au  Au4  1  0.25000000  0.16311116  0.99766743  1
  Au  Au5  1  0.75000000  0.83688884  0.49766743  1
  Au  Au6  1  0.25000000  0.67004816  0.75000000  1
  Au  Au7  1  0.75000000  0.32995184  0.25000000  1
