# generated using pymatgen
data_Hg9Bi2(AsBr3)4
_symmetry_space_group_name_H-M   'P 1'
_cell_length_a   11.23111674
_cell_length_b   11.23111674
_cell_length_c   29.20922877
_cell_angle_alpha   90.00000000
_cell_angle_beta   90.00000000
_cell_angle_gamma   90.00000000
_symmetry_Int_Tables_number   1
_chemical_formula_structural   Hg9Bi2(AsBr3)4
_chemical_formula_sum   'Hg36 Bi8 As16 Br48'
_cell_volume   3684.39320868
_cell_formula_units_Z   4
loop_
 _symmetry_equiv_pos_site_id
 _symmetry_equiv_pos_as_xyz
  1  'x, y, z'
loop_
 _atom_site_type_symbol
 _atom_site_label
 _atom_site_symmetry_multiplicity
 _atom_site_fract_x
 _atom_site_fract_y
 _atom_site_fract_z
 _atom_site_occupancy
  Hg  Hg0  1  0.83263978  0.53196959  0.99853851  1
  Hg  Hg1  1  0.46803041  0.83263978  0.74853851  1
  Hg  Hg2  1  0.89149367  0.19530539  0.95044284  1
  Hg  Hg3  1  0.42602120  0.24447718  0.88288192  1
  Hg  Hg4  1  0.57444942  0.16588608  0.69905265  1
  Hg  Hg5  1  0.45014558  0.31008455  0.57057483  1
  Hg  Hg6  1  0.02957434  0.89724004  0.89013492  1
  Hg  Hg7  1  0.51050998  0.56040954  0.94422701  1
  Hg  Hg8  1  0.10850633  0.80469461  0.45044284  1
  Hg  Hg9  1  0.73310217  0.86420261  0.95384690  1
  Hg  Hg10  1  0.19530539  0.10850633  0.20044284  1
  Hg  Hg11  1  0.02709101  0.26842054  0.07400741  1
  Hg  Hg12  1  0.97042566  0.10275996  0.39013492  1
  Hg  Hg13  1  0.13579739  0.73310217  0.70384690  1
  Hg  Hg14  1  0.43959046  0.51050998  0.69422701  1
  Hg  Hg15  1  0.83411392  0.57444942  0.44905265  1
  Hg  Hg16  1  0.48949002  0.43959046  0.44422701  1
  Hg  Hg17  1  0.54985442  0.68991545  0.07057483  1
  Hg  Hg18  1  0.56040954  0.48949002  0.19422701  1
  Hg  Hg19  1  0.86420261  0.26689783  0.20384690  1
  Hg  Hg20  1  0.16736022  0.46803041  0.49853851  1
  Hg  Hg21  1  0.89724004  0.97042566  0.14013492  1
  Hg  Hg22  1  0.26842054  0.97290899  0.32400741  1
  Hg  Hg23  1  0.80469461  0.89149367  0.70044284  1
  Hg  Hg24  1  0.42555058  0.83411392  0.19905265  1
  Hg  Hg25  1  0.68991545  0.45014558  0.32057483  1
  Hg  Hg26  1  0.57397880  0.75552282  0.38288192  1
  Hg  Hg27  1  0.75552282  0.42602120  0.63288192  1
  Hg  Hg28  1  0.31008455  0.54985442  0.82057483  1
  Hg  Hg29  1  0.73157946  0.02709101  0.82400741  1
  Hg  Hg30  1  0.24447718  0.57397880  0.13288192  1
  Hg  Hg31  1  0.26689783  0.13579739  0.45384690  1
  Hg  Hg32  1  0.53196959  0.16736022  0.24853851  1
  Hg  Hg33  1  0.97290899  0.73157946  0.57400741  1
  Hg  Hg34  1  0.10275996  0.02957434  0.64013492  1
  Hg  Hg35  1  0.16588608  0.42555058  0.94905265  1
  Bi  Bi36  1  0.77390076  0.13410886  0.50902726  1
  Bi  Bi37  1  0.56845341  0.18705659  0.06299629  1
  Bi  Bi38  1  0.81294341  0.56845341  0.81299629  1
  Bi  Bi39  1  0.18705659  0.43154659  0.31299629  1
  Bi  Bi40  1  0.13410886  0.22609924  0.75902726  1
  Bi  Bi41  1  0.22609924  0.86589114  0.00902726  1
  Bi  Bi42  1  0.43154659  0.81294341  0.56299629  1
  Bi  Bi43  1  0.86589114  0.77390076  0.25902726  1
  As  As44  1  0.32431957  0.65830347  0.74398928  1
  As  As45  1  0.34921461  0.45179545  0.89815893  1
  As  As46  1  0.34169653  0.32431957  0.49398928  1
  As  As47  1  0.63538392  0.98514595  0.74627097  1
  As  As48  1  0.01334346  0.16153217  0.15151072  1
  As  As49  1  0.98514595  0.36461608  0.99627097  1
  As  As50  1  0.65078539  0.54820455  0.39815893  1
  As  As51  1  0.01485405  0.63538392  0.49627097  1
  As  As52  1  0.83846783  0.01334346  0.90151072  1
  As  As53  1  0.45179545  0.65078539  0.14815893  1
  As  As54  1  0.65830347  0.67568043  0.99398928  1
  As  As55  1  0.54820455  0.34921461  0.64815893  1
  As  As56  1  0.67568043  0.34169653  0.24398928  1
  As  As57  1  0.36461608  0.01485405  0.24627097  1
  As  As58  1  0.16153217  0.98665654  0.40151072  1
  As  As59  1  0.98665654  0.83846783  0.65151072  1
  Br  Br60  1  0.79449653  0.10247555  0.60138291  1
  Br  Br61  1  0.23171238  0.79651954  0.89860968  1
  Br  Br62  1  0.04727627  0.47944385  0.76904548  1
  Br  Br63  1  0.38100688  0.30244911  0.34962480  1
  Br  Br64  1  0.61243450  0.70007125  0.27076720  1
  Br  Br65  1  0.76828762  0.20348046  0.39860968  1
  Br  Br66  1  0.89752445  0.79449653  0.35138291  1
  Br  Br67  1  0.20348046  0.23171238  0.64860968  1
  Br  Br68  1  0.39338968  0.70268218  0.47206429  1
  Br  Br69  1  0.30244911  0.61899312  0.59962480  1
  Br  Br70  1  0.69755089  0.38100688  0.09962480  1
  Br  Br71  1  0.61899312  0.69755089  0.84962480  1
  Br  Br72  1  0.20550347  0.89752445  0.10138291  1
  Br  Br73  1  0.52055615  0.04727627  0.51904548  1
  Br  Br74  1  0.90520875  0.16548678  0.72964086  1
  Br  Br75  1  0.29731782  0.39338968  0.22206429  1
  Br  Br76  1  0.16548678  0.09479125  0.97964086  1
  Br  Br77  1  0.70007125  0.38756550  0.52076720  1
  Br  Br78  1  0.58606346  0.06501339  0.14785897  1
  Br  Br79  1  0.06372463  0.20095894  0.29279930  1
  Br  Br80  1  0.41393654  0.93498661  0.64785897  1
  Br  Br81  1  0.51803261  0.97049022  0.37386861  1
  Br  Br82  1  0.28935258  0.65302703  0.33573777  1
  Br  Br83  1  0.60661032  0.29731782  0.97206429  1
  Br  Br84  1  0.00980123  0.21188549  0.50593967  1
  Br  Br85  1  0.99019877  0.78811451  0.00593967  1
  Br  Br86  1  0.93498661  0.58606346  0.89785897  1
  Br  Br87  1  0.09479125  0.83451322  0.22964086  1
  Br  Br88  1  0.78811451  0.00980123  0.25593967  1
  Br  Br89  1  0.65302703  0.71064742  0.58573777  1
  Br  Br90  1  0.95272373  0.52055615  0.26904548  1
  Br  Br91  1  0.34697297  0.28935258  0.08573777  1
  Br  Br92  1  0.93627537  0.79904106  0.79279930  1
  Br  Br93  1  0.29992875  0.61243450  0.02076720  1
  Br  Br94  1  0.21188549  0.99019877  0.75593967  1
  Br  Br95  1  0.79904106  0.06372463  0.04279930  1
  Br  Br96  1  0.71064742  0.34697297  0.83573777  1
  Br  Br97  1  0.38756550  0.29992875  0.77076720  1
  Br  Br98  1  0.10247555  0.20550347  0.85138291  1
  Br  Br99  1  0.97049022  0.48196739  0.62386861  1
  Br  Br100  1  0.47944385  0.95272373  0.01904548  1
  Br  Br101  1  0.02950978  0.51803261  0.12386861  1
  Br  Br102  1  0.79651954  0.76828762  0.14860968  1
  Br  Br103  1  0.48196739  0.02950978  0.87386861  1
  Br  Br104  1  0.06501339  0.41393654  0.39785897  1
  Br  Br105  1  0.70268218  0.60661032  0.72206429  1
  Br  Br106  1  0.20095894  0.93627537  0.54279930  1
  Br  Br107  1  0.83451322  0.90520875  0.47964086  1
