# generated using pymatgen
data_Na6ZnSn2
_symmetry_space_group_name_H-M   'P 1'
_cell_length_a   5.49987350
_cell_length_b   5.76296272
_cell_length_c   9.41209362
_cell_angle_alpha   96.91935564
_cell_angle_beta   90.00000000
_cell_angle_gamma   118.50100236
_symmetry_Int_Tables_number   1
_chemical_formula_structural   Na6ZnSn2
_chemical_formula_sum   'Na6 Zn1 Sn2'
_cell_volume   259.69258827
_cell_formula_units_Z   1
loop_
 _symmetry_equiv_pos_site_id
 _symmetry_equiv_pos_as_xyz
  1  'x, y, z'
loop_
 _atom_site_type_symbol
 _atom_site_label
 _atom_site_symmetry_multiplicity
 _atom_site_fract_x
 _atom_site_fract_y
 _atom_site_fract_z
 _atom_site_occupancy
  Na  Na0  1  0.47027416  0.94054831  0.27536529  1
  Na  Na1  1  0.17353088  0.34706177  0.59088524  1
  Na  Na2  1  0.29291312  0.58582624  0.92983060  1
  Na  Na3  1  0.82646912  0.65293823  0.40911476  1
  Na  Na4  1  0.52972584  0.05945169  0.72463471  1
  Na  Na5  1  0.70708688  0.41417376  0.07016940  1
  Zn  Zn6  1  0.00000000  0.00000000  0.00000000  1
  Sn  Sn7  1  0.14561323  0.29122647  0.25063244  1
  Sn  Sn8  1  0.85438677  0.70877353  0.74936756  1
