# generated using pymatgen
data_K2Hg(PSe3)2
_symmetry_space_group_name_H-M   'P 1'
_cell_length_a   7.44604511
_cell_length_b   13.31263685
_cell_length_c   14.59300489
_cell_angle_alpha   110.42955817
_cell_angle_beta   90.00000000
_cell_angle_gamma   90.00000000
_symmetry_Int_Tables_number   1
_chemical_formula_structural   K2Hg(PSe3)2
_chemical_formula_sum   'K8 Hg4 P8 Se24'
_cell_volume   1355.56816114
_cell_formula_units_Z   4
loop_
 _symmetry_equiv_pos_site_id
 _symmetry_equiv_pos_as_xyz
  1  'x, y, z'
loop_
 _atom_site_type_symbol
 _atom_site_label
 _atom_site_symmetry_multiplicity
 _atom_site_fract_x
 _atom_site_fract_y
 _atom_site_fract_z
 _atom_site_occupancy
  K  K0  1  0.55397127  0.59935291  0.21581726  1
  K  K1  1  0.96002890  0.90200496  0.62056818  1
  K  K2  1  0.94602873  0.59935291  0.71581726  1
  K  K3  1  0.03997110  0.09799504  0.37943182  1
  K  K4  1  0.05397127  0.40064709  0.28418274  1
  K  K5  1  0.44602873  0.40064709  0.78418274  1
  K  K6  1  0.46002890  0.09799504  0.87943182  1
  K  K7  1  0.53997110  0.90200496  0.12056818  1
  Hg  Hg8  1  0.60803436  0.25759557  0.52206373  1
  Hg  Hg9  1  0.89196564  0.25759557  0.02206373  1
  Hg  Hg10  1  0.39196564  0.74240443  0.47793627  1
  Hg  Hg11  1  0.10803436  0.74240443  0.97793627  1
  P  P12  1  0.03748389  0.03921578  0.08247607  1
  P  P13  1  0.61208462  0.48153211  0.44054273  1
  P  P14  1  0.11208462  0.51846789  0.05945727  1
  P  P15  1  0.38791538  0.51846789  0.55945727  1
  P  P16  1  0.96251611  0.96078422  0.91752393  1
  P  P17  1  0.46251611  0.03921578  0.58247607  1
  P  P18  1  0.53748389  0.96078422  0.41752393  1
  P  P19  1  0.88791538  0.48153211  0.94054273  1
  Se  Se20  1  0.16863995  0.59777870  0.50199158  1
  Se  Se21  1  0.01104655  0.61694066  0.20141949  1
  Se  Se22  1  0.99071619  0.09004598  0.85451166  1
  Se  Se23  1  0.00928381  0.90995402  0.14548834  1
  Se  Se24  1  0.72022922  0.63996758  0.44554621  1
  Se  Se25  1  0.19806450  0.11172776  0.60208295  1
  Se  Se26  1  0.83136005  0.40222130  0.49800842  1
  Se  Se27  1  0.81545832  0.15714782  0.14785257  1
  Se  Se28  1  0.80193550  0.88827224  0.39791705  1
  Se  Se29  1  0.98895345  0.38305934  0.79858051  1
  Se  Se30  1  0.33136005  0.59777870  0.00199158  1
  Se  Se31  1  0.30193550  0.11172776  0.10208295  1
  Se  Se32  1  0.68454168  0.15714782  0.64785257  1
  Se  Se33  1  0.31545832  0.84285218  0.35214743  1
  Se  Se34  1  0.66863995  0.40222130  0.99800842  1
  Se  Se35  1  0.51104655  0.38305934  0.29858051  1
  Se  Se36  1  0.49071619  0.90995402  0.64548834  1
  Se  Se37  1  0.48895345  0.61694066  0.70141949  1
  Se  Se38  1  0.18454168  0.84285218  0.85214743  1
  Se  Se39  1  0.50928381  0.09004598  0.35451166  1
  Se  Se40  1  0.22022922  0.36003242  0.05445379  1
  Se  Se41  1  0.27977078  0.36003242  0.55445379  1
  Se  Se42  1  0.69806450  0.88827224  0.89791705  1
  Se  Se43  1  0.77977078  0.63996758  0.94554621  1
