# generated using pymatgen
data_K4GeSe4
_symmetry_space_group_name_H-M   'P 1'
_cell_length_a   13.47691382
_cell_length_b   13.47691382
_cell_length_c   13.47691382
_cell_angle_alpha   90.00000000
_cell_angle_beta   90.00000000
_cell_angle_gamma   90.00000000
_symmetry_Int_Tables_number   1
_chemical_formula_structural   K4GeSe4
_chemical_formula_sum   'K32 Ge8 Se32'
_cell_volume   2447.77420413
_cell_formula_units_Z   8
loop_
 _symmetry_equiv_pos_site_id
 _symmetry_equiv_pos_as_xyz
  1  'x, y, z'
loop_
 _atom_site_type_symbol
 _atom_site_label
 _atom_site_symmetry_multiplicity
 _atom_site_fract_x
 _atom_site_fract_y
 _atom_site_fract_z
 _atom_site_occupancy
  K  K0  1  0.41160427  0.14906391  0.36758335  1
  K  K1  1  0.85027169  0.85027169  0.14972831  1
  K  K2  1  0.85093609  0.36758335  0.58839573  1
  K  K3  1  0.86758335  0.35093609  0.08839573  1
  K  K4  1  0.85093609  0.63241665  0.41160427  1
  K  K5  1  0.35093609  0.08839573  0.86758335  1
  K  K6  1  0.91160427  0.86758335  0.64906391  1
  K  K7  1  0.85027169  0.14972831  0.85027169  1
  K  K8  1  0.64972831  0.35027169  0.35027169  1
  K  K9  1  0.14972831  0.85027169  0.85027169  1
  K  K10  1  0.64972831  0.64972831  0.64972831  1
  K  K11  1  0.08839573  0.86758335  0.35093609  1
  K  K12  1  0.35027169  0.64972831  0.35027169  1
  K  K13  1  0.36758335  0.58839573  0.85093609  1
  K  K14  1  0.13241665  0.64906391  0.08839573  1
  K  K15  1  0.63241665  0.58839573  0.14906391  1
  K  K16  1  0.58839573  0.85093609  0.36758335  1
  K  K17  1  0.14906391  0.36758335  0.41160427  1
  K  K18  1  0.64906391  0.91160427  0.86758335  1
  K  K19  1  0.14906391  0.63241665  0.58839573  1
  K  K20  1  0.63241665  0.41160427  0.85093609  1
  K  K21  1  0.13241665  0.35093609  0.91160427  1
  K  K22  1  0.35093609  0.91160427  0.13241665  1
  K  K23  1  0.58839573  0.14906391  0.63241665  1
  K  K24  1  0.64906391  0.08839573  0.13241665  1
  K  K25  1  0.86758335  0.64906391  0.91160427  1
  K  K26  1  0.08839573  0.13241665  0.64906391  1
  K  K27  1  0.14972831  0.14972831  0.14972831  1
  K  K28  1  0.35027169  0.35027169  0.64972831  1
  K  K29  1  0.91160427  0.13241665  0.35093609  1
  K  K30  1  0.36758335  0.41160427  0.14906391  1
  K  K31  1  0.41160427  0.85093609  0.63241665  1
  Ge  Ge32  1  0.50000000  0.50000000  0.50000000  1
  Ge  Ge33  1  0.00000000  0.50000000  0.25000000  1
  Ge  Ge34  1  0.00000000  0.50000000  0.75000000  1
  Ge  Ge35  1  0.50000000  0.25000000  0.00000000  1
  Ge  Ge36  1  0.00000000  0.00000000  0.00000000  1
  Ge  Ge37  1  0.75000000  0.00000000  0.50000000  1
  Ge  Ge38  1  0.50000000  0.75000000  0.00000000  1
  Ge  Ge39  1  0.25000000  0.00000000  0.50000000  1
  Se  Se40  1  0.88668790  0.59757003  0.15355847  1
  Se  Se41  1  0.09757003  0.38668790  0.65355847  1
  Se  Se42  1  0.84644153  0.11331210  0.59757003  1
  Se  Se43  1  0.40242997  0.15355847  0.11331210  1
  Se  Se44  1  0.61331210  0.34644153  0.09757003  1
  Se  Se45  1  0.61331210  0.65355847  0.90242997  1
  Se  Se46  1  0.60241477  0.39758523  0.60241477  1
  Se  Se47  1  0.38668790  0.65355847  0.09757003  1
  Se  Se48  1  0.84644153  0.88668790  0.40242997  1
  Se  Se49  1  0.15355847  0.88668790  0.59757003  1
  Se  Se50  1  0.39758523  0.39758523  0.39758523  1
  Se  Se51  1  0.90242997  0.38668790  0.34644153  1
  Se  Se52  1  0.90242997  0.61331210  0.65355847  1
  Se  Se53  1  0.10241477  0.10241477  0.89758523  1
  Se  Se54  1  0.65355847  0.09757003  0.38668790  1
  Se  Se55  1  0.60241477  0.60241477  0.39758523  1
  Se  Se56  1  0.15355847  0.11331210  0.40242997  1
  Se  Se57  1  0.59757003  0.15355847  0.88668790  1
  Se  Se58  1  0.34644153  0.09757003  0.61331210  1
  Se  Se59  1  0.89758523  0.10241477  0.10241477  1
  Se  Se60  1  0.34644153  0.90242997  0.38668790  1
  Se  Se61  1  0.89758523  0.89758523  0.89758523  1
  Se  Se62  1  0.88668790  0.40242997  0.84644153  1
  Se  Se63  1  0.59757003  0.84644153  0.11331210  1
  Se  Se64  1  0.10241477  0.89758523  0.10241477  1
  Se  Se65  1  0.38668790  0.34644153  0.90242997  1
  Se  Se66  1  0.11331210  0.59757003  0.84644153  1
  Se  Se67  1  0.65355847  0.90242997  0.61331210  1
  Se  Se68  1  0.09757003  0.61331210  0.34644153  1
  Se  Se69  1  0.39758523  0.60241477  0.60241477  1
  Se  Se70  1  0.11331210  0.40242997  0.15355847  1
  Se  Se71  1  0.40242997  0.84644153  0.88668790  1
