# generated using pymatgen
data_Ba3GeI2
_symmetry_space_group_name_H-M   'P 1'
_cell_length_a   8.77977143
_cell_length_b   8.77501473
_cell_length_c   15.81721293
_cell_angle_alpha   100.84992065
_cell_angle_beta   100.84092189
_cell_angle_gamma   108.76957297
_symmetry_Int_Tables_number   1
_chemical_formula_structural   Ba3GeI2
_chemical_formula_sum   'Ba12 Ge4 I8'
_cell_volume   1091.90654550
_cell_formula_units_Z   4
loop_
 _symmetry_equiv_pos_site_id
 _symmetry_equiv_pos_as_xyz
  1  'x, y, z'
loop_
 _atom_site_type_symbol
 _atom_site_label
 _atom_site_symmetry_multiplicity
 _atom_site_fract_x
 _atom_site_fract_y
 _atom_site_fract_z
 _atom_site_occupancy
  Ba  Ba0  1  0.83371475  0.58373750  0.74997663  1
  Ba  Ba1  1  0.58371568  0.83374145  0.24997852  1
  Ba  Ba2  1  0.96310871  0.25088118  0.93218390  1
  Ba  Ba3  1  0.68126458  0.46908158  0.43215835  1
  Ba  Ba4  1  0.46910127  0.68132565  0.93216848  1
  Ba  Ba5  1  0.03689129  0.74911882  0.06781610  1
  Ba  Ba6  1  0.25095139  0.96311564  0.43219202  1
  Ba  Ba7  1  0.31873542  0.53091842  0.56784165  1
  Ba  Ba8  1  0.16628525  0.41626250  0.25002337  1
  Ba  Ba9  1  0.41628432  0.16625855  0.75002148  1
  Ba  Ba10  1  0.74904861  0.03688436  0.56780798  1
  Ba  Ba11  1  0.53089873  0.31867435  0.06783152  1
  Ge  Ge12  1  0.70912028  0.45910071  0.91821779  1
  Ge  Ge13  1  0.54090804  0.29090108  0.58179892  1
  Ge  Ge14  1  0.45909196  0.70909892  0.41820108  1
  Ge  Ge15  1  0.29087972  0.54089929  0.08178221  1
  I  I16  1  0.95234286  0.20236020  0.40463619  1
  I  I17  1  0.04765714  0.79763980  0.59536381  1
  I  I18  1  0.62910298  0.87907837  0.75809111  1
  I  I19  1  0.79764839  0.04768757  0.09538676  1
  I  I20  1  0.37089702  0.12092163  0.24190889  1
  I  I21  1  0.12090865  0.37090008  0.74190685  1
  I  I22  1  0.20235161  0.95231243  0.90461324  1
  I  I23  1  0.87909135  0.62909992  0.25809315  1
