# generated using pymatgen
data_Pr3SiSe2N3
_symmetry_space_group_name_H-M   'P 1'
_cell_length_a   11.59070505
_cell_length_b   11.59070467
_cell_length_c   11.59070459
_cell_angle_alpha   111.30250934
_cell_angle_beta   111.30250856
_cell_angle_gamma   111.30250635
_symmetry_Int_Tables_number   1
_chemical_formula_structural   Pr3SiSe2N3
_chemical_formula_sum   'Pr18 Si6 Se12 N18'
_cell_volume   1110.01887176
_cell_formula_units_Z   6
loop_
 _symmetry_equiv_pos_site_id
 _symmetry_equiv_pos_as_xyz
  1  'x, y, z'
loop_
 _atom_site_type_symbol
 _atom_site_label
 _atom_site_symmetry_multiplicity
 _atom_site_fract_x
 _atom_site_fract_y
 _atom_site_fract_z
 _atom_site_occupancy
  Pr  Pr0  1  0.03156304  0.75078558  0.87042597  1
  Pr  Pr1  1  0.28554922  0.60231012  0.65707073  1
  Pr  Pr2  1  0.96843696  0.24921442  0.12957403  1
  Pr  Pr3  1  0.39768988  0.34292927  0.71445078  1
  Pr  Pr4  1  0.44313541  0.95816619  0.16910454  1
  Pr  Pr5  1  0.71445078  0.39768988  0.34292927  1
  Pr  Pr6  1  0.75078558  0.87042597  0.03156304  1
  Pr  Pr7  1  0.24921442  0.12957403  0.96843696  1
  Pr  Pr8  1  0.04183381  0.83089546  0.55686459  1
  Pr  Pr9  1  0.65707073  0.28554922  0.60231012  1
  Pr  Pr10  1  0.95816619  0.16910454  0.44313541  1
  Pr  Pr11  1  0.87042597  0.03156304  0.75078558  1
  Pr  Pr12  1  0.16910454  0.44313541  0.95816619  1
  Pr  Pr13  1  0.34292927  0.71445078  0.39768988  1
  Pr  Pr14  1  0.55686459  0.04183381  0.83089546  1
  Pr  Pr15  1  0.12957403  0.96843696  0.24921442  1
  Pr  Pr16  1  0.83089546  0.55686459  0.04183381  1
  Pr  Pr17  1  0.60231012  0.65707073  0.28554922  1
  Si  Si18  1  0.60926787  0.78878159  0.71046128  1
  Si  Si19  1  0.21121841  0.28953872  0.39073213  1
  Si  Si20  1  0.78878159  0.71046128  0.60926787  1
  Si  Si21  1  0.28953872  0.39073213  0.21121841  1
  Si  Si22  1  0.71046128  0.60926787  0.78878159  1
  Si  Si23  1  0.39073213  0.21121841  0.28953872  1
  Se  Se24  1  0.12272990  0.16533036  0.70726166  1
  Se  Se25  1  0.70726166  0.12272990  0.16533036  1
  Se  Se26  1  0.55924563  0.35303260  0.02572471  1
  Se  Se27  1  0.02572471  0.55924563  0.35303260  1
  Se  Se28  1  0.64696740  0.97427529  0.44075437  1
  Se  Se29  1  0.97427529  0.44075437  0.64696740  1
  Se  Se30  1  0.83466964  0.29273834  0.87727010  1
  Se  Se31  1  0.29273834  0.87727010  0.83466964  1
  Se  Se32  1  0.87727010  0.83466964  0.29273834  1
  Se  Se33  1  0.35303260  0.02572471  0.55924563  1
  Se  Se34  1  0.44075437  0.64696740  0.97427529  1
  Se  Se35  1  0.16533036  0.70726166  0.12272990  1
  N  N36  1  0.21090452  0.35330489  0.55118801  1
  N  N37  1  0.02223340  0.12177841  0.25052860  1
  N  N38  1  0.58443201  0.66198326  0.76164501  1
  N  N39  1  0.97776660  0.87822159  0.74947140  1
  N  N40  1  0.74947140  0.97776660  0.87822159  1
  N  N41  1  0.41556799  0.33801674  0.23835499  1
  N  N42  1  0.87822159  0.74947140  0.97776660  1
  N  N43  1  0.12177841  0.25052860  0.02223340  1
  N  N44  1  0.66198326  0.76164501  0.58443201  1
  N  N45  1  0.25052860  0.02223340  0.12177841  1
  N  N46  1  0.33801674  0.23835499  0.41556799  1
  N  N47  1  0.64669511  0.44881199  0.78909548  1
  N  N48  1  0.35330489  0.55118801  0.21090452  1
  N  N49  1  0.23835499  0.41556799  0.33801674  1
  N  N50  1  0.78909548  0.64669511  0.44881199  1
  N  N51  1  0.76164501  0.58443201  0.66198326  1
  N  N52  1  0.44881199  0.78909548  0.64669511  1
  N  N53  1  0.55118801  0.21090452  0.35330489  1
