# generated using pymatgen
data_Pr2Sc3Si4
_symmetry_space_group_name_H-M   'P 1'
_cell_length_a   7.25102478
_cell_length_b   7.55038746
_cell_length_c   14.25646194
_cell_angle_alpha   90.00000000
_cell_angle_beta   90.00000000
_cell_angle_gamma   90.00000000
_symmetry_Int_Tables_number   1
_chemical_formula_structural   Pr2Sc3Si4
_chemical_formula_sum   'Pr8 Sc12 Si16'
_cell_volume   780.51344223
_cell_formula_units_Z   4
loop_
 _symmetry_equiv_pos_site_id
 _symmetry_equiv_pos_as_xyz
  1  'x, y, z'
loop_
 _atom_site_type_symbol
 _atom_site_label
 _atom_site_symmetry_multiplicity
 _atom_site_fract_x
 _atom_site_fract_y
 _atom_site_fract_z
 _atom_site_occupancy
  Pr  Pr0  1  0.01200156  0.17240213  0.59759444  1
  Pr  Pr1  1  0.51200156  0.32759787  0.59759444  1
  Pr  Pr2  1  0.48799844  0.67240213  0.09759444  1
  Pr  Pr3  1  0.48799844  0.67240213  0.40240556  1
  Pr  Pr4  1  0.98799844  0.82759787  0.40240556  1
  Pr  Pr5  1  0.98799844  0.82759787  0.09759444  1
  Pr  Pr6  1  0.51200156  0.32759787  0.90240556  1
  Pr  Pr7  1  0.01200156  0.17240213  0.90240556  1
  Sc  Sc8  1  0.32902502  0.17568160  0.37487678  1
  Sc  Sc9  1  0.67097498  0.82431840  0.62512322  1
  Sc  Sc10  1  0.66181957  0.99981952  0.25000000  1
  Sc  Sc11  1  0.17097498  0.67568160  0.62512322  1
  Sc  Sc12  1  0.82902502  0.32431840  0.12512322  1
  Sc  Sc13  1  0.82902502  0.32431840  0.37487678  1
  Sc  Sc14  1  0.83818043  0.49981952  0.75000000  1
  Sc  Sc15  1  0.33818043  0.00018048  0.75000000  1
  Sc  Sc16  1  0.32902502  0.17568160  0.12512322  1
  Sc  Sc17  1  0.17097498  0.67568160  0.87487678  1
  Sc  Sc18  1  0.67097498  0.82431840  0.87487678  1
  Sc  Sc19  1  0.16181957  0.50018048  0.25000000  1
  Si  Si20  1  0.28718628  0.88254686  0.25000000  1
  Si  Si21  1  0.46500359  0.62465371  0.75000000  1
  Si  Si22  1  0.03499641  0.12465371  0.25000000  1
  Si  Si23  1  0.53499641  0.37534629  0.25000000  1
  Si  Si24  1  0.15137492  0.46305483  0.46033619  1
  Si  Si25  1  0.96500359  0.87534629  0.75000000  1
  Si  Si26  1  0.71281372  0.11745314  0.75000000  1
  Si  Si27  1  0.84862508  0.53694517  0.96033619  1
  Si  Si28  1  0.34862508  0.96305483  0.96033619  1
  Si  Si29  1  0.15137492  0.46305483  0.03966381  1
  Si  Si30  1  0.65137492  0.03694517  0.46033619  1
  Si  Si31  1  0.34862508  0.96305483  0.53966381  1
  Si  Si32  1  0.84862508  0.53694517  0.53966381  1
  Si  Si33  1  0.78718628  0.61745314  0.25000000  1
  Si  Si34  1  0.21281372  0.38254686  0.75000000  1
  Si  Si35  1  0.65137492  0.03694517  0.03966381  1
