# generated using pymatgen
data_Ba3SiI2
_symmetry_space_group_name_H-M   'P 1'
_cell_length_a   8.77070701
_cell_length_b   8.77070161
_cell_length_c   15.77754167
_cell_angle_alpha   100.88776585
_cell_angle_beta   100.88779625
_cell_angle_gamma   108.70015821
_symmetry_Int_Tables_number   1
_chemical_formula_structural   Ba3SiI2
_chemical_formula_sum   'Ba12 Si4 I8'
_cell_volume   1087.57312586
_cell_formula_units_Z   4
loop_
 _symmetry_equiv_pos_site_id
 _symmetry_equiv_pos_as_xyz
  1  'x, y, z'
loop_
 _atom_site_type_symbol
 _atom_site_label
 _atom_site_symmetry_multiplicity
 _atom_site_fract_x
 _atom_site_fract_y
 _atom_site_fract_z
 _atom_site_occupancy
  Ba  Ba0  1  0.31996042  0.53033589  0.56714009  1
  Ba  Ba1  1  0.46966377  0.68003911  0.93286008  1
  Ba  Ba2  1  0.25282573  0.96322657  0.43288102  1
  Ba  Ba3  1  0.74717427  0.03677343  0.56711898  1
  Ba  Ba4  1  0.41799479  0.16801689  0.74998578  1
  Ba  Ba5  1  0.68003958  0.46966411  0.43285991  1
  Ba  Ba6  1  0.96322676  0.25282570  0.93288114  1
  Ba  Ba7  1  0.53033623  0.31996089  0.06713992  1
  Ba  Ba8  1  0.58200521  0.83198311  0.25001422  1
  Ba  Ba9  1  0.16801655  0.41799490  0.24998539  1
  Ba  Ba10  1  0.03677324  0.74717430  0.06711886  1
  Ba  Ba11  1  0.83198345  0.58200510  0.75001461  1
  Si  Si12  1  0.45909698  0.70911208  0.41828526  1
  Si  Si13  1  0.29088817  0.54090291  0.08171479  1
  Si  Si14  1  0.54090302  0.29088792  0.58171474  1
  Si  Si15  1  0.70911183  0.45909709  0.91828521  1
  I  I16  1  0.04765321  0.79751026  0.59523684  1
  I  I17  1  0.12089912  0.37088217  0.74195285  1
  I  I18  1  0.62911776  0.87910101  0.75804714  1
  I  I19  1  0.95234679  0.20248974  0.40476316  1
  I  I20  1  0.37088224  0.12089899  0.24195286  1
  I  I21  1  0.20248985  0.95234685  0.90476307  1
  I  I22  1  0.79751015  0.04765315  0.09523693  1
  I  I23  1  0.87910088  0.62911783  0.25804715  1
