# generated using pymatgen
data_Ho10Si17
_symmetry_space_group_name_H-M   'P 1'
_cell_length_a   6.67952772
_cell_length_b   8.23263663
_cell_length_c   10.93591345
_cell_angle_alpha   112.11109544
_cell_angle_beta   107.78187922
_cell_angle_gamma   90.00000040
_symmetry_Int_Tables_number   1
_chemical_formula_structural   Ho10Si17
_chemical_formula_sum   'Ho10 Si17'
_cell_volume   526.00031506
_cell_formula_units_Z   1
loop_
 _symmetry_equiv_pos_site_id
 _symmetry_equiv_pos_as_xyz
  1  'x, y, z'
loop_
 _atom_site_type_symbol
 _atom_site_label
 _atom_site_symmetry_multiplicity
 _atom_site_fract_x
 _atom_site_fract_y
 _atom_site_fract_z
 _atom_site_occupancy
  Ho  Ho0  1  0.56384602  0.05224064  0.60038017  1
  Ho  Ho1  1  0.36884697  0.35262211  0.20082456  1
  Ho  Ho2  1  0.16802242  0.15179756  0.79917544  1
  Ho  Ho3  1  0.96346585  0.45186047  0.39961983  1
  Ho  Ho4  1  0.16802242  0.64737789  0.79917544  1
  Ho  Ho5  1  0.96346585  0.94775936  0.39961983  1
  Ho  Ho6  1  0.36884697  0.84820244  0.20082456  1
  Ho  Ho7  1  0.56384602  0.54813953  0.60038017  1
  Ho  Ho8  1  0.76106625  0.24459081  1.00000000  1
  Ho  Ho9  1  0.76106625  0.75540919  0.00000000  1
  Si  Si10  1  0.50619689  0.89556093  0.79112187  1
  Si  Si11  1  0.08844454  0.12152341  0.24304682  1
  Si  Si12  1  0.17876529  0.80088981  0.60177962  1
  Si  Si13  1  0.89759830  0.30057544  0.60115088  1
  Si  Si14  1  0.50185990  0.39981556  0.79963112  1
  Si  Si15  1  0.84539772  0.87847659  0.75695318  1
  Si  Si16  1  0.71507503  0.10443907  0.20887813  1
  Si  Si17  1  0.57698568  0.19911019  0.39822038  1
  Si  Si18  1  0.29644742  0.69942456  0.39884912  1
  Si  Si19  1  0.43179487  1.00000000  1.00000000  1
  Si  Si20  1  0.67184233  0.71515319  0.43030637  1
  Si  Si21  1  0.70222878  0.60018444  0.20036888  1
  Si  Si22  1  0.08108604  0.00000000  0.00000000  1
  Si  Si23  1  0.38822374  0.50000000  0.00000000  1
  Si  Si24  1  0.24153596  0.28484681  0.56969363  1
  Si  Si25  1  0.03930767  0.58183644  0.16367289  1
  Si  Si26  1  0.87563479  0.41816356  0.83632711  1
