# generated using pymatgen
data_Bi(W2Cl5)3
_symmetry_space_group_name_H-M   'P 1'
_cell_length_a   9.37243109
_cell_length_b   9.37243089
_cell_length_c   26.74116293
_cell_angle_alpha   91.30439532
_cell_angle_beta   91.30439528
_cell_angle_gamma   91.40874609
_symmetry_Int_Tables_number   1
_chemical_formula_structural   Bi(W2Cl5)3
_chemical_formula_sum   'Bi4 W24 Cl60'
_cell_volume   2347.05172010
_cell_formula_units_Z   4
loop_
 _symmetry_equiv_pos_site_id
 _symmetry_equiv_pos_as_xyz
  1  'x, y, z'
loop_
 _atom_site_type_symbol
 _atom_site_label
 _atom_site_symmetry_multiplicity
 _atom_site_fract_x
 _atom_site_fract_y
 _atom_site_fract_z
 _atom_site_occupancy
  Bi  Bi0  1  0.66935450  0.75898545  0.10855463  1
  Bi  Bi1  1  0.75898545  0.66935450  0.60855463  1
  Bi  Bi2  1  0.33064550  0.24101455  0.89144537  1
  Bi  Bi3  1  0.24101455  0.33064550  0.39144537  1
  W  W4  1  0.81718769  0.76800830  0.80181516  1
  W  W5  1  0.79596454  0.67617389  0.93631162  1
  W  W6  1  0.30293133  0.44016744  0.14825438  1
  W  W7  1  0.11483726  0.08414171  0.61299126  1
  W  W8  1  0.23199170  0.18281231  0.69818484  1
  W  W9  1  0.91585829  0.88516274  0.88700874  1
  W  W10  1  0.67617389  0.79596454  0.43631162  1
  W  W11  1  0.18281231  0.23199170  0.19818484  1
  W  W12  1  0.44016744  0.30293133  0.64825438  1
  W  W13  1  0.64040694  0.82688840  0.87408370  1
  W  W14  1  0.20403546  0.32382611  0.06368838  1
  W  W15  1  0.88516274  0.91585829  0.38700874  1
  W  W16  1  0.38068941  0.02641251  0.63606952  1
  W  W17  1  0.97358749  0.61931059  0.86393048  1
  W  W18  1  0.69706867  0.55983256  0.85174562  1
  W  W19  1  0.61931059  0.97358749  0.36393048  1
  W  W20  1  0.82688840  0.64040694  0.37408370  1
  W  W21  1  0.76800830  0.81718769  0.30181516  1
  W  W22  1  0.32382611  0.20403546  0.56368838  1
  W  W23  1  0.55983256  0.69706867  0.35174562  1
  W  W24  1  0.02641251  0.38068941  0.13606952  1
  W  W25  1  0.35959306  0.17311160  0.12591630  1
  W  W26  1  0.08414171  0.11483726  0.11299126  1
  W  W27  1  0.17311160  0.35959306  0.62591630  1
  Cl  Cl28  1  0.39711456  0.21000042  0.47517737  1
  Cl  Cl29  1  0.76390358  0.02129460  0.82715941  1
  Cl  Cl30  1  0.78999958  0.60288544  0.02482263  1
  Cl  Cl31  1  0.23609642  0.97870540  0.17284059  1
  Cl  Cl32  1  0.26482886  0.94182221  0.55485601  1
  Cl  Cl33  1  0.82813479  0.83082090  0.21350823  1
  Cl  Cl34  1  0.60288544  0.78999958  0.52482263  1
  Cl  Cl35  1  0.53512259  0.62413306  0.92143568  1
  Cl  Cl36  1  0.06008530  0.09825759  0.91610705  1
  Cl  Cl37  1  0.79319444  0.49654670  0.14710924  1
  Cl  Cl38  1  0.53299366  0.24051990  0.95533131  1
  Cl  Cl39  1  0.51050857  0.87209353  0.28401168  1
  Cl  Cl40  1  0.85215373  0.42436411  0.91034587  1
  Cl  Cl41  1  0.82388752  0.07702504  0.31694151  1
  Cl  Cl42  1  0.17186521  0.16917910  0.78649177  1
  Cl  Cl43  1  0.14784627  0.57563589  0.08965413  1
  Cl  Cl44  1  0.07702504  0.82388752  0.81694151  1
  Cl  Cl45  1  0.54365000  0.34377166  0.82706926  1
  Cl  Cl46  1  0.49654670  0.79319444  0.64710924  1
  Cl  Cl47  1  0.46487741  0.37586694  0.07856432  1
  Cl  Cl48  1  0.70928762  0.55469241  0.29311887  1
  Cl  Cl49  1  0.42436411  0.85215373  0.41034587  1
  Cl  Cl50  1  0.02129460  0.76390358  0.32715941  1
  Cl  Cl51  1  0.92297496  0.17611248  0.18305849  1
  Cl  Cl52  1  0.83082090  0.82813479  0.71350823  1
  Cl  Cl53  1  0.29071238  0.44530759  0.70688113  1
  Cl  Cl54  1  0.34377166  0.54365000  0.32706926  1
  Cl  Cl55  1  0.73517114  0.05817779  0.44514399  1
  Cl  Cl56  1  0.25988628  0.06905872  0.04509309  1
  Cl  Cl57  1  0.50345330  0.20680556  0.35289076  1
  Cl  Cl58  1  0.21000042  0.39711456  0.97517737  1
  Cl  Cl59  1  0.37586694  0.46487741  0.57856432  1
  Cl  Cl60  1  0.40727119  0.95513818  0.87520654  1
  Cl  Cl61  1  0.55469241  0.70928762  0.79311887  1
  Cl  Cl62  1  0.95513818  0.40727119  0.37520654  1
  Cl  Cl63  1  0.46700634  0.75948010  0.04466869  1
  Cl  Cl64  1  0.44530759  0.29071238  0.20688113  1
  Cl  Cl65  1  0.20680556  0.50345330  0.85289076  1
  Cl  Cl66  1  0.93991470  0.90174241  0.08389295  1
  Cl  Cl67  1  0.62413306  0.53512259  0.42143568  1
  Cl  Cl68  1  0.09825759  0.06008530  0.41610705  1
  Cl  Cl69  1  0.94182221  0.26482886  0.05485601  1
  Cl  Cl70  1  0.97870540  0.23609642  0.67284059  1
  Cl  Cl71  1  0.75948010  0.46700634  0.54466869  1
  Cl  Cl72  1  0.57563589  0.14784627  0.58965413  1
  Cl  Cl73  1  0.04486182  0.59272881  0.62479346  1
  Cl  Cl74  1  0.05817779  0.73517114  0.94514399  1
  Cl  Cl75  1  0.17611248  0.92297496  0.68305849  1
  Cl  Cl76  1  0.74011372  0.93094128  0.95490691  1
  Cl  Cl77  1  0.90174241  0.93991470  0.58389295  1
  Cl  Cl78  1  0.12790647  0.48949143  0.21598832  1
  Cl  Cl79  1  0.16917910  0.17186521  0.28649177  1
  Cl  Cl80  1  0.87209353  0.51050857  0.78401168  1
  Cl  Cl81  1  0.45635000  0.65622834  0.17293074  1
  Cl  Cl82  1  0.59272881  0.04486182  0.12479346  1
  Cl  Cl83  1  0.65622834  0.45635000  0.67293074  1
  Cl  Cl84  1  0.48949143  0.12790647  0.71598832  1
  Cl  Cl85  1  0.93094128  0.74011372  0.45490691  1
  Cl  Cl86  1  0.06905872  0.25988628  0.54509309  1
  Cl  Cl87  1  0.24051990  0.53299366  0.45533131  1
