# generated using pymatgen
data_Er3Si3Ni
_symmetry_space_group_name_H-M   'P 1'
_cell_length_a   4.16275685
_cell_length_b   5.53647080
_cell_length_c   12.76082255
_cell_angle_alpha   84.75325712
_cell_angle_beta   80.61271442
_cell_angle_gamma   67.91760449
_symmetry_Int_Tables_number   1
_chemical_formula_structural   Er3Si3Ni
_chemical_formula_sum   'Er6 Si6 Ni2'
_cell_volume   268.72904315
_cell_formula_units_Z   2
loop_
 _symmetry_equiv_pos_site_id
 _symmetry_equiv_pos_as_xyz
  1  'x, y, z'
loop_
 _atom_site_type_symbol
 _atom_site_label
 _atom_site_symmetry_multiplicity
 _atom_site_fract_x
 _atom_site_fract_y
 _atom_site_fract_z
 _atom_site_occupancy
  Er  Er0  1  0.46978014  0.68018722  0.38025249  1
  Er  Er1  1  0.60222957  0.71693180  0.07860907  1
  Er  Er2  1  0.74704190  0.73351559  0.77240061  1
  Er  Er3  1  0.53021986  0.31981278  0.61974751  1
  Er  Er4  1  0.39777043  0.28306820  0.92139093  1
  Er  Er5  1  0.25295810  0.26648441  0.22759939  1
  Si  Si6  1  0.86388293  0.72889879  0.54333536  1
  Si  Si7  1  0.95441360  0.85514701  0.23602579  1
  Si  Si8  1  0.88601564  0.15188234  0.07608638  1
  Si  Si9  1  0.11398436  0.84811766  0.92391362  1
  Si  Si10  1  0.13611707  0.27110121  0.45666464  1
  Si  Si11  1  0.04558640  0.14485299  0.76397421  1
  Ni  Ni12  1  0.75240650  0.09270943  0.40247757  1
  Ni  Ni13  1  0.24759350  0.90729057  0.59752243  1
