# generated using pymatgen
data_La(AlBr4)3
_symmetry_space_group_name_H-M   'P 1'
_cell_length_a   10.75781693
_cell_length_b   10.75781681
_cell_length_c   19.12822098
_cell_angle_alpha   90.00000000
_cell_angle_beta   90.00000000
_cell_angle_gamma   120.00000032
_symmetry_Int_Tables_number   1
_chemical_formula_structural   La(AlBr4)3
_chemical_formula_sum   'La3 Al9 Br36'
_cell_volume   1917.13857094
_cell_formula_units_Z   3
loop_
 _symmetry_equiv_pos_site_id
 _symmetry_equiv_pos_as_xyz
  1  'x, y, z'
loop_
 _atom_site_type_symbol
 _atom_site_label
 _atom_site_symmetry_multiplicity
 _atom_site_fract_x
 _atom_site_fract_y
 _atom_site_fract_z
 _atom_site_occupancy
  La  La0  1  0.00000000  0.72935140  0.66666700  1
  La  La1  1  0.27064860  0.27064860  0.00000000  1
  La  La2  1  0.72935140  0.00000000  0.33333300  1
  Al  Al3  1  0.36837191  0.67119781  0.05374303  1
  Al  Al4  1  0.67119781  0.36837191  0.94625697  1
  Al  Al5  1  0.32880219  0.69717409  0.38707603  1
  Al  Al6  1  0.90011755  0.90011755  0.50000000  1
  Al  Al7  1  0.69717409  0.32880219  0.61292397  1
  Al  Al8  1  0.09988245  0.00000000  0.83333300  1
  Al  Al9  1  0.30282591  0.63162809  0.72040903  1
  Al  Al10  1  0.63162809  0.30282591  0.27959097  1
  Al  Al11  1  0.00000000  0.09988245  0.16666700  1
  Br  Br12  1  0.86108756  0.57753162  0.98407366  1
  Br  Br13  1  0.42246838  0.28355593  0.31740766  1
  Br  Br14  1  0.20575205  0.97077037  0.93392091  1
  Br  Br15  1  0.08359857  0.58476398  0.77732173  1
  Br  Br16  1  0.57753162  0.86108756  0.01592634  1
  Br  Br17  1  0.49526720  0.77426333  0.78844418  1
  Br  Br18  1  0.49883459  0.41523602  0.88934427  1
  Br  Br19  1  0.27899613  0.50473280  0.45511118  1
  Br  Br20  1  0.50116541  0.91640143  0.44398873  1
  Br  Br21  1  0.79424795  0.76501832  0.39941309  1
  Br  Br22  1  0.58476398  0.08359857  0.22267827  1
  Br  Br23  1  0.76615821  0.29048444  0.37631205  1
  Br  Br24  1  0.47567378  0.70951556  0.29035495  1
  Br  Br25  1  0.29048444  0.76615821  0.62368795  1
  Br  Br26  1  0.23498168  0.02922963  0.73274609  1
  Br  Br27  1  0.72100387  0.22573667  0.87822182  1
  Br  Br28  1  0.76501832  0.79424795  0.60058691  1
  Br  Br29  1  0.80356558  0.87860586  0.19693371  1
  Br  Br30  1  0.92495972  0.12139414  0.46973329  1
  Br  Br31  1  0.50473280  0.27899613  0.54488882  1
  Br  Br32  1  0.71644407  0.13891244  0.65074066  1
  Br  Br33  1  0.70951556  0.47567378  0.70964505  1
  Br  Br34  1  0.77426333  0.49526720  0.21155582  1
  Br  Br35  1  0.97077037  0.20575205  0.06607909  1
  Br  Br36  1  0.41523602  0.49883459  0.11065573  1
  Br  Br37  1  0.19643442  0.07504028  0.13640029  1
  Br  Br38  1  0.91640143  0.50116541  0.55601127  1
  Br  Br39  1  0.07504028  0.19643442  0.86359971  1
  Br  Br40  1  0.13891244  0.71644407  0.34925934  1
  Br  Br41  1  0.87860586  0.80356558  0.80306629  1
  Br  Br42  1  0.12139414  0.92495972  0.53026671  1
  Br  Br43  1  0.02922963  0.23498168  0.26725391  1
  Br  Br44  1  0.28355593  0.42246838  0.68259234  1
  Br  Br45  1  0.23384179  0.52432622  0.95702195  1
  Br  Br46  1  0.22573667  0.72100387  0.12177818  1
  Br  Br47  1  0.52432622  0.23384179  0.04297805  1
