# generated using pymatgen
data_KTh(SbSe3)2
_symmetry_space_group_name_H-M   'P 1'
_cell_length_a   4.30029061
_cell_length_b   15.31653242
_cell_length_c   17.29398700
_cell_angle_alpha   90.00000000
_cell_angle_beta   92.59786912
_cell_angle_gamma   90.00000000
_symmetry_Int_Tables_number   1
_chemical_formula_structural   KTh(SbSe3)2
_chemical_formula_sum   'K4 Th4 Sb8 Se24'
_cell_volume   1137.90712125
_cell_formula_units_Z   4
loop_
 _symmetry_equiv_pos_site_id
 _symmetry_equiv_pos_as_xyz
  1  'x, y, z'
loop_
 _atom_site_type_symbol
 _atom_site_label
 _atom_site_symmetry_multiplicity
 _atom_site_fract_x
 _atom_site_fract_y
 _atom_site_fract_z
 _atom_site_occupancy
  K  K0  1  0.26452171  0.71327036  0.67286743  1
  K  K1  1  0.26452171  0.78672964  0.17286743  1
  K  K2  1  0.73547829  0.28672964  0.32713257  1
  K  K3  1  0.73547829  0.21327036  0.82713257  1
  Th  Th4  1  0.70017728  0.12905046  0.09104620  1
  Th  Th5  1  0.29982272  0.87094954  0.90895380  1
  Th  Th6  1  0.70017728  0.37094954  0.59104620  1
  Th  Th7  1  0.29982272  0.62905046  0.40895380  1
  Sb  Sb8  1  0.26929775  0.12633094  0.52577298  1
  Sb  Sb9  1  0.26929775  0.37366906  0.02577298  1
  Sb  Sb10  1  0.73070225  0.62633094  0.97422702  1
  Sb  Sb11  1  0.24640828  0.02573620  0.29654254  1
  Sb  Sb12  1  0.75359172  0.52573620  0.20345746  1
  Sb  Sb13  1  0.75359172  0.97426380  0.70345746  1
  Sb  Sb14  1  0.73070225  0.87366906  0.47422702  1
  Sb  Sb15  1  0.24640828  0.47426380  0.79654254  1
  Se  Se16  1  0.33614009  0.47058047  0.30257406  1
  Se  Se17  1  0.66385991  0.97058047  0.19742594  1
  Se  Se18  1  0.33614009  0.02941953  0.80257406  1
  Se  Se19  1  0.26924452  0.82924431  0.37334253  1
  Se  Se20  1  0.73075548  0.17075569  0.62665747  1
  Se  Se21  1  0.68005585  0.08128537  0.40831534  1
  Se  Se22  1  0.31994415  0.91871463  0.59168466  1
  Se  Se23  1  0.20919969  0.20543014  0.98489686  1
  Se  Se24  1  0.26924452  0.67075569  0.87334253  1
  Se  Se25  1  0.20919969  0.29456986  0.48489686  1
  Se  Se26  1  0.73075548  0.32924431  0.12665747  1
  Se  Se27  1  0.31994415  0.58128537  0.09168466  1
  Se  Se28  1  0.18034880  0.98665715  0.05895966  1
  Se  Se29  1  0.78839215  0.82749035  0.78946712  1
  Se  Se30  1  0.66385991  0.52941953  0.69742594  1
  Se  Se31  1  0.78839215  0.67250965  0.28946712  1
  Se  Se32  1  0.68005585  0.41871463  0.90831534  1
  Se  Se33  1  0.21160785  0.17250965  0.21053288  1
  Se  Se34  1  0.21160785  0.32749035  0.71053288  1
  Se  Se35  1  0.79080031  0.79456986  0.01510314  1
  Se  Se36  1  0.81965120  0.01334285  0.94104034  1
  Se  Se37  1  0.18034880  0.51334285  0.55895966  1
  Se  Se38  1  0.81965120  0.48665715  0.44104034  1
  Se  Se39  1  0.79080031  0.70543014  0.51510314  1
