# generated using pymatgen
data_Dy10Si17
_symmetry_space_group_name_H-M   'P 1'
_cell_length_a   6.70557746
_cell_length_b   8.27162888
_cell_length_c   10.98713910
_cell_angle_alpha   112.11230640
_cell_angle_beta   107.76753388
_cell_angle_gamma   90.00000112
_symmetry_Int_Tables_number   1
_chemical_formula_structural   Dy10Si17
_chemical_formula_sum   'Dy10 Si17'
_cell_volume   533.08346589
_cell_formula_units_Z   1
loop_
 _symmetry_equiv_pos_site_id
 _symmetry_equiv_pos_as_xyz
  1  'x, y, z'
loop_
 _atom_site_type_symbol
 _atom_site_label
 _atom_site_symmetry_multiplicity
 _atom_site_fract_x
 _atom_site_fract_y
 _atom_site_fract_z
 _atom_site_occupancy
  Dy  Dy0  1  0.76062932  0.75540578  1.00000000  1
  Dy  Dy1  1  0.96290868  0.45169729  0.39954593  1
  Dy  Dy2  1  0.36791332  0.84812092  0.20076198  1
  Dy  Dy3  1  0.96290868  0.94784864  0.39954593  1
  Dy  Dy4  1  0.16715134  0.15187908  0.79923802  1
  Dy  Dy5  1  0.36791332  0.35264106  0.20076198  1
  Dy  Dy6  1  0.76062932  0.24459422  0.00000000  1
  Dy  Dy7  1  0.56336275  0.54830271  0.60045407  1
  Dy  Dy8  1  0.56336275  0.05215136  0.60045407  1
  Dy  Dy9  1  0.16715134  0.64735894  0.79923802  1
  Si  Si10  1  0.66923885  0.71437819  0.42875638  1
  Si  Si11  1  0.57801969  0.19907940  0.39815880  1
  Si  Si12  1  0.08065497  0.00000000  1.00000000  1
  Si  Si13  1  0.29547830  0.69950992  0.39901984  1
  Si  Si14  1  0.17986089  0.80092060  0.60184120  1
  Si  Si15  1  0.50475354  0.89576488  0.79152975  1
  Si  Si16  1  0.87199553  0.41714368  0.83428736  1
  Si  Si17  1  0.71322378  0.10423512  0.20847025  1
  Si  Si18  1  0.89645846  0.30049008  0.60098016  1
  Si  Si19  1  0.03770817  0.58285632  0.16571264  1
  Si  Si20  1  0.43065011  1.00000000  0.00000000  1
  Si  Si21  1  0.84378738  0.87963984  0.75927967  1
  Si  Si22  1  0.50050206  0.39982903  0.79965806  1
  Si  Si23  1  0.08450771  0.12036016  0.24072033  1
  Si  Si24  1  0.24048246  0.28562181  0.57124362  1
  Si  Si25  1  0.38940328  0.50000000  1.00000000  1
  Si  Si26  1  0.70084400  0.60017097  0.20034194  1
