# generated using pymatgen
data_Nd(Al4Co)2
_symmetry_space_group_name_H-M   'P 1'
_cell_length_a   4.00349382
_cell_length_b   12.49105414
_cell_length_c   14.39331561
_cell_angle_alpha   90.00000000
_cell_angle_beta   90.00000000
_cell_angle_gamma   90.00000000
_symmetry_Int_Tables_number   1
_chemical_formula_structural   Nd(Al4Co)2
_chemical_formula_sum   'Nd4 Al32 Co8'
_cell_volume   719.77888396
_cell_formula_units_Z   4
loop_
 _symmetry_equiv_pos_site_id
 _symmetry_equiv_pos_as_xyz
  1  'x, y, z'
loop_
 _atom_site_type_symbol
 _atom_site_label
 _atom_site_symmetry_multiplicity
 _atom_site_fract_x
 _atom_site_fract_y
 _atom_site_fract_z
 _atom_site_occupancy
  Nd  Nd0  1  0.00000000  0.84033939  0.18102387  1
  Nd  Nd1  1  0.00000000  0.15966061  0.81897613  1
  Nd  Nd2  1  0.00000000  0.65966061  0.68102387  1
  Nd  Nd3  1  0.00000000  0.34033939  0.31897613  1
  Al  Al4  1  0.50000000  0.02579264  0.13168308  1
  Al  Al5  1  0.50000000  0.16926020  0.99197001  1
  Al  Al6  1  0.50000000  0.23595469  0.17263102  1
  Al  Al7  1  0.00000000  0.50000000  0.50000000  1
  Al  Al8  1  0.00000000  0.65971211  0.95553638  1
  Al  Al9  1  0.00000000  0.09625510  0.25266271  1
  Al  Al10  1  0.50000000  0.04743454  0.67958529  1
  Al  Al11  1  0.00000000  0.90374490  0.74733729  1
  Al  Al12  1  0.50000000  0.54743454  0.82041471  1
  Al  Al13  1  0.50000000  0.97420736  0.86831692  1
  Al  Al14  1  0.50000000  0.65906093  0.12076147  1
  Al  Al15  1  0.50000000  0.73595469  0.32736898  1
  Al  Al16  1  0.50000000  0.45256546  0.17958529  1
  Al  Al17  1  0.50000000  0.95256546  0.32041471  1
  Al  Al18  1  0.50000000  0.33073980  0.49197001  1
  Al  Al19  1  0.00000000  0.59625510  0.24733729  1
  Al  Al20  1  0.50000000  0.47420736  0.63168308  1
  Al  Al21  1  0.50000000  0.76404531  0.82736898  1
  Al  Al22  1  0.50000000  0.15906093  0.37923853  1
  Al  Al23  1  0.50000000  0.84093907  0.62076147  1
  Al  Al24  1  0.50000000  0.83073980  0.00802999  1
  Al  Al25  1  0.50000000  0.66926020  0.50802999  1
  Al  Al26  1  0.50000000  0.00000000  0.50000000  1
  Al  Al27  1  0.00000000  0.34028789  0.04446362  1
  Al  Al28  1  0.50000000  0.52579264  0.36831692  1
  Al  Al29  1  0.50000000  0.34093907  0.87923853  1
  Al  Al30  1  0.00000000  0.40374490  0.75266271  1
  Al  Al31  1  0.50000000  0.50000000  0.00000000  1
  Al  Al32  1  0.00000000  0.15971211  0.54446362  1
  Al  Al33  1  0.00000000  0.84028789  0.45553638  1
  Al  Al34  1  0.50000000  0.26404531  0.67263102  1
  Al  Al35  1  0.00000000  0.00000000  0.00000000  1
  Co  Co36  1  0.00000000  0.53430777  0.09421220  1
  Co  Co37  1  0.00000000  0.03430777  0.40578780  1
  Co  Co38  1  0.00000000  0.65209909  0.40387956  1
  Co  Co39  1  0.00000000  0.96569223  0.59421220  1
  Co  Co40  1  0.00000000  0.46569223  0.90578780  1
  Co  Co41  1  0.00000000  0.15209909  0.09612044  1
  Co  Co42  1  0.00000000  0.84790091  0.90387956  1
  Co  Co43  1  0.00000000  0.34790091  0.59612044  1
