# generated using pymatgen
data_Rb4P2Se9
_symmetry_space_group_name_H-M   'P 1'
_cell_length_a   7.34275539
_cell_length_b   7.34275572
_cell_length_c   19.60804207
_cell_angle_alpha   92.21521234
_cell_angle_beta   92.21521243
_cell_angle_gamma   94.45295998
_symmetry_Int_Tables_number   1
_chemical_formula_structural   Rb4P2Se9
_chemical_formula_sum   'Rb8 P4 Se18'
_cell_volume   1052.28846087
_cell_formula_units_Z   2
loop_
 _symmetry_equiv_pos_site_id
 _symmetry_equiv_pos_as_xyz
  1  'x, y, z'
loop_
 _atom_site_type_symbol
 _atom_site_label
 _atom_site_symmetry_multiplicity
 _atom_site_fract_x
 _atom_site_fract_y
 _atom_site_fract_z
 _atom_site_occupancy
  Rb  Rb0  1  0.71746045  0.21957490  0.52539275  1
  Rb  Rb1  1  0.28253955  0.78042510  0.47460725  1
  Rb  Rb2  1  0.24797956  0.43550513  0.67910911  1
  Rb  Rb3  1  0.75202044  0.56449487  0.32089089  1
  Rb  Rb4  1  0.56449487  0.75202044  0.82089089  1
  Rb  Rb5  1  0.21957490  0.71746045  0.02539275  1
  Rb  Rb6  1  0.78042510  0.28253955  0.97460725  1
  Rb  Rb7  1  0.43550513  0.24797956  0.17910911  1
  P  P8  1  0.73095806  0.74551670  0.61848308  1
  P  P9  1  0.25448330  0.26904194  0.88151692  1
  P  P10  1  0.26904194  0.25448330  0.38151692  1
  P  P11  1  0.74551670  0.73095806  0.11848308  1
  Se  Se12  1  0.01119718  0.04758268  0.35261688  1
  Se  Se13  1  0.87964387  0.48322443  0.14158795  1
  Se  Se14  1  0.98880282  0.95241732  0.64738312  1
  Se  Se15  1  0.75448777  0.50034150  0.67684709  1
  Se  Se16  1  0.78815305  0.72371397  0.50896346  1
  Se  Se17  1  0.21184695  0.27628603  0.49103654  1
  Se  Se18  1  0.12035613  0.51677557  0.85841205  1
  Se  Se19  1  0.95241732  0.98880282  0.14738312  1
  Se  Se20  1  0.49965850  0.24551223  0.82315291  1
  Se  Se21  1  0.04758268  0.01119718  0.85261688  1
  Se  Se22  1  0.72371397  0.78815305  0.00896346  1
  Se  Se23  1  0.24551223  0.49965850  0.32315291  1
  Se  Se24  1  0.50034150  0.75448777  0.17684709  1
  Se  Se25  1  0.27628603  0.21184695  0.99103654  1
  Se  Se26  1  0.90100902  0.09899098  0.75000000  1
  Se  Se27  1  0.48322443  0.87964387  0.64158795  1
  Se  Se28  1  0.51677557  0.12035613  0.35841205  1
  Se  Se29  1  0.09899098  0.90100902  0.25000000  1
