# generated using pymatgen
data_La4C2Br5
_symmetry_space_group_name_H-M   'P 1'
_cell_length_a   4.04925400
_cell_length_b   8.36672333
_cell_length_c   10.40103388
_cell_angle_alpha   113.71251368
_cell_angle_beta   101.24125581
_cell_angle_gamma   89.99815848
_symmetry_Int_Tables_number   1
_chemical_formula_structural   La4C2Br5
_chemical_formula_sum   'La4 C2 Br5'
_cell_volume   315.23034773
_cell_formula_units_Z   1
loop_
 _symmetry_equiv_pos_site_id
 _symmetry_equiv_pos_as_xyz
  1  'x, y, z'
loop_
 _atom_site_type_symbol
 _atom_site_label
 _atom_site_symmetry_multiplicity
 _atom_site_fract_x
 _atom_site_fract_y
 _atom_site_fract_z
 _atom_site_occupancy
  La  La0  1  0.99996690  0.70415105  1.00001196  1
  La  La1  1  0.33804154  0.33798861  0.67608413  1
  La  La2  1  0.00003310  0.29584895  -0.00001196  1
  La  La3  1  0.66195846  0.66201139  0.32391587  1
  C  C4  1  0.53817634  0.53805880  0.07613454  1
  C  C5  1  0.46182366  0.46194120  0.92386546  1
  Br  Br6  1  0.16430752  0.93885619  0.32905255  1
  Br  Br7  1  0.16432687  0.39035540  0.32895248  1
  Br  Br8  1  0.83567313  0.60964460  0.67104752  1
  Br  Br9  1  0.83569248  0.06114381  0.67094745  1
  Br  Br10  1  0.50000000  0.00000000  0.00000000  1
