# generated using pymatgen
data_SrAc3
_symmetry_space_group_name_H-M   'P 1'
_cell_length_a   8.14554438
_cell_length_b   8.14554397
_cell_length_c   6.54981728
_cell_angle_alpha   90.00000000
_cell_angle_beta   90.00000000
_cell_angle_gamma   120.00000621
_symmetry_Int_Tables_number   1
_chemical_formula_structural   SrAc3
_chemical_formula_sum   'Sr2 Ac6'
_cell_volume   376.35699780
_cell_formula_units_Z   2
loop_
 _symmetry_equiv_pos_site_id
 _symmetry_equiv_pos_as_xyz
  1  'x, y, z'
loop_
 _atom_site_type_symbol
 _atom_site_label
 _atom_site_symmetry_multiplicity
 _atom_site_fract_x
 _atom_site_fract_y
 _atom_site_fract_z
 _atom_site_occupancy
  Sr  Sr0  1  0.33333400  0.66666700  0.75000000  1
  Sr  Sr1  1  0.66666700  0.33333400  0.25000000  1
  Ac  Ac2  1  0.16406879  0.32813757  0.25000000  1
  Ac  Ac3  1  0.67186343  0.83593221  0.25000000  1
  Ac  Ac4  1  0.16406879  0.83593221  0.25000000  1
  Ac  Ac5  1  0.83593021  0.67186343  0.75000000  1
  Ac  Ac6  1  0.32813557  0.16406779  0.75000000  1
  Ac  Ac7  1  0.83593121  0.16406779  0.75000000  1
