# generated using pymatgen
data_U6Co30Si19
_symmetry_space_group_name_H-M   'P 1'
_cell_length_a   20.96324605
_cell_length_b   20.96324602
_cell_length_c   3.64874117
_cell_angle_alpha   90.00000000
_cell_angle_beta   90.00000000
_cell_angle_gamma   120.00000006
_symmetry_Int_Tables_number   1
_chemical_formula_structural   U6Co30Si19
_chemical_formula_sum   'U12 Co60 Si38'
_cell_volume   1388.64345406
_cell_formula_units_Z   2
loop_
 _symmetry_equiv_pos_site_id
 _symmetry_equiv_pos_as_xyz
  1  'x, y, z'
loop_
 _atom_site_type_symbol
 _atom_site_label
 _atom_site_symmetry_multiplicity
 _atom_site_fract_x
 _atom_site_fract_y
 _atom_site_fract_z
 _atom_site_occupancy
  U  U0  1  0.77418949  0.03662797  0.25000000  1
  U  U1  1  0.51832674  0.13429033  0.25000000  1
  U  U2  1  0.38403641  0.51832674  0.75000000  1
  U  U3  1  0.61596359  0.48167326  0.25000000  1
  U  U4  1  0.73756152  0.77418949  0.75000000  1
  U  U5  1  0.26243848  0.22581051  0.25000000  1
  U  U6  1  0.13429033  0.61596359  0.75000000  1
  U  U7  1  0.22581051  0.96337203  0.75000000  1
  U  U8  1  0.48167326  0.86570967  0.75000000  1
  U  U9  1  0.03662797  0.26243848  0.75000000  1
  U  U10  1  0.86570967  0.38403641  0.25000000  1
  U  U11  1  0.96337203  0.73756152  0.25000000  1
  Co  Co12  1  0.39474979  0.10165594  0.75000000  1
  Co  Co13  1  0.94731733  0.14422623  0.25000000  1
  Co  Co14  1  0.00334447  0.35598278  0.25000000  1
  Co  Co15  1  0.91307308  0.92497677  0.75000000  1
  Co  Co16  1  0.79586862  0.59354779  0.25000000  1
  Co  Co17  1  0.86108696  0.15534423  0.75000000  1
  Co  Co18  1  0.55421181  0.65914073  0.75000000  1
  Co  Co19  1  0.85577377  0.80309110  0.25000000  1
  Co  Co20  1  0.35598278  0.35263832  0.75000000  1
  Co  Co21  1  0.13891304  0.84465577  0.25000000  1
  Co  Co22  1  0.30246636  0.75597669  0.75000000  1
  Co  Co23  1  0.29425727  0.13891304  0.75000000  1
  Co  Co24  1  0.54885623  0.04196135  0.75000000  1
  Co  Co25  1  0.01190370  0.08692692  0.75000000  1
  Co  Co26  1  0.60525021  0.89834406  0.25000000  1
  Co  Co27  1  0.25366155  0.64643116  0.25000000  1
  Co  Co28  1  0.54648967  0.30246636  0.25000000  1
  Co  Co29  1  0.92497677  0.01190370  0.25000000  1
  Co  Co30  1  0.05268267  0.85577377  0.75000000  1
  Co  Co31  1  0.39276961  0.74633845  0.25000000  1
  Co  Co32  1  0.74633845  0.35356884  0.75000000  1
  Co  Co33  1  0.44578819  0.34085927  0.25000000  1
  Co  Co34  1  0.50689488  0.54885623  0.25000000  1
  Co  Co35  1  0.14422623  0.19690890  0.75000000  1
  Co  Co36  1  0.35356884  0.60723039  0.25000000  1
  Co  Co37  1  0.19690890  0.05268267  0.25000000  1
  Co  Co38  1  0.49310512  0.45114377  0.75000000  1
  Co  Co39  1  0.10492892  0.44578819  0.75000000  1
  Co  Co40  1  0.98809630  0.91307308  0.25000000  1
  Co  Co41  1  0.15534423  0.29425727  0.25000000  1
  Co  Co42  1  0.64736168  0.00334447  0.75000000  1
  Co  Co43  1  0.70690615  0.60525021  0.75000000  1
  Co  Co44  1  0.40645221  0.20232083  0.25000000  1
  Co  Co45  1  0.89507108  0.55421181  0.25000000  1
  Co  Co46  1  0.80309110  0.94731733  0.75000000  1
  Co  Co47  1  0.10165594  0.70690615  0.25000000  1
  Co  Co48  1  0.08692692  0.07502323  0.25000000  1
  Co  Co49  1  0.04196135  0.49310512  0.25000000  1
  Co  Co50  1  0.95803865  0.50689488  0.75000000  1
  Co  Co51  1  0.70574273  0.86108696  0.25000000  1
  Co  Co52  1  0.79767917  0.20413138  0.25000000  1
  Co  Co53  1  0.69753364  0.24402331  0.25000000  1
  Co  Co54  1  0.75597669  0.45351033  0.25000000  1
  Co  Co55  1  0.45114377  0.95803865  0.25000000  1
  Co  Co56  1  0.24402331  0.54648967  0.75000000  1
  Co  Co57  1  0.34085927  0.89507108  0.75000000  1
  Co  Co58  1  0.89834406  0.29309385  0.75000000  1
  Co  Co59  1  0.64643116  0.39276961  0.75000000  1
  Co  Co60  1  0.45351033  0.69753364  0.75000000  1
  Co  Co61  1  0.20232083  0.79586862  0.75000000  1
  Co  Co62  1  0.29309385  0.39474979  0.25000000  1
  Co  Co63  1  0.59354779  0.79767917  0.75000000  1
  Co  Co64  1  0.65914073  0.10492892  0.25000000  1
  Co  Co65  1  0.84465577  0.70574273  0.75000000  1
  Co  Co66  1  0.35263832  0.99665553  0.25000000  1
  Co  Co67  1  0.60723039  0.25366155  0.75000000  1
  Co  Co68  1  0.99665553  0.64401722  0.75000000  1
  Co  Co69  1  0.64401722  0.64736168  0.25000000  1
  Co  Co70  1  0.07502323  0.98809630  0.75000000  1
  Co  Co71  1  0.20413138  0.40645221  0.75000000  1
  Si  Si72  1  0.10400273  0.93328079  0.25000000  1
  Si  Si73  1  0.61508047  0.73874971  0.25000000  1
  Si  Si74  1  0.57120168  0.98609418  0.25000000  1
  Si  Si75  1  0.42879832  0.01390582  0.75000000  1
  Si  Si76  1  0.06671921  0.17072195  0.25000000  1
  Si  Si77  1  0.33333300  0.66666700  0.75000000  1
  Si  Si78  1  0.77710320  0.26302779  0.75000000  1
  Si  Si79  1  0.82927805  0.89599727  0.25000000  1
  Si  Si80  1  0.16370021  0.52506813  0.25000000  1
  Si  Si81  1  0.58510750  0.57120168  0.75000000  1
  Si  Si82  1  0.08338540  0.76534671  0.75000000  1
  Si  Si83  1  0.23465329  0.31803869  0.75000000  1
  Si  Si84  1  0.66666700  0.33333300  0.25000000  1
  Si  Si85  1  0.26302779  0.48592459  0.25000000  1
  Si  Si86  1  0.31803869  0.08338540  0.25000000  1
  Si  Si87  1  0.26125029  0.87633076  0.25000000  1
  Si  Si88  1  0.01390582  0.58510750  0.25000000  1
  Si  Si89  1  0.76534671  0.68196131  0.25000000  1
  Si  Si90  1  0.22289680  0.73697221  0.25000000  1
  Si  Si91  1  0.68196131  0.91661460  0.75000000  1
  Si  Si92  1  0.38491953  0.26125029  0.75000000  1
  Si  Si93  1  0.87633076  0.61508047  0.75000000  1
  Si  Si94  1  0.51407541  0.77710320  0.25000000  1
  Si  Si95  1  0.93328079  0.82927805  0.75000000  1
  Si  Si96  1  0.36136792  0.83629979  0.25000000  1
  Si  Si97  1  0.91661460  0.23465329  0.25000000  1
  Si  Si98  1  0.47493187  0.63863208  0.25000000  1
  Si  Si99  1  0.17072195  0.10400273  0.75000000  1
  Si  Si100  1  0.83629979  0.47493187  0.75000000  1
  Si  Si101  1  0.41489250  0.42879832  0.25000000  1
  Si  Si102  1  0.52506813  0.36136792  0.75000000  1
  Si  Si103  1  0.89599727  0.06671921  0.75000000  1
  Si  Si104  1  0.73874971  0.12366924  0.75000000  1
  Si  Si105  1  0.48592459  0.22289680  0.75000000  1
  Si  Si106  1  0.63863208  0.16370021  0.75000000  1
  Si  Si107  1  0.98609418  0.41489250  0.75000000  1
  Si  Si108  1  0.73697221  0.51407541  0.75000000  1
  Si  Si109  1  0.12366924  0.38491953  0.25000000  1
