# generated using pymatgen
data_MnBiPO5
_symmetry_space_group_name_H-M   'P 1'
_cell_length_a   5.45820537
_cell_length_b   7.60082617
_cell_length_c   11.44178312
_cell_angle_alpha   90.00000000
_cell_angle_beta   90.00000000
_cell_angle_gamma   109.48710468
_symmetry_Int_Tables_number   1
_chemical_formula_structural   MnBiPO5
_chemical_formula_sum   'Mn4 Bi4 P4 O20'
_cell_volume   447.49226917
_cell_formula_units_Z   4
loop_
 _symmetry_equiv_pos_site_id
 _symmetry_equiv_pos_as_xyz
  1  'x, y, z'
loop_
 _atom_site_type_symbol
 _atom_site_label
 _atom_site_symmetry_multiplicity
 _atom_site_fract_x
 _atom_site_fract_y
 _atom_site_fract_z
 _atom_site_occupancy
  Mn  Mn0  1  0.13316264  0.68933793  0.58835189  1
  Mn  Mn1  1  0.63316264  0.18933793  0.91164811  1
  Mn  Mn2  1  0.86683736  0.31066207  0.41164811  1
  Mn  Mn3  1  0.36683736  0.81066207  0.08835189  1
  Bi  Bi4  1  0.62547412  0.68380600  0.40221710  1
  Bi  Bi5  1  0.37452588  0.31619400  0.59778290  1
  Bi  Bi6  1  0.12547412  0.18380600  0.09778290  1
  Bi  Bi7  1  0.87452588  0.81619400  0.90221710  1
  P  P8  1  0.29238811  0.47775757  0.84973247  1
  P  P9  1  0.79238811  0.97775757  0.65026753  1
  P  P10  1  0.70761189  0.52224243  0.15026753  1
  P  P11  1  0.20761189  0.02224243  0.34973247  1
  O  O12  1  0.90035001  0.16476367  0.58223134  1
  O  O13  1  0.40035001  0.66476367  0.91776866  1
  O  O14  1  0.59964999  0.33523633  0.08223134  1
  O  O15  1  0.19040595  0.50810843  0.72671361  1
  O  O16  1  0.69040595  0.00810843  0.77328639  1
  O  O17  1  0.74922200  0.98716480  0.02433876  1
  O  O18  1  0.24922200  0.48716480  0.47566124  1
  O  O19  1  0.09964999  0.83523633  0.41776866  1
  O  O20  1  0.56757856  0.83903509  0.57794164  1
  O  O21  1  0.80959405  0.49189157  0.27328639  1
  O  O22  1  0.51490760  0.39669069  0.82586068  1
  O  O23  1  0.43242144  0.16096491  0.42205836  1
  O  O24  1  0.93242144  0.66096491  0.07794164  1
  O  O25  1  0.98509240  0.10330931  0.32586068  1
  O  O26  1  0.01490760  0.89669069  0.67413932  1
  O  O27  1  0.30959405  0.99189157  0.22671361  1
  O  O28  1  0.06757856  0.33903509  0.92205836  1
  O  O29  1  0.75077800  0.51283520  0.52433876  1
  O  O30  1  0.48509240  0.60330931  0.17413932  1
  O  O31  1  0.25077800  0.01283520  0.97566124  1
