# generated using pymatgen
data_Cs2Ta6PbCl18
_symmetry_space_group_name_H-M   'P 1'
_cell_length_a   10.51480309
_cell_length_b   10.51480305
_cell_length_c   10.51480301
_cell_angle_alpha   54.85236843
_cell_angle_beta   54.85236858
_cell_angle_gamma   54.85236577
_symmetry_Int_Tables_number   1
_chemical_formula_structural   Cs2Ta6PbCl18
_chemical_formula_sum   'Cs2 Ta6 Pb1 Cl18'
_cell_volume   723.51774835
_cell_formula_units_Z   1
loop_
 _symmetry_equiv_pos_site_id
 _symmetry_equiv_pos_as_xyz
  1  'x, y, z'
loop_
 _atom_site_type_symbol
 _atom_site_label
 _atom_site_symmetry_multiplicity
 _atom_site_fract_x
 _atom_site_fract_y
 _atom_site_fract_z
 _atom_site_occupancy
  Cs  Cs0  1  0.72336266  0.72336266  0.72336266  1
  Cs  Cs1  1  0.27663734  0.27663734  0.27663734  1
  Ta  Ta2  1  0.35606058  0.57931705  0.69731035  1
  Ta  Ta3  1  0.30268965  0.64393942  0.42068295  1
  Ta  Ta4  1  0.42068295  0.30268965  0.64393942  1
  Ta  Ta5  1  0.69731035  0.35606058  0.57931705  1
  Ta  Ta6  1  0.64393942  0.42068295  0.30268965  1
  Ta  Ta7  1  0.57931705  0.69731035  0.35606058  1
  Pb  Pb8  1  0.00000000  0.00000000  0.00000000  1
  Cl  Cl9  1  0.23327055  0.36034740  0.90512674  1
  Cl  Cl10  1  0.90512674  0.23327055  0.36034740  1
  Cl  Cl11  1  0.36034740  0.90512674  0.23327055  1
  Cl  Cl12  1  0.95458702  0.17523809  0.67677575  1
  Cl  Cl13  1  0.42271846  0.83008042  0.56439259  1
  Cl  Cl14  1  0.82476191  0.32322425  0.04541298  1
  Cl  Cl15  1  0.63965260  0.09487326  0.76672945  1
  Cl  Cl16  1  0.16991958  0.43560741  0.57728154  1
  Cl  Cl17  1  0.43560741  0.57728154  0.16991958  1
  Cl  Cl18  1  0.32322425  0.04541298  0.82476191  1
  Cl  Cl19  1  0.04541298  0.82476191  0.32322425  1
  Cl  Cl20  1  0.67677575  0.95458702  0.17523809  1
  Cl  Cl21  1  0.17523809  0.67677575  0.95458702  1
  Cl  Cl22  1  0.09487326  0.76672945  0.63965260  1
  Cl  Cl23  1  0.56439259  0.42271846  0.83008042  1
  Cl  Cl24  1  0.83008042  0.56439259  0.42271846  1
  Cl  Cl25  1  0.76672945  0.63965260  0.09487326  1
  Cl  Cl26  1  0.57728154  0.16991958  0.43560741  1
