# generated using pymatgen
data_NaLa6OsI12
_symmetry_space_group_name_H-M   'P 1'
_cell_length_a   10.18415459
_cell_length_b   10.18415445
_cell_length_c   10.18415405
_cell_angle_alpha   107.21653350
_cell_angle_beta   107.21653331
_cell_angle_gamma   107.21653032
_symmetry_Int_Tables_number   1
_chemical_formula_structural   NaLa6OsI12
_chemical_formula_sum   'Na1 La6 Os1 I12'
_cell_volume   874.42367243
_cell_formula_units_Z   1
loop_
 _symmetry_equiv_pos_site_id
 _symmetry_equiv_pos_as_xyz
  1  'x, y, z'
loop_
 _atom_site_type_symbol
 _atom_site_label
 _atom_site_symmetry_multiplicity
 _atom_site_fract_x
 _atom_site_fract_y
 _atom_site_fract_z
 _atom_site_occupancy
  Na  Na0  1  0.00000000  0.00000000  0.00000000  1
  La  La1  1  0.53254942  0.60457303  0.80961092  1
  La  La2  1  0.39542697  0.19038908  0.46745058  1
  La  La3  1  0.80961092  0.53254942  0.60457303  1
  La  La4  1  0.60457303  0.80961092  0.53254942  1
  La  La5  1  0.46745058  0.39542697  0.19038908  1
  La  La6  1  0.19038908  0.46745058  0.39542697  1
  Os  Os7  1  0.50000000  0.50000000  0.50000000  1
  I  I8  1  0.88019489  0.65174261  0.95947379  1
  I  I9  1  0.04052621  0.11980511  0.34825739  1
  I  I10  1  0.27251128  0.81564596  0.42468722  1
  I  I11  1  0.34825739  0.04052621  0.11980511  1
  I  I12  1  0.95947379  0.88019489  0.65174261  1
  I  I13  1  0.81564596  0.42468722  0.27251128  1
  I  I14  1  0.11980511  0.34825739  0.04052621  1
  I  I15  1  0.72748872  0.18435404  0.57531278  1
  I  I16  1  0.65174261  0.95947379  0.88019489  1
  I  I17  1  0.57531278  0.72748872  0.18435404  1
  I  I18  1  0.18435404  0.57531278  0.72748872  1
  I  I19  1  0.42468722  0.27251128  0.81564596  1
