# generated using pymatgen
data_K14(Tl7Cd3)3
_symmetry_space_group_name_H-M   'P 1'
_cell_length_a   10.21663547
_cell_length_b   10.21663539
_cell_length_c   17.57670334
_cell_angle_alpha   90.00000000
_cell_angle_beta   90.00000000
_cell_angle_gamma   120.00000030
_symmetry_Int_Tables_number   1
_chemical_formula_structural   K14(Tl7Cd3)3
_chemical_formula_sum   'K14 Tl21 Cd9'
_cell_volume   1588.85346582
_cell_formula_units_Z   1
loop_
 _symmetry_equiv_pos_site_id
 _symmetry_equiv_pos_as_xyz
  1  'x, y, z'
loop_
 _atom_site_type_symbol
 _atom_site_label
 _atom_site_symmetry_multiplicity
 _atom_site_fract_x
 _atom_site_fract_y
 _atom_site_fract_z
 _atom_site_occupancy
  K  K0  1  0.74850589  0.00000000  0.17809009  1
  K  K1  1  0.00000000  0.38782329  0.68379853  1
  K  K2  1  0.25149411  0.25149411  0.82190991  1
  K  K3  1  0.61217671  0.61217671  0.31620147  1
  K  K4  1  0.38782329  0.00000000  0.68379853  1
  K  K5  1  0.61217671  0.61217671  0.68379853  1
  K  K6  1  0.74850589  0.00000000  0.82190991  1
  K  K7  1  0.38782329  0.00000000  0.31620147  1
  K  K8  1  0.00000000  0.74850589  0.17809009  1
  K  K9  1  0.00000000  0.38782329  0.31620147  1
  K  K10  1  0.33333300  0.66666700  0.50000000  1
  K  K11  1  0.00000000  0.74850589  0.82190991  1
  K  K12  1  0.66666700  0.33333300  0.50000000  1
  K  K13  1  0.25149411  0.25149411  0.17809009  1
  Tl  Tl14  1  0.33333300  0.66666700  0.83557770  1
  Tl  Tl15  1  0.59939180  0.59939180  0.10879219  1
  Tl  Tl16  1  0.00000000  0.40060820  0.89120781  1
  Tl  Tl17  1  0.77897160  0.77897160  0.50000000  1
  Tl  Tl18  1  0.00000000  0.00000000  0.65250610  1
  Tl  Tl19  1  0.29464469  0.29464469  0.40600970  1
  Tl  Tl20  1  0.29464469  0.29464469  0.59399030  1
  Tl  Tl21  1  0.22102840  0.00000000  0.50000000  1
  Tl  Tl22  1  0.70535531  0.00000000  0.59399030  1
  Tl  Tl23  1  0.00000000  0.22102840  0.50000000  1
  Tl  Tl24  1  0.33333300  0.66666700  0.16442230  1
  Tl  Tl25  1  0.00000000  0.40060820  0.10879219  1
  Tl  Tl26  1  0.40060820  0.00000000  0.89120781  1
  Tl  Tl27  1  1.00000000  0.70535531  0.40600970  1
  Tl  Tl28  1  0.00000000  0.00000000  0.34749390  1
  Tl  Tl29  1  0.59939180  0.59939180  0.89120781  1
  Tl  Tl30  1  0.70535531  0.00000000  0.40600970  1
  Tl  Tl31  1  0.66666700  0.33333300  0.16442230  1
  Tl  Tl32  1  0.40060820  0.00000000  0.10879219  1
  Tl  Tl33  1  0.66666700  0.33333300  0.83557770  1
  Tl  Tl34  1  1.00000000  0.70535531  0.59399030  1
  Cd  Cd35  1  0.16479523  0.00000000  0.00000000  1
  Cd  Cd36  1  0.29920955  0.47169553  0.00000000  1
  Cd  Cd37  1  1.00000000  0.16479523  0.00000000  1
  Cd  Cd38  1  0.70079045  0.17248598  0.00000000  1
  Cd  Cd39  1  0.83520477  0.83520477  0.00000000  1
  Cd  Cd40  1  0.82751402  0.52830447  0.00000000  1
  Cd  Cd41  1  0.47169553  0.29920955  0.00000000  1
  Cd  Cd42  1  0.52830447  0.82751402  0.00000000  1
  Cd  Cd43  1  0.17248598  0.70079045  0.00000000  1
