# generated using pymatgen
data_Cs(BBr)6
_symmetry_space_group_name_H-M   'P 1'
_cell_length_a   17.21554302
_cell_length_b   17.21554274
_cell_length_c   17.21554272
_cell_angle_alpha   34.28718081
_cell_angle_beta   34.28718223
_cell_angle_gamma   34.28718028
_symmetry_Int_Tables_number   1
_chemical_formula_structural   Cs(BBr)6
_chemical_formula_sum   'Cs4 B24 Br24'
_cell_volume   1444.02454526
_cell_formula_units_Z   4
loop_
 _symmetry_equiv_pos_site_id
 _symmetry_equiv_pos_as_xyz
  1  'x, y, z'
loop_
 _atom_site_type_symbol
 _atom_site_label
 _atom_site_symmetry_multiplicity
 _atom_site_fract_x
 _atom_site_fract_y
 _atom_site_fract_z
 _atom_site_occupancy
  Cs  Cs0  1  0.62661356  0.62661356  0.62661356  1
  Cs  Cs1  1  0.20847944  0.20847944  0.20847944  1
  Cs  Cs2  1  0.79152056  0.79152056  0.79152056  1
  Cs  Cs3  1  0.37338644  0.37338644  0.37338644  1
  B  B4  1  0.95218960  0.08260045  0.88134978  1
  B  B5  1  0.97422642  0.18467755  0.86105758  1
  B  B6  1  0.64284988  0.32317353  0.55385939  1
  B  B7  1  0.18467755  0.86105758  0.97422642  1
  B  B8  1  0.44614061  0.35715012  0.67682647  1
  B  B9  1  0.04781040  0.91739955  0.11865022  1
  B  B10  1  0.35715012  0.67682647  0.44614061  1
  B  B11  1  0.64136948  0.49843495  0.44372794  1
  B  B12  1  0.86105758  0.97422642  0.18467755  1
  B  B13  1  0.55385939  0.64284988  0.32317353  1
  B  B14  1  0.67682647  0.44614061  0.35715012  1
  B  B15  1  0.13894242  0.02577358  0.81532245  1
  B  B16  1  0.02577358  0.81532245  0.13894242  1
  B  B17  1  0.11865022  0.04781040  0.91739955  1
  B  B18  1  0.88134978  0.95218960  0.08260045  1
  B  B19  1  0.81532245  0.13894242  0.02577358  1
  B  B20  1  0.91739955  0.11865022  0.04781040  1
  B  B21  1  0.50156505  0.55627206  0.35863052  1
  B  B22  1  0.49843495  0.44372794  0.64136948  1
  B  B23  1  0.32317353  0.55385939  0.64284988  1
  B  B24  1  0.35863052  0.50156505  0.55627206  1
  B  B25  1  0.44372794  0.64136948  0.49843495  1
  B  B26  1  0.08260045  0.88134978  0.95218960  1
  B  B27  1  0.55627206  0.35863052  0.50156505  1
  Br  Br28  1  0.62208199  0.19550585  0.50246570  1
  Br  Br29  1  0.50246570  0.62208199  0.19550585  1
  Br  Br30  1  0.70141303  0.94511725  0.39875019  1
  Br  Br31  1  0.10159468  0.82248701  0.25605993  1
  Br  Br32  1  0.38520367  0.19104295  0.87807516  1
  Br  Br33  1  0.82248701  0.25605993  0.10159468  1
  Br  Br34  1  0.19550585  0.50246570  0.62208199  1
  Br  Br35  1  0.80895705  0.12192484  0.61479633  1
  Br  Br36  1  0.60124981  0.29858697  0.05488275  1
  Br  Br37  1  0.17751299  0.74394007  0.89840532  1
  Br  Br38  1  0.05488275  0.60124981  0.29858697  1
  Br  Br39  1  0.80449415  0.49753430  0.37791801  1
  Br  Br40  1  0.61479633  0.80895705  0.12192484  1
  Br  Br41  1  0.74394007  0.89840532  0.17751299  1
  Br  Br42  1  0.19104295  0.87807516  0.38520367  1
  Br  Br43  1  0.87807516  0.38520367  0.19104295  1
  Br  Br44  1  0.25605993  0.10159468  0.82248701  1
  Br  Br45  1  0.89840532  0.17751299  0.74394007  1
  Br  Br46  1  0.37791801  0.80449415  0.49753430  1
  Br  Br47  1  0.39875019  0.70141303  0.94511725  1
  Br  Br48  1  0.49753430  0.37791801  0.80449415  1
  Br  Br49  1  0.29858697  0.05488275  0.60124981  1
  Br  Br50  1  0.12192484  0.61479633  0.80895705  1
  Br  Br51  1  0.94511725  0.39875019  0.70141303  1
