# generated using pymatgen
data_Ca9B2(CCl2)4
_symmetry_space_group_name_H-M   'P 1'
_cell_length_a   8.94075033
_cell_length_b   8.94075042
_cell_length_c   12.16499445
_cell_angle_alpha   90.00000000
_cell_angle_beta   90.00000000
_cell_angle_gamma   98.39302773
_symmetry_Int_Tables_number   1
_chemical_formula_structural   Ca9B2(CCl2)4
_chemical_formula_sum   'Ca18 B4 C8 Cl16'
_cell_volume   962.01871015
_cell_formula_units_Z   2
loop_
 _symmetry_equiv_pos_site_id
 _symmetry_equiv_pos_as_xyz
  1  'x, y, z'
loop_
 _atom_site_type_symbol
 _atom_site_label
 _atom_site_symmetry_multiplicity
 _atom_site_fract_x
 _atom_site_fract_y
 _atom_site_fract_z
 _atom_site_occupancy
  Ca  Ca0  1  0.87930914  0.12069086  0.75000000  1
  Ca  Ca1  1  0.19277177  0.43277564  0.75000000  1
  Ca  Ca2  1  0.66708517  0.97089167  0.44953842  1
  Ca  Ca3  1  0.43277564  0.19277177  0.25000000  1
  Ca  Ca4  1  0.34052416  0.65947584  0.40803497  1
  Ca  Ca5  1  0.33291483  0.02910833  0.55046158  1
  Ca  Ca6  1  0.02910833  0.33291483  0.05046158  1
  Ca  Ca7  1  0.34052416  0.65947584  0.09196503  1
  Ca  Ca8  1  0.80722823  0.56722436  0.25000000  1
  Ca  Ca9  1  0.65947584  0.34052416  0.90803497  1
  Ca  Ca10  1  0.65947584  0.34052416  0.59196503  1
  Ca  Ca11  1  0.12069086  0.87930914  0.25000000  1
  Ca  Ca12  1  0.33291483  0.02910833  0.94953842  1
  Ca  Ca13  1  0.97089167  0.66708517  0.94953842  1
  Ca  Ca14  1  0.02910833  0.33291483  0.44953842  1
  Ca  Ca15  1  0.97089167  0.66708517  0.55046158  1
  Ca  Ca16  1  0.56722436  0.80722823  0.75000000  1
  Ca  Ca17  1  0.66708517  0.97089167  0.05046158  1
  B  B18  1  0.91505631  0.41762759  0.75000000  1
  B  B19  1  0.08494369  0.58237241  0.25000000  1
  B  B20  1  0.41762759  0.91505631  0.25000000  1
  B  B21  1  0.58237241  0.08494369  0.75000000  1
  C  C22  1  0.06315652  0.59727893  0.36795459  1
  C  C23  1  0.93684348  0.40272107  0.63204541  1
  C  C24  1  0.06315652  0.59727893  0.13204541  1
  C  C25  1  0.59727893  0.06315652  0.63204541  1
  C  C26  1  0.40272107  0.93684348  0.13204541  1
  C  C27  1  0.93684348  0.40272107  0.86795459  1
  C  C28  1  0.40272107  0.93684348  0.36795459  1
  C  C29  1  0.59727893  0.06315652  0.86795459  1
  Cl  Cl30  1  0.87617393  0.80173089  0.75000000  1
  Cl  Cl31  1  0.48750759  0.51249241  0.25000000  1
  Cl  Cl32  1  0.80173089  0.87617393  0.25000000  1
  Cl  Cl33  1  0.27612031  0.72387969  0.87918813  1
  Cl  Cl34  1  0.72387969  0.27612031  0.37918813  1
  Cl  Cl35  1  0.19826911  0.12382607  0.75000000  1
  Cl  Cl36  1  0.33958874  0.33958874  0.50000000  1
  Cl  Cl37  1  0.66041126  0.66041126  0.00000000  1
  Cl  Cl38  1  0.33958874  0.33958874  0.00000000  1
  Cl  Cl39  1  0.27612031  0.72387969  0.62081187  1
  Cl  Cl40  1  0.00000000  0.00000000  0.50000000  1
  Cl  Cl41  1  0.66041126  0.66041126  0.50000000  1
  Cl  Cl42  1  0.72387969  0.27612031  0.12081187  1
  Cl  Cl43  1  0.12382607  0.19826911  0.25000000  1
  Cl  Cl44  1  0.51249241  0.48750759  0.75000000  1
  Cl  Cl45  1  0.00000000  0.00000000  0.00000000  1
