# generated using pymatgen
data_SrMo2(PO4)4
_symmetry_space_group_name_H-M   'P 1'
_cell_length_a   7.87013690
_cell_length_b   8.04400916
_cell_length_c   9.69745563
_cell_angle_alpha   91.08025586
_cell_angle_beta   90.00000000
_cell_angle_gamma   90.00000000
_symmetry_Int_Tables_number   1
_chemical_formula_structural   SrMo2(PO4)4
_chemical_formula_sum   'Sr2 Mo4 P8 O32'
_cell_volume   613.81210659
_cell_formula_units_Z   2
loop_
 _symmetry_equiv_pos_site_id
 _symmetry_equiv_pos_as_xyz
  1  'x, y, z'
loop_
 _atom_site_type_symbol
 _atom_site_label
 _atom_site_symmetry_multiplicity
 _atom_site_fract_x
 _atom_site_fract_y
 _atom_site_fract_z
 _atom_site_occupancy
  Sr  Sr0  1  0.00000000  0.50000000  0.00000000  1
  Sr  Sr1  1  0.50000000  0.00000000  0.50000000  1
  Mo  Mo2  1  0.72023206  0.55196346  0.66404171  1
  Mo  Mo3  1  0.27976794  0.44803654  0.33595829  1
  Mo  Mo4  1  0.77976794  0.05196346  0.16404171  1
  Mo  Mo5  1  0.22023206  0.94803654  0.83595829  1
  P  P6  1  0.59861610  0.78190448  0.93658636  1
  P  P7  1  0.61523995  0.67502219  0.21182130  1
  P  P8  1  0.09861610  0.71809552  0.56341364  1
  P  P9  1  0.38476005  0.32497781  0.78817870  1
  P  P10  1  0.90138390  0.28190448  0.43658636  1
  P  P11  1  0.88476005  0.17502219  0.71182130  1
  P  P12  1  0.11523995  0.82497781  0.28817870  1
  P  P13  1  0.40138390  0.21809552  0.06341364  1
  O  O14  1  0.85038486  0.35320431  0.77013554  1
  O  O15  1  0.01163171  0.09112413  0.80857322  1
  O  O16  1  0.76904757  0.57588543  0.17287303  1
  O  O17  1  0.35038486  0.14679569  0.72986446  1
  O  O18  1  0.20552490  0.85600869  0.63500449  1
  O  O19  1  0.73095243  0.07588543  0.67287303  1
  O  O20  1  0.70552490  0.64399131  0.86499551  1
  O  O21  1  0.23095243  0.42411457  0.82712697  1
  O  O22  1  0.49402690  0.29480362  0.93223744  1
  O  O23  1  0.46028438  0.84268069  0.84014201  1
  O  O24  1  0.62148049  0.71547045  0.58476710  1
  O  O25  1  0.99402690  0.20519638  0.56776256  1
  O  O26  1  0.53971562  0.15731931  0.15985799  1
  O  O27  1  0.77985223  0.41762285  0.48963602  1
  O  O28  1  0.00597310  0.79480362  0.43223744  1
  O  O29  1  0.79447510  0.14399131  0.36499551  1
  O  O30  1  0.96028438  0.65731931  0.65985799  1
  O  O31  1  0.48836829  0.59112413  0.30857322  1
  O  O32  1  0.64961514  0.85320431  0.27013554  1
  O  O33  1  0.27985223  0.08237715  0.01036398  1
  O  O34  1  0.03971562  0.34268069  0.34014201  1
  O  O35  1  0.26904757  0.92411457  0.32712697  1
  O  O36  1  0.14961514  0.64679569  0.22986446  1
  O  O37  1  0.37851951  0.28452955  0.41523290  1
  O  O38  1  0.98836829  0.90887587  0.19142678  1
  O  O39  1  0.22014777  0.58237715  0.51036398  1
  O  O40  1  0.51163171  0.40887587  0.69142678  1
  O  O41  1  0.29447510  0.35600869  0.13500449  1
  O  O42  1  0.72014777  0.91762285  0.98963602  1
  O  O43  1  0.12148049  0.78452955  0.91523290  1
  O  O44  1  0.50597310  0.70519638  0.06776256  1
  O  O45  1  0.87851951  0.21547045  0.08476710  1
