# generated using pymatgen
data_CrCl3
_symmetry_space_group_name_H-M   'P 1'
_cell_length_a   6.07022955
_cell_length_b   6.07022962
_cell_length_c   19.68237050
_cell_angle_alpha   90.00000000
_cell_angle_beta   90.00000000
_cell_angle_gamma   119.99999970
_symmetry_Int_Tables_number   1
_chemical_formula_structural   CrCl3
_chemical_formula_sum   'Cr6 Cl18'
_cell_volume   628.08477992
_cell_formula_units_Z   6
loop_
 _symmetry_equiv_pos_site_id
 _symmetry_equiv_pos_as_xyz
  1  'x, y, z'
loop_
 _atom_site_type_symbol
 _atom_site_label
 _atom_site_symmetry_multiplicity
 _atom_site_fract_x
 _atom_site_fract_y
 _atom_site_fract_z
 _atom_site_occupancy
  Cr  Cr0  1  0.88894687  0.11105313  0.66666700  1
  Cr  Cr1  1  0.55556865  0.44443135  0.66666700  1
  Cr  Cr2  1  0.88894687  0.77789373  0.33333300  1
  Cr  Cr3  1  0.55556865  0.11113730  0.33333300  1
  Cr  Cr4  1  0.88886270  0.44443135  0.00000000  1
  Cr  Cr5  1  0.22210627  0.11105313  0.00000000  1
  Cl  Cl6  1  0.91618807  0.77767263  0.93199491  1
  Cl  Cl7  1  0.86160869  0.41694058  0.59871358  1
  Cl  Cl8  1  0.91618807  0.13851545  0.06800509  1
  Cl  Cl9  1  0.22232717  0.80535321  0.26533755  1
  Cl  Cl10  1  0.22232717  0.41697396  0.73466245  1
  Cl  Cl11  1  0.86148455  0.77767263  0.73467209  1
  Cl  Cl12  1  0.22232737  0.08381193  0.40133809  1
  Cl  Cl13  1  0.58305942  0.44466810  0.26537958  1
  Cl  Cl14  1  0.58305942  0.13839131  0.73462042  1
  Cl  Cl15  1  0.19464679  0.41697396  0.93200455  1
  Cl  Cl16  1  0.86160869  0.44466810  0.40128642  1
  Cl  Cl17  1  0.19464679  0.77767283  0.06799545  1
  Cl  Cl18  1  0.55533190  0.41694058  0.06795342  1
  Cl  Cl19  1  0.58302604  0.80535321  0.40132845  1
  Cl  Cl20  1  0.58302604  0.77767283  0.59867155  1
  Cl  Cl21  1  0.22232737  0.13851545  0.59866191  1
  Cl  Cl22  1  0.86148455  0.08381193  0.26532791  1
  Cl  Cl23  1  0.55533190  0.13839131  0.93204658  1
