# generated using pymatgen
data_Rb2(PSe2)3
_symmetry_space_group_name_H-M   'P 1'
_cell_length_a   10.85672362
_cell_length_b   15.60641816
_cell_length_c   16.99747627
_cell_angle_alpha   90.00000000
_cell_angle_beta   90.00000000
_cell_angle_gamma   90.00000000
_symmetry_Int_Tables_number   1
_chemical_formula_structural   Rb2(PSe2)3
_chemical_formula_sum   'Rb16 P24 Se48'
_cell_volume   2879.96006014
_cell_formula_units_Z   8
loop_
 _symmetry_equiv_pos_site_id
 _symmetry_equiv_pos_as_xyz
  1  'x, y, z'
loop_
 _atom_site_type_symbol
 _atom_site_label
 _atom_site_symmetry_multiplicity
 _atom_site_fract_x
 _atom_site_fract_y
 _atom_site_fract_z
 _atom_site_occupancy
  Rb  Rb0  1  0.23848676  0.30199204  0.52552293  1
  Rb  Rb1  1  0.23848676  0.80199204  0.97447707  1
  Rb  Rb2  1  0.27545803  0.54416701  0.27850796  1
  Rb  Rb3  1  0.76151324  0.30199204  0.02552293  1
  Rb  Rb4  1  0.72454197  0.54416701  0.77850796  1
  Rb  Rb5  1  0.76226904  0.01975211  0.16335356  1
  Rb  Rb6  1  0.76226904  0.51975211  0.33664644  1
  Rb  Rb7  1  0.26725885  0.84190012  0.41056038  1
  Rb  Rb8  1  0.72454197  0.04416701  0.72149204  1
  Rb  Rb9  1  0.23773096  0.51975211  0.83664644  1
  Rb  Rb10  1  0.23773096  0.01975211  0.66335356  1
  Rb  Rb11  1  0.27545803  0.04416701  0.22149204  1
  Rb  Rb12  1  0.73274115  0.34190012  0.58943962  1
  Rb  Rb13  1  0.76151324  0.80199204  0.47447707  1
  Rb  Rb14  1  0.73274115  0.84190012  0.91056038  1
  Rb  Rb15  1  0.26725885  0.34190012  0.08943962  1
  P  P16  1  0.93620807  0.06173861  0.53264274  1
  P  P17  1  0.80193183  0.16234088  0.32100266  1
  P  P18  1  0.70979973  0.19223704  0.43374820  1
  P  P19  1  0.04552271  0.55830210  0.08396545  1
  P  P20  1  0.70979973  0.69223704  0.06625180  1
  P  P21  1  0.06379193  0.06173861  0.03264274  1
  P  P22  1  0.29020027  0.19223704  0.93374820  1
  P  P23  1  0.04552271  0.05830210  0.41603455  1
  P  P24  1  0.46479723  0.79577758  0.16173125  1
  P  P25  1  0.93620807  0.56173861  0.96735726  1
  P  P26  1  0.46479723  0.29577758  0.33826875  1
  P  P27  1  0.53520277  0.79577758  0.66173125  1
  P  P28  1  0.19806817  0.16234088  0.82100266  1
  P  P29  1  0.95447729  0.05830210  0.91603455  1
  P  P30  1  0.42368856  0.79909820  0.77677014  1
  P  P31  1  0.80193183  0.66234088  0.17899734  1
  P  P32  1  0.57631144  0.29909820  0.22322986  1
  P  P33  1  0.19806817  0.66234088  0.67899734  1
  P  P34  1  0.95447729  0.55830210  0.58396545  1
  P  P35  1  0.29020027  0.69223704  0.56625180  1
  P  P36  1  0.57631144  0.79909820  0.27677014  1
  P  P37  1  0.06379193  0.56173861  0.46735726  1
  P  P38  1  0.53520277  0.29577758  0.83826875  1
  P  P39  1  0.42368856  0.29909820  0.72322986  1
  Se  Se40  1  0.04466758  0.43721198  0.41351923  1
  Se  Se41  1  0.76188456  0.57025264  0.55221392  1
  Se  Se42  1  0.76188456  0.07025264  0.94778608  1
  Se  Se43  1  0.51379219  0.16131865  0.38874272  1
  Se  Se44  1  0.99995274  0.19184088  0.86237428  1
  Se  Se45  1  0.48592977  0.39715173  0.91844883  1
  Se  Se46  1  0.95533242  0.43721198  0.91351923  1
  Se  Se47  1  0.43953154  0.92747826  0.82332202  1
  Se  Se48  1  0.52992725  0.19246690  0.14748511  1
  Se  Se49  1  0.04466758  0.93721198  0.08648077  1
  Se  Se50  1  0.73375603  0.55695143  0.01067304  1
  Se  Se51  1  0.78034480  0.79794748  0.23495838  1
  Se  Se52  1  0.27579631  0.28401039  0.30157348  1
  Se  Se53  1  0.00004726  0.69184088  0.13762572  1
  Se  Se54  1  0.51379219  0.66131865  0.11125728  1
  Se  Se55  1  0.95533242  0.93721198  0.58648077  1
  Se  Se56  1  0.21965520  0.79794748  0.73495838  1
  Se  Se57  1  0.48620781  0.16131865  0.88874272  1
  Se  Se58  1  0.51407023  0.39715173  0.41844883  1
  Se  Se59  1  0.00004726  0.19184088  0.36237428  1
  Se  Se60  1  0.98901810  0.45433288  0.15874180  1
  Se  Se61  1  0.02178406  0.67270111  0.39635401  1
  Se  Se62  1  0.99995274  0.69184088  0.63762572  1
  Se  Se63  1  0.26624397  0.05695143  0.98932696  1
  Se  Se64  1  0.47007275  0.69246690  0.85251489  1
  Se  Se65  1  0.98901810  0.95433288  0.34125820  1
  Se  Se66  1  0.97821594  0.67270111  0.89635401  1
  Se  Se67  1  0.01098190  0.95433288  0.84125820  1
  Se  Se68  1  0.56046846  0.42747826  0.17667798  1
  Se  Se69  1  0.48620781  0.66131865  0.61125728  1
  Se  Se70  1  0.73375603  0.05695143  0.48932696  1
  Se  Se71  1  0.26624397  0.55695143  0.51067304  1
  Se  Se72  1  0.23811544  0.57025264  0.05221392  1
  Se  Se73  1  0.97821594  0.17270111  0.60364599  1
  Se  Se74  1  0.72420369  0.28401039  0.80157348  1
  Se  Se75  1  0.52992725  0.69246690  0.35251489  1
  Se  Se76  1  0.01098190  0.45433288  0.65874180  1
  Se  Se77  1  0.72420369  0.78401039  0.69842652  1
  Se  Se78  1  0.78034480  0.29794748  0.26504162  1
  Se  Se79  1  0.21965520  0.29794748  0.76504162  1
  Se  Se80  1  0.23811544  0.07025264  0.44778608  1
  Se  Se81  1  0.43953154  0.42747826  0.67667798  1
  Se  Se82  1  0.02178406  0.17270111  0.10364599  1
  Se  Se83  1  0.51407023  0.89715173  0.08155117  1
  Se  Se84  1  0.56046846  0.92747826  0.32332202  1
  Se  Se85  1  0.48592977  0.89715173  0.58155117  1
  Se  Se86  1  0.27579631  0.78401039  0.19842652  1
  Se  Se87  1  0.47007275  0.19246690  0.64748511  1
