# generated using pymatgen
data_La4B4Cl5
_symmetry_space_group_name_H-M   'P 1'
_cell_length_a   4.28721204
_cell_length_b   8.66856326
_cell_length_c   9.10136329
_cell_angle_alpha   63.63725482
_cell_angle_beta   76.37737371
_cell_angle_gamma   75.68308180
_symmetry_Int_Tables_number   1
_chemical_formula_structural   La4B4Cl5
_chemical_formula_sum   'La4 B4 Cl5'
_cell_volume   290.55820917
_cell_formula_units_Z   1
loop_
 _symmetry_equiv_pos_site_id
 _symmetry_equiv_pos_as_xyz
  1  'x, y, z'
loop_
 _atom_site_type_symbol
 _atom_site_label
 _atom_site_symmetry_multiplicity
 _atom_site_fract_x
 _atom_site_fract_y
 _atom_site_fract_z
 _atom_site_occupancy
  La  La0  1  0.83993783  0.08339748  0.23672687  1
  La  La1  1  0.43955228  0.32324634  0.79764910  1
  La  La2  1  0.56044772  0.67675366  0.20235090  1
  La  La3  1  0.16006217  0.91660252  0.76327313  1
  B  B4  1  0.97602272  0.12477567  0.92317888  1
  B  B5  1  0.68536706  0.00000000  0.00000000  1
  B  B6  1  0.02397728  0.87522433  0.07682112  1
  B  B7  1  0.31463294  1.00000000  1.00000000  1
  Cl  Cl8  1  0.75258903  0.64649555  0.84832640  1
  Cl  Cl9  1  0.00000000  0.50000000  0.50000000  1
  Cl  Cl10  1  0.64880691  0.14572618  0.55665999  1
  Cl  Cl11  1  0.35119309  0.85427382  0.44334001  1
  Cl  Cl12  1  0.24741097  0.35350445  0.15167360  1
