# generated using pymatgen
data_ZrHg3(SeBr3)2
_symmetry_space_group_name_H-M   'P 1'
_cell_length_a   7.18728515
_cell_length_b   7.79328310
_cell_length_c   13.89566741
_cell_angle_alpha   90.00000000
_cell_angle_beta   91.99816461
_cell_angle_gamma   90.00000000
_symmetry_Int_Tables_number   1
_chemical_formula_structural   ZrHg3(SeBr3)2
_chemical_formula_sum   'Zr2 Hg6 Se4 Br12'
_cell_volume   777.85846684
_cell_formula_units_Z   2
loop_
 _symmetry_equiv_pos_site_id
 _symmetry_equiv_pos_as_xyz
  1  'x, y, z'
loop_
 _atom_site_type_symbol
 _atom_site_label
 _atom_site_symmetry_multiplicity
 _atom_site_fract_x
 _atom_site_fract_y
 _atom_site_fract_z
 _atom_site_occupancy
  Zr  Zr0  1  0.50000000  0.00000000  0.00000000  1
  Zr  Zr1  1  0.50000000  0.50000000  0.50000000  1
  Hg  Hg2  1  0.99288637  0.80014088  0.23860160  1
  Hg  Hg3  1  0.00711363  0.19985912  0.76139840  1
  Hg  Hg4  1  0.99288637  0.69985912  0.73860160  1
  Hg  Hg5  1  0.00711363  0.30014088  0.26139840  1
  Hg  Hg6  1  0.00000000  0.50000000  0.00000000  1
  Hg  Hg7  1  0.00000000  0.00000000  0.50000000  1
  Se  Se8  1  0.83779154  0.45809732  0.83190909  1
  Se  Se9  1  0.83779154  0.04190268  0.33190909  1
  Se  Se10  1  0.16220846  0.54190268  0.16809091  1
  Se  Se11  1  0.16220846  0.95809732  0.66809091  1
  Br  Br12  1  0.63092225  0.79757521  0.56368729  1
  Br  Br13  1  0.64355858  0.94981329  0.82930529  1
  Br  Br14  1  0.64355858  0.55018671  0.32930529  1
  Br  Br15  1  0.36907775  0.29757521  0.93631271  1
  Br  Br16  1  0.63092225  0.70242479  0.06368729  1
  Br  Br17  1  0.18202295  0.85349045  0.93878044  1
  Br  Br18  1  0.35644142  0.44981329  0.67069471  1
  Br  Br19  1  0.81797705  0.14650955  0.06121956  1
  Br  Br20  1  0.36907775  0.20242479  0.43631271  1
  Br  Br21  1  0.81797705  0.35349045  0.56121956  1
  Br  Br22  1  0.35644142  0.05018671  0.17069471  1
  Br  Br23  1  0.18202295  0.64650955  0.43878044  1
