# generated using pymatgen
data_Rb2Tb10C4Br19
_symmetry_space_group_name_H-M   'P 1'
_cell_length_a   12.86933998
_cell_length_b   14.58477788
_cell_length_c   23.44345142
_cell_angle_alpha   90.00000000
_cell_angle_beta   90.00000000
_cell_angle_gamma   90.00000000
_symmetry_Int_Tables_number   1
_chemical_formula_structural   Rb2Tb10C4Br19
_chemical_formula_sum   'Rb8 Tb40 C16 Br76'
_cell_volume   4400.25296059
_cell_formula_units_Z   4
loop_
 _symmetry_equiv_pos_site_id
 _symmetry_equiv_pos_as_xyz
  1  'x, y, z'
loop_
 _atom_site_type_symbol
 _atom_site_label
 _atom_site_symmetry_multiplicity
 _atom_site_fract_x
 _atom_site_fract_y
 _atom_site_fract_z
 _atom_site_occupancy
  Tb  Tb0  1  0.11638493  0.31241572  0.97891561  1
  Tb  Tb1  1  0.37198646  0.58629921  0.76465166  1
  Tb  Tb2  1  0.10077764  0.31261865  0.82660824  1
  Tb  Tb3  1  0.38818814  0.31684237  0.17240940  1
  Tb  Tb4  1  0.88818814  0.68315763  0.32759060  1
  Tb  Tb5  1  0.38818814  0.81684237  0.82759060  1
  Tb  Tb6  1  0.63129360  0.91468266  0.58783618  1
  Tb  Tb7  1  0.61181186  0.18315763  0.17240940  1
  Tb  Tb8  1  0.11181186  0.81684237  0.32759060  1
  Tb  Tb9  1  0.12801354  0.58629921  0.26465166  1
  Tb  Tb10  1  0.37198646  0.08629921  0.23534834  1
  Tb  Tb11  1  0.86870640  0.41468266  0.91216382  1
  Tb  Tb12  1  0.13129360  0.58531734  0.08783618  1
  Tb  Tb13  1  0.39922236  0.31261865  0.32660824  1
  Tb  Tb14  1  0.88818814  0.18315763  0.67240940  1
  Tb  Tb15  1  0.88361507  0.68758428  0.02108439  1
  Tb  Tb16  1  0.10077764  0.81261865  0.17339176  1
  Tb  Tb17  1  0.60077764  0.68738135  0.67339176  1
  Tb  Tb18  1  0.89922236  0.18738135  0.82660824  1
  Tb  Tb19  1  0.12801354  0.08629921  0.73534834  1
  Tb  Tb20  1  0.36870640  0.58531734  0.58783618  1
  Tb  Tb21  1  0.11181186  0.31684237  0.67240940  1
  Tb  Tb22  1  0.11638493  0.81241572  0.02108439  1
  Tb  Tb23  1  0.38361507  0.31241572  0.47891561  1
  Tb  Tb24  1  0.88361507  0.18758428  0.97891561  1
  Tb  Tb25  1  0.87198646  0.41370079  0.73534834  1
  Tb  Tb26  1  0.61638493  0.18758428  0.47891561  1
  Tb  Tb27  1  0.36870640  0.08531734  0.41216382  1
  Tb  Tb28  1  0.60077764  0.18738135  0.32660824  1
  Tb  Tb29  1  0.39922236  0.81261865  0.67339176  1
  Tb  Tb30  1  0.63129360  0.41468266  0.41216382  1
  Tb  Tb31  1  0.13129360  0.08531734  0.91216382  1
  Tb  Tb32  1  0.87198646  0.91370079  0.26465166  1
  Tb  Tb33  1  0.61181186  0.68315763  0.82759060  1
  Tb  Tb34  1  0.89922236  0.68738135  0.17339176  1
  Tb  Tb35  1  0.62801354  0.41370079  0.23534834  1
  Tb  Tb36  1  0.61638493  0.68758428  0.52108439  1
  Tb  Tb37  1  0.86870640  0.91468266  0.08783618  1
  Tb  Tb38  1  0.38361507  0.81241572  0.52108439  1
  Tb  Tb39  1  0.62801354  0.91370079  0.76465166  1
  Rb  Rb40  1  0.00000000  0.75000000  0.77087244  1
  Rb  Rb41  1  0.00000000  0.25000000  0.22912756  1
  Rb  Rb42  1  0.00000000  0.50000000  0.50000000  1
  Rb  Rb43  1  0.50000000  0.50000000  0.00000000  1
  Rb  Rb44  1  0.50000000  0.25000000  0.72912756  1
  Rb  Rb45  1  0.50000000  0.00000000  0.00000000  1
  Rb  Rb46  1  0.50000000  0.75000000  0.27087244  1
  Rb  Rb47  1  0.00000000  0.00000000  0.50000000  1
  C  C48  1  0.96891355  0.79042582  0.25734631  1
  C  C49  1  0.03108645  0.20957418  0.74265369  1
  C  C50  1  0.96907361  0.29085500  0.90907541  1
  C  C51  1  0.53108645  0.79042582  0.75734631  1
  C  C52  1  0.03092639  0.70914500  0.09092459  1
  C  C53  1  0.03108645  0.70957418  0.25734631  1
  C  C54  1  0.03092639  0.20914500  0.90907541  1
  C  C55  1  0.53092639  0.29085500  0.40907541  1
  C  C56  1  0.53092639  0.79085500  0.59092459  1
  C  C57  1  0.96907361  0.79085500  0.09092459  1
  C  C58  1  0.46907361  0.70914500  0.59092459  1
  C  C59  1  0.46891355  0.20957418  0.24265369  1
  C  C60  1  0.96891355  0.29042582  0.74265369  1
  C  C61  1  0.53108645  0.29042582  0.24265369  1
  C  C62  1  0.46891355  0.70957418  0.75734631  1
  C  C63  1  0.46907361  0.20914500  0.40907541  1
  Br  Br64  1  0.74346260  0.60171701  0.25103702  1
  Br  Br65  1  0.26357063  0.17123335  0.65849391  1
  Br  Br66  1  0.76360820  0.83488990  0.50778156  1
  Br  Br67  1  0.75653740  0.60171701  0.75103702  1
  Br  Br68  1  0.26445360  0.65893710  0.17505134  1
  Br  Br69  1  0.26357063  0.67123335  0.34150609  1
  Br  Br70  1  0.76357063  0.32876665  0.15849391  1
  Br  Br71  1  0.50793959  0.50602094  0.84521036  1
  Br  Br72  1  0.74818825  0.59450187  0.92659329  1
  Br  Br73  1  0.73639180  0.33488990  0.99221844  1
  Br  Br74  1  0.25435455  0.40430619  0.40413929  1
  Br  Br75  1  0.25181175  0.40549813  0.07340671  1
  Br  Br76  1  0.49206041  0.49397906  0.15478964  1
  Br  Br77  1  0.73639180  0.83488990  0.00778156  1
  Br  Br78  1  0.76445360  0.34106290  0.32494866  1
  Br  Br79  1  0.99206041  0.50602094  0.34521036  1
  Br  Br80  1  0.75653740  0.10171701  0.24896298  1
  Br  Br81  1  0.49206041  0.99397906  0.84521036  1
  Br  Br82  1  0.50793959  0.00602094  0.15478964  1
  Br  Br83  1  0.73554640  0.84106290  0.17505134  1
  Br  Br84  1  0.23639180  0.66511010  0.50778156  1
  Br  Br85  1  0.00000000  0.75000000  0.92644377  1
  Br  Br86  1  0.75435455  0.59569381  0.09586071  1
  Br  Br87  1  0.23642937  0.67123335  0.84150609  1
  Br  Br88  1  0.00793959  0.99397906  0.34521036  1
  Br  Br89  1  0.50000000  0.25000000  0.57355623  1
  Br  Br90  1  0.25653740  0.89828299  0.25103702  1
  Br  Br91  1  0.75435455  0.09569381  0.90413929  1
  Br  Br92  1  0.74564545  0.59569381  0.59586071  1
  Br  Br93  1  0.00000000  0.25000000  0.07355623  1
  Br  Br94  1  0.50386750  0.50239175  0.32516690  1
  Br  Br95  1  0.73642937  0.32876665  0.65849391  1
  Br  Br96  1  0.00000000  0.75000000  0.42313110  1
  Br  Br97  1  0.26445360  0.15893710  0.82494866  1
  Br  Br98  1  0.99206041  0.00602094  0.65478964  1
  Br  Br99  1  0.74346260  0.10171701  0.74896298  1
  Br  Br100  1  0.24564545  0.40430619  0.90413929  1
  Br  Br101  1  0.50000000  0.50000000  0.50000000  1
  Br  Br102  1  0.24346260  0.89828299  0.75103702  1
  Br  Br103  1  0.23642937  0.17123335  0.15849391  1
  Br  Br104  1  0.49613250  0.49760825  0.67483310  1
  Br  Br105  1  0.24818825  0.40549813  0.57340671  1
  Br  Br106  1  0.76445360  0.84106290  0.67505134  1
  Br  Br107  1  0.75181175  0.09450187  0.57340671  1
  Br  Br108  1  0.76357063  0.82876665  0.84150609  1
  Br  Br109  1  0.00386750  0.49760825  0.17483310  1
  Br  Br110  1  0.25181175  0.90549813  0.92659329  1
  Br  Br111  1  0.23554640  0.65893710  0.67505134  1
  Br  Br112  1  0.24564545  0.90430619  0.09586071  1
  Br  Br113  1  0.23639180  0.16511010  0.49221844  1
  Br  Br114  1  0.50000000  0.25000000  0.07686890  1
  Br  Br115  1  0.00000000  0.25000000  0.57686890  1
  Br  Br116  1  0.99613250  0.50239175  0.82516690  1
  Br  Br117  1  0.25653740  0.39828299  0.74896298  1
  Br  Br118  1  0.75181175  0.59450187  0.42659329  1
  Br  Br119  1  0.00000000  0.50000000  0.00000000  1
  Br  Br120  1  0.50000000  0.75000000  0.42644377  1
  Br  Br121  1  0.00000000  0.00000000  0.00000000  1
  Br  Br122  1  0.50386750  0.00239175  0.67483310  1
  Br  Br123  1  0.24818825  0.90549813  0.42659329  1
  Br  Br124  1  0.49613250  0.99760825  0.32516690  1
  Br  Br125  1  0.26360820  0.66511010  0.00778156  1
  Br  Br126  1  0.74564545  0.09569381  0.40413929  1
  Br  Br127  1  0.74818825  0.09450187  0.07340671  1
  Br  Br128  1  0.50000000  0.75000000  0.92313110  1
  Br  Br129  1  0.73554640  0.34106290  0.82494866  1
  Br  Br130  1  0.25435455  0.90430619  0.59586071  1
  Br  Br131  1  0.00793959  0.49397906  0.65478964  1
  Br  Br132  1  0.24346260  0.39828299  0.24896298  1
  Br  Br133  1  0.50000000  0.00000000  0.50000000  1
  Br  Br134  1  0.99613250  0.00239175  0.17483310  1
  Br  Br135  1  0.73642937  0.82876665  0.34150609  1
  Br  Br136  1  0.26360820  0.16511010  0.99221844  1
  Br  Br137  1  0.76360820  0.33488990  0.49221844  1
  Br  Br138  1  0.23554640  0.15893710  0.32494866  1
  Br  Br139  1  0.00386750  0.99760825  0.82516690  1
