# generated using pymatgen
data_SrCd11
_symmetry_space_group_name_H-M   'P 1'
_cell_length_a   7.84158374
_cell_length_b   9.46390173
_cell_length_c   9.46390193
_cell_angle_alpha   80.11707650
_cell_angle_beta   65.52544313
_cell_angle_gamma   65.52544387
_symmetry_Int_Tables_number   1
_chemical_formula_structural   SrCd11
_chemical_formula_sum   'Sr2 Cd22'
_cell_volume   581.78930424
_cell_formula_units_Z   2
loop_
 _symmetry_equiv_pos_site_id
 _symmetry_equiv_pos_as_xyz
  1  'x, y, z'
loop_
 _atom_site_type_symbol
 _atom_site_label
 _atom_site_symmetry_multiplicity
 _atom_site_fract_x
 _atom_site_fract_y
 _atom_site_fract_z
 _atom_site_occupancy
  Sr  Sr0  1  0.37500000  0.25000000  0.75000000  1
  Sr  Sr1  1  0.62500000  0.75000000  0.25000000  1
  Cd  Cd2  1  0.72028359  0.83435831  0.57486876  1
  Cd  Cd3  1  0.00000000  0.00000000  0.00000000  1
  Cd  Cd4  1  0.20484765  0.07486876  0.16564169  1
  Cd  Cd5  1  0.12951067  0.42513124  0.16564169  1
  Cd  Cd6  1  0.20484765  0.66564169  0.57486876  1
  Cd  Cd7  1  0.87048933  0.57486876  0.83435831  1
  Cd  Cd8  1  0.12951067  0.66564169  0.92513124  1
  Cd  Cd9  1  0.12500000  0.75000000  0.25000000  1
  Cd  Cd10  1  0.87048933  0.33435831  0.07486876  1
  Cd  Cd11  1  0.87500000  0.25000000  0.75000000  1
  Cd  Cd12  1  0.55464191  0.57486876  0.66564169  1
  Cd  Cd13  1  0.50000000  0.50000000  0.00000000  1
  Cd  Cd14  1  0.27971641  0.16564169  0.42513124  1
  Cd  Cd15  1  0.79515235  0.33435831  0.42513124  1
  Cd  Cd16  1  0.72028359  0.07486876  0.33435831  1
  Cd  Cd17  1  0.44535809  0.42513124  0.33435831  1
  Cd  Cd18  1  0.55464191  0.16564169  0.07486876  1
  Cd  Cd19  1  0.27971641  0.92513124  0.66564169  1
  Cd  Cd20  1  0.79515235  0.92513124  0.83435831  1
  Cd  Cd21  1  0.44535809  0.83435831  0.92513124  1
  Cd  Cd22  1  0.00000000  0.00000000  0.50000000  1
  Cd  Cd23  1  0.00000000  0.50000000  0.50000000  1
