# generated using pymatgen
data_Cs3Au2Br11
_symmetry_space_group_name_H-M   'P 1'
_cell_length_a   7.88897141
_cell_length_b   16.91869829
_cell_length_c   19.22441581
_cell_angle_alpha   90.00000000
_cell_angle_beta   93.85077086
_cell_angle_gamma   90.00000000
_symmetry_Int_Tables_number   1
_chemical_formula_structural   Cs3Au2Br11
_chemical_formula_sum   'Cs12 Au8 Br44'
_cell_volume   2560.11153237
_cell_formula_units_Z   4
loop_
 _symmetry_equiv_pos_site_id
 _symmetry_equiv_pos_as_xyz
  1  'x, y, z'
loop_
 _atom_site_type_symbol
 _atom_site_label
 _atom_site_symmetry_multiplicity
 _atom_site_fract_x
 _atom_site_fract_y
 _atom_site_fract_z
 _atom_site_occupancy
  Cs  Cs0  1  0.74658697  0.36844221  0.07615768  1
  Cs  Cs1  1  0.74658697  0.13155779  0.57615768  1
  Cs  Cs2  1  0.23476142  0.97563346  0.90090689  1
  Cs  Cs3  1  0.23476142  0.52436654  0.40090689  1
  Cs  Cs4  1  0.76523858  0.47563346  0.59909311  1
  Cs  Cs5  1  0.25770013  0.22388588  0.32623642  1
  Cs  Cs6  1  0.25770013  0.27611412  0.82623642  1
  Cs  Cs7  1  0.25341303  0.86844221  0.42384232  1
  Cs  Cs8  1  0.76523858  0.02436654  0.09909311  1
  Cs  Cs9  1  0.74229987  0.72388588  0.17376358  1
  Cs  Cs10  1  0.25341303  0.63155779  0.92384232  1
  Cs  Cs11  1  0.74229987  0.77611412  0.67376358  1
  Au  Au12  1  0.73639503  0.68851849  0.43492134  1
  Au  Au13  1  0.75647354  0.50222954  0.83094857  1
  Au  Au14  1  0.24352646  0.00222954  0.66905143  1
  Au  Au15  1  0.24352646  0.49777046  0.16905143  1
  Au  Au16  1  0.75647354  0.99777046  0.33094857  1
  Au  Au17  1  0.26360497  0.31148151  0.56507866  1
  Au  Au18  1  0.26360497  0.18851849  0.06507866  1
  Au  Au19  1  0.73639503  0.81148151  0.93492134  1
  Br  Br20  1  0.38562630  0.79773302  0.78970061  1
  Br  Br21  1  0.73965469  0.83269692  0.45918712  1
  Br  Br22  1  0.92891640  0.16780310  0.92549771  1
  Br  Br23  1  0.97734739  0.43696414  0.90922407  1
  Br  Br24  1  0.03268528  0.20430909  0.14543618  1
  Br  Br25  1  0.02265261  0.93696414  0.59077593  1
  Br  Br26  1  0.53203433  0.05211911  0.40223571  1
  Br  Br27  1  0.26225486  0.45583441  0.58800194  1
  Br  Br28  1  0.97734739  0.06303586  0.40922407  1
  Br  Br29  1  0.50310124  0.82875421  0.01420415  1
  Br  Br30  1  0.98044704  0.55778166  0.76137866  1
  Br  Br31  1  0.76987649  0.26865097  0.31755642  1
  Br  Br32  1  0.01955296  0.05778166  0.73862134  1
  Br  Br33  1  0.61437370  0.29773302  0.71029939  1
  Br  Br34  1  0.26225486  0.04416559  0.08800194  1
  Br  Br35  1  0.76987649  0.23134903  0.81755642  1
  Br  Br36  1  0.98044704  0.94221834  0.26137866  1
  Br  Br37  1  0.53774194  0.56786676  0.75243275  1
  Br  Br38  1  0.03268528  0.29569091  0.64543618  1
  Br  Br39  1  0.46225806  0.06786676  0.74756725  1
  Br  Br40  1  0.92891640  0.33219690  0.42549771  1
  Br  Br41  1  0.50310124  0.67124579  0.51420415  1
  Br  Br42  1  0.96731472  0.70430909  0.35456382  1
  Br  Br43  1  0.49689876  0.17124579  0.98579585  1
  Br  Br44  1  0.23012351  0.76865097  0.18244358  1
  Br  Br45  1  0.53203433  0.44788089  0.90223571  1
  Br  Br46  1  0.26034531  0.33269692  0.04081288  1
  Br  Br47  1  0.49689876  0.32875421  0.48579585  1
  Br  Br48  1  0.01955296  0.44221834  0.23862134  1
  Br  Br49  1  0.07108360  0.66780310  0.57450229  1
  Br  Br50  1  0.96731472  0.79569091  0.85456382  1
  Br  Br51  1  0.38562630  0.70226698  0.28970061  1
  Br  Br52  1  0.61437370  0.20226698  0.21029939  1
  Br  Br53  1  0.73774514  0.95583441  0.91199806  1
  Br  Br54  1  0.26034531  0.16730308  0.54081288  1
  Br  Br55  1  0.46796567  0.94788089  0.59776429  1
  Br  Br56  1  0.23012351  0.73134903  0.68244358  1
  Br  Br57  1  0.02265261  0.56303586  0.09077593  1
  Br  Br58  1  0.73774514  0.54416559  0.41199806  1
  Br  Br59  1  0.46796567  0.55211911  0.09776429  1
  Br  Br60  1  0.07108360  0.83219690  0.07450229  1
  Br  Br61  1  0.73965469  0.66730308  0.95918712  1
  Br  Br62  1  0.53774194  0.93213324  0.25243275  1
  Br  Br63  1  0.46225806  0.43213324  0.24756725  1
