# generated using pymatgen
data_K2CuCl3
_symmetry_space_group_name_H-M   'P 1'
_cell_length_a   4.16776541
_cell_length_b   12.23904441
_cell_length_c   12.69238260
_cell_angle_alpha   90.00000000
_cell_angle_beta   90.00000000
_cell_angle_gamma   90.00000000
_symmetry_Int_Tables_number   1
_chemical_formula_structural   K2CuCl3
_chemical_formula_sum   'K8 Cu4 Cl12'
_cell_volume   647.43165798
_cell_formula_units_Z   4
loop_
 _symmetry_equiv_pos_site_id
 _symmetry_equiv_pos_as_xyz
  1  'x, y, z'
loop_
 _atom_site_type_symbol
 _atom_site_label
 _atom_site_symmetry_multiplicity
 _atom_site_fract_x
 _atom_site_fract_y
 _atom_site_fract_z
 _atom_site_occupancy
  K  K0  1  0.75000000  0.67395206  0.98118230  1
  K  K1  1  0.25000000  0.48736994  0.67580055  1
  K  K2  1  0.75000000  0.17395206  0.51881770  1
  K  K3  1  0.75000000  0.51263006  0.32419945  1
  K  K4  1  0.25000000  0.82604794  0.48118230  1
  K  K5  1  0.25000000  0.98736994  0.82419945  1
  K  K6  1  0.25000000  0.32604794  0.01881770  1
  K  K7  1  0.75000000  0.01263006  0.17580055  1
  Cu  Cu8  1  0.75000000  0.75248222  0.69751078  1
  Cu  Cu9  1  0.25000000  0.74751778  0.19751078  1
  Cu  Cu10  1  0.25000000  0.24751778  0.30248922  1
  Cu  Cu11  1  0.75000000  0.25248222  0.80248922  1
  Cl  Cl12  1  0.25000000  0.22455100  0.71226641  1
  Cl  Cl13  1  0.25000000  0.72455100  0.78773359  1
  Cl  Cl14  1  0.75000000  0.27544900  0.21226641  1
  Cl  Cl15  1  0.75000000  0.77544900  0.28773359  1
  Cl  Cl16  1  0.25000000  0.56433291  0.14109334  1
  Cl  Cl17  1  0.75000000  0.43566709  0.85890666  1
  Cl  Cl18  1  0.25000000  0.86562072  0.05365246  1
  Cl  Cl19  1  0.75000000  0.63437928  0.55365246  1
  Cl  Cl20  1  0.75000000  0.13437928  0.94634754  1
  Cl  Cl21  1  0.25000000  0.06433291  0.35890666  1
  Cl  Cl22  1  0.25000000  0.36562072  0.44634754  1
  Cl  Cl23  1  0.75000000  0.93566709  0.64109334  1
