# generated using pymatgen
data_Sc6Ni18Ge11
_symmetry_space_group_name_H-M   'P 1'
_cell_length_a   8.19882531
_cell_length_b   11.85343131
_cell_length_c   11.85343068
_cell_angle_alpha   63.72838505
_cell_angle_beta   69.76680149
_cell_angle_gamma   69.76680526
_symmetry_Int_Tables_number   1
_chemical_formula_structural   Sc6Ni18Ge11
_chemical_formula_sum   'Sc12 Ni36 Ge22'
_cell_volume   943.45292393
_cell_formula_units_Z   2
loop_
 _symmetry_equiv_pos_site_id
 _symmetry_equiv_pos_as_xyz
  1  'x, y, z'
loop_
 _atom_site_type_symbol
 _atom_site_label
 _atom_site_symmetry_multiplicity
 _atom_site_fract_x
 _atom_site_fract_y
 _atom_site_fract_z
 _atom_site_occupancy
  Sc  Sc0  1  0.79548612  0.81817330  0.18182670  1
  Sc  Sc1  1  0.69031861  0.80968139  0.80968139  1
  Sc  Sc2  1  0.71909685  0.09812055  0.46368575  1
  Sc  Sc3  1  0.28090315  0.53631425  0.90187945  1
  Sc  Sc4  1  0.71909685  0.46368575  0.09812055  1
  Sc  Sc5  1  0.20451388  0.81817330  0.18182670  1
  Sc  Sc6  1  0.13004533  0.36995467  0.36995467  1
  Sc  Sc7  1  0.86995467  0.63004533  0.63004533  1
  Sc  Sc8  1  0.30968139  0.19031861  0.19031861  1
  Sc  Sc9  1  0.28090315  0.90187945  0.53631425  1
  Sc  Sc10  1  0.79548612  0.18182670  0.81817330  1
  Sc  Sc11  1  0.20451388  0.18182670  0.81817330  1
  Ni  Ni12  1  0.38361252  0.43543646  0.12895473  1
  Ni  Ni13  1  0.63279672  0.73504817  0.43695501  1
  Ni  Ni14  1  0.80479990  0.26495183  0.56304499  1
  Ni  Ni15  1  0.80479990  0.56304499  0.26495183  1
  Ni  Ni16  1  0.56717654  0.43282346  0.43282346  1
  Ni  Ni17  1  0.19520010  0.73504817  0.43695501  1
  Ni  Ni18  1  0.95597570  0.20786387  0.20786387  1
  Ni  Ni19  1  0.57681028  0.75545880  0.09092065  1
  Ni  Ni20  1  0.19520010  0.43695501  0.73504817  1
  Ni  Ni21  1  0.62829655  0.20786387  0.20786387  1
  Ni  Ni22  1  0.42318972  0.90907935  0.24454120  1
  Ni  Ni23  1  0.94800372  0.56456354  0.87104527  1
  Ni  Ni24  1  0.57681028  0.09092065  0.75545880  1
  Ni  Ni25  1  0.19059140  0.07589482  0.07589482  1
  Ni  Ni26  1  0.05199628  0.12895473  0.43543646  1
  Ni  Ni27  1  0.37170345  0.79213613  0.79213613  1
  Ni  Ni28  1  0.63279672  0.43695501  0.73504817  1
  Ni  Ni29  1  0.36720328  0.56304499  0.26495183  1
  Ni  Ni30  1  0.00000000  0.61786114  0.38213886  1
  Ni  Ni31  1  0.42318972  0.24454120  0.90907935  1
  Ni  Ni32  1  0.88607481  0.21345748  0.01439289  1
  Ni  Ni33  1  0.43282346  0.56717654  0.56717654  1
  Ni  Ni34  1  0.04402430  0.79213613  0.79213613  1
  Ni  Ni35  1  0.38361252  0.12895473  0.43543646  1
  Ni  Ni36  1  0.34238103  0.92410518  0.92410518  1
  Ni  Ni37  1  1.00000000  0.38213886  0.61786114  1
  Ni  Ni38  1  0.80940860  0.92410518  0.92410518  1
  Ni  Ni39  1  0.88607481  0.01439289  0.21345748  1
  Ni  Ni40  1  0.11392519  0.98560711  0.78654252  1
  Ni  Ni41  1  0.05199628  0.43543646  0.12895473  1
  Ni  Ni42  1  0.94800372  0.87104527  0.56456354  1
  Ni  Ni43  1  0.11392519  0.78654252  0.98560711  1
  Ni  Ni44  1  0.36720328  0.26495183  0.56304499  1
  Ni  Ni45  1  0.61638748  0.87104527  0.56456354  1
  Ni  Ni46  1  0.65761897  0.07589482  0.07589482  1
  Ni  Ni47  1  0.61638748  0.56456354  0.87104527  1
  Ge  Ge48  1  0.42338406  0.01111591  0.67537693  1
  Ge  Ge49  1  0.10987691  0.32462307  0.98888409  1
  Ge  Ge50  1  0.89012309  0.01111591  0.67537693  1
  Ge  Ge51  1  0.88596188  0.82871933  0.39935691  1
  Ge  Ge52  1  0.50000000  0.67822435  0.32177565  1
  Ge  Ge53  1  0.11403812  0.60064309  0.17128067  1
  Ge  Ge54  1  0.57661594  0.32462307  0.98888409  1
  Ge  Ge55  1  0.76918741  0.50000000  0.50000000  1
  Ge  Ge56  1  0.23081259  0.50000000  0.50000000  1
  Ge  Ge57  1  0.84625033  0.33075645  0.33075645  1
  Ge  Ge58  1  0.49223678  0.33075645  0.33075645  1
  Ge  Ge59  1  0.11403812  0.17128067  0.60064309  1
  Ge  Ge60  1  0.50000000  0.32177565  0.67822435  1
  Ge  Ge61  1  0.42338406  0.67537693  0.01111591  1
  Ge  Ge62  1  0.15374967  0.66924355  0.66924355  1
  Ge  Ge63  1  0.88596188  0.39935691  0.82871933  1
  Ge  Ge64  1  0.10987691  0.98888409  0.32462307  1
  Ge  Ge65  1  0.57661594  0.98888409  0.32462307  1
  Ge  Ge66  1  0.89012309  0.67537693  0.01111591  1
  Ge  Ge67  1  0.00000000  0.00000000  0.00000000  1
  Ge  Ge68  1  0.50776322  0.66924355  0.66924355  1
  Ge  Ge69  1  0.50000000  0.00000000  0.00000000  1
