# generated using pymatgen
data_K2PrCl5
_symmetry_space_group_name_H-M   'P 1'
_cell_length_a   8.16227920
_cell_length_b   8.85108160
_cell_length_c   13.03368979
_cell_angle_alpha   90.00000000
_cell_angle_beta   90.00000000
_cell_angle_gamma   90.00000000
_symmetry_Int_Tables_number   1
_chemical_formula_structural   K2PrCl5
_chemical_formula_sum   'K8 Pr4 Cl20'
_cell_volume   941.61890899
_cell_formula_units_Z   4
loop_
 _symmetry_equiv_pos_site_id
 _symmetry_equiv_pos_as_xyz
  1  'x, y, z'
loop_
 _atom_site_type_symbol
 _atom_site_label
 _atom_site_symmetry_multiplicity
 _atom_site_fract_x
 _atom_site_fract_y
 _atom_site_fract_z
 _atom_site_occupancy
  K  K0  1  0.95054161  0.49512455  0.17202658  1
  K  K1  1  0.95054161  0.00487545  0.17202658  1
  K  K2  1  0.45054161  0.50487545  0.32797342  1
  K  K3  1  0.45054161  0.99512455  0.32797342  1
  K  K4  1  0.04945839  0.50487545  0.82797342  1
  K  K5  1  0.54945839  0.49512455  0.67202658  1
  K  K6  1  0.04945839  0.99512455  0.82797342  1
  K  K7  1  0.54945839  0.00487545  0.67202658  1
  Pr  Pr8  1  0.07621958  0.25000000  0.50548664  1
  Pr  Pr9  1  0.92378042  0.75000000  0.49451336  1
  Pr  Pr10  1  0.42378042  0.25000000  0.00548664  1
  Pr  Pr11  1  0.57621958  0.75000000  0.99451336  1
  Cl  Cl12  1  0.83660945  0.04277702  0.42232934  1
  Cl  Cl13  1  0.66339055  0.04277702  0.92232934  1
  Cl  Cl14  1  0.16339055  0.54277702  0.57767066  1
  Cl  Cl15  1  0.57847010  0.75000000  0.49218330  1
  Cl  Cl16  1  0.42152990  0.25000000  0.50781670  1
  Cl  Cl17  1  0.16339055  0.95722298  0.57767066  1
  Cl  Cl18  1  0.92152990  0.75000000  0.99218330  1
  Cl  Cl19  1  0.33660945  0.54277702  0.07767066  1
  Cl  Cl20  1  0.33660945  0.95722298  0.07767066  1
  Cl  Cl21  1  0.83655079  0.75000000  0.70358762  1
  Cl  Cl22  1  0.16344921  0.25000000  0.29641238  1
  Cl  Cl23  1  0.83660945  0.45722298  0.42232934  1
  Cl  Cl24  1  0.33655079  0.25000000  0.79641238  1
  Cl  Cl25  1  0.87350042  0.25000000  0.67903031  1
  Cl  Cl26  1  0.07847010  0.25000000  0.00781670  1
  Cl  Cl27  1  0.66344921  0.75000000  0.20358762  1
  Cl  Cl28  1  0.62649958  0.25000000  0.17903031  1
  Cl  Cl29  1  0.66339055  0.45722298  0.92232934  1
  Cl  Cl30  1  0.37350042  0.75000000  0.82096969  1
  Cl  Cl31  1  0.12649958  0.75000000  0.32096969  1
