# generated using pymatgen
data_Na15SnGe8P
_symmetry_space_group_name_H-M   'P 1'
_cell_length_a   10.94386915
_cell_length_b   10.94386895
_cell_length_c   11.25497760
_cell_angle_alpha   90.00000000
_cell_angle_beta   90.00000000
_cell_angle_gamma   107.46216678
_symmetry_Int_Tables_number   1
_chemical_formula_structural   Na15SnGe8P
_chemical_formula_sum   'Na30 Sn2 Ge16 P2'
_cell_volume   1285.86752034
_cell_formula_units_Z   2
loop_
 _symmetry_equiv_pos_site_id
 _symmetry_equiv_pos_as_xyz
  1  'x, y, z'
loop_
 _atom_site_type_symbol
 _atom_site_label
 _atom_site_symmetry_multiplicity
 _atom_site_fract_x
 _atom_site_fract_y
 _atom_site_fract_z
 _atom_site_occupancy
  Na  Na0  1  0.28210375  0.54307797  0.38340942  1
  Na  Na1  1  0.06425207  0.23265331  0.25000000  1
  Na  Na2  1  0.23265331  0.06425207  0.25000000  1
  Na  Na3  1  0.71789625  0.45692203  0.88340942  1
  Na  Na4  1  0.98913062  0.80340219  0.25000000  1
  Na  Na5  1  0.74914350  0.74914350  0.50305662  1
  Na  Na6  1  0.45692203  0.71789625  0.88340942  1
  Na  Na7  1  0.94180177  0.32096937  0.49922276  1
  Na  Na8  1  0.25085650  0.25085650  0.00305662  1
  Na  Na9  1  0.32096937  0.94180177  0.49922276  1
  Na  Na10  1  0.05819823  0.67903063  0.99922276  1
  Na  Na11  1  0.01086938  0.19659781  0.75000000  1
  Na  Na12  1  0.74914350  0.74914350  0.99694338  1
  Na  Na13  1  0.19659781  0.01086938  0.75000000  1
  Na  Na14  1  0.43263308  0.43263308  0.75000000  1
  Na  Na15  1  0.67903063  0.05819823  0.50077724  1
  Na  Na16  1  0.67903063  0.05819823  0.99922276  1
  Na  Na17  1  0.05819823  0.67903063  0.50077724  1
  Na  Na18  1  0.80340219  0.98913062  0.25000000  1
  Na  Na19  1  0.54307797  0.28210375  0.38340942  1
  Na  Na20  1  0.45692203  0.71789625  0.61659058  1
  Na  Na21  1  0.54307797  0.28210375  0.11659058  1
  Na  Na22  1  0.93574793  0.76734669  0.75000000  1
  Na  Na23  1  0.32096937  0.94180177  0.00077724  1
  Na  Na24  1  0.71789625  0.45692203  0.61659058  1
  Na  Na25  1  0.25085650  0.25085650  0.49694338  1
  Na  Na26  1  0.76734669  0.93574793  0.75000000  1
  Na  Na27  1  0.94180177  0.32096937  0.00077724  1
  Na  Na28  1  0.28210375  0.54307797  0.11659058  1
  Na  Na29  1  0.56736692  0.56736692  0.25000000  1
  Sn  Sn30  1  0.00000000  0.00000000  0.50000000  1
  Sn  Sn31  1  0.00000000  0.00000000  0.00000000  1
  Ge  Ge32  1  0.01127211  0.50484148  0.25000000  1
  Ge  Ge33  1  0.69669446  0.19627489  0.75000000  1
  Ge  Ge34  1  0.19627489  0.69669446  0.75000000  1
  Ge  Ge35  1  0.51705767  0.80920290  0.36375911  1
  Ge  Ge36  1  0.19079710  0.48294233  0.63624089  1
  Ge  Ge37  1  0.48294233  0.19079710  0.63624089  1
  Ge  Ge38  1  0.98872789  0.49515852  0.75000000  1
  Ge  Ge39  1  0.48294233  0.19079710  0.86375911  1
  Ge  Ge40  1  0.49515852  0.98872789  0.75000000  1
  Ge  Ge41  1  0.80920290  0.51705767  0.36375911  1
  Ge  Ge42  1  0.19079710  0.48294233  0.86375911  1
  Ge  Ge43  1  0.51705767  0.80920290  0.13624089  1
  Ge  Ge44  1  0.80372511  0.30330554  0.25000000  1
  Ge  Ge45  1  0.50484148  0.01127211  0.25000000  1
  Ge  Ge46  1  0.80920290  0.51705767  0.13624089  1
  Ge  Ge47  1  0.30330554  0.80372511  0.25000000  1
  P  P48  1  0.34384638  0.34384638  0.25000000  1
  P  P49  1  0.65615362  0.65615362  0.75000000  1
