# generated using pymatgen
data_Al6Fe
_symmetry_space_group_name_H-M   'P 1'
_cell_length_a   4.92128102
_cell_length_b   4.92128063
_cell_length_c   8.81777051
_cell_angle_alpha   90.00000000
_cell_angle_beta   90.00000000
_cell_angle_gamma   98.04740442
_symmetry_Int_Tables_number   1
_chemical_formula_structural   Al6Fe
_chemical_formula_sum   'Al12 Fe2'
_cell_volume   211.45463693
_cell_formula_units_Z   2
loop_
 _symmetry_equiv_pos_site_id
 _symmetry_equiv_pos_as_xyz
  1  'x, y, z'
loop_
 _atom_site_type_symbol
 _atom_site_label
 _atom_site_symmetry_multiplicity
 _atom_site_fract_x
 _atom_site_fract_y
 _atom_site_fract_z
 _atom_site_occupancy
  Al  Al0  1  0.67528377  0.32093180  0.50062963  1
  Al  Al1  1  0.14654850  0.14654850  0.09852653  1
  Al  Al2  1  0.67906820  0.32471623  0.00062963  1
  Al  Al3  1  0.85707740  0.85707740  0.89911620  1
  Al  Al4  1  0.02885044  0.39253494  0.75008444  1
  Al  Al5  1  0.32471623  0.67906820  0.00062963  1
  Al  Al6  1  0.14292260  0.14292260  0.39911620  1
  Al  Al7  1  0.97114956  0.60746506  0.25008444  1
  Al  Al8  1  0.60746506  0.97114956  0.25008444  1
  Al  Al9  1  0.39253494  0.02885044  0.75008444  1
  Al  Al10  1  0.85345150  0.85345150  0.59852653  1
  Al  Al11  1  0.32093180  0.67528377  0.50062963  1
  Fe  Fe12  1  0.46016581  0.46016581  0.25092915  1
  Fe  Fe13  1  0.53983419  0.53983419  0.75092915  1
