# generated using pymatgen
data_Ti6Tl5AgSe27
_symmetry_space_group_name_H-M   'P 1'
_cell_length_a   13.40680717
_cell_length_b   13.40680717
_cell_length_c   13.99532253
_cell_angle_alpha   90.00000000
_cell_angle_beta   90.00000000
_cell_angle_gamma   120.00000002
_symmetry_Int_Tables_number   1
_chemical_formula_structural   Ti6Tl5AgSe27
_chemical_formula_sum   'Ti12 Tl10 Ag2 Se54'
_cell_volume   2178.53363243
_cell_formula_units_Z   2
loop_
 _symmetry_equiv_pos_site_id
 _symmetry_equiv_pos_as_xyz
  1  'x, y, z'
loop_
 _atom_site_type_symbol
 _atom_site_label
 _atom_site_symmetry_multiplicity
 _atom_site_fract_x
 _atom_site_fract_y
 _atom_site_fract_z
 _atom_site_occupancy
  Ti  Ti0  1  0.98450359  0.33446239  0.89609187  1
  Ti  Ti1  1  0.67318622  0.66085521  0.63625589  1
  Ti  Ti2  1  0.34995880  0.01549641  0.89609187  1
  Ti  Ti3  1  0.33914479  0.01233101  0.63625589  1
  Ti  Ti4  1  0.32681378  0.98766899  0.13625589  1
  Ti  Ti5  1  0.66553761  0.65004120  0.89609187  1
  Ti  Ti6  1  0.01549641  0.34995880  0.39609187  1
  Ti  Ti7  1  0.01233101  0.33914479  0.13625589  1
  Ti  Ti8  1  0.98766899  0.32681378  0.63625589  1
  Ti  Ti9  1  0.66085521  0.67318622  0.13625589  1
  Ti  Ti10  1  0.65004120  0.66553761  0.39609187  1
  Ti  Ti11  1  0.33446239  0.98450359  0.39609187  1
  Tl  Tl12  1  0.66666700  0.33333300  0.56679977  1
  Tl  Tl13  1  0.93779231  0.63013903  0.76656731  1
  Tl  Tl14  1  0.33333300  0.66666700  0.43342016  1
  Tl  Tl15  1  0.30765328  0.36986097  0.26656731  1
  Tl  Tl16  1  0.66666700  0.33333300  0.93342016  1
  Tl  Tl17  1  0.69234672  0.06220769  0.76656731  1
  Tl  Tl18  1  0.63013903  0.93779231  0.26656731  1
  Tl  Tl19  1  0.33333300  0.66666700  0.06679977  1
  Tl  Tl20  1  0.06220769  0.69234672  0.26656731  1
  Tl  Tl21  1  0.36986097  0.30765328  0.76656731  1
  Ag  Ag22  1  0.00000000  0.00000000  0.01185674  1
  Ag  Ag23  1  0.00000000  0.00000000  0.51185674  1
  Se  Se24  1  0.55044215  0.12874243  0.40056423  1
  Se  Se25  1  0.87952135  0.20425949  0.26592150  1
  Se  Se26  1  0.10902472  0.89798567  0.12198331  1
  Se  Se27  1  0.84055512  0.18863556  0.01248097  1
  Se  Se28  1  0.32473814  0.12047865  0.26592150  1
  Se  Se29  1  0.10201433  0.21103905  0.12198331  1
  Se  Se30  1  0.78896095  0.89097528  0.12198331  1
  Se  Se31  1  0.12047865  0.32473814  0.76592150  1
  Se  Se32  1  0.79550645  0.63308828  0.51163688  1
  Se  Se33  1  0.34128457  0.85912970  0.26267729  1
  Se  Se34  1  0.50168289  0.18873923  0.17861446  1
  Se  Se35  1  0.15944488  0.34808044  0.51248097  1
  Se  Se36  1  0.65191956  0.81136444  0.51248097  1
  Se  Se37  1  0.51784513  0.65871543  0.26267729  1
  Se  Se38  1  0.08167985  0.19858813  0.39141774  1
  Se  Se39  1  0.18863556  0.84055512  0.51248097  1
  Se  Se40  1  0.11690828  0.91832015  0.39141774  1
  Se  Se41  1  0.63308828  0.79550645  0.01163688  1
  Se  Se42  1  0.18873923  0.50168289  0.67861446  1
  Se  Se43  1  0.44955785  0.57830028  0.90056423  1
  Se  Se44  1  0.01797712  0.49775712  0.52110301  1
  Se  Se45  1  0.89798567  0.10902472  0.62198331  1
  Se  Se46  1  0.79574051  0.67526186  0.26592150  1
  Se  Se47  1  0.12874243  0.55044215  0.90056423  1
  Se  Se48  1  0.89097528  0.78896095  0.62198331  1
  Se  Se49  1  0.31294365  0.81126077  0.67861446  1
  Se  Se50  1  0.67526186  0.79574051  0.76592150  1
  Se  Se51  1  0.34808044  0.15944488  0.01248097  1
  Se  Se52  1  0.19858813  0.08167985  0.89141774  1
  Se  Se53  1  0.65871543  0.51784513  0.76267729  1
  Se  Se54  1  0.49831711  0.68705635  0.67861446  1
  Se  Se55  1  0.88309172  0.80141187  0.89141774  1
  Se  Se56  1  0.21103905  0.10201433  0.62198331  1
  Se  Se57  1  0.16241817  0.36691172  0.01163688  1
  Se  Se58  1  0.81126077  0.31294365  0.17861446  1
  Se  Se59  1  0.87125757  0.42169972  0.40056423  1
  Se  Se60  1  0.48215487  0.14087030  0.76267729  1
  Se  Se61  1  0.50224288  0.52022000  0.52110301  1
  Se  Se62  1  0.98202288  0.47978000  0.02110301  1
  Se  Se63  1  0.20425949  0.87952135  0.76592150  1
  Se  Se64  1  0.42169972  0.87125757  0.90056423  1
  Se  Se65  1  0.20449355  0.83758183  0.01163688  1
  Se  Se66  1  0.49775712  0.01797712  0.02110301  1
  Se  Se67  1  0.57830028  0.44955785  0.40056423  1
  Se  Se68  1  0.52022000  0.50224288  0.02110301  1
  Se  Se69  1  0.83758183  0.20449355  0.51163688  1
  Se  Se70  1  0.68705635  0.49831711  0.17861446  1
  Se  Se71  1  0.36691172  0.16241817  0.51163688  1
  Se  Se72  1  0.91832015  0.11690828  0.89141774  1
  Se  Se73  1  0.85912970  0.34128457  0.76267729  1
  Se  Se74  1  0.14087030  0.48215487  0.26267729  1
  Se  Se75  1  0.47978000  0.98202288  0.52110301  1
  Se  Se76  1  0.81136444  0.65191956  0.01248097  1
  Se  Se77  1  0.80141187  0.88309172  0.39141774  1
