# generated using pymatgen
data_ErNi3Ge2
_symmetry_space_group_name_H-M   'P 1'
_cell_length_a   17.99684689
_cell_length_b   17.99684708
_cell_length_c   3.79588865
_cell_angle_alpha   90.00000000
_cell_angle_beta   90.00000000
_cell_angle_gamma   119.99999967
_symmetry_Int_Tables_number   1
_chemical_formula_structural   ErNi3Ge2
_chemical_formula_sum   'Er12 Ni36 Ge24'
_cell_volume   1064.72375971
_cell_formula_units_Z   12
loop_
 _symmetry_equiv_pos_site_id
 _symmetry_equiv_pos_as_xyz
  1  'x, y, z'
loop_
 _atom_site_type_symbol
 _atom_site_label
 _atom_site_symmetry_multiplicity
 _atom_site_fract_x
 _atom_site_fract_y
 _atom_site_fract_z
 _atom_site_occupancy
  Er  Er0  1  0.16657957  0.33332744  -0.00000000  1
  Er  Er1  1  0.66667256  0.83325214  -0.00000000  1
  Er  Er2  1  0.90112519  0.66037676  -0.00000000  1
  Er  Er3  1  0.99370541  0.42600327  -0.00000000  1
  Er  Er4  1  0.16674786  0.83342043  -0.00000000  1
  Er  Er5  1  -0.00000000  0.00000000  0.50000000  1
  Er  Er6  1  0.33962324  0.24074843  -0.00000000  1
  Er  Er7  1  0.57399673  0.56770214  -0.00000000  1
  Er  Er8  1  0.75925157  0.09887481  -0.00000000  1
  Er  Er9  1  0.43229786  0.00629459  -0.00000000  1
  Er  Er10  1  0.66666700  0.33333300  -0.00000000  1
  Er  Er11  1  0.33333300  0.66666700  0.50000000  1
  Ni  Ni12  1  0.50611822  0.28590659  0.50000000  1
  Ni  Ni13  1  0.27807799  0.03471206  -0.00000000  1
  Ni  Ni14  1  0.15456518  0.06555599  -0.00000000  1
  Ni  Ni15  1  0.38986561  0.12348440  0.50000000  1
  Ni  Ni16  1  0.18003121  0.71272219  0.50000000  1
  Ni  Ni17  1  0.82713338  0.38073374  0.50000000  1
  Ni  Ni18  1  0.73361879  0.61013439  0.50000000  1
  Ni  Ni19  1  0.18482569  0.19186241  0.50000000  1
  Ni  Ni20  1  0.36786363  0.42318539  0.00000000  1
  Ni  Ni21  1  0.05532176  0.63213637  0.00000000  1
  Ni  Ni22  1  0.45682931  0.40024799  0.50000000  1
  Ni  Ni23  1  0.91099081  0.84543482  -0.00000000  1
  Ni  Ni24  1  0.42245392  0.82125431  -0.00000000  1
  Ni  Ni25  1  0.00703672  0.81517431  0.50000000  1
  Ni  Ni26  1  0.87651560  0.26638121  0.50000000  1
  Ni  Ni27  1  0.14834372  0.47476449  0.50000000  1
  Ni  Ni28  1  0.28727781  0.46730902  0.50000000  1
  Ni  Ni29  1  0.93444401  0.08900919  -0.00000000  1
  Ni  Ni30  1  0.39880039  0.57754608  -0.00000000  1
  Ni  Ni31  1  0.96528794  0.24336593  -0.00000000  1
  Ni  Ni32  1  0.94341868  0.54317069  0.50000000  1
  Ni  Ni33  1  0.61926626  0.44639965  0.50000000  1
  Ni  Ni34  1  0.59975201  0.05658132  0.50000000  1
  Ni  Ni35  1  0.32642077  0.85165628  0.50000000  1
  Ni  Ni36  1  0.53269098  0.81996879  0.50000000  1
  Ni  Ni37  1  0.77978836  0.49388178  0.50000000  1
  Ni  Ni38  1  0.57681461  0.94467824  -0.00000000  1
  Ni  Ni39  1  0.17874569  0.60119961  -0.00000000  1
  Ni  Ni40  1  0.52523551  0.67357923  0.50000000  1
  Ni  Ni41  1  0.04596336  0.19934626  0.50000000  1
  Ni  Ni42  1  0.80065374  0.84661711  0.50000000  1
  Ni  Ni43  1  0.80813759  0.99296328  0.50000000  1
  Ni  Ni44  1  0.55360035  0.17286662  0.50000000  1
  Ni  Ni45  1  0.15338289  0.95403664  0.50000000  1
  Ni  Ni46  1  0.71409341  0.22021164  0.50000000  1
  Ni  Ni47  1  0.75663407  0.72192201  0.00000000  1
  Ge  Ge48  1  0.47812307  0.91409890  0.50000000  1
  Ge  Ge49  1  0.29789975  0.33718774  0.50000000  1
  Ge  Ge50  1  0.52330822  0.38030053  0.00000000  1
  Ge  Ge51  1  0.08609258  0.14566462  -0.00000000  1
  Ge  Ge52  1  0.81006199  0.28635228  0.00000000  1
  Ge  Ge53  1  0.24741902  0.10276461  0.50000000  1
  Ge  Ge54  1  0.43597584  0.52187693  0.50000000  1
  Ge  Ge55  1  0.61969947  0.14300769  -0.00000000  1
  Ge  Ge56  1  0.05957304  0.91390742  -0.00000000  1
  Ge  Ge57  1  0.47897563  0.72612301  0.00000000  1
  Ge  Ge58  1  0.85699231  0.47669178  0.00000000  1
  Ge  Ge59  1  0.66281226  0.96071202  0.50000000  1
  Ge  Ge60  1  0.03523659  0.32941224  0.50000000  1
  Ge  Ge61  1  0.71364772  0.52370971  0.00000000  1
  Ge  Ge62  1  0.89723539  0.14465441  0.50000000  1
  Ge  Ge63  1  0.85433538  0.94042696  -0.00000000  1
  Ge  Ge64  1  0.03928798  0.70210025  0.50000000  1
  Ge  Ge65  1  0.08590110  0.56402416  0.50000000  1
  Ge  Ge66  1  0.29417565  0.96476341  0.50000000  1
  Ge  Ge67  1  0.47629029  0.18993801  -0.00000000  1
  Ge  Ge68  1  0.85534559  0.75258098  0.50000000  1
  Ge  Ge69  1  0.67058776  0.70582435  0.50000000  1
  Ge  Ge70  1  0.27387699  0.75285262  0.00000000  1
  Ge  Ge71  1  0.24714738  0.52102437  -0.00000000  1
