# generated using pymatgen
data_Ho4InRh
_symmetry_space_group_name_H-M   'P 1'
_cell_length_a   9.61844204
_cell_length_b   9.61844211
_cell_length_c   9.61844245
_cell_angle_alpha   60.00000231
_cell_angle_beta   60.00000208
_cell_angle_gamma   60.00000162
_symmetry_Int_Tables_number   1
_chemical_formula_structural   Ho4InRh
_chemical_formula_sum   'Ho16 In4 Rh4'
_cell_volume   629.21525128
_cell_formula_units_Z   4
loop_
 _symmetry_equiv_pos_site_id
 _symmetry_equiv_pos_as_xyz
  1  'x, y, z'
loop_
 _atom_site_type_symbol
 _atom_site_label
 _atom_site_symmetry_multiplicity
 _atom_site_fract_x
 _atom_site_fract_y
 _atom_site_fract_z
 _atom_site_occupancy
  Ho  Ho0  1  0.06210402  0.43789598  0.43789598  1
  Ho  Ho1  1  0.65043813  0.65043813  0.04868560  1
  Ho  Ho2  1  0.81056985  0.18943015  0.81056985  1
  Ho  Ho3  1  0.81056985  0.18943015  0.18943015  1
  Ho  Ho4  1  0.43789598  0.06210402  0.43789598  1
  Ho  Ho5  1  0.06210402  0.43789598  0.06210402  1
  Ho  Ho6  1  0.81056985  0.81056985  0.18943015  1
  Ho  Ho7  1  0.06210402  0.06210402  0.43789598  1
  Ho  Ho8  1  0.18943015  0.81056985  0.18943015  1
  Ho  Ho9  1  0.43789598  0.06210402  0.06210402  1
  Ho  Ho10  1  0.04868560  0.65043813  0.65043813  1
  Ho  Ho11  1  0.18943015  0.18943015  0.81056985  1
  Ho  Ho12  1  0.18943015  0.81056985  0.81056985  1
  Ho  Ho13  1  0.43789598  0.43789598  0.06210402  1
  Ho  Ho14  1  0.65043813  0.65043813  0.65043813  1
  Ho  Ho15  1  0.65043813  0.04868560  0.65043813  1
  In  In16  1  0.41724624  0.74826129  0.41724624  1
  In  In17  1  0.41724624  0.41724624  0.74826129  1
  In  In18  1  0.74826129  0.41724624  0.41724624  1
  In  In19  1  0.41724624  0.41724624  0.41724624  1
  Rh  Rh20  1  0.85771601  0.85771601  0.85771601  1
  Rh  Rh21  1  0.85771601  0.42685197  0.85771601  1
  Rh  Rh22  1  0.42685197  0.85771601  0.85771601  1
  Rh  Rh23  1  0.85771601  0.85771601  0.42685197  1
