# generated using pymatgen
data_Ce6B2(CBr)3
_symmetry_space_group_name_H-M   'P 1'
_cell_length_a   3.67577424
_cell_length_b   8.62788317
_cell_length_c   10.16685348
_cell_angle_alpha   114.42548015
_cell_angle_beta   90.00000000
_cell_angle_gamma   90.00000000
_symmetry_Int_Tables_number   1
_chemical_formula_structural   Ce6B2(CBr)3
_chemical_formula_sum   'Ce6 B2 C3 Br3'
_cell_volume   293.57531293
_cell_formula_units_Z   1
loop_
 _symmetry_equiv_pos_site_id
 _symmetry_equiv_pos_as_xyz
  1  'x, y, z'
loop_
 _atom_site_type_symbol
 _atom_site_label
 _atom_site_symmetry_multiplicity
 _atom_site_fract_x
 _atom_site_fract_y
 _atom_site_fract_z
 _atom_site_occupancy
  Ce  Ce0  1  0.00000000  0.28962552  0.48380325  1
  Ce  Ce1  1  0.50000000  0.94227388  0.15812158  1
  Ce  Ce2  1  0.50000000  0.36886544  0.21996961  1
  Ce  Ce3  1  0.00000000  0.71037448  0.51619675  1
  Ce  Ce4  1  0.50000000  0.05772612  0.84187842  1
  Ce  Ce5  1  0.50000000  0.63113456  0.78003039  1
  B  B6  1  0.00000000  0.10147993  0.06438309  1
  B  B7  1  0.00000000  0.89852007  0.93561691  1
  C  C8  1  0.00000000  0.16624749  0.22944413  1
  C  C9  1  0.00000000  0.83375251  0.77055587  1
  C  C10  1  0.50000000  0.50000000  0.50000000  1
  Br  Br11  1  0.00000000  0.35162206  0.81397934  1
  Br  Br12  1  0.50000000  0.00000000  0.50000000  1
  Br  Br13  1  0.00000000  0.64837794  0.18602066  1
