# generated using pymatgen
data_PrAlPt
_symmetry_space_group_name_H-M   'P 1'
_cell_length_a   4.52069944
_cell_length_b   7.22506557
_cell_length_c   7.90113023
_cell_angle_alpha   90.00000000
_cell_angle_beta   90.00000000
_cell_angle_gamma   90.00000000
_symmetry_Int_Tables_number   1
_chemical_formula_structural   PrAlPt
_chemical_formula_sum   'Pr4 Al4 Pt4'
_cell_volume   258.06947999
_cell_formula_units_Z   4
loop_
 _symmetry_equiv_pos_site_id
 _symmetry_equiv_pos_as_xyz
  1  'x, y, z'
loop_
 _atom_site_type_symbol
 _atom_site_label
 _atom_site_symmetry_multiplicity
 _atom_site_fract_x
 _atom_site_fract_y
 _atom_site_fract_z
 _atom_site_occupancy
  Pr  Pr0  1  0.25000000  0.52817424  0.18243386  1
  Pr  Pr1  1  0.25000000  0.02817424  0.31756614  1
  Pr  Pr2  1  0.75000000  0.97182576  0.68243386  1
  Pr  Pr3  1  0.75000000  0.47182576  0.81756614  1
  Al  Al4  1  0.25000000  0.14629465  0.93286263  1
  Al  Al5  1  0.75000000  0.35370535  0.43286263  1
  Al  Al6  1  0.25000000  0.64629465  0.56713737  1
  Al  Al7  1  0.75000000  0.85370535  0.06713737  1
  Pt  Pt8  1  0.25000000  0.78533273  0.88924279  1
  Pt  Pt9  1  0.25000000  0.28533273  0.61075721  1
  Pt  Pt10  1  0.75000000  0.71466727  0.38924279  1
  Pt  Pt11  1  0.75000000  0.21466727  0.11075721  1
