# generated using pymatgen
data_KZr6CCl15
_symmetry_space_group_name_H-M   'P 1'
_cell_length_a   9.91430944
_cell_length_b   14.13258296
_cell_length_c   18.88891569
_cell_angle_alpha   90.00000000
_cell_angle_beta   90.00000000
_cell_angle_gamma   90.00000000
_symmetry_Int_Tables_number   1
_chemical_formula_structural   KZr6CCl15
_chemical_formula_sum   'K4 Zr24 C4 Cl60'
_cell_volume   2646.61665644
_cell_formula_units_Z   4
loop_
 _symmetry_equiv_pos_site_id
 _symmetry_equiv_pos_as_xyz
  1  'x, y, z'
loop_
 _atom_site_type_symbol
 _atom_site_label
 _atom_site_symmetry_multiplicity
 _atom_site_fract_x
 _atom_site_fract_y
 _atom_site_fract_z
 _atom_site_occupancy
  K  K0  1  0.66899578  0.25258791  0.25000000  1
  K  K1  1  0.66899578  0.74741209  0.25000000  1
  K  K2  1  0.33100422  0.25258791  0.75000000  1
  K  K3  1  0.33100422  0.74741209  0.75000000  1
  Zr  Zr4  1  0.34518996  0.38473243  0.02974989  1
  Zr  Zr5  1  0.15839116  0.11555093  0.16350193  1
  Zr  Zr6  1  0.84160884  0.88444907  0.83649807  1
  Zr  Zr7  1  0.65481004  0.61526757  0.52974989  1
  Zr  Zr8  1  0.65481004  0.38473243  0.52974989  1
  Zr  Zr9  1  0.65481004  0.38473243  0.97025011  1
  Zr  Zr10  1  0.58022921  0.50000000  0.38714637  1
  Zr  Zr11  1  0.34518996  0.38473243  0.47025011  1
  Zr  Zr12  1  0.34518996  0.61526757  0.47025011  1
  Zr  Zr13  1  0.65481004  0.61526757  0.97025011  1
  Zr  Zr14  1  0.84160884  0.88444907  0.66350193  1
  Zr  Zr15  1  0.15839116  0.11555093  0.33649807  1
  Zr  Zr16  1  0.58022921  0.50000000  0.11285363  1
  Zr  Zr17  1  0.92847869  0.00000000  0.25000000  1
  Zr  Zr18  1  0.84160884  0.11555093  0.83649807  1
  Zr  Zr19  1  0.41977079  0.50000000  0.88714637  1
  Zr  Zr20  1  0.34518996  0.61526757  0.02974989  1
  Zr  Zr21  1  0.15839116  0.88444907  0.33649807  1
  Zr  Zr22  1  0.07152131  0.00000000  0.75000000  1
  Zr  Zr23  1  0.61433705  0.00000000  0.75000000  1
  Zr  Zr24  1  0.41977079  0.50000000  0.61285363  1
  Zr  Zr25  1  0.84160884  0.11555093  0.66350193  1
  Zr  Zr26  1  0.38566295  0.00000000  0.25000000  1
  Zr  Zr27  1  0.15839116  0.88444907  0.16350193  1
  C  C28  1  0.15664652  0.00000000  0.25000000  1
  C  C29  1  0.50000000  0.50000000  0.50000000  1
  C  C30  1  0.50000000  0.50000000  0.00000000  1
  C  C31  1  0.84335348  0.00000000  0.75000000  1
  Cl  Cl32  1  0.41534033  0.12571113  0.34449445  1
  Cl  Cl33  1  0.50000000  0.24687808  0.50000000  1
  Cl  Cl34  1  0.16421482  0.25068418  0.06394956  1
  Cl  Cl35  1  0.50000000  0.75312192  0.50000000  1
  Cl  Cl36  1  0.58465967  0.87428887  0.65550555  1
  Cl  Cl37  1  0.58056330  0.62531779  0.84113997  1
  Cl  Cl38  1  0.83990437  0.50000000  0.93454003  1
  Cl  Cl39  1  0.09982860  0.12677698  0.65431107  1
  Cl  Cl40  1  0.75948889  0.62750730  0.40546111  1
  Cl  Cl41  1  0.90017140  0.12677698  0.15431107  1
  Cl  Cl42  1  0.84206209  0.00000000  0.93981781  1
  Cl  Cl43  1  0.24051111  0.37249270  0.59453889  1
  Cl  Cl44  1  0.50000000  0.24687808  0.00000000  1
  Cl  Cl45  1  0.16009563  0.50000000  0.06545997  1
  Cl  Cl46  1  0.32017334  0.50000000  0.75000000  1
  Cl  Cl47  1  0.50000000  0.75312192  0.00000000  1
  Cl  Cl48  1  0.15793791  0.00000000  0.43981781  1
  Cl  Cl49  1  0.41943670  0.37468221  0.34113997  1
  Cl  Cl50  1  0.41534033  0.87428887  0.15550555  1
  Cl  Cl51  1  0.24051111  0.37249270  0.90546111  1
  Cl  Cl52  1  0.84206209  0.00000000  0.56018219  1
  Cl  Cl53  1  0.90017140  0.87322302  0.15431107  1
  Cl  Cl54  1  0.09982860  0.12677698  0.84568893  1
  Cl  Cl55  1  0.83990437  0.50000000  0.56545997  1
  Cl  Cl56  1  0.58056330  0.62531779  0.65886003  1
  Cl  Cl57  1  0.16421482  0.74931582  0.43605044  1
  Cl  Cl58  1  0.58465967  0.87428887  0.84449445  1
  Cl  Cl59  1  0.65777141  0.00000000  0.25000000  1
  Cl  Cl60  1  0.84943814  0.74631225  0.75000000  1
  Cl  Cl61  1  0.41943670  0.62531779  0.15886003  1
  Cl  Cl62  1  0.83578518  0.25068418  0.93605044  1
  Cl  Cl63  1  0.75948889  0.37249270  0.09453889  1
  Cl  Cl64  1  0.58465967  0.12571113  0.65550555  1
  Cl  Cl65  1  0.83578518  0.74931582  0.93605044  1
  Cl  Cl66  1  0.34222859  0.00000000  0.75000000  1
  Cl  Cl67  1  0.58056330  0.37468221  0.65886003  1
  Cl  Cl68  1  0.75948889  0.37249270  0.40546111  1
  Cl  Cl69  1  0.84943814  0.25368775  0.75000000  1
  Cl  Cl70  1  0.67982666  0.50000000  0.25000000  1
  Cl  Cl71  1  0.16421482  0.25068418  0.43605044  1
  Cl  Cl72  1  0.16009563  0.50000000  0.43454003  1
  Cl  Cl73  1  0.09982860  0.87322302  0.65431107  1
  Cl  Cl74  1  0.24051111  0.62750730  0.59453889  1
  Cl  Cl75  1  0.90017140  0.87322302  0.34568893  1
  Cl  Cl76  1  0.41534033  0.12571113  0.15550555  1
  Cl  Cl77  1  0.24051111  0.62750730  0.90546111  1
  Cl  Cl78  1  0.41943670  0.62531779  0.34113997  1
  Cl  Cl79  1  0.09982860  0.87322302  0.84568893  1
  Cl  Cl80  1  0.16421482  0.74931582  0.06394956  1
  Cl  Cl81  1  0.41534033  0.87428887  0.34449445  1
  Cl  Cl82  1  0.15793791  0.00000000  0.06018219  1
  Cl  Cl83  1  0.15056186  0.74631225  0.25000000  1
  Cl  Cl84  1  0.75948889  0.62750730  0.09453889  1
  Cl  Cl85  1  0.58056330  0.37468221  0.84113997  1
  Cl  Cl86  1  0.90017140  0.12677698  0.34568893  1
  Cl  Cl87  1  0.83578518  0.74931582  0.56394956  1
  Cl  Cl88  1  0.41943670  0.37468221  0.15886003  1
  Cl  Cl89  1  0.58465967  0.12571113  0.84449445  1
  Cl  Cl90  1  0.15056186  0.25368775  0.25000000  1
  Cl  Cl91  1  0.83578518  0.25068418  0.56394956  1
