# generated using pymatgen
data_Y2AlRu
_symmetry_space_group_name_H-M   'P 1'
_cell_length_a   4.96872723
_cell_length_b   4.96872047
_cell_length_c   4.96873829
_cell_angle_alpha   60.00026424
_cell_angle_beta   60.00001850
_cell_angle_gamma   59.99968167
_symmetry_Int_Tables_number   1
_chemical_formula_structural   Y2AlRu
_chemical_formula_sum   'Y2 Al1 Ru1'
_cell_volume   86.74026166
_cell_formula_units_Z   1
loop_
 _symmetry_equiv_pos_site_id
 _symmetry_equiv_pos_as_xyz
  1  'x, y, z'
loop_
 _atom_site_type_symbol
 _atom_site_label
 _atom_site_symmetry_multiplicity
 _atom_site_fract_x
 _atom_site_fract_y
 _atom_site_fract_z
 _atom_site_occupancy
  Y  Y0  1  0.00000007  0.00000100  0.99999883  1
  Y  Y1  1  0.50000107  0.49999805  0.50000028  1
  Al  Al2  1  0.25000086  0.25000035  0.24999990  1
  Ru  Ru3  1  0.74999799  0.75000060  0.75000098  1
