# generated using pymatgen
data_La12Fe2I17
_symmetry_space_group_name_H-M   'P 1'
_cell_length_a   9.94546354
_cell_length_b   12.24288528
_cell_length_c   12.20182431
_cell_angle_alpha   93.55889099
_cell_angle_beta   104.83732938
_cell_angle_gamma   115.51342055
_symmetry_Int_Tables_number   1
_chemical_formula_structural   La12Fe2I17
_chemical_formula_sum   'La12 Fe2 I17'
_cell_volume   1270.56897824
_cell_formula_units_Z   1
loop_
 _symmetry_equiv_pos_site_id
 _symmetry_equiv_pos_as_xyz
  1  'x, y, z'
loop_
 _atom_site_type_symbol
 _atom_site_label
 _atom_site_symmetry_multiplicity
 _atom_site_fract_x
 _atom_site_fract_y
 _atom_site_fract_z
 _atom_site_occupancy
  La  La0  1  0.06822442  0.52073176  0.32861254  1
  La  La1  1  0.77127638  0.33237552  0.00109875  1
  La  La2  1  0.70880285  -0.00010848  0.08773523  1
  La  La3  1  0.87367777  0.71604233  0.84674865  1
  La  La4  1  0.33902922  0.76132449  0.72968535  1
  La  La5  1  0.29119715  1.00010848  0.91226477  1
  La  La6  1  0.93177558  0.47926824  0.67138746  1
  La  La7  1  0.22872362  0.66762448  0.99890125  1
  La  La8  1  0.66097078  0.23867551  0.27031465  1
  La  La9  1  0.98607818  0.81502902  0.57660379  1
  La  La10  1  0.01392182  0.18497098  0.42339621  1
  La  La11  1  0.12632223  0.28395767  0.15325135  1
  Fe  Fe12  1  0.90033665  0.26586666  0.21484557  1
  Fe  Fe13  1  0.09966335  0.73413334  0.78515443  1
  I  I14  1  0.83736455  0.89289257  0.31815211  1
  I  I15  1  0.59939835  0.05797879  0.82549366  1
  I  I16  1  0.74510713  0.17565188  0.53053180  1
  I  I17  1  0.25489287  0.82434812  0.46946820  1
  I  I18  1  0.44941502  0.30375287  0.04908047  1
  I  I19  1  0.37000392  0.58241170  0.24757068  1
  I  I20  1  0.94178663  0.63775053  0.10837183  1
  I  I21  1  0.40060165  0.94202121  0.17450634  1
  I  I22  1  0.77850075  0.52626200  0.41331804  1
  I  I23  1  0.32600432  0.21377714  0.36801459  1
  I  I24  1  0.16263545  0.10710743  0.68184789  1
  I  I25  1  0.55058498  0.69624713  0.95091953  1
  I  I26  1  0.05821337  0.36224947  0.89162817  1
  I  I27  1  0.00000000  0.00000000  0.00000000  1
  I  I28  1  0.67399568  0.78622286  0.63198541  1
  I  I29  1  0.62999608  0.41758830  0.75242932  1
  I  I30  1  0.22149925  0.47373800  0.58668196  1
