# generated using pymatgen
data_K(Sn3Au2)2
_symmetry_space_group_name_H-M   'P 1'
_cell_length_a   6.79260142
_cell_length_b   6.79400010
_cell_length_c   13.14818703
_cell_angle_alpha   102.80326107
_cell_angle_beta   102.80035512
_cell_angle_gamma   98.15328343
_symmetry_Int_Tables_number   1
_chemical_formula_structural   K(Sn3Au2)2
_chemical_formula_sum   'K2 Sn12 Au8'
_cell_volume   565.23465557
_cell_formula_units_Z   2
loop_
 _symmetry_equiv_pos_site_id
 _symmetry_equiv_pos_as_xyz
  1  'x, y, z'
loop_
 _atom_site_type_symbol
 _atom_site_label
 _atom_site_symmetry_multiplicity
 _atom_site_fract_x
 _atom_site_fract_y
 _atom_site_fract_z
 _atom_site_occupancy
  K  K0  1  0.37500589  0.62500542  0.25000370  1
  K  K1  1  0.62499411  0.37499458  0.74999630  1
  Sn  Sn2  1  0.48953688  0.24325558  0.98153574  1
  Sn  Sn3  1  0.72944373  0.27061903  0.24999419  1
  Sn  Sn4  1  0.75665343  0.51051048  0.51845857  1
  Sn  Sn5  1  0.00773757  0.26183777  0.01841681  1
  Sn  Sn6  1  0.51046312  0.75674442  0.01846426  1
  Sn  Sn7  1  0.97942594  0.02053173  0.74996050  1
  Sn  Sn8  1  0.73820957  0.99221390  0.48156191  1
  Sn  Sn9  1  0.99226243  0.73816223  0.98158319  1
  Sn  Sn10  1  0.27055627  0.72938097  0.75000581  1
  Sn  Sn11  1  0.02057406  0.97946827  0.25003950  1
  Sn  Sn12  1  0.26179043  0.00778610  0.51843809  1
  Sn  Sn13  1  0.24334657  0.48948952  0.48154143  1
  Au  Au14  1  0.56799186  0.81793844  0.63588437  1
  Au  Au15  1  0.93746865  0.68749388  0.37492432  1
  Au  Au16  1  0.06253135  0.31250612  0.62507568  1
  Au  Au17  1  0.31248730  0.06253422  0.12507386  1
  Au  Au18  1  0.81795964  0.56803489  0.13589152  1
  Au  Au19  1  0.18204036  0.43196511  0.86410848  1
  Au  Au20  1  0.68751270  0.93746578  0.87492614  1
  Au  Au21  1  0.43200814  0.18206156  0.36411563  1
