# generated using pymatgen
data_Bi8AsAuCl9
_symmetry_space_group_name_H-M   'P 1'
_cell_length_a   10.52038003
_cell_length_b   14.49625938
_cell_length_c   15.13707153
_cell_angle_alpha   90.00000000
_cell_angle_beta   90.00000000
_cell_angle_gamma   93.52973895
_symmetry_Int_Tables_number   1
_chemical_formula_structural   Bi8AsAuCl9
_chemical_formula_sum   'Bi32 As4 Au4 Cl36'
_cell_volume   2304.11734697
_cell_formula_units_Z   4
loop_
 _symmetry_equiv_pos_site_id
 _symmetry_equiv_pos_as_xyz
  1  'x, y, z'
loop_
 _atom_site_type_symbol
 _atom_site_label
 _atom_site_symmetry_multiplicity
 _atom_site_fract_x
 _atom_site_fract_y
 _atom_site_fract_z
 _atom_site_occupancy
  Bi  Bi0  1  0.38105007  0.67677313  0.07010363  1
  Bi  Bi1  1  0.61894993  0.82322687  0.57010363  1
  Bi  Bi2  1  0.41502446  0.93214154  0.68712946  1
  Bi  Bi3  1  0.45246140  0.64988841  0.86143425  1
  Bi  Bi4  1  0.77857436  0.47418409  0.05248262  1
  Bi  Bi5  1  0.45246140  0.14988841  0.63856575  1
  Bi  Bi6  1  0.67192413  0.44901996  0.48841324  1
  Bi  Bi7  1  0.94156503  0.31194546  0.63990685  1
  Bi  Bi8  1  0.32807587  0.05098004  0.98841324  1
  Bi  Bi9  1  0.67192413  0.94901996  0.01158676  1
  Bi  Bi10  1  0.05843497  0.18805454  0.13990685  1
  Bi  Bi11  1  0.22142564  0.02581591  0.55248262  1
  Bi  Bi12  1  0.69938360  0.52516736  0.85113284  1
  Bi  Bi13  1  0.30061640  0.47483264  0.14886716  1
  Bi  Bi14  1  0.61894993  0.32322687  0.92989637  1
  Bi  Bi15  1  0.22142564  0.52581591  0.94751738  1
  Bi  Bi16  1  0.32807587  0.55098004  0.51158676  1
  Bi  Bi17  1  0.30061640  0.97483264  0.35113284  1
  Bi  Bi18  1  0.54753860  0.85011159  0.36143425  1
  Bi  Bi19  1  0.58497554  0.56785846  0.18712946  1
  Bi  Bi20  1  0.94156503  0.81194546  0.86009315  1
  Bi  Bi21  1  0.38105007  0.17677313  0.42989637  1
  Bi  Bi22  1  0.04203076  0.19331325  0.86218411  1
  Bi  Bi23  1  0.95796924  0.80668675  0.13781589  1
  Bi  Bi24  1  0.41502446  0.43214154  0.81287054  1
  Bi  Bi25  1  0.77857436  0.97418409  0.44751738  1
  Bi  Bi26  1  0.04203076  0.69331325  0.63781589  1
  Bi  Bi27  1  0.95796924  0.30668675  0.36218411  1
  Bi  Bi28  1  0.05843497  0.68805454  0.36009315  1
  Bi  Bi29  1  0.69938360  0.02516736  0.64886716  1
  Bi  Bi30  1  0.54753860  0.35011159  0.13856575  1
  Bi  Bi31  1  0.58497554  0.06785846  0.31287054  1
  As  As32  1  0.78181132  0.78075234  0.00385942  1
  As  As33  1  0.21818868  0.71924766  0.50385942  1
  As  As34  1  0.21818868  0.21924766  0.99614058  1
  As  As35  1  0.78181132  0.28075234  0.49614058  1
  Au  Au36  1  0.63295504  0.13250744  0.49325422  1
  Au  Au37  1  0.36704496  0.86749256  0.50674578  1
  Au  Au38  1  0.63295504  0.63250744  0.00674578  1
  Au  Au39  1  0.36704496  0.36749256  0.99325422  1
  Cl  Cl40  1  0.25551419  0.25137768  0.24229001  1
  Cl  Cl41  1  0.86687187  0.67520395  0.49478432  1
  Cl  Cl42  1  0.22499970  0.26032519  0.74944394  1
  Cl  Cl43  1  0.82854576  0.98377309  0.85606583  1
  Cl  Cl44  1  0.49256806  0.87551639  0.89587030  1
  Cl  Cl45  1  0.77500030  0.23967481  0.24944394  1
  Cl  Cl46  1  0.82854576  0.48377309  0.64393417  1
  Cl  Cl47  1  0.50495059  0.37528404  0.37058709  1
  Cl  Cl48  1  0.16960965  0.02026030  0.84177903  1
  Cl  Cl49  1  0.97697267  0.62780085  0.86346779  1
  Cl  Cl50  1  0.50495059  0.87528404  0.12941291  1
  Cl  Cl51  1  0.49504941  0.12471596  0.87058709  1
  Cl  Cl52  1  0.13312813  0.82479605  0.99478432  1
  Cl  Cl53  1  0.74448581  0.74862232  0.75770999  1
  Cl  Cl54  1  0.99494458  0.37191616  0.87252121  1
  Cl  Cl55  1  0.86687187  0.17520395  0.00521568  1
  Cl  Cl56  1  0.49504941  0.62471596  0.62941291  1
  Cl  Cl57  1  0.00505542  0.12808384  0.37252121  1
  Cl  Cl58  1  0.74448581  0.24862232  0.74229001  1
  Cl  Cl59  1  0.99494458  0.87191616  0.62747879  1
  Cl  Cl60  1  0.83039035  0.47973970  0.34177903  1
  Cl  Cl61  1  0.02302733  0.37219915  0.13653221  1
  Cl  Cl62  1  0.77500030  0.73967481  0.25055606  1
  Cl  Cl63  1  0.97697267  0.12780085  0.63653221  1
  Cl  Cl64  1  0.50743194  0.12448361  0.10412970  1
  Cl  Cl65  1  0.25551419  0.75137768  0.25770999  1
  Cl  Cl66  1  0.02302733  0.87219915  0.36346779  1
  Cl  Cl67  1  0.16960965  0.52026030  0.65822097  1
  Cl  Cl68  1  0.17145424  0.51622691  0.35606583  1
  Cl  Cl69  1  0.00505542  0.62808384  0.12747879  1
  Cl  Cl70  1  0.49256806  0.37551639  0.60412970  1
  Cl  Cl71  1  0.17145424  0.01622691  0.14393417  1
  Cl  Cl72  1  0.50743194  0.62448361  0.39587030  1
  Cl  Cl73  1  0.83039035  0.97973970  0.15822097  1
  Cl  Cl74  1  0.22499970  0.76032519  0.75055606  1
  Cl  Cl75  1  0.13312813  0.32479605  0.50521568  1
