# generated using pymatgen
data_Sm3CuSiSe7
_symmetry_space_group_name_H-M   'P 1'
_cell_length_a   10.54698804
_cell_length_b   10.54698800
_cell_length_c   6.03637752
_cell_angle_alpha   90.00000000
_cell_angle_beta   90.00000000
_cell_angle_gamma   120.00000010
_symmetry_Int_Tables_number   1
_chemical_formula_structural   Sm3CuSiSe7
_chemical_formula_sum   'Sm6 Si2 Cu2 Se14'
_cell_volume   581.51902763
_cell_formula_units_Z   2
loop_
 _symmetry_equiv_pos_site_id
 _symmetry_equiv_pos_as_xyz
  1  'x, y, z'
loop_
 _atom_site_type_symbol
 _atom_site_label
 _atom_site_symmetry_multiplicity
 _atom_site_fract_x
 _atom_site_fract_y
 _atom_site_fract_z
 _atom_site_occupancy
  Sm  Sm0  1  0.64503781  0.77212354  0.74153346  1
  Sm  Sm1  1  0.22787646  0.87291428  0.74153346  1
  Sm  Sm2  1  0.35496133  0.22788016  0.24153109  1
  Sm  Sm3  1  0.87291883  0.64503867  0.24153109  1
  Sm  Sm4  1  0.12708572  0.35496219  0.74153346  1
  Sm  Sm5  1  0.77211984  0.12708117  0.24153109  1
  Si  Si6  1  0.66666700  0.33333300  0.82950296  1
  Cu  Cu7  1  0.00000000  0.00000000  0.72281884  1
  Si  Si8  1  0.33333300  0.66666700  0.32951318  1
  Cu  Cu9  1  0.00000000  0.00000000  0.22300625  1
  Se  Se10  1  0.89560522  0.41644827  0.98161096  1
  Se  Se11  1  0.66666700  0.33333300  0.45376257  1
  Se  Se12  1  0.90789293  0.74261930  0.72662397  1
  Se  Se13  1  0.83472637  0.09210707  0.72662397  1
  Se  Se14  1  0.33333300  0.66666700  0.95376934  1
  Se  Se15  1  0.25738070  0.16527363  0.72662397  1
  Se  Se16  1  0.41645425  0.52084643  0.48161245  1
  Se  Se17  1  0.74261976  0.83472267  0.22663035  1
  Se  Se18  1  0.09210291  0.25738024  0.22663035  1
  Se  Se19  1  0.47915357  0.89560782  0.48161245  1
  Se  Se20  1  0.58355173  0.47915695  0.98161096  1
  Se  Se21  1  0.16527733  0.90789709  0.22663035  1
  Se  Se22  1  0.52084305  0.10439478  0.98161096  1
  Se  Se23  1  0.10439218  0.58354575  0.48161245  1
