# generated using pymatgen
data_Li2TeSe3
_symmetry_space_group_name_H-M   'P 1'
_cell_length_a   5.63405573
_cell_length_b   8.29752195
_cell_length_c   12.09835886
_cell_angle_alpha   90.00000000
_cell_angle_beta   90.00000000
_cell_angle_gamma   92.45266964
_symmetry_Int_Tables_number   1
_chemical_formula_structural   Li2TeSe3
_chemical_formula_sum   'Li8 Te4 Se12'
_cell_volume   565.06443919
_cell_formula_units_Z   4
loop_
 _symmetry_equiv_pos_site_id
 _symmetry_equiv_pos_as_xyz
  1  'x, y, z'
loop_
 _atom_site_type_symbol
 _atom_site_label
 _atom_site_symmetry_multiplicity
 _atom_site_fract_x
 _atom_site_fract_y
 _atom_site_fract_z
 _atom_site_occupancy
  Li  Li0  1  0.73481843  0.14605310  0.77358481  1
  Li  Li1  1  0.73481843  0.64605310  0.72641519  1
  Li  Li2  1  0.76330613  0.13379873  0.41341175  1
  Li  Li3  1  0.76330613  0.63379873  0.08658825  1
  Li  Li4  1  0.23669387  0.86620127  0.58658825  1
  Li  Li5  1  0.23669387  0.36620127  0.91341175  1
  Li  Li6  1  0.26518157  0.85394690  0.22641519  1
  Li  Li7  1  0.26518157  0.35394690  0.27358481  1
  Te  Te8  1  0.71557971  0.18684115  0.08678609  1
  Te  Te9  1  0.28442029  0.31315885  0.58678609  1
  Te  Te10  1  0.28442029  0.81315885  0.91321391  1
  Te  Te11  1  0.71557971  0.68684115  0.41321391  1
  Se  Se12  1  0.74534239  0.37745863  0.92309556  1
  Se  Se13  1  0.77217580  0.88488286  0.25088483  1
  Se  Se14  1  0.22782420  0.11511714  0.74911517  1
  Se  Se15  1  0.74534239  0.87745863  0.57690444  1
  Se  Se16  1  0.73765126  0.87062620  0.90304797  1
  Se  Se17  1  0.26234874  0.12937380  0.09695203  1
  Se  Se18  1  0.26234874  0.62937380  0.40304797  1
  Se  Se19  1  0.25465761  0.62254137  0.07690444  1
  Se  Se20  1  0.22782420  0.61511714  0.75088483  1
  Se  Se21  1  0.77217580  0.38488286  0.24911517  1
  Se  Se22  1  0.73765126  0.37062620  0.59695203  1
  Se  Se23  1  0.25465761  0.12254137  0.42309556  1
