# generated using pymatgen
data_CuPbSO6
_symmetry_space_group_name_H-M   'P 1'
_cell_length_a   4.75706294
_cell_length_b   5.50072904
_cell_length_c   10.10988376
_cell_angle_alpha   90.00000000
_cell_angle_beta   102.26208584
_cell_angle_gamma   90.00000000
_symmetry_Int_Tables_number   1
_chemical_formula_structural   CuPbSO6
_chemical_formula_sum   'Cu2 Pb2 S2 O12'
_cell_volume   258.51318257
_cell_formula_units_Z   2
loop_
 _symmetry_equiv_pos_site_id
 _symmetry_equiv_pos_as_xyz
  1  'x, y, z'
loop_
 _atom_site_type_symbol
 _atom_site_label
 _atom_site_symmetry_multiplicity
 _atom_site_fract_x
 _atom_site_fract_y
 _atom_site_fract_z
 _atom_site_occupancy
  Cu  Cu0  1  -0.00000000  0.50000000  0.00000000  1
  Cu  Cu1  1  -0.00000000  0.00000000  -0.00000000  1
  Pb  Pb2  1  0.67283433  0.25000000  0.66950070  1
  Pb  Pb3  1  0.32716567  0.75000000  0.33049930  1
  S  S4  1  0.87689173  0.25000000  0.33831908  1
  S  S5  1  0.12310827  0.75000000  0.66168092  1
  O  O6  1  0.06234297  0.25000000  0.47567701  1
  O  O7  1  0.93765703  0.75000000  0.52432299  1
  O  O8  1  0.56749029  0.25000000  0.34743750  1
  O  O9  1  0.43250971  0.75000000  0.65256250  1
  O  O10  1  0.06828390  0.97154428  0.73964647  1
  O  O11  1  0.93171610  0.47154428  0.26035353  1
  O  O12  1  0.93171610  0.02845572  0.26035353  1
  O  O13  1  0.06828390  0.52845572  0.73964647  1
  O  O14  1  0.25285813  0.25000000  0.04182626  1
  O  O15  1  0.74714187  0.75000000  0.95817374  1
  O  O16  1  0.76696977  0.25000000  0.91731433  1
  O  O17  1  0.23303023  0.75000000  0.08268567  1
