# generated using pymatgen
data_Hg3AsSe4I
_symmetry_space_group_name_H-M   'P 1'
_cell_length_a   7.88910352
_cell_length_b   7.88910393
_cell_length_c   10.69636878
_cell_angle_alpha   90.00000000
_cell_angle_beta   90.00000000
_cell_angle_gamma   119.99999830
_symmetry_Int_Tables_number   1
_chemical_formula_structural   Hg3AsSe4I
_chemical_formula_sum   'Hg6 As2 Se8 I2'
_cell_volume   576.53056820
_cell_formula_units_Z   2
loop_
 _symmetry_equiv_pos_site_id
 _symmetry_equiv_pos_as_xyz
  1  'x, y, z'
loop_
 _atom_site_type_symbol
 _atom_site_label
 _atom_site_symmetry_multiplicity
 _atom_site_fract_x
 _atom_site_fract_y
 _atom_site_fract_z
 _atom_site_occupancy
  Hg  Hg0  1  0.49811532  0.99623063  0.24138663  1
  Hg  Hg1  1  0.50188468  0.00376937  0.74138663  1
  Hg  Hg2  1  0.00376937  0.50188468  0.24138663  1
  Hg  Hg3  1  0.99623063  0.49811532  0.74138663  1
  Hg  Hg4  1  0.49811532  0.50188468  0.24138663  1
  Hg  Hg5  1  0.50188468  0.49811532  0.74138663  1
  As  As6  1  0.00000000  0.00000000  0.23726143  1
  As  As7  1  0.00000000  0.00000000  0.73726143  1
  Se  Se8  1  0.30269861  0.15134930  0.35911758  1
  Se  Se9  1  0.84865070  0.69730139  0.35911758  1
  Se  Se10  1  0.84865070  0.15134930  0.35911758  1
  Se  Se11  1  0.15134930  0.30269861  0.85911758  1
  Se  Se12  1  0.33333300  0.66666700  0.11486809  1
  Se  Se13  1  0.15134930  0.84865070  0.85911758  1
  Se  Se14  1  0.66666700  0.33333300  0.61486809  1
  Se  Se15  1  0.69730139  0.84865070  0.85911758  1
  I  I16  1  0.33333300  0.66666700  0.53097788  1
  I  I17  1  0.66666700  0.33333300  0.03097788  1
