# generated using pymatgen
data_HoSiRu2C
_symmetry_space_group_name_H-M   'P 1'
_cell_length_a   3.78884879
_cell_length_b   5.88488110
_cell_length_c   7.15659723
_cell_angle_alpha   90.00000000
_cell_angle_beta   90.00000000
_cell_angle_gamma   108.77870248
_symmetry_Int_Tables_number   1
_chemical_formula_structural   HoSiRu2C
_chemical_formula_sum   'Ho2 Si2 Ru4 C2'
_cell_volume   151.07603005
_cell_formula_units_Z   2
loop_
 _symmetry_equiv_pos_site_id
 _symmetry_equiv_pos_as_xyz
  1  'x, y, z'
loop_
 _atom_site_type_symbol
 _atom_site_label
 _atom_site_symmetry_multiplicity
 _atom_site_fract_x
 _atom_site_fract_y
 _atom_site_fract_z
 _atom_site_occupancy
  Ho  Ho0  1  0.95354775  0.90709550  0.25000000  1
  Ho  Ho1  1  0.04645225  0.09290450  0.75000000  1
  Si  Si2  1  0.23257063  0.46514126  0.25000000  1
  Si  Si3  1  0.76742937  0.53485874  0.75000000  1
  Ru  Ru4  1  0.66382011  0.32764022  0.44331866  1
  Ru  Ru5  1  0.33617989  0.67235978  0.94331866  1
  Ru  Ru6  1  0.33617989  0.67235978  0.55668134  1
  Ru  Ru7  1  0.66382011  0.32764022  0.05668134  1
  C  C8  1  0.50000000  0.00000000  0.50000000  1
  C  C9  1  0.50000000  0.00000000  0.00000000  1
