# generated using pymatgen
data_Ca6Cu2Sn7
_symmetry_space_group_name_H-M   'P 1'
_cell_length_a   4.57777006
_cell_length_b   7.53633651
_cell_length_c   12.42500234
_cell_angle_alpha   93.75864759
_cell_angle_beta   90.00000000
_cell_angle_gamma   107.68076490
_symmetry_Int_Tables_number   1
_chemical_formula_structural   Ca6Cu2Sn7
_chemical_formula_sum   'Ca6 Cu2 Sn7'
_cell_volume   407.44166489
_cell_formula_units_Z   1
loop_
 _symmetry_equiv_pos_site_id
 _symmetry_equiv_pos_as_xyz
  1  'x, y, z'
loop_
 _atom_site_type_symbol
 _atom_site_label
 _atom_site_symmetry_multiplicity
 _atom_site_fract_x
 _atom_site_fract_y
 _atom_site_fract_z
 _atom_site_occupancy
  Ca  Ca0  1  0.53799500  0.07599001  0.70068234  1
  Ca  Ca1  1  0.19510963  0.39021925  0.29346849  1
  Ca  Ca2  1  0.80489037  0.60978075  0.70653151  1
  Ca  Ca3  1  0.63704152  0.27408304  0.00297535  1
  Ca  Ca4  1  0.46200500  0.92400999  0.29931766  1
  Ca  Ca5  1  0.36295848  0.72591696  0.99702465  1
  Cu  Cu6  1  0.83029456  0.66058913  0.38881546  1
  Cu  Cu7  1  0.16970544  0.33941087  0.61118454  1
  Sn  Sn8  1  0.65960626  0.31921251  0.48142734  1
  Sn  Sn9  1  0.81742883  0.63485766  0.17550626  1
  Sn  Sn10  1  0.01102036  0.02204073  0.11855107  1
  Sn  Sn11  1  0.18257117  0.36514234  0.82449374  1
  Sn  Sn12  1  0.00000000  0.00000000  0.50000000  1
  Sn  Sn13  1  0.98897964  0.97795927  0.88144893  1
  Sn  Sn14  1  0.34039374  0.68078749  0.51857266  1
