# generated using pymatgen
data_La2CO5
_symmetry_space_group_name_H-M   'P 1'
_cell_length_a   7.10563454
_cell_length_b   7.10283309
_cell_length_c   32.04561859
_cell_angle_alpha   90.00000000
_cell_angle_beta   90.00000000
_cell_angle_gamma   120.01304795
_symmetry_Int_Tables_number   1
_chemical_formula_structural   La2CO5
_chemical_formula_sum   'La24 C12 O60'
_cell_volume   1400.47916156
_cell_formula_units_Z   12
loop_
 _symmetry_equiv_pos_site_id
 _symmetry_equiv_pos_as_xyz
  1  'x, y, z'
loop_
 _atom_site_type_symbol
 _atom_site_label
 _atom_site_symmetry_multiplicity
 _atom_site_fract_x
 _atom_site_fract_y
 _atom_site_fract_z
 _atom_site_occupancy
  La  La0  1  0.66112395  0.67480554  0.57825825  1
  La  La1  1  0.66767079  0.00826567  0.67307133  1
  La  La2  1  0.98843891  0.66386928  0.32780871  1
  La  La3  1  0.65940512  0.99173433  0.32692867  1
  La  La4  1  0.33224235  1.00223355  0.92200970  1
  La  La5  1  0.98631841  0.32519446  0.07825825  1
  La  La6  1  0.65903118  0.66701360  0.42359517  1
  La  La7  1  0.33000880  -0.00223355  0.42200970  1
  La  La8  1  0.33224235  1.00223355  0.57799030  1
  La  La9  1  0.65903118  0.66701360  0.07640483  1
  La  La10  1  0.99201758  0.33298640  0.57640483  1
  La  La11  1  0.66767079  0.00826567  0.82692867  1
  La  La12  1  0.33032588  0.33506749  0.32786963  1
  La  La13  1  0.65940512  0.99173433  0.17307133  1
  La  La14  1  0.66112395  0.67480554  0.92174175  1
  La  La15  1  0.98631841  0.32519446  0.42174175  1
  La  La16  1  0.99201758  0.33298640  0.92359517  1
  La  La17  1  0.98843891  0.66386928  0.17219129  1
  La  La18  1  0.33032588  0.33506749  0.17213037  1
  La  La19  1  0.32456963  0.33613072  0.67219129  1
  La  La20  1  0.99525839  0.66493251  0.82786963  1
  La  La21  1  0.32456963  0.33613072  0.82780871  1
  La  La22  1  0.33000880  -0.00223355  0.07799030  1
  La  La23  1  0.99525839  0.66493251  0.67213037  1
  C  C24  1  0.65947565  0.27848652  0.25000000  1
  C  C25  1  0.04684847  0.00000000  0.00000000  1
  C  C26  1  0.38098912  0.72151348  0.75000000  1
  C  C27  1  0.65723889  0.38172391  0.49979694  1
  C  C28  1  0.61066451  0.33617213  0.75000000  1
  C  C29  1  0.04476637  0.05075304  0.25000000  1
  C  C30  1  0.99401333  0.94924696  0.75000000  1
  C  C31  1  0.27449238  0.66382787  0.25000000  1
  C  C32  1  0.27551498  0.61827609  0.99979694  1
  C  C33  1  0.04684847  0.00000000  0.50000000  1
  C  C34  1  0.65723889  0.38172391  0.00020306  1
  C  C35  1  0.27551498  0.61827609  0.50020306  1
  O  O36  1  0.66170345  0.66807939  0.84541755  1
  O  O37  1  0.36313455  0.66474812  0.21446626  1
  O  O38  1  0.33119759  0.33540609  0.59565012  1
  O  O39  1  0.32285866  0.33010438  0.09563508  1
  O  O40  1  0.56407614  0.90219154  0.75000000  1
  O  O41  1  0.65261193  0.56101647  0.50148542  1
  O  O42  1  0.09236143  0.66261938  0.25000000  1
  O  O43  1  0.65906257  0.99862758  0.09901495  1
  O  O44  1  0.35612377  0.69760371  0.53676493  1
  O  O45  1  0.65906257  0.99862758  0.40098505  1
  O  O46  1  0.65812296  0.36547363  0.28555004  1
  O  O47  1  0.99362405  0.33192061  0.34541755  1
  O  O48  1  0.32438833  0.99771009  0.34563662  1
  O  O49  1  0.37289118  0.71222322  0.03422043  1
  O  O50  1  0.35612377  0.69760371  0.96323507  1
  O  O51  1  0.32285866  0.33010438  0.40436492  1
  O  O52  1  0.65261193  0.56101647  0.99851458  1
  O  O53  1  0.99362405  0.33192061  0.15458245  1
  O  O54  1  0.37289118  0.71222322  0.46577957  1
  O  O55  1  0.69838643  0.33525188  0.71446626  1
  O  O56  1  0.66170345  0.66807939  0.65458245  1
  O  O57  1  0.95749111  -0.00222438  0.03552439  1
  O  O58  1  0.65852006  0.30239629  0.46323507  1
  O  O59  1  0.32667824  0.00228991  0.65436338  1
  O  O60  1  0.95971549  1.00222438  0.53552439  1
  O  O61  1  0.09159547  0.43898353  0.00148542  1
  O  O62  1  -0.00152483  0.33866577  0.84919830  1
  O  O63  1  0.22314228  0.23546873  0.25000000  1
  O  O64  1  0.66066795  0.28777678  0.96577957  1
  O  O65  1  0.99579151  0.66459391  0.09565012  1
  O  O66  1  0.65852006  0.30239629  0.03676493  1
  O  O67  1  0.65980939  0.66133423  0.34919830  1
  O  O68  1  0.66043500  0.00137242  0.59901495  1
  O  O69  1  0.29264934  0.63452637  0.78555004  1
  O  O70  1  0.99275428  0.66989562  0.59563508  1
  O  O71  1  -0.00287617  0.03895746  0.78553568  1
  O  O72  1  0.98767356  0.76453127  0.75000000  1
  O  O73  1  0.32438833  0.99771009  0.15436338  1
  O  O74  1  0.09159547  0.43898353  0.49851458  1
  O  O75  1  -0.00287617  0.03895746  0.71446432  1
  O  O76  1  0.99275428  0.66989562  0.90436492  1
  O  O77  1  0.29264934  0.63452637  0.71444996  1
  O  O78  1  0.99579151  0.66459391  0.40434988  1
  O  O79  1  0.66043500  0.00137242  0.90098505  1
  O  O80  1  0.95749111  -0.00222438  0.46447561  1
  O  O81  1  0.22836733  0.00000000  0.50000000  1
  O  O82  1  0.66066795  0.28777678  0.53422043  1
  O  O83  1  0.36313455  0.66474812  0.28553374  1
  O  O84  1  0.42974206  0.33738062  0.75000000  1
  O  O85  1  0.66188459  0.09780846  0.25000000  1
  O  O86  1  0.95816636  0.96104254  0.21446432  1
  O  O87  1  -0.00152483  0.33866577  0.65080170  1
  O  O88  1  0.95971549  1.00222438  0.96447561  1
  O  O89  1  0.32667824  0.00228991  0.84563662  1
  O  O90  1  0.69838643  0.33525188  0.78553374  1
  O  O91  1  0.65980939  0.66133423  0.15080170  1
  O  O92  1  0.65812296  0.36547363  0.21444996  1
  O  O93  1  0.22836733  0.00000000  0.00000000  1
  O  O94  1  0.95816636  0.96104254  0.28553568  1
  O  O95  1  0.33119759  0.33540609  0.90434988  1
