# generated using pymatgen
data_Mn5Pb(SO4)6
_symmetry_space_group_name_H-M   'P 1'
_cell_length_a   14.86085960
_cell_length_b   14.86085944
_cell_length_c   7.61216243
_cell_angle_alpha   90.00000000
_cell_angle_beta   90.00000000
_cell_angle_gamma   120.00000038
_symmetry_Int_Tables_number   1
_chemical_formula_structural   Mn5Pb(SO4)6
_chemical_formula_sum   'Mn15 Pb3 S18 O72'
_cell_volume   1455.88319977
_cell_formula_units_Z   3
loop_
 _symmetry_equiv_pos_site_id
 _symmetry_equiv_pos_as_xyz
  1  'x, y, z'
loop_
 _atom_site_type_symbol
 _atom_site_label
 _atom_site_symmetry_multiplicity
 _atom_site_fract_x
 _atom_site_fract_y
 _atom_site_fract_z
 _atom_site_occupancy
  Mn  Mn0  1  0.34801273  0.34526527  0.03446152  1
  Mn  Mn1  1  0.65198727  0.65473473  0.96553848  1
  Mn  Mn2  1  0.67822069  0.99679348  0.45310867  1
  Mn  Mn3  1  0.00274746  0.34801273  0.96553848  1
  Mn  Mn4  1  0.00320652  0.68142721  0.45310867  1
  Mn  Mn5  1  0.99725254  0.65198727  0.03446152  1
  Mn  Mn6  1  0.31857279  0.32177931  0.45310867  1
  Mn  Mn7  1  0.00000000  0.00000000  0.00000000  1
  Mn  Mn8  1  0.34526527  0.99725254  0.96553848  1
  Mn  Mn9  1  0.65473473  0.00274746  0.03446152  1
  Mn  Mn10  1  0.33333300  0.66666700  0.49844051  1
  Mn  Mn11  1  0.66666700  0.33333300  0.50155949  1
  Mn  Mn12  1  0.99679348  0.31857279  0.54689133  1
  Mn  Mn13  1  0.68142721  0.67822069  0.54689133  1
  Mn  Mn14  1  0.32177931  0.00320652  0.54689133  1
  Pb  Pb15  1  0.33333300  0.66666700  0.00158903  1
  Pb  Pb16  1  0.66666700  0.33333300  0.99841097  1
  Pb  Pb17  1  0.00000000  0.00000000  0.50000000  1
  S  S18  1  0.22672716  0.09698566  0.24313252  1
  S  S19  1  0.77327284  0.90301434  0.75686748  1
  S  S20  1  0.23457831  0.79419311  0.25686574  1
  S  S21  1  0.76542169  0.20580689  0.74313426  1
  S  S22  1  0.20580689  0.44038520  0.25686574  1
  S  S23  1  0.46205655  0.89236550  0.73967979  1
  S  S24  1  0.10763450  0.56969105  0.73967979  1
  S  S25  1  0.90301434  0.12974149  0.24313252  1
  S  S26  1  0.56969105  0.46205655  0.26032021  1
  S  S27  1  0.12974149  0.22672716  0.75686748  1
  S  S28  1  0.43030895  0.53794345  0.73967979  1
  S  S29  1  0.44038520  0.23457831  0.74313426  1
  S  S30  1  0.53794345  0.10763450  0.26032021  1
  S  S31  1  0.55961480  0.76542169  0.25686574  1
  S  S32  1  0.87025851  0.77327284  0.24313252  1
  S  S33  1  0.79419311  0.55961480  0.74313426  1
  S  S34  1  0.09698566  0.87025851  0.75686748  1
  S  S35  1  0.89236550  0.43030895  0.26032021  1
  O  O36  1  0.78674110  0.74415367  0.11427008  1
  O  O37  1  0.59054467  0.72590612  0.40792803  1
  O  O38  1  0.45496792  0.42338539  0.25620367  1
  O  O39  1  0.83323394  0.77628090  0.42450647  1
  O  O40  1  0.13536145  0.40945533  0.40792803  1
  O  O41  1  0.95741257  0.21325890  0.11427008  1
  O  O42  1  0.95896204  0.87920544  0.20361623  1
  O  O43  1  0.87920544  0.92024341  0.79638377  1
  O  O44  1  0.62040648  0.54000022  0.39884360  1
  O  O45  1  0.84563796  0.55681768  0.90932832  1
  O  O46  1  0.72590612  0.13536145  0.59207197  1
  O  O47  1  0.88002948  0.24599024  0.76227188  1
  O  O48  1  0.08040627  0.62040648  0.60115640  1
  O  O49  1  0.55681768  0.71117972  0.09067168  1
  O  O50  1  0.54000022  0.91959373  0.60115640  1
  O  O51  1  0.63403925  0.88002948  0.23772812  1
  O  O52  1  0.49436780  0.10808532  0.08354116  1
  O  O53  1  0.58569405  0.37191977  0.29338952  1
  O  O54  1  0.61371751  0.50563220  0.08354116  1
  O  O55  1  0.40945533  0.27409388  0.59207197  1
  O  O56  1  0.04258743  0.78674110  0.88572992  1
  O  O57  1  0.15436204  0.44318232  0.09067168  1
  O  O58  1  0.91959373  0.37959352  0.39884360  1
  O  O59  1  0.50563220  0.89191468  0.91645884  1
  O  O60  1  0.36596075  0.11997052  0.76227188  1
  O  O61  1  0.42338539  0.96841747  0.74379633  1
  O  O62  1  0.21167664  0.90922349  0.76087018  1
  O  O63  1  0.21377428  0.58569405  0.70661048  1
  O  O64  1  0.16676606  0.22371910  0.57549353  1
  O  O65  1  0.74913004  0.29622175  0.71223237  1
  O  O66  1  0.28882028  0.84563796  0.09067168  1
  O  O67  1  0.70377825  0.45290829  0.71223237  1
  O  O68  1  0.37191977  0.78622572  0.70661048  1
  O  O69  1  0.75400976  0.63403925  0.76227188  1
  O  O70  1  0.25086996  0.70377825  0.28776763  1
  O  O71  1  0.37959352  0.45999978  0.60115640  1
  O  O72  1  0.27409388  0.86463855  0.40792803  1
  O  O73  1  0.71117972  0.15436204  0.90932832  1
  O  O74  1  0.41430595  0.62808023  0.70661048  1
  O  O75  1  0.45999978  0.08040627  0.39884360  1
  O  O76  1  0.89191468  0.38628249  0.08354116  1
  O  O77  1  0.90922349  0.69754685  0.23912982  1
  O  O78  1  0.12079456  0.07975659  0.20361623  1
  O  O79  1  0.94304696  0.16676606  0.42450647  1
  O  O80  1  0.11997052  0.75400976  0.23772812  1
  O  O81  1  0.10808532  0.61371751  0.91645884  1
  O  O82  1  0.74415367  0.95741257  0.88572992  1
  O  O83  1  0.38628249  0.49436780  0.91645884  1
  O  O84  1  0.69754685  0.78832336  0.76087018  1
  O  O85  1  0.78832336  0.09077651  0.23912982  1
  O  O86  1  0.24599024  0.36596075  0.23772812  1
  O  O87  1  0.62808023  0.21377428  0.29338952  1
  O  O88  1  0.78622572  0.41430595  0.29338952  1
  O  O89  1  0.57661461  0.03158253  0.25620367  1
  O  O90  1  0.29622175  0.54709171  0.28776763  1
  O  O91  1  0.22371910  0.05695304  0.42450647  1
  O  O92  1  0.25584633  0.04258743  0.11427008  1
  O  O93  1  0.54709171  0.25086996  0.71223237  1
  O  O94  1  0.54503208  0.57661461  0.74379633  1
  O  O95  1  0.07975659  0.95896204  0.79638377  1
  O  O96  1  0.30245315  0.21167664  0.23912982  1
  O  O97  1  0.03158253  0.45496792  0.74379633  1
  O  O98  1  0.45290829  0.74913004  0.28776763  1
  O  O99  1  0.04103796  0.12079456  0.79638377  1
  O  O100  1  0.92024341  0.04103796  0.20361623  1
  O  O101  1  0.21325890  0.25584633  0.88572992  1
  O  O102  1  0.96841747  0.54503208  0.25620367  1
  O  O103  1  0.44318232  0.28882028  0.90932832  1
  O  O104  1  0.86463855  0.59054467  0.59207197  1
  O  O105  1  0.09077651  0.30245315  0.76087018  1
  O  O106  1  0.05695304  0.83323394  0.57549353  1
  O  O107  1  0.77628090  0.94304696  0.57549353  1
