# generated using pymatgen
data_La5FePb3
_symmetry_space_group_name_H-M   'P 1'
_cell_length_a   7.17816231
_cell_length_b   9.67460831
_cell_length_c   9.67474808
_cell_angle_alpha   119.99951655
_cell_angle_beta   90.00000000
_cell_angle_gamma   90.00000000
_symmetry_Int_Tables_number   1
_chemical_formula_structural   La5FePb3
_chemical_formula_sum   'La10 Fe2 Pb6'
_cell_volume   581.86077053
_cell_formula_units_Z   2
loop_
 _symmetry_equiv_pos_site_id
 _symmetry_equiv_pos_as_xyz
  1  'x, y, z'
loop_
 _atom_site_type_symbol
 _atom_site_label
 _atom_site_symmetry_multiplicity
 _atom_site_fract_x
 _atom_site_fract_y
 _atom_site_fract_z
 _atom_site_occupancy
  La  La0  1  0.75000612  0.23060970  1.00000000  1
  La  La1  1  0.74999729  0.76938030  0.76936652  1
  La  La2  1  0.74999729  0.00001378  0.23063348  1
  La  La3  1  0.25000612  0.76939030  0.00000000  1
  La  La4  1  0.24999729  0.23061970  0.23063348  1
  La  La5  1  0.24999729  0.99998622  0.76936652  1
  La  La6  1  0.50000009  0.33328612  0.66666513  1
  La  La7  1  0.50000009  0.66662099  0.33333487  1
  La  La8  1  0.00000009  0.66671388  0.33333487  1
  La  La9  1  0.00000009  0.33337901  0.66666513  1
  Fe  Fe10  1  0.49999962  0.99999977  0.00000000  1
  Fe  Fe11  1  0.99999962  0.00000023  -0.00000000  1
  Pb  Pb12  1  0.74999929  0.59769598  1.00000000  1
  Pb  Pb13  1  0.75000011  0.40229602  0.40230805  1
  Pb  Pb14  1  0.75000011  0.99998797  0.59769195  1
  Pb  Pb15  1  0.24999929  0.40230402  0.00000000  1
  Pb  Pb16  1  0.25000011  0.59770398  0.59769195  1
  Pb  Pb17  1  0.25000011  0.00001203  0.40230805  1
