# generated using pymatgen
data_Si2Mo4P6O25
_symmetry_space_group_name_H-M   'P 1'
_cell_length_a   14.87211356
_cell_length_b   14.87211390
_cell_length_c   8.00531954
_cell_angle_alpha   90.00000000
_cell_angle_beta   90.00000000
_cell_angle_gamma   119.99999924
_symmetry_Int_Tables_number   1
_chemical_formula_structural   Si2Mo4P6O25
_chemical_formula_sum   'Si6 Mo12 P18 O75'
_cell_volume   1533.39732957
_cell_formula_units_Z   3
loop_
 _symmetry_equiv_pos_site_id
 _symmetry_equiv_pos_as_xyz
  1  'x, y, z'
loop_
 _atom_site_type_symbol
 _atom_site_label
 _atom_site_symmetry_multiplicity
 _atom_site_fract_x
 _atom_site_fract_y
 _atom_site_fract_z
 _atom_site_occupancy
  Si  Si0  1  0.00000000  0.00000000  0.30033709  1
  Si  Si1  1  0.33333300  0.66666700  0.19768909  1
  Si  Si2  1  0.33333300  0.66666700  0.79861817  1
  Si  Si3  1  0.66666700  0.33333300  0.20138083  1
  Si  Si4  1  0.66666700  0.33333300  0.80231091  1
  Si  Si5  1  0.00000000  0.00000000  0.69966291  1
  Mo  Mo6  1  0.00056297  0.66185611  0.05045726  1
  Mo  Mo7  1  0.67251738  0.00249185  0.44448857  1
  Mo  Mo8  1  0.66185611  0.66129314  0.94954274  1
  Mo  Mo9  1  0.00249185  0.32997447  0.55551143  1
  Mo  Mo10  1  0.66129314  0.99943703  0.05045726  1
  Mo  Mo11  1  0.67002553  0.67251738  0.55551143  1
  Mo  Mo12  1  0.99943703  0.33814389  0.94954274  1
  Mo  Mo13  1  0.32997447  0.32748262  0.44448857  1
  Mo  Mo14  1  0.32748262  0.99750815  0.55551143  1
  Mo  Mo15  1  0.33870686  0.00056297  0.94954274  1
  Mo  Mo16  1  0.33814389  0.33870686  0.05045726  1
  Mo  Mo17  1  0.99750815  0.67002553  0.44448857  1
  P  P18  1  0.42734851  0.89795520  0.25368769  1
  P  P19  1  0.10204480  0.52939431  0.25368769  1
  P  P20  1  0.76789020  0.86210894  0.25006604  1
  P  P21  1  0.47060569  0.57265149  0.25368769  1
  P  P22  1  0.86210894  0.09421874  0.74993396  1
  P  P23  1  0.23210980  0.13789106  0.74993396  1
  P  P24  1  0.75968400  0.56515470  0.25166295  1
  P  P25  1  0.90578126  0.76789020  0.74993396  1
  P  P26  1  0.24031600  0.43484530  0.74833705  1
  P  P27  1  0.57265149  0.10204480  0.74631231  1
  P  P28  1  0.13789106  0.90578126  0.25006604  1
  P  P29  1  0.80547171  0.24031600  0.25166295  1
  P  P30  1  0.56515470  0.80547171  0.74833705  1
  P  P31  1  0.09421874  0.23210980  0.25006604  1
  P  P32  1  0.89795520  0.47060569  0.74631231  1
  P  P33  1  0.52939431  0.42734851  0.74631231  1
  P  P34  1  0.43484530  0.19452829  0.25166295  1
  P  P35  1  0.19452829  0.75968400  0.74833705  1
  O  O36  1  0.47726300  0.38582895  0.91447258  1
  O  O37  1  0.27869563  0.40974014  0.59034807  1
  O  O38  1  0.40793889  0.78309095  0.26989256  1
  O  O39  1  0.91552449  0.53714833  0.59382587  1
  O  O40  1  0.78309095  0.37515206  0.73010844  1
  O  O41  1  0.08447551  0.46285167  0.40617413  1
  O  O42  1  0.62484794  0.40793889  0.73010844  1
  O  O43  1  0.61417105  0.09143405  0.91447258  1
  O  O44  1  0.91734822  0.21580826  0.75590945  1
  O  O45  1  0.95532375  0.07197126  0.77306908  1
  O  O46  1  0.72130437  0.59025986  0.40965193  1
  O  O47  1  0.24071482  0.18662900  0.57929558  1
  O  O48  1  0.75023767  0.11879304  0.24247193  1
  O  O49  1  0.29050524  0.42942730  0.91064836  1
  O  O50  1  0.45002582  0.71166098  0.72562752  1
  O  O51  1  0.88335149  0.95532375  0.22693092  1
  O  O52  1  0.36855437  0.24976233  0.24247193  1
  O  O53  1  0.73836484  0.45002582  0.27437248  1
  O  O54  1  0.08265178  0.78419174  0.24409055  1
  O  O55  1  0.92802874  0.88335149  0.77306908  1
  O  O56  1  0.66666700  0.33333300  0.00185969  1
  O  O57  1  0.13892106  0.70949476  0.91064836  1
  O  O58  1  0.33333300  0.66666700  0.99814031  1
  O  O59  1  0.57057270  0.86107894  0.91064836  1
  O  O60  1  0.24976233  0.88120696  0.75752807  1
  O  O61  1  0.18662900  0.94591518  0.42070342  1
  O  O62  1  0.94591518  0.75928518  0.57929558  1
  O  O63  1  0.90856595  0.52273700  0.91447258  1
  O  O64  1  0.62162383  0.08447551  0.59382587  1
  O  O65  1  0.79155262  0.04563757  0.89841587  1
  O  O66  1  0.58252963  0.54883539  0.74381803  1
  O  O67  1  0.42942730  0.13892106  0.08935164  1
  O  O68  1  0.00000000  0.00000000  0.50000000  1
  O  O69  1  0.11879304  0.36855437  0.75752807  1
  O  O70  1  0.21580826  0.29846004  0.24409055  1
  O  O71  1  0.11664851  0.04467625  0.77306908  1
  O  O72  1  0.59025986  0.86895649  0.59034807  1
  O  O73  1  0.25408495  0.20844738  0.89841587  1
  O  O74  1  0.38582895  0.90856595  0.08552742  1
  O  O75  1  0.04467625  0.92802874  0.22693092  1
  O  O76  1  0.13104351  0.72130437  0.59034807  1
  O  O77  1  0.70153996  0.91734822  0.24409055  1
  O  O78  1  0.88120696  0.63144563  0.24247193  1
  O  O79  1  0.21690905  0.62484794  0.26989256  1
  O  O80  1  0.41747037  0.45116461  0.25618197  1
  O  O81  1  0.04563757  0.25408495  0.10158413  1
  O  O82  1  0.63144563  0.75023767  0.75752807  1
  O  O83  1  0.86895649  0.27869563  0.40965193  1
  O  O84  1  0.37837617  0.91552449  0.40617413  1
  O  O85  1  0.20844738  0.95436243  0.10158413  1
  O  O86  1  0.59206111  0.21690905  0.73010844  1
  O  O87  1  0.03369425  0.58252963  0.25618197  1
  O  O88  1  0.29846004  0.08265178  0.75590945  1
  O  O89  1  0.54997418  0.28833902  0.27437248  1
  O  O90  1  0.81337100  0.05408482  0.57929558  1
  O  O91  1  0.05408482  0.24071482  0.42070342  1
  O  O92  1  0.40974014  0.13104351  0.40965193  1
  O  O93  1  0.37515206  0.59206111  0.26989256  1
  O  O94  1  0.28833902  0.73836484  0.72562752  1
  O  O95  1  0.46285167  0.37837617  0.59382587  1
  O  O96  1  0.26163516  0.54997418  0.72562752  1
  O  O97  1  0.09143405  0.47726300  0.08552742  1
  O  O98  1  0.52273700  0.61417105  0.08552742  1
  O  O99  1  0.95436243  0.74591505  0.89841587  1
  O  O100  1  0.71166098  0.26163516  0.27437248  1
  O  O101  1  0.54883539  0.96630575  0.25618197  1
  O  O102  1  0.53714833  0.62162383  0.40617413  1
  O  O103  1  0.45116461  0.03369425  0.74381803  1
  O  O104  1  0.78419174  0.70153996  0.75590945  1
  O  O105  1  0.96630575  0.41747037  0.74381803  1
  O  O106  1  0.70949476  0.57057270  0.08935164  1
  O  O107  1  0.07197126  0.11664851  0.22693092  1
  O  O108  1  0.74591505  0.79155262  0.10158413  1
  O  O109  1  0.86107894  0.29050524  0.08935164  1
  O  O110  1  0.75928518  0.81337100  0.42070342  1
