# generated using pymatgen
data_CsHoZnTe3
_symmetry_space_group_name_H-M   'P 1'
_cell_length_a   4.42394464
_cell_length_b   9.00359143
_cell_length_c   11.70792019
_cell_angle_alpha   90.00000000
_cell_angle_beta   90.00000000
_cell_angle_gamma   104.22182607
_symmetry_Int_Tables_number   1
_chemical_formula_structural   CsHoZnTe3
_chemical_formula_sum   'Cs2 Ho2 Zn2 Te6'
_cell_volume   452.05018588
_cell_formula_units_Z   2
loop_
 _symmetry_equiv_pos_site_id
 _symmetry_equiv_pos_as_xyz
  1  'x, y, z'
loop_
 _atom_site_type_symbol
 _atom_site_label
 _atom_site_symmetry_multiplicity
 _atom_site_fract_x
 _atom_site_fract_y
 _atom_site_fract_z
 _atom_site_occupancy
  Cs  Cs0  1  0.74714478  0.49428957  0.75000000  1
  Cs  Cs1  1  0.25285522  0.50571043  0.25000000  1
  Ho  Ho2  1  0.00000000  0.00000000  0.00000000  1
  Ho  Ho3  1  0.00000000  0.00000000  0.50000000  1
  Zn  Zn4  1  0.53696884  0.07393769  0.25000000  1
  Zn  Zn5  1  0.46303116  0.92606231  0.75000000  1
  Te  Te6  1  0.05847911  0.11695822  0.75000000  1
  Te  Te7  1  0.38247976  0.76495951  0.94295509  1
  Te  Te8  1  0.61752024  0.23504049  0.44295509  1
  Te  Te9  1  0.61752024  0.23504049  0.05704491  1
  Te  Te10  1  0.94152089  0.88304178  0.25000000  1
  Te  Te11  1  0.38247976  0.76495951  0.55704491  1
