# generated using pymatgen
data_Y16B4C8I19
_symmetry_space_group_name_H-M   'P 1'
_cell_length_a   12.60743290
_cell_length_b   14.48376449
_cell_length_c   19.84286158
_cell_angle_alpha   75.28856983
_cell_angle_beta   89.61434999
_cell_angle_gamma   67.21860185
_symmetry_Int_Tables_number   1
_chemical_formula_structural   Y16B4C8I19
_chemical_formula_sum   'Y32 B8 C16 I38'
_cell_volume   3214.09458904
_cell_formula_units_Z   2
loop_
 _symmetry_equiv_pos_site_id
 _symmetry_equiv_pos_as_xyz
  1  'x, y, z'
loop_
 _atom_site_type_symbol
 _atom_site_label
 _atom_site_symmetry_multiplicity
 _atom_site_fract_x
 _atom_site_fract_y
 _atom_site_fract_z
 _atom_site_occupancy
  Y  Y0  1  0.68539541  0.34055676  0.77933903  1
  Y  Y1  1  0.42954208  0.34750898  0.77830887  1
  Y  Y2  1  0.31460459  0.65944324  0.22066097  1
  Y  Y3  1  0.60186983  0.26483127  0.95692867  1
  Y  Y4  1  0.67870754  0.71096525  0.45606107  1
  Y  Y5  1  0.14050294  0.72805356  0.45814412  1
  Y  Y6  1  0.36088017  0.50462083  0.59153580  1
  Y  Y7  1  0.55642865  0.65164711  0.72084910  1
  Y  Y8  1  0.60204073  0.26398640  0.62709080  1
  Y  Y9  1  0.86114900  0.27675569  0.04394861  1
  Y  Y10  1  0.67482944  0.71445859  0.95814239  1
  Y  Y11  1  0.59495582  0.26279271  0.12735707  1
  Y  Y12  1  0.13885100  0.72324431  0.95605139  1
  Y  Y13  1  0.32129246  0.28903475  0.54393893  1
  Y  Y14  1  0.39813017  0.73516873  0.04307133  1
  Y  Y15  1  0.40504418  0.73720729  0.87264293  1
  Y  Y16  1  0.36234175  0.50230790  0.90828173  1
  Y  Y17  1  0.63765825  0.49769210  0.09171827  1
  Y  Y18  1  0.85949706  0.27194644  0.54185588  1
  Y  Y19  1  0.30002878  0.65994382  0.72198721  1
  Y  Y20  1  0.59504295  0.26460954  0.45697563  1
  Y  Y21  1  0.63358791  0.49671577  0.59209585  1
  Y  Y22  1  0.63361734  0.49740954  0.90800150  1
  Y  Y23  1  0.36638266  0.50259046  0.09199850  1
  Y  Y24  1  0.57045792  0.65249102  0.22169113  1
  Y  Y25  1  0.63911983  0.49537917  0.40846420  1
  Y  Y26  1  0.32517056  0.28554141  0.04185761  1
  Y  Y27  1  0.40495705  0.73539046  0.54302437  1
  Y  Y28  1  0.36641209  0.50328423  0.40790415  1
  Y  Y29  1  0.44357135  0.34835289  0.27915090  1
  Y  Y30  1  0.69997122  0.34005618  0.27801279  1
  Y  Y31  1  0.39795927  0.73601360  0.37290920  1
  B  B32  1  0.49198534  0.50114736  0.79474554  1
  B  B33  1  0.52922277  0.43011517  0.51300861  1
  B  B34  1  0.50801466  0.49885264  0.20525446  1
  B  B35  1  0.52924698  0.43010104  0.01298132  1
  B  B36  1  0.47075302  0.56989896  0.98701868  1
  B  B37  1  0.50771269  0.50071046  0.29466768  1
  B  B38  1  0.49228731  0.49928954  0.70533232  1
  B  B39  1  0.47077723  0.56988483  0.48699139  1
  C  C40  1  0.33396825  0.63593234  0.47473332  1
  C  C41  1  0.53926548  0.39177511  0.68436487  1
  C  C42  1  0.55014555  0.39169806  0.18399825  1
  C  C43  1  0.55505527  0.63006114  0.97504184  1
  C  C44  1  0.44628374  0.36863387  0.52422124  1
  C  C45  1  0.46073452  0.60822489  0.31563513  1
  C  C46  1  0.66594253  0.36317789  0.02447741  1
  C  C47  1  0.54916332  0.39496021  0.35552771  1
  C  C48  1  0.44494473  0.36993886  0.02495816  1
  C  C49  1  0.33405747  0.63682211  0.97552259  1
  C  C50  1  0.44985445  0.60830194  0.81600175  1
  C  C51  1  0.53885352  0.39524555  0.85536634  1
  C  C52  1  0.55371626  0.63136613  0.47577876  1
  C  C53  1  0.66603175  0.36406766  0.52526668  1
  C  C54  1  0.45083668  0.60503979  0.64447229  1
  C  C55  1  0.46114648  0.60475445  0.14463366  1
  I  I56  1  0.54461099  0.08572184  0.05298185  1
  I  I57  1  0.38310481  0.86775182  0.16611009  1
  I  I58  1  0.49711498  0.90539136  0.35908918  1
  I  I59  1  0.88831287  0.35288830  0.17513248  1
  I  I60  1  0.38478791  0.20503695  0.41581041  1
  I  I61  1  0.13075421  0.19390505  0.56213210  1
  I  I62  1  0.15433081  0.91204709  0.85655150  1
  I  I63  1  0.12675696  0.50603846  0.05042396  1
  I  I64  1  0.13732828  0.81231962  0.29752655  1
  I  I65  1  0.61689519  0.13224818  0.83388991  1
  I  I66  1  0.86267172  0.18768038  0.70247345  1
  I  I67  1  0.22889744  0.36640860  0.67519755  1
  I  I68  1  0.13313985  0.80838671  0.08346261  1
  I  I69  1  0.24918729  0.33860840  0.88552998  1
  I  I70  1  0.45538901  0.91427816  0.94701815  1
  I  I71  1  0.89170598  0.32518794  0.38492446  1
  I  I72  1  0.10829402  0.67481206  0.61507554  1
  I  I73  1  0.18190458  0.92200932  0.46103995  1
  I  I74  1  0.86451153  0.81061026  0.94283380  1
  I  I75  1  0.19436435  0.50978609  0.25107168  1
  I  I76  1  0.13548847  0.18938974  0.05716620  1
  I  I77  1  0.87263106  0.49133470  0.54936577  1
  I  I78  1  0.75081271  0.66139160  0.11447002  1
  I  I79  1  0.86924579  0.80609495  0.43786790  1
  I  I80  1  0.37574799  0.21176459  0.20223216  1
  I  I81  1  0.80563565  0.49021391  0.74892832  1
  I  I82  1  0.81809542  0.07799068  0.53896005  1
  I  I83  1  0.50288502  0.09460864  0.64091082  1
  I  I84  1  0.61521209  0.79496305  0.58418959  1
  I  I85  1  0.84566919  0.08795291  0.14344850  1
  I  I86  1  0.12736894  0.50866530  0.45063423  1
  I  I87  1  0.31605236  0.86851449  0.67205692  1
  I  I88  1  0.86686015  0.19161329  0.91653739  1
  I  I89  1  0.87324304  0.49396154  0.94957604  1
  I  I90  1  0.77110256  0.63359140  0.32480245  1
  I  I91  1  0.62425201  0.78823541  0.79776784  1
  I  I92  1  0.68394764  0.13148551  0.32794308  1
  I  I93  1  0.11168713  0.64711170  0.82486752  1
