# generated using pymatgen
data_K3Fe5(PO4)6
_symmetry_space_group_name_H-M   'P 1'
_cell_length_a   6.54473243
_cell_length_b   10.85277434
_cell_length_c   16.05915129
_cell_angle_alpha   89.95520558
_cell_angle_beta   78.24373891
_cell_angle_gamma   89.77232390
_symmetry_Int_Tables_number   1
_chemical_formula_structural   K3Fe5(PO4)6
_chemical_formula_sum   'K6 Fe10 P12 O48'
_cell_volume   1116.72134836
_cell_formula_units_Z   2
loop_
 _symmetry_equiv_pos_site_id
 _symmetry_equiv_pos_as_xyz
  1  'x, y, z'
loop_
 _atom_site_type_symbol
 _atom_site_label
 _atom_site_symmetry_multiplicity
 _atom_site_fract_x
 _atom_site_fract_y
 _atom_site_fract_z
 _atom_site_occupancy
  K  K0  1  0.93976850  0.75000959  0.12041525  1
  K  K1  1  0.78563379  0.98772901  0.72338402  1
  K  K2  1  0.06023150  0.24999041  0.87958475  1
  K  K3  1  0.50905602  0.48770374  0.27660385  1
  K  K4  1  0.49094398  0.51229626  0.72339615  1
  K  K5  1  0.21436621  0.01227099  0.27661598  1
  Fe  Fe6  1  0.70327177  0.07760944  0.09966533  1
  Fe  Fe7  1  0.80290868  0.57759765  0.90033476  1
  Fe  Fe8  1  0.80664022  0.24998294  0.38658080  1
  Fe  Fe9  1  0.19709132  0.42240235  0.09966524  1
  Fe  Fe10  1  0.81048904  0.74998840  0.37906640  1
  Fe  Fe11  1  0.00000000  0.50000000  0.50000000  1
  Fe  Fe12  1  0.29672823  0.92239056  0.90033467  1
  Fe  Fe13  1  0.18951096  0.25001160  0.62093360  1
  Fe  Fe14  1  0.50000000  0.00000000  0.50000000  1
  Fe  Fe15  1  0.19335978  0.75001706  0.61341920  1
  P  P16  1  0.29479123  0.99754564  0.70194958  1
  P  P17  1  0.21688869  0.12288774  0.06059293  1
  P  P18  1  0.78311131  0.87711226  0.93940707  1
  P  P19  1  0.00327188  0.50248602  0.70194259  1
  P  P20  1  0.72254619  0.37714352  0.06060958  1
  P  P21  1  0.71815685  0.24997909  0.56372087  1
  P  P22  1  0.27745381  0.62285648  0.93939042  1
  P  P23  1  0.70520877  0.00245436  0.29805042  1
  P  P24  1  0.99672812  0.49751398  0.29805741  1
  P  P25  1  0.28184315  0.75002091  0.43627913  1
  P  P26  1  0.72158992  0.75001632  0.55692411  1
  P  P27  1  0.27841008  0.24998368  0.44307589  1
  O  O28  1  0.83903094  0.88265242  0.29403667  1
  O  O29  1  0.76838768  0.43209245  0.96900128  1
  O  O30  1  0.83601298  0.51126085  0.78429789  1
  O  O31  1  0.16398702  0.48873915  0.21570211  1
  O  O32  1  0.11997666  0.57198630  0.88794885  1
  O  O33  1  0.50105102  0.40985557  0.10920798  1
  O  O34  1  0.71379263  0.14155812  0.49723071  1
  O  O35  1  0.78894856  0.35840959  0.49723888  1
  O  O36  1  0.79431072  0.73562998  0.95475565  1
  O  O37  1  0.21105144  0.64159041  0.50276112  1
  O  O38  1  0.20568928  0.26437002  0.04524435  1
  O  O39  1  0.37963860  0.98881746  0.78432392  1
  O  O40  1  0.51993639  0.99797107  0.37522952  1
  O  O41  1  0.26266179  0.06793003  0.96898432  1
  O  O42  1  0.74909689  0.23565947  0.04526832  1
  O  O43  1  0.15671524  0.88552403  0.69338054  1
  O  O44  1  0.88002334  0.42801370  0.11205115  1
  O  O45  1  0.49894898  0.59014443  0.89079202  1
  O  O46  1  0.38978246  0.09019473  0.10920077  1
  O  O47  1  0.89520757  0.49793613  0.62475469  1
  O  O48  1  0.49747914  0.72249218  0.38144416  1
  O  O49  1  0.50252086  0.27750782  0.61855584  1
  O  O50  1  0.13304144  0.38266966  0.70599186  1
  O  O51  1  0.11809296  0.22461794  0.38821174  1
  O  O52  1  0.88190704  0.77538206  0.61178826  1
  O  O53  1  0.86695856  0.61733034  0.29400814  1
  O  O54  1  0.87898640  0.22241924  0.61853238  1
  O  O55  1  0.99202837  0.92798285  0.88797686  1
  O  O56  1  0.85005321  0.38551281  0.30664323  1
  O  O57  1  0.20823575  0.35884266  0.50933554  1
  O  O58  1  0.16096906  0.11734758  0.70596333  1
  O  O59  1  0.48006361  0.00202893  0.62477048  1
  O  O60  1  0.73733821  0.93206997  0.03101568  1
  O  O61  1  0.71757904  0.85886362  0.49067092  1
  O  O62  1  0.79176425  0.64115734  0.49066446  1
  O  O63  1  0.25090311  0.76434053  0.95473168  1
  O  O64  1  0.84328476  0.11447597  0.30661946  1
  O  O65  1  0.62036140  0.01118254  0.21567608  1
  O  O66  1  0.10479243  0.50206387  0.37524531  1
  O  O67  1  0.28242096  0.14113638  0.50932908  1
  O  O68  1  0.00797163  0.07201715  0.11202314  1
  O  O69  1  0.28620737  0.85844188  0.50276929  1
  O  O70  1  0.14994679  0.61448719  0.69335677  1
  O  O71  1  0.23161232  0.56790755  0.03099872  1
  O  O72  1  0.61021754  0.90980527  0.89079923  1
  O  O73  1  0.12101360  0.77758076  0.38146762  1
  O  O74  1  0.49359151  0.27536965  0.38821090  1
  O  O75  1  0.50640849  0.72463035  0.61178910  1
