# generated using pymatgen
data_K2In2Sb3
_symmetry_space_group_name_H-M   'P 1'
_cell_length_a   7.72625310
_cell_length_b   15.56584705
_cell_length_c   17.09409828
_cell_angle_alpha   90.40612257
_cell_angle_beta   90.00000000
_cell_angle_gamma   90.00000000
_symmetry_Int_Tables_number   1
_chemical_formula_structural   K2In2Sb3
_chemical_formula_sum   'K16 In16 Sb24'
_cell_volume   2055.78160682
_cell_formula_units_Z   8
loop_
 _symmetry_equiv_pos_site_id
 _symmetry_equiv_pos_as_xyz
  1  'x, y, z'
loop_
 _atom_site_type_symbol
 _atom_site_label
 _atom_site_symmetry_multiplicity
 _atom_site_fract_x
 _atom_site_fract_y
 _atom_site_fract_z
 _atom_site_occupancy
  K  K0  1  0.46463034  0.07762324  0.88734380  1
  K  K1  1  0.05476502  0.55862490  0.10235379  1
  K  K2  1  0.46648959  0.85812415  0.50835689  1
  K  K3  1  0.94855217  0.65413611  0.52238844  1
  K  K4  1  0.96648959  0.14187585  0.99164311  1
  K  K5  1  0.55476502  0.44137510  0.39764621  1
  K  K6  1  0.96463034  0.92237676  0.61265620  1
  K  K7  1  0.53351041  0.14187585  0.49164311  1
  K  K8  1  0.03536966  0.07762324  0.38734380  1
  K  K9  1  0.44523498  0.55862490  0.60235379  1
  K  K10  1  0.53536966  0.92237676  0.11265620  1
  K  K11  1  0.55144783  0.65413611  0.02238844  1
  K  K12  1  0.03351041  0.85812415  0.00835689  1
  K  K13  1  0.94523498  0.44137510  0.89764621  1
  K  K14  1  0.05144783  0.34586389  0.47761156  1
  K  K15  1  0.44855217  0.34586389  0.97761156  1
  In  In16  1  0.26381189  0.40778585  0.74040905  1
  In  In17  1  0.76381189  0.59221415  0.75959095  1
  In  In18  1  0.23618811  0.40778585  0.24040905  1
  In  In19  1  0.77997019  0.31657184  0.66446082  1
  In  In20  1  0.78675818  0.09279270  0.72848217  1
  In  In21  1  0.21324182  0.90720730  0.27151783  1
  In  In22  1  0.73618811  0.59221415  0.25959095  1
  In  In23  1  0.72002981  0.31657184  0.16446082  1
  In  In24  1  0.71324182  0.09279270  0.22848217  1
  In  In25  1  0.28675818  0.90720730  0.77151783  1
  In  In26  1  0.22002981  0.68342816  0.33553918  1
  In  In27  1  0.73799255  0.81780091  0.32693528  1
  In  In28  1  0.76200745  0.81780091  0.82693528  1
  In  In29  1  0.23799255  0.18219909  0.17306472  1
  In  In30  1  0.27997019  0.68342816  0.83553918  1
  In  In31  1  0.26200745  0.18219909  0.67306472  1
  Sb  Sb32  1  0.83684078  0.74959352  0.17300708  1
  Sb  Sb33  1  0.46399172  0.02495129  0.66830809  1
  Sb  Sb34  1  0.53600828  0.97504871  0.33169191  1
  Sb  Sb35  1  0.71239091  0.24995916  0.32231890  1
  Sb  Sb36  1  0.03600828  0.02495129  0.16830809  1
  Sb  Sb37  1  0.33684078  0.25040648  0.32699292  1
  Sb  Sb38  1  0.03263451  0.52124885  0.34198775  1
  Sb  Sb39  1  0.53263451  0.47875115  0.15801225  1
  Sb  Sb40  1  0.94490257  0.16160503  0.58806207  1
  Sb  Sb41  1  0.21239091  0.75004084  0.17768110  1
  Sb  Sb42  1  0.05509743  0.83839497  0.41193793  1
  Sb  Sb43  1  0.43616376  0.33295845  0.60340470  1
  Sb  Sb44  1  0.93616376  0.66704155  0.89659530  1
  Sb  Sb45  1  0.16315922  0.25040648  0.82699292  1
  Sb  Sb46  1  0.28760909  0.75004084  0.67768110  1
  Sb  Sb47  1  0.55509743  0.16160503  0.08806207  1
  Sb  Sb48  1  0.78760909  0.24995916  0.82231890  1
  Sb  Sb49  1  0.96399172  0.97504871  0.83169191  1
  Sb  Sb50  1  0.44490257  0.83839497  0.91193793  1
  Sb  Sb51  1  0.46736549  0.52124885  0.84198775  1
  Sb  Sb52  1  0.06383624  0.33295845  0.10340470  1
  Sb  Sb53  1  0.96736549  0.47875115  0.65801225  1
  Sb  Sb54  1  0.66315922  0.74959352  0.67300708  1
  Sb  Sb55  1  0.56383624  0.66704155  0.39659530  1
