# generated using pymatgen
data_CeNiSb3
_symmetry_space_group_name_H-M   'P 1'
_cell_length_a   6.26032000
_cell_length_b   12.47588305
_cell_length_c   18.48736061
_cell_angle_alpha   90.00000000
_cell_angle_beta   90.00000000
_cell_angle_gamma   90.00000000
_symmetry_Int_Tables_number   1
_chemical_formula_structural   CeNiSb3
_chemical_formula_sum   'Ce12 Ni12 Sb36'
_cell_volume   1443.91869872
_cell_formula_units_Z   12
loop_
 _symmetry_equiv_pos_site_id
 _symmetry_equiv_pos_as_xyz
  1  'x, y, z'
loop_
 _atom_site_type_symbol
 _atom_site_label
 _atom_site_symmetry_multiplicity
 _atom_site_fract_x
 _atom_site_fract_y
 _atom_site_fract_z
 _atom_site_occupancy
  Ce  Ce0  1  0.93936169  0.30513662  0.25000000  1
  Ce  Ce1  1  0.47314595  0.29992913  0.41645104  1
  Ce  Ce2  1  0.52685405  0.70007087  0.58354896  1
  Ce  Ce3  1  0.47314595  0.29992913  0.08354896  1
  Ce  Ce4  1  0.02685405  0.29992913  0.91645104  1
  Ce  Ce5  1  0.43936169  0.69486338  0.25000000  1
  Ce  Ce6  1  0.97314595  0.70007087  0.08354896  1
  Ce  Ce7  1  0.02685405  0.29992913  0.58354896  1
  Ce  Ce8  1  0.97314595  0.70007087  0.41645104  1
  Ce  Ce9  1  0.56063831  0.30513662  0.75000000  1
  Ce  Ce10  1  0.52685405  0.70007087  0.91645104  1
  Ce  Ce11  1  0.06063831  0.69486338  0.75000000  1
  Ni  Ni12  1  0.82618639  0.89946314  0.82394373  1
  Ni  Ni13  1  0.17381361  0.10053686  0.17605627  1
  Ni  Ni14  1  0.67381361  0.89946314  0.17605627  1
  Ni  Ni15  1  0.25000000  0.89499371  0.00000000  1
  Ni  Ni16  1  0.17381361  0.10053686  0.32394373  1
  Ni  Ni17  1  0.32618639  0.10053686  0.67605627  1
  Ni  Ni18  1  0.32618639  0.10053686  0.82394373  1
  Ni  Ni19  1  0.75000000  0.10500629  0.00000000  1
  Ni  Ni20  1  0.75000000  0.10500629  0.50000000  1
  Ni  Ni21  1  0.25000000  0.89499371  0.50000000  1
  Ni  Ni22  1  0.67381361  0.89946314  0.32394373  1
  Ni  Ni23  1  0.82618639  0.89946314  0.67605627  1
  Sb  Sb24  1  0.70481780  0.50326099  0.33389445  1
  Sb  Sb25  1  0.02546785  0.77035772  0.58439107  1
  Sb  Sb26  1  0.79518220  0.50326099  0.66610555  1
  Sb  Sb27  1  0.95915060  0.97184252  0.41332385  1
  Sb  Sb28  1  0.47453215  0.77035772  0.08439107  1
  Sb  Sb29  1  0.04084940  0.02815748  0.58667615  1
  Sb  Sb30  1  0.20481780  0.49673901  0.16610555  1
  Sb  Sb31  1  0.47453215  0.77035772  0.41560893  1
  Sb  Sb32  1  0.31713168  0.94066992  0.25000000  1
  Sb  Sb33  1  0.52546785  0.22964228  0.58439107  1
  Sb  Sb34  1  0.25000000  0.50362743  0.50000000  1
  Sb  Sb35  1  0.54084940  0.97184252  0.91332385  1
  Sb  Sb36  1  0.29518220  0.49673901  0.66610555  1
  Sb  Sb37  1  0.06086821  0.22989171  0.75000000  1
  Sb  Sb38  1  0.68286832  0.05933008  0.75000000  1
  Sb  Sb39  1  0.95915060  0.97184252  0.08667615  1
  Sb  Sb40  1  0.43913179  0.22989171  0.25000000  1
  Sb  Sb41  1  0.56086821  0.77010829  0.75000000  1
  Sb  Sb42  1  0.93913179  0.77010829  0.25000000  1
  Sb  Sb43  1  0.02546785  0.77035772  0.91560893  1
  Sb  Sb44  1  0.20481780  0.49673901  0.33389445  1
  Sb  Sb45  1  0.29518220  0.49673901  0.83389445  1
  Sb  Sb46  1  0.54084940  0.97184252  0.58667615  1
  Sb  Sb47  1  0.52546785  0.22964228  0.91560893  1
  Sb  Sb48  1  0.75000000  0.49637257  0.00000000  1
  Sb  Sb49  1  0.18286832  0.94066992  0.75000000  1
  Sb  Sb50  1  0.97453215  0.22964228  0.08439107  1
  Sb  Sb51  1  0.04084940  0.02815748  0.91332385  1
  Sb  Sb52  1  0.97453215  0.22964228  0.41560893  1
  Sb  Sb53  1  0.45915060  0.02815748  0.41332385  1
  Sb  Sb54  1  0.25000000  0.50362743  0.00000000  1
  Sb  Sb55  1  0.81713168  0.05933008  0.25000000  1
  Sb  Sb56  1  0.79518220  0.50326099  0.83389445  1
  Sb  Sb57  1  0.70481780  0.50326099  0.16610555  1
  Sb  Sb58  1  0.75000000  0.49637257  0.50000000  1
  Sb  Sb59  1  0.45915060  0.02815748  0.08667615  1
