# generated using pymatgen
data_Ti2FeB2Rh5
_symmetry_space_group_name_H-M   'P 1'
_cell_length_a   3.11057798
_cell_length_b   9.08714901
_cell_length_c   9.08714901
_cell_angle_alpha   90.00000000
_cell_angle_beta   90.00000000
_cell_angle_gamma   90.00000000
_symmetry_Int_Tables_number   1
_chemical_formula_structural   Ti2FeB2Rh5
_chemical_formula_sum   'Ti4 Fe2 B4 Rh10'
_cell_volume   256.85994931
_cell_formula_units_Z   2
loop_
 _symmetry_equiv_pos_site_id
 _symmetry_equiv_pos_as_xyz
  1  'x, y, z'
loop_
 _atom_site_type_symbol
 _atom_site_label
 _atom_site_symmetry_multiplicity
 _atom_site_fract_x
 _atom_site_fract_y
 _atom_site_fract_z
 _atom_site_occupancy
  Ti  Ti0  1  0.00000000  0.17600718  0.67600718  1
  Ti  Ti1  1  -0.00000000  0.82399282  0.32399282  1
  Ti  Ti2  1  -0.00000000  0.32399282  0.17600718  1
  Ti  Ti3  1  0.00000000  0.67600718  0.82399282  1
  Fe  Fe4  1  0.00000000  0.50000000  0.50000000  1
  Fe  Fe5  1  0.00000000  -0.00000000  -0.00000000  1
  B  B6  1  -0.00000000  0.62497253  0.12497253  1
  B  B7  1  0.00000000  0.37502747  0.87502747  1
  B  B8  1  0.00000000  0.87502747  0.62497253  1
  B  B9  1  -0.00000000  0.12497253  0.37502747  1
  Rh  Rh10  1  0.50000000  0.71377910  0.57318679  1
  Rh  Rh11  1  0.50000000  0.28622090  0.42681321  1
  Rh  Rh12  1  0.50000000  0.78622090  0.07318679  1
  Rh  Rh13  1  0.50000000  0.21377910  0.92681321  1
  Rh  Rh14  1  0.50000000  0.57318679  0.28622090  1
  Rh  Rh15  1  0.50000000  0.42681321  0.71377910  1
  Rh  Rh16  1  0.50000000  0.07318679  0.21377910  1
  Rh  Rh17  1  0.50000000  0.92681321  0.78622090  1
  Rh  Rh18  1  0.50000000  -0.00000000  0.50000000  1
  Rh  Rh19  1  0.50000000  0.50000000  -0.00000000  1
