# generated using pymatgen
data_K2NiP2O7
_symmetry_space_group_name_H-M   'P 1'
_cell_length_a   8.44116229
_cell_length_b   9.37945392
_cell_length_c   17.86631443
_cell_angle_alpha   90.00000000
_cell_angle_beta   90.00000000
_cell_angle_gamma   91.40751375
_symmetry_Int_Tables_number   1
_chemical_formula_structural   K2NiP2O7
_chemical_formula_sum   'K16 Ni8 P16 O56'
_cell_volume   1414.11171732
_cell_formula_units_Z   8
loop_
 _symmetry_equiv_pos_site_id
 _symmetry_equiv_pos_as_xyz
  1  'x, y, z'
loop_
 _atom_site_type_symbol
 _atom_site_label
 _atom_site_symmetry_multiplicity
 _atom_site_fract_x
 _atom_site_fract_y
 _atom_site_fract_z
 _atom_site_occupancy
  K  K0  1  0.06009176  0.25029646  0.93176312  1
  K  K1  1  0.72653692  0.00480538  0.53585362  1
  K  K2  1  0.31732935  0.09481333  0.77484136  1
  K  K3  1  0.93990824  0.74970354  0.43176312  1
  K  K4  1  0.55456452  0.75170719  0.89005594  1
  K  K5  1  0.20837660  -0.00029741  0.29751730  1
  K  K6  1  0.24781866  0.50262325  0.67864236  1
  K  K7  1  0.27346308  0.99519462  0.03585362  1
  K  K8  1  0.80156821  0.79708106  0.04216047  1
  K  K9  1  0.44543548  0.24829281  0.39005594  1
  K  K10  1  0.79162340  1.00029741  0.79751730  1
  K  K11  1  0.69384113  0.12342106  0.10476820  1
  K  K12  1  0.30615887  0.87657894  0.60476820  1
  K  K13  1  0.68267065  0.90518667  0.27484136  1
  K  K14  1  0.75218134  0.49737675  0.17864236  1
  K  K15  1  0.19843179  0.20291894  0.54216047  1
  Ni  Ni16  1  0.11621492  0.58120198  0.03754017  1
  Ni  Ni17  1  0.90065402  0.58724118  0.79167863  1
  Ni  Ni18  1  0.60414764  0.42065224  0.79438440  1
  Ni  Ni19  1  0.40207439  0.42367214  0.03981743  1
  Ni  Ni20  1  0.88378508  0.41879802  0.53754017  1
  Ni  Ni21  1  0.39585236  0.57934776  0.29438440  1
  Ni  Ni22  1  0.09934598  0.41275882  0.29167863  1
  Ni  Ni23  1  0.59792561  0.57632786  0.53981743  1
  P  P24  1  0.42232959  0.81228249  0.43226148  1
  P  P25  1  0.90578723  0.27655027  0.69886678  1
  P  P26  1  0.90683803  0.73945534  0.62807914  1
  P  P27  1  0.09421277  0.72344973  0.19886678  1
  P  P28  1  0.25170003  0.54063567  0.46422982  1
  P  P29  1  0.75438260  0.45384026  0.36669692  1
  P  P30  1  0.59830874  0.74044717  0.70070266  1
  P  P31  1  0.57767041  0.18771751  0.93226148  1
  P  P32  1  0.24561740  0.54615974  0.86669692  1
  P  P33  1  0.74829997  0.45936433  0.96422982  1
  P  P34  1  0.40169126  0.25955283  0.20070266  1
  P  P35  1  0.91162350  0.18545372  0.39925429  1
  P  P36  1  0.41428449  0.73648670  0.13717060  1
  P  P37  1  0.09316197  0.26054466  0.12807914  1
  P  P38  1  0.08837650  0.81454628  0.89925429  1
  P  P39  1  0.58571551  0.26351330  0.63717060  1
  O  O40  1  0.90601132  0.49098306  0.00116498  1
  O  O41  1  0.00596632  0.14680781  0.08232593  1
  O  O42  1  0.00811508  0.66135043  0.12989302  1
  O  O43  1  0.74239639  0.50388893  0.88140378  1
  O  O44  1  0.83071892  0.39118942  0.74839414  1
  O  O45  1  0.34543585  0.62736991  0.08054139  1
  O  O46  1  0.74629379  0.18457068  0.66916800  1
  O  O47  1  0.49558618  0.33123509  0.13661559  1
  O  O48  1  0.49233965  0.14224849  0.23925799  1
  O  O49  1  0.26970369  0.71548642  0.46612782  1
  O  O50  1  0.50441382  0.66876491  0.63661559  1
  O  O51  1  0.61051754  0.52113550  0.00855683  1
  O  O52  1  0.09398868  0.50901694  0.50116498  1
  O  O53  1  0.38948246  0.47886450  0.50855683  1
  O  O54  1  0.62568706  0.03424311  0.94644744  1
  O  O55  1  0.99866776  0.31938980  0.19387681  1
  O  O56  1  0.93594574  0.76869216  0.85736264  1
  O  O57  1  0.51530447  0.85594062  0.10235875  1
  O  O58  1  0.25370621  0.81542932  0.16916800  1
  O  O59  1  0.48469553  0.14405938  0.60235875  1
  O  O60  1  0.56619677  0.76707292  0.47888353  1
  O  O61  1  0.43380323  0.23292708  0.97888353  1
  O  O62  1  0.99188492  0.33864957  0.62989302  1
  O  O63  1  0.00743000  0.17130538  0.73994567  1
  O  O64  1  0.09850225  0.48632198  0.82699217  1
  O  O65  1  0.50181661  0.66871036  0.20295095  1
  O  O66  1  0.13778859  0.96984842  0.88722316  1
  O  O67  1  0.86221141  0.03015158  0.38722316  1
  O  O68  1  0.23494887  0.72099230  0.86444909  1
  O  O69  1  0.25760361  0.49611107  0.38140378  1
  O  O70  1  0.75351384  0.82379486  0.66360863  1
  O  O71  1  0.37431294  0.96575689  0.44644744  1
  O  O72  1  0.90149775  0.51367802  0.32699217  1
  O  O73  1  0.67031191  0.63385037  0.75614767  1
  O  O74  1  0.24648616  0.17620514  0.16360863  1
  O  O75  1  0.16928108  0.60881058  0.24839414  1
  O  O76  1  0.91674960  0.22431779  0.48316057  1
  O  O77  1  0.17259275  0.37691822  0.07813042  1
  O  O78  1  0.39777573  0.51654451  0.82549008  1
  O  O79  1  0.32968809  0.36614963  0.25614767  1
  O  O80  1  0.74847380  0.49802518  0.44974277  1
  O  O81  1  0.60222427  0.48345549  0.32549008  1
  O  O82  1  0.25152620  0.50197482  0.94974277  1
  O  O83  1  0.43233677  0.77628737  0.34859446  1
  O  O84  1  0.50766035  0.85775151  0.73925799  1
  O  O85  1  0.49818339  0.33128964  0.70295095  1
  O  O86  1  0.99403368  0.85319219  0.58232593  1
  O  O87  1  0.82740725  0.62308178  0.57813042  1
  O  O88  1  0.65456415  0.37263009  0.58054139  1
  O  O89  1  0.08325040  0.77568221  0.98316057  1
  O  O90  1  0.56766323  0.22371263  0.84859446  1
  O  O91  1  0.00133224  0.68061020  0.69387681  1
  O  O92  1  0.06405426  0.23130784  0.35736264  1
  O  O93  1  0.99257000  0.82869462  0.23994567  1
  O  O94  1  0.76505113  0.27900770  0.36444909  1
  O  O95  1  0.73029631  0.28451358  0.96612782  1
