# generated using pymatgen
data_Rb2U(MoO5)2
_symmetry_space_group_name_H-M   'P 1'
_cell_length_a   12.52570301
_cell_length_b   13.91531902
_cell_length_c   13.92551607
_cell_angle_alpha   90.00000000
_cell_angle_beta   90.00000000
_cell_angle_gamma   94.77531263
_symmetry_Int_Tables_number   1
_chemical_formula_structural   Rb2U(MoO5)2
_chemical_formula_sum   'Rb16 U8 Mo16 O80'
_cell_volume   2418.78039752
_cell_formula_units_Z   8
loop_
 _symmetry_equiv_pos_site_id
 _symmetry_equiv_pos_as_xyz
  1  'x, y, z'
loop_
 _atom_site_type_symbol
 _atom_site_label
 _atom_site_symmetry_multiplicity
 _atom_site_fract_x
 _atom_site_fract_y
 _atom_site_fract_z
 _atom_site_occupancy
  Rb  Rb0  1  0.73322851  0.18590338  0.95620134  1
  Rb  Rb1  1  0.45658787  0.21387228  0.15563179  1
  Rb  Rb2  1  0.24191717  0.78328581  0.62470027  1
  Rb  Rb3  1  0.96305386  0.69458958  0.82631910  1
  Rb  Rb4  1  0.45658787  0.71387228  0.34436821  1
  Rb  Rb5  1  0.26677149  0.81409662  0.04379866  1
  Rb  Rb6  1  0.54341213  0.28612772  0.65563179  1
  Rb  Rb7  1  0.75808283  0.71671419  0.12470027  1
  Rb  Rb8  1  0.75808283  0.21671419  0.37529973  1
  Rb  Rb9  1  0.24191717  0.28328581  0.87529973  1
  Rb  Rb10  1  0.26677149  0.31409662  0.45620134  1
  Rb  Rb11  1  0.03694614  0.30541042  0.17368090  1
  Rb  Rb12  1  0.54341213  0.78612772  0.84436821  1
  Rb  Rb13  1  0.73322851  0.68590338  0.54379866  1
  Rb  Rb14  1  0.96305386  0.19458958  0.67368090  1
  Rb  Rb15  1  0.03694614  0.80541042  0.32631910  1
  U  U16  1  0.66852365  0.01187863  0.67916788  1
  U  U17  1  0.15611544  0.97189459  0.81769750  1
  U  U18  1  0.33147635  0.98812137  0.32083212  1
  U  U19  1  0.15611544  0.47189459  0.68230250  1
  U  U20  1  0.84388456  0.02810541  0.18230250  1
  U  U21  1  0.33147635  0.48812137  0.17916788  1
  U  U22  1  0.66852365  0.51187863  0.82083212  1
  U  U23  1  0.84388456  0.52810541  0.31769750  1
  Mo  Mo24  1  0.64117456  0.95048337  0.40400174  1
  Mo  Mo25  1  0.84921221  0.93987678  0.91142812  1
  Mo  Mo26  1  0.44675732  0.57447427  0.62713027  1
  Mo  Mo27  1  0.55324268  0.92552573  0.12713027  1
  Mo  Mo28  1  0.55324268  0.42552573  0.37286973  1
  Mo  Mo29  1  0.94422155  0.40580180  0.88394386  1
  Mo  Mo30  1  0.15078779  0.56012322  0.41142812  1
  Mo  Mo31  1  0.64117456  0.45048337  0.09599826  1
  Mo  Mo32  1  0.84921221  0.43987678  0.58857188  1
  Mo  Mo33  1  0.35882544  0.54951663  0.90400174  1
  Mo  Mo34  1  0.05577845  0.59419820  0.11605614  1
  Mo  Mo35  1  0.15078779  0.06012322  0.08857188  1
  Mo  Mo36  1  0.05577845  0.09419820  0.38394386  1
  Mo  Mo37  1  0.94422155  0.90580180  0.61605614  1
  Mo  Mo38  1  0.35882544  0.04951663  0.59599826  1
  Mo  Mo39  1  0.44675732  0.07447427  0.87286973  1
  O  O40  1  0.36384177  0.61803641  0.16648841  1
  O  O41  1  0.12917992  0.09929541  0.80780065  1
  O  O42  1  0.92289741  0.56447091  0.17002074  1
  O  O43  1  0.31775828  0.97746845  0.49171097  1
  O  O44  1  0.29311384  0.99157692  0.70000660  1
  O  O45  1  0.75561419  0.49092763  0.66844932  1
  O  O46  1  0.49799456  0.44736440  0.11270159  1
  O  O47  1  0.04256833  0.10774646  0.50870064  1
  O  O48  1  0.87082008  0.90070459  0.19219935  1
  O  O49  1  0.02832444  0.07498526  0.15407566  1
  O  O50  1  0.10525842  0.70864197  0.15929940  1
  O  O51  1  0.63615823  0.88196359  0.66648841  1
  O  O52  1  0.67326028  0.33115795  0.08171055  1
  O  O53  1  0.70236821  0.64162712  0.80532435  1
  O  O54  1  0.15271309  0.50558566  0.14497652  1
  O  O55  1  0.50200544  0.05263560  0.61270159  1
  O  O56  1  0.84728691  0.99441434  0.64497652  1
  O  O57  1  0.95743167  0.39225354  0.00870064  1
  O  O58  1  0.84728691  0.49441434  0.85502348  1
  O  O59  1  0.12478731  0.47851307  0.51141434  1
  O  O60  1  0.87082008  0.40070459  0.30780065  1
  O  O61  1  0.29311384  0.49157692  0.79999340  1
  O  O62  1  0.31801863  0.50630879  0.60186646  1
  O  O63  1  0.68224172  0.52253155  0.99171097  1
  O  O64  1  0.42102795  0.17941331  0.80821612  1
  O  O65  1  0.02832444  0.57498526  0.34592434  1
  O  O66  1  0.49799456  0.94736440  0.38729841  1
  O  O67  1  0.75561419  0.99092763  0.83155068  1
  O  O68  1  0.20350716  0.17515868  0.04995843  1
  O  O69  1  0.68198137  0.99369121  0.10186646  1
  O  O70  1  0.53933708  0.50662880  0.69691661  1
  O  O71  1  0.49121775  0.88544923  0.01850397  1
  O  O72  1  0.20350716  0.67515868  0.45004157  1
  O  O73  1  0.87521269  0.02148693  0.01141434  1
  O  O74  1  0.79649284  0.82484132  0.95004157  1
  O  O75  1  0.29763179  0.85837288  0.30532435  1
  O  O76  1  0.50200544  0.55263560  0.88729841  1
  O  O77  1  0.29763179  0.35837288  0.19467565  1
  O  O78  1  0.15271309  0.00558566  0.35502348  1
  O  O79  1  0.24438581  0.50907237  0.33155068  1
  O  O80  1  0.68224172  0.02253155  0.50828903  1
  O  O81  1  0.07710259  0.93552909  0.67002074  1
  O  O82  1  0.53933708  0.00662880  0.80308339  1
  O  O83  1  0.46066292  0.99337120  0.19691661  1
  O  O84  1  0.82208075  0.65650996  0.32846287  1
  O  O85  1  0.87521269  0.52148693  0.48858566  1
  O  O86  1  0.10525842  0.20864197  0.34070060  1
  O  O87  1  0.36384177  0.11803641  0.33351159  1
  O  O88  1  0.17791925  0.34349004  0.67153713  1
  O  O89  1  0.17791925  0.84349004  0.82846287  1
  O  O90  1  0.79649284  0.32484132  0.54995843  1
  O  O91  1  0.70236821  0.14162712  0.69467565  1
  O  O92  1  0.32673972  0.66884205  0.91828945  1
  O  O93  1  0.31775828  0.47746845  0.00828903  1
  O  O94  1  0.95743167  0.89225354  0.49129936  1
  O  O95  1  0.89474158  0.29135803  0.84070060  1
  O  O96  1  0.50878225  0.11455077  0.98149603  1
  O  O97  1  0.07710259  0.43552909  0.82997926  1
  O  O98  1  0.97167556  0.92501474  0.84592434  1
  O  O99  1  0.57897205  0.32058669  0.30821612  1
  O  O100  1  0.50878225  0.61455077  0.51850397  1
  O  O101  1  0.97167556  0.42501474  0.65407566  1
  O  O102  1  0.32673972  0.16884205  0.58171055  1
  O  O103  1  0.42102795  0.67941331  0.69178388  1
  O  O104  1  0.49121775  0.38544923  0.48149603  1
  O  O105  1  0.24438581  0.00907237  0.16844932  1
  O  O106  1  0.57897205  0.82058669  0.19178388  1
  O  O107  1  0.68198137  0.49369121  0.39813354  1
  O  O108  1  0.12917992  0.59929541  0.69219935  1
  O  O109  1  0.63615823  0.38196359  0.83351159  1
  O  O110  1  0.89474158  0.79135803  0.65929940  1
  O  O111  1  0.31801863  0.00630879  0.89813354  1
  O  O112  1  0.82208075  0.15650996  0.17153713  1
  O  O113  1  0.70688616  0.50842308  0.20000660  1
  O  O114  1  0.46066292  0.49337120  0.30308339  1
  O  O115  1  0.70688616  0.00842308  0.29999340  1
  O  O116  1  0.12478731  0.97851307  0.98858566  1
  O  O117  1  0.04256833  0.60774646  0.99129936  1
  O  O118  1  0.67326028  0.83115795  0.41828945  1
  O  O119  1  0.92289741  0.06447091  0.32997926  1
