# generated using pymatgen
data_Sr4Al6CrO16
_symmetry_space_group_name_H-M   'P 1'
_cell_length_a   9.58658337
_cell_length_b   13.44389903
_cell_length_c   13.47741120
_cell_angle_alpha   90.00000000
_cell_angle_beta   90.00000000
_cell_angle_gamma   90.00000000
_symmetry_Int_Tables_number   1
_chemical_formula_structural   Sr4Al6CrO16
_chemical_formula_sum   'Sr16 Al24 Cr4 O64'
_cell_volume   1736.98302627
_cell_formula_units_Z   4
loop_
 _symmetry_equiv_pos_site_id
 _symmetry_equiv_pos_as_xyz
  1  'x, y, z'
loop_
 _atom_site_type_symbol
 _atom_site_label
 _atom_site_symmetry_multiplicity
 _atom_site_fract_x
 _atom_site_fract_y
 _atom_site_fract_z
 _atom_site_occupancy
  Sr  Sr0  1  0.46725311  0.20871357  0.99490549  1
  Sr  Sr1  1  0.97135084  0.98571477  0.73219799  1
  Sr  Sr2  1  0.02571077  0.75474725  0.99459785  1
  Sr  Sr3  1  0.03274689  0.70871357  0.49490549  1
  Sr  Sr4  1  0.53274689  0.70871357  0.00509451  1
  Sr  Sr5  1  0.45918193  0.48453249  0.71317014  1
  Sr  Sr6  1  0.52864916  0.48571477  0.23219799  1
  Sr  Sr7  1  0.96725311  0.20871357  0.50509451  1
  Sr  Sr8  1  0.04081807  0.98453249  0.21317014  1
  Sr  Sr9  1  0.95918193  0.48453249  0.78682986  1
  Sr  Sr10  1  0.02864916  0.48571477  0.26780201  1
  Sr  Sr11  1  0.54081807  0.98453249  0.28682986  1
  Sr  Sr12  1  0.47135084  0.98571477  0.76780201  1
  Sr  Sr13  1  0.97428923  0.25474725  0.00540215  1
  Sr  Sr14  1  0.47428923  0.25474725  0.49459785  1
  Sr  Sr15  1  0.52571077  0.75474725  0.50540215  1
  Al  Al16  1  0.25814088  0.61348076  0.87247493  1
  Al  Al17  1  0.00086008  0.73607178  0.74526940  1
  Al  Al18  1  0.26227260  0.61187460  0.12459066  1
  Al  Al19  1  0.26157955  0.86367308  0.37478509  1
  Al  Al20  1  0.24245132  0.86018318  0.62564567  1
  Al  Al21  1  0.76157955  0.86367308  0.12521491  1
  Al  Al22  1  0.25754868  0.36018318  0.12564567  1
  Al  Al23  1  0.48827682  0.23785068  0.74780889  1
  Al  Al24  1  0.99913992  0.23607178  0.25473060  1
  Al  Al25  1  0.49913992  0.23607178  0.24526940  1
  Al  Al26  1  0.73842045  0.36367308  0.62521491  1
  Al  Al27  1  0.23772740  0.11187460  0.62459066  1
  Al  Al28  1  0.74185912  0.11348076  0.12752507  1
  Al  Al29  1  0.98827682  0.23785068  0.75219111  1
  Al  Al30  1  0.76227260  0.61187460  0.37540934  1
  Al  Al31  1  0.01172318  0.73785068  0.24780889  1
  Al  Al32  1  0.74245132  0.86018318  0.87435433  1
  Al  Al33  1  0.24185912  0.11348076  0.37247493  1
  Al  Al34  1  0.50086008  0.73607178  0.75473060  1
  Al  Al35  1  0.75754868  0.36018318  0.37435433  1
  Al  Al36  1  0.75814088  0.61348076  0.62752507  1
  Al  Al37  1  0.73772740  0.11187460  0.87540934  1
  Al  Al38  1  0.23842045  0.36367308  0.87478509  1
  Al  Al39  1  0.51172318  0.73785068  0.25219111  1
  Cr  Cr40  1  0.70040800  0.99593652  0.51257358  1
  Cr  Cr41  1  0.79959200  0.49593652  0.01257358  1
  Cr  Cr42  1  0.20040800  0.99593652  0.98742642  1
  Cr  Cr43  1  0.29959200  0.49593652  0.48742642  1
  O  O44  1  0.77232654  0.64594939  0.50141368  1
  O  O45  1  0.39554998  0.15802887  0.66939293  1
  O  O46  1  0.27232654  0.64594939  0.99858632  1
  O  O47  1  0.92132043  0.65775578  0.32805088  1
  O  O48  1  0.85952605  0.03486391  0.54862094  1
  O  O49  1  0.20545964  0.90444692  0.07147275  1
  O  O50  1  0.72767346  0.14594939  0.00141368  1
  O  O51  1  0.88599600  0.58905087  0.95853014  1
  O  O52  1  0.76399893  0.82772896  0.99988243  1
  O  O53  1  0.73600107  0.32772896  0.49988243  1
  O  O54  1  0.92584053  0.63721139  0.67708925  1
  O  O55  1  0.26399893  0.82772896  0.50011757  1
  O  O56  1  0.11376064  0.95291738  0.89049665  1
  O  O57  1  0.57704148  0.31750026  0.66675220  1
  O  O58  1  0.88550314  0.18187626  0.16893784  1
  O  O59  1  0.29454036  0.40444692  0.57147275  1
  O  O60  1  0.07867957  0.15775578  0.67194912  1
  O  O61  1  0.64047395  0.53486391  0.04862094  1
  O  O62  1  0.11052097  0.31283057  0.18621723  1
  O  O63  1  0.23549975  0.98609708  0.65986085  1
  O  O64  1  0.10392254  0.81839650  0.32724793  1
  O  O65  1  0.39607746  0.31839650  0.82724793  1
  O  O66  1  0.07704148  0.31750026  0.83324780  1
  O  O67  1  0.38599600  0.58905087  0.54146986  1
  O  O68  1  0.77439098  0.98922115  0.16221954  1
  O  O69  1  0.60445002  0.65802887  0.33060707  1
  O  O70  1  0.61052097  0.31283057  0.31378277  1
  O  O71  1  0.38623936  0.45291738  0.39049665  1
  O  O72  1  0.14047395  0.53486391  0.45137906  1
  O  O73  1  0.42584053  0.63721139  0.82291075  1
  O  O74  1  0.79454036  0.40444692  0.92852725  1
  O  O75  1  0.76450025  0.48609708  0.34013915  1
  O  O76  1  0.88947903  0.81283057  0.81378277  1
  O  O77  1  0.11449686  0.68187626  0.83106216  1
  O  O78  1  0.61376064  0.95291738  0.60950335  1
  O  O79  1  0.61400400  0.08905087  0.45853014  1
  O  O80  1  0.73549975  0.98609708  0.84013915  1
  O  O81  1  0.89607746  0.31839650  0.67275207  1
  O  O82  1  0.10445002  0.65802887  0.16939293  1
  O  O83  1  0.57415947  0.13721139  0.17708925  1
  O  O84  1  0.22560902  0.48922115  0.83778046  1
  O  O85  1  0.72560902  0.48922115  0.66221954  1
  O  O86  1  0.70545964  0.90444692  0.42852725  1
  O  O87  1  0.61449686  0.68187626  0.66893784  1
  O  O88  1  0.89554998  0.15802887  0.83060707  1
  O  O89  1  0.07415947  0.13721139  0.32291075  1
  O  O90  1  0.57867957  0.15775578  0.82805088  1
  O  O91  1  0.07429180  0.81384604  0.65358871  1
  O  O92  1  0.88623936  0.45291738  0.10950335  1
  O  O93  1  0.11400400  0.08905087  0.04146986  1
  O  O94  1  0.42295852  0.81750026  0.33324780  1
  O  O95  1  0.38947903  0.81283057  0.68621723  1
  O  O96  1  0.38550314  0.18187626  0.33106216  1
  O  O97  1  0.57429180  0.81384604  0.84641129  1
  O  O98  1  0.35952605  0.03486391  0.95137906  1
  O  O99  1  0.60392254  0.81839650  0.17275207  1
  O  O100  1  0.42132043  0.65775578  0.17194912  1
  O  O101  1  0.42570820  0.31384604  0.15358871  1
  O  O102  1  0.23600107  0.32772896  0.00011757  1
  O  O103  1  0.92570820  0.31384604  0.34641129  1
  O  O104  1  0.27439098  0.98922115  0.33778046  1
  O  O105  1  0.26450025  0.48609708  0.15986085  1
  O  O106  1  0.22767346  0.14594939  0.49858632  1
  O  O107  1  0.92295852  0.81750026  0.16675220  1
