# generated using pymatgen
data_Bi2Mo2O9
_symmetry_space_group_name_H-M   'P 1'
_cell_length_a   10.98605436
_cell_length_b   12.02915904
_cell_length_c   12.17584585
_cell_angle_alpha   90.26397330
_cell_angle_beta   90.00000000
_cell_angle_gamma   90.00000000
_symmetry_Int_Tables_number   1
_chemical_formula_structural   Bi2Mo2O9
_chemical_formula_sum   'Bi16 Mo16 O72'
_cell_volume   1609.05741954
_cell_formula_units_Z   8
loop_
 _symmetry_equiv_pos_site_id
 _symmetry_equiv_pos_as_xyz
  1  'x, y, z'
loop_
 _atom_site_type_symbol
 _atom_site_label
 _atom_site_symmetry_multiplicity
 _atom_site_fract_x
 _atom_site_fract_y
 _atom_site_fract_z
 _atom_site_occupancy
  Bi  Bi0  1  0.12375046  0.75746298  0.60453039  1
  Bi  Bi1  1  0.37746886  0.91290803  0.75232034  1
  Bi  Bi2  1  0.62253114  0.08709197  0.24767966  1
  Bi  Bi3  1  0.62400230  0.74169759  0.24315579  1
  Bi  Bi4  1  0.12044233  0.75755961  0.89990212  1
  Bi  Bi5  1  0.37599770  0.25830241  0.75684421  1
  Bi  Bi6  1  0.12253114  0.41290803  0.25232034  1
  Bi  Bi7  1  0.87599770  0.24169759  0.74315579  1
  Bi  Bi8  1  0.37624954  0.25746298  0.10453039  1
  Bi  Bi9  1  0.87955767  0.24244039  0.10009788  1
  Bi  Bi10  1  0.62044233  0.74244039  0.60009788  1
  Bi  Bi11  1  0.87746886  0.58709197  0.74767966  1
  Bi  Bi12  1  0.87624954  0.24253702  0.39546961  1
  Bi  Bi13  1  0.37955767  0.25755961  0.39990212  1
  Bi  Bi14  1  0.62375046  0.74253702  0.89546961  1
  Bi  Bi15  1  0.12400230  0.75830241  0.25684421  1
  Mo  Mo16  1  0.86988163  0.58442183  0.42049470  1
  Mo  Mo17  1  0.37756319  0.58892954  0.41654187  1
  Mo  Mo18  1  0.62467236  0.08360839  0.57785118  1
  Mo  Mo19  1  0.37532764  0.91639161  0.42214882  1
  Mo  Mo20  1  0.62243681  0.41107046  0.58345813  1
  Mo  Mo21  1  0.37223292  0.58220008  0.09021806  1
  Mo  Mo22  1  0.36988163  0.91557817  0.07950530  1
  Mo  Mo23  1  0.87223292  0.91779992  0.40978194  1
  Mo  Mo24  1  0.12776708  0.08220008  0.59021806  1
  Mo  Mo25  1  0.12467236  0.41639161  0.92214882  1
  Mo  Mo26  1  0.12243681  0.08892954  0.91654187  1
  Mo  Mo27  1  0.87532764  0.58360839  0.07785118  1
  Mo  Mo28  1  0.63011837  0.08442183  0.92049470  1
  Mo  Mo29  1  0.62776708  0.41779992  0.90978194  1
  Mo  Mo30  1  0.13011837  0.41557817  0.57950530  1
  Mo  Mo31  1  0.87756319  0.91107046  0.08345813  1
  O  O32  1  0.00788717  0.72575313  0.75229610  1
  O  O33  1  0.75522055  0.90307121  0.30452887  1
  O  O34  1  0.20415521  0.10163415  0.46427541  1
  O  O35  1  0.18456286  0.55374536  0.59491748  1
  O  O36  1  0.45514675  0.61469245  0.54321579  1
  O  O37  1  0.49197701  0.90277659  0.17790613  1
  O  O38  1  0.68456286  0.94625464  0.90508252  1
  O  O39  1  0.54485325  0.38530755  0.45678421  1
  O  O40  1  0.24477945  0.09692879  0.69547113  1
  O  O41  1  0.73732625  0.71633629  0.74682900  1
  O  O42  1  0.05566939  0.55139514  0.90130546  1
  O  O43  1  0.99538565  0.68244634  0.10121188  1
  O  O44  1  0.06600767  0.94330846  0.60219755  1
  O  O45  1  0.25828110  0.90010188  0.32145083  1
  O  O46  1  0.29584479  0.60163415  0.96427541  1
  O  O47  1  0.50519571  0.31436575  0.90583266  1
  O  O48  1  0.25525210  0.68955962  0.40832357  1
  O  O49  1  0.55566939  0.94860486  0.59869454  1
  O  O50  1  0.49480429  0.68563425  0.09416734  1
  O  O51  1  0.93310362  0.61448938  0.55685716  1
  O  O52  1  0.25246977  0.31703360  0.60275921  1
  O  O53  1  0.23732625  0.78366371  0.75317100  1
  O  O54  1  0.70415521  0.39836585  0.03572459  1
  O  O55  1  0.74474690  0.31044038  0.59167643  1
  O  O56  1  0.31543714  0.05374536  0.09491748  1
  O  O57  1  0.19075197  0.95060731  0.90450910  1
  O  O58  1  0.98737632  0.89671868  0.19184261  1
  O  O59  1  0.68628117  0.11330483  0.44080052  1
  O  O60  1  0.74477945  0.40307121  0.80452887  1
  O  O61  1  0.51262368  0.39671868  0.69184261  1
  O  O62  1  0.24753023  0.81703360  0.10275921  1
  O  O63  1  0.79584479  0.89836585  0.53572459  1
  O  O64  1  0.00802299  0.40277659  0.67790613  1
  O  O65  1  0.81543714  0.44625464  0.40508252  1
  O  O66  1  0.50461435  0.18244634  0.60121188  1
  O  O67  1  0.95514675  0.88530755  0.95678421  1
  O  O68  1  0.00461435  0.31755366  0.89878812  1
  O  O69  1  0.49211283  0.22575313  0.25229610  1
  O  O70  1  0.69075197  0.54939269  0.59549090  1
  O  O71  1  0.44433061  0.05139514  0.40130546  1
  O  O72  1  0.00519571  0.18563425  0.59416734  1
  O  O73  1  0.01262368  0.10328132  0.80815739  1
  O  O74  1  0.24171890  0.40010188  0.82145083  1
  O  O75  1  0.75246977  0.18296640  0.89724079  1
  O  O76  1  0.30924803  0.45060731  0.40450910  1
  O  O77  1  0.81371883  0.61330483  0.94080052  1
  O  O78  1  0.75828110  0.59989812  0.17854917  1
  O  O79  1  0.26267375  0.28366371  0.25317100  1
  O  O80  1  0.24474690  0.18955962  0.90832357  1
  O  O81  1  0.31371883  0.88669517  0.55919948  1
  O  O82  1  0.74171890  0.09989812  0.67854917  1
  O  O83  1  0.56600767  0.55669154  0.89780245  1
  O  O84  1  0.99480429  0.81436575  0.40583266  1
  O  O85  1  0.56689638  0.11448938  0.05685716  1
  O  O86  1  0.43399233  0.44330846  0.10219755  1
  O  O87  1  0.76267375  0.21633629  0.24682900  1
  O  O88  1  0.93399233  0.05669154  0.39780245  1
  O  O89  1  0.04485325  0.11469245  0.04321579  1
  O  O90  1  0.94433061  0.44860486  0.09869454  1
  O  O91  1  0.49538565  0.81755366  0.39878812  1
  O  O92  1  0.99211283  0.27424687  0.24770390  1
  O  O93  1  0.48737632  0.60328132  0.30815739  1
  O  O94  1  0.74753023  0.68296640  0.39724079  1
  O  O95  1  0.75525310  0.81044038  0.09167643  1
  O  O96  1  0.50788717  0.77424687  0.74770390  1
  O  O97  1  0.43310362  0.88551062  0.94314284  1
  O  O98  1  0.06689638  0.38551062  0.44314284  1
  O  O99  1  0.50802299  0.09722341  0.82209387  1
  O  O100  1  0.80924803  0.04939269  0.09549090  1
  O  O101  1  0.18628117  0.38669517  0.05919948  1
  O  O102  1  0.25522055  0.59692879  0.19547113  1
  O  O103  1  0.99197701  0.59722341  0.32209387  1
