# generated using pymatgen
data_Mn3B7BrO13
_symmetry_space_group_name_H-M   'P 1'
_cell_length_a   8.78522572
_cell_length_b   8.80523728
_cell_length_c   12.45451994
_cell_angle_alpha   90.00000000
_cell_angle_beta   90.00000000
_cell_angle_gamma   90.00000000
_symmetry_Int_Tables_number   1
_chemical_formula_structural   Mn3B7BrO13
_chemical_formula_sum   'Mn12 B28 Br4 O52'
_cell_volume   963.43180740
_cell_formula_units_Z   4
loop_
 _symmetry_equiv_pos_site_id
 _symmetry_equiv_pos_as_xyz
  1  'x, y, z'
loop_
 _atom_site_type_symbol
 _atom_site_label
 _atom_site_symmetry_multiplicity
 _atom_site_fract_x
 _atom_site_fract_y
 _atom_site_fract_z
 _atom_site_occupancy
  Mn  Mn0  1  0.74784238  0.24023093  0.76867066  1
  Mn  Mn1  1  0.02984635  0.98879364  0.99060775  1
  Mn  Mn2  1  0.52944895  0.01221614  0.49462226  1
  Mn  Mn3  1  0.52944895  0.48778386  0.99462226  1
  Mn  Mn4  1  0.97015365  0.01120636  0.49060775  1
  Mn  Mn5  1  0.74784238  0.25976907  0.26867066  1
  Mn  Mn6  1  0.25215762  0.74023093  0.76867066  1
  Mn  Mn7  1  0.97015365  0.48879364  0.99060775  1
  Mn  Mn8  1  0.02984635  0.51120636  0.49060775  1
  Mn  Mn9  1  0.25215762  0.75976907  0.26867066  1
  Mn  Mn10  1  0.47055105  0.51221614  0.49462226  1
  Mn  Mn11  1  0.47055105  0.98778386  0.99462226  1
  B  B12  1  0.90241265  0.74442412  0.32436394  1
  B  B13  1  0.49586258  0.50105002  0.24553549  1
  B  B14  1  0.24933678  0.04496678  0.64394131  1
  B  B15  1  0.99687963  0.00036650  0.24380854  1
  B  B16  1  0.99687963  0.49963350  0.74380854  1
  B  B17  1  0.24683215  0.24253695  0.49780937  1
  B  B18  1  0.75316785  0.74253695  0.49780937  1
  B  B19  1  0.24933678  0.45503322  0.14394131  1
  B  B20  1  0.40084879  0.25513629  0.82504368  1
  B  B21  1  0.75000738  0.59443189  0.17372588  1
  B  B22  1  0.24999262  0.09443189  0.17372588  1
  B  B23  1  0.75000738  0.90556811  0.67372588  1
  B  B24  1  0.09758735  0.24442412  0.32436394  1
  B  B25  1  0.50413742  0.00105002  0.24553549  1
  B  B26  1  0.00312037  0.50036650  0.24380854  1
  B  B27  1  0.90241265  0.75557588  0.82436394  1
  B  B28  1  0.09758735  0.25557588  0.82436394  1
  B  B29  1  0.75316785  0.75746305  0.99780937  1
  B  B30  1  0.24683215  0.25746305  0.99780937  1
  B  B31  1  0.59915121  0.74486371  0.32504368  1
  B  B32  1  0.75066322  0.95503322  0.14394131  1
  B  B33  1  0.49586258  0.99894998  0.74553549  1
  B  B34  1  0.75066322  0.54496678  0.64394131  1
  B  B35  1  0.00312037  0.99963350  0.74380854  1
  B  B36  1  0.50413742  0.49894998  0.74553549  1
  B  B37  1  0.24999262  0.40556811  0.67372588  1
  B  B38  1  0.40084879  0.24486371  0.32504368  1
  B  B39  1  0.59915121  0.75513629  0.82504368  1
  Br  Br40  1  0.74940294  0.23902117  0.48959703  1
  Br  Br41  1  0.25059706  0.76097883  0.98959703  1
  Br  Br42  1  0.74940294  0.26097883  0.98959703  1
  Br  Br43  1  0.25059706  0.73902117  0.48959703  1
  O  O44  1  0.15838741  0.53013519  0.71956967  1
  O  O45  1  0.05617777  0.09447581  0.83448433  1
  O  O46  1  0.97619372  0.16184213  0.27008953  1
  O  O47  1  0.53621418  0.59137110  0.34076669  1
  O  O48  1  0.48762254  0.66210698  0.76762725  1
  O  O49  1  0.87513076  0.82131488  0.93110825  1
  O  O50  1  0.40625111  0.45494876  0.65516144  1
  O  O51  1  0.97619372  0.33815787  0.77008953  1
  O  O52  1  0.33283652  0.53834300  0.21735440  1
  O  O53  1  0.67693392  0.88269958  0.06030014  1
  O  O54  1  0.46378582  0.40862890  0.84076669  1
  O  O55  1  0.02380628  0.66184213  0.27008953  1
  O  O56  1  0.12486924  0.17868512  0.43110825  1
  O  O57  1  0.09259458  0.03480503  0.64363635  1
  O  O58  1  0.90740542  0.53480503  0.64363635  1
  O  O59  1  0.36266919  0.31401790  0.42841485  1
  O  O60  1  0.59374889  0.95494876  0.65516144  1
  O  O61  1  0.15838741  0.96986481  0.21956967  1
  O  O62  1  0.51237746  0.16210698  0.76762725  1
  O  O63  1  0.18257015  0.35744119  0.57138219  1
  O  O64  1  0.66716348  0.46165700  0.71735440  1
  O  O65  1  0.51237746  0.33789302  0.26762725  1
  O  O66  1  0.40625111  0.04505124  0.15516144  1
  O  O67  1  0.02380628  0.83815787  0.77008953  1
  O  O68  1  0.84161259  0.46986481  0.21956967  1
  O  O69  1  0.46378582  0.09137110  0.34076669  1
  O  O70  1  0.53621418  0.90862890  0.84076669  1
  O  O71  1  0.90740542  0.96519497  0.14363635  1
  O  O72  1  0.33283652  0.96165700  0.71735440  1
  O  O73  1  0.09259458  0.46519497  0.14363635  1
  O  O74  1  0.87513076  0.67868512  0.43110825  1
  O  O75  1  0.75017833  0.77332693  0.75799899  1
  O  O76  1  0.81742985  0.85744119  0.57138219  1
  O  O77  1  0.81742985  0.64255881  0.07138219  1
  O  O78  1  0.18257015  0.14255881  0.07138219  1
  O  O79  1  0.63733081  0.81401790  0.42841485  1
  O  O80  1  0.66716348  0.03834300  0.21735440  1
  O  O81  1  0.05617777  0.40552419  0.33448433  1
  O  O82  1  0.94382223  0.59447581  0.83448433  1
  O  O83  1  0.12486924  0.32131488  0.93110825  1
  O  O84  1  0.75017833  0.72667307  0.25799899  1
  O  O85  1  0.67693392  0.61730042  0.56030014  1
  O  O86  1  0.24982167  0.22667307  0.25799899  1
  O  O87  1  0.32306608  0.11730042  0.56030014  1
  O  O88  1  0.59374889  0.54505124  0.15516144  1
  O  O89  1  0.24982167  0.27332693  0.75799899  1
  O  O90  1  0.32306608  0.38269958  0.06030014  1
  O  O91  1  0.36266919  0.18598210  0.92841485  1
  O  O92  1  0.84161259  0.03013519  0.71956967  1
  O  O93  1  0.63733081  0.68598210  0.92841485  1
  O  O94  1  0.94382223  0.90552419  0.33448433  1
  O  O95  1  0.48762254  0.83789302  0.26762725  1
