# generated using pymatgen
data_Dy(Zn10Ru)2
_symmetry_space_group_name_H-M   'P 1'
_cell_length_a   10.08582521
_cell_length_b   10.08582528
_cell_length_c   10.08582592
_cell_angle_alpha   59.99999790
_cell_angle_beta   59.99999766
_cell_angle_gamma   60.00000056
_symmetry_Int_Tables_number   1
_chemical_formula_structural   Dy(Zn10Ru)2
_chemical_formula_sum   'Dy2 Zn40 Ru4'
_cell_volume   725.46979488
_cell_formula_units_Z   2
loop_
 _symmetry_equiv_pos_site_id
 _symmetry_equiv_pos_as_xyz
  1  'x, y, z'
loop_
 _atom_site_type_symbol
 _atom_site_label
 _atom_site_symmetry_multiplicity
 _atom_site_fract_x
 _atom_site_fract_y
 _atom_site_fract_z
 _atom_site_occupancy
  Dy  Dy0  1  0.87500000  0.87500000  0.87500000  1
  Dy  Dy1  1  0.12500000  0.12500000  0.12500000  1
  Zn  Zn2  1  0.23852984  0.51147016  0.51147016  1
  Zn  Zn3  1  0.76147016  0.48852984  0.76147016  1
  Zn  Zn4  1  0.94368078  0.67492507  0.67492507  1
  Zn  Zn5  1  0.20646907  0.94368078  0.67492507  1
  Zn  Zn6  1  0.51147016  0.51147016  0.23852984  1
  Zn  Zn7  1  0.32507493  0.79353093  0.05631922  1
  Zn  Zn8  1  0.05631922  0.79353093  0.32507493  1
  Zn  Zn9  1  0.50000000  0.00000000  0.00000000  1
  Zn  Zn10  1  0.79353093  0.05631922  0.32507493  1
  Zn  Zn11  1  0.94368078  0.67492507  0.20646907  1
  Zn  Zn12  1  0.32507493  0.32507493  0.05631922  1
  Zn  Zn13  1  0.05631922  0.32507493  0.32507493  1
  Zn  Zn14  1  0.67492507  0.94368078  0.20646907  1
  Zn  Zn15  1  0.79353093  0.32507493  0.05631922  1
  Zn  Zn16  1  0.32507493  0.79353093  0.32507493  1
  Zn  Zn17  1  0.32507493  0.05631922  0.79353093  1
  Zn  Zn18  1  0.67492507  0.67492507  0.94368078  1
  Zn  Zn19  1  0.76147016  0.48852984  0.48852984  1
  Zn  Zn20  1  0.67492507  0.20646907  0.94368078  1
  Zn  Zn21  1  0.94368078  0.20646907  0.67492507  1
  Zn  Zn22  1  0.20646907  0.67492507  0.67492507  1
  Zn  Zn23  1  0.67492507  0.94368078  0.67492507  1
  Zn  Zn24  1  0.23852984  0.51147016  0.23852984  1
  Zn  Zn25  1  0.32507493  0.05631922  0.32507493  1
  Zn  Zn26  1  0.23852984  0.23852984  0.51147016  1
  Zn  Zn27  1  0.67492507  0.20646907  0.67492507  1
  Zn  Zn28  1  0.51147016  0.23852984  0.51147016  1
  Zn  Zn29  1  0.32507493  0.32507493  0.79353093  1
  Zn  Zn30  1  0.79353093  0.32507493  0.32507493  1
  Zn  Zn31  1  0.05631922  0.32507493  0.79353093  1
  Zn  Zn32  1  0.00000000  0.00000000  0.50000000  1
  Zn  Zn33  1  0.76147016  0.76147016  0.48852984  1
  Zn  Zn34  1  0.00000000  0.00000000  0.00000000  1
  Zn  Zn35  1  0.51147016  0.23852984  0.23852984  1
  Zn  Zn36  1  0.48852984  0.76147016  0.76147016  1
  Zn  Zn37  1  0.48852984  0.76147016  0.48852984  1
  Zn  Zn38  1  0.67492507  0.67492507  0.20646907  1
  Zn  Zn39  1  0.00000000  0.50000000  0.00000000  1
  Zn  Zn40  1  0.48852984  0.48852984  0.76147016  1
  Zn  Zn41  1  0.20646907  0.67492507  0.94368078  1
  Ru  Ru42  1  0.50000000  0.50000000  0.00000000  1
  Ru  Ru43  1  0.00000000  0.50000000  0.50000000  1
  Ru  Ru44  1  0.50000000  0.50000000  0.50000000  1
  Ru  Ru45  1  0.50000000  0.00000000  0.50000000  1
