# generated using pymatgen
data_K3Nb6VO19
_symmetry_space_group_name_H-M   'P 1'
_cell_length_a   9.28439959
_cell_length_b   9.28440009
_cell_length_c   24.46717280
_cell_angle_alpha   90.00000000
_cell_angle_beta   90.00000000
_cell_angle_gamma   119.99999820
_symmetry_Int_Tables_number   1
_chemical_formula_structural   K3Nb6VO19
_chemical_formula_sum   'K12 Nb24 V4 O76'
_cell_volume   1826.51019005
_cell_formula_units_Z   4
loop_
 _symmetry_equiv_pos_site_id
 _symmetry_equiv_pos_as_xyz
  1  'x, y, z'
loop_
 _atom_site_type_symbol
 _atom_site_label
 _atom_site_symmetry_multiplicity
 _atom_site_fract_x
 _atom_site_fract_y
 _atom_site_fract_z
 _atom_site_occupancy
  K  K0  1  0.59417537  0.59417537  0.74108836  1
  K  K1  1  0.40582463  0.00000000  0.74108836  1
  K  K2  1  0.41673342  0.41673342  0.50000000  1
  K  K3  1  0.00000000  0.40582463  0.74108836  1
  K  K4  1  0.00000000  0.40582463  0.25891164  1
  K  K5  1  0.40389063  0.40389063  0.00000000  1
  K  K6  1  0.00000000  0.59610937  0.00000000  1
  K  K7  1  0.59610937  0.00000000  0.00000000  1
  K  K8  1  0.58326658  0.00000000  0.50000000  1
  K  K9  1  1.00000000  0.58326658  0.50000000  1
  K  K10  1  0.40582463  0.00000000  0.25891164  1
  K  K11  1  0.59417537  0.59417537  0.25891164  1
  Nb  Nb12  1  0.00000000  0.75712604  0.82577605  1
  Nb  Nb13  1  0.00000000  0.23221170  0.42162065  1
  Nb  Nb14  1  0.00000000  0.23221170  0.57837935  1
  Nb  Nb15  1  0.00000000  0.75712604  0.17422395  1
  Nb  Nb16  1  0.25324939  0.00000000  0.07781069  1
  Nb  Nb17  1  0.00000000  0.00000000  0.30107929  1
  Nb  Nb18  1  0.33333300  0.66666700  0.13120633  1
  Nb  Nb19  1  0.00000000  0.00000000  0.69892071  1
  Nb  Nb20  1  0.66666700  0.33333300  0.86879367  1
  Nb  Nb21  1  0.74675061  0.74675061  0.92218931  1
  Nb  Nb22  1  0.33333300  0.66666700  0.86879367  1
  Nb  Nb23  1  0.76778830  0.76778830  0.57837935  1
  Nb  Nb24  1  0.66666700  0.33333300  0.13120633  1
  Nb  Nb25  1  0.00000000  0.25324939  0.07781069  1
  Nb  Nb26  1  0.23221170  0.00000000  0.57837935  1
  Nb  Nb27  1  0.23221170  0.00000000  0.42162065  1
  Nb  Nb28  1  0.00000000  0.25324939  0.92218931  1
  Nb  Nb29  1  0.75712604  0.00000000  0.82577605  1
  Nb  Nb30  1  0.24287396  0.24287396  0.82577605  1
  Nb  Nb31  1  0.75712604  0.00000000  0.17422395  1
  Nb  Nb32  1  0.76778830  0.76778830  0.42162065  1
  Nb  Nb33  1  0.24287396  0.24287396  0.17422395  1
  Nb  Nb34  1  0.74675061  0.74675061  0.07781069  1
  Nb  Nb35  1  0.25324939  0.00000000  0.92218931  1
  V  V36  1  0.66666700  0.33333300  0.61856529  1
  V  V37  1  0.66666700  0.33333300  0.38143471  1
  V  V38  1  0.33333300  0.66666700  0.38143471  1
  V  V39  1  0.33333300  0.66666700  0.61856529  1
  O  O40  1  0.00000000  0.82271021  0.24625542  1
  O  O41  1  0.20998368  0.00000000  0.83868617  1
  O  O42  1  0.17494725  0.17494725  0.56690463  1
  O  O43  1  0.31558542  0.48178246  0.82426289  1
  O  O44  1  0.68858429  0.51805232  0.92062149  1
  O  O45  1  0.17433113  0.47584486  0.59225874  1
  O  O46  1  0.00000000  0.20998368  0.83868617  1
  O  O47  1  0.48194768  0.17053198  0.07937851  1
  O  O48  1  0.48194768  0.17053198  0.92062149  1
  O  O49  1  0.48178246  0.31558542  0.82426289  1
  O  O50  1  0.17433113  0.47584486  0.40774126  1
  O  O51  1  0.00000000  0.20826096  0.00000000  1
  O  O52  1  0.52415514  0.69848527  0.40774126  1
  O  O53  1  0.28551870  0.00000000  0.50000000  1
  O  O54  1  0.80389106  0.00000000  0.09055378  1
  O  O55  1  0.20998368  0.00000000  0.16131383  1
  O  O56  1  0.71448130  0.71448130  0.50000000  1
  O  O57  1  0.51821754  0.83380296  0.17573711  1
  O  O58  1  0.82271021  0.00000000  0.24625542  1
  O  O59  1  0.33333300  0.66666700  0.31315756  1
  O  O60  1  0.52415514  0.69848527  0.59225874  1
  O  O61  1  0.19610894  0.19610894  0.09055378  1
  O  O62  1  0.00000000  0.80389106  0.90944622  1
  O  O63  1  0.83380296  0.51821754  0.82426289  1
  O  O64  1  0.17740704  0.00000000  0.34154609  1
  O  O65  1  0.79001632  0.79001632  0.16131383  1
  O  O66  1  0.30151473  0.82566887  0.40774126  1
  O  O67  1  0.82566887  0.30151473  0.59225874  1
  O  O68  1  0.17053198  0.48194768  0.07937851  1
  O  O69  1  0.00000000  0.80389106  0.09055378  1
  O  O70  1  0.00000000  0.17740704  0.65845391  1
  O  O71  1  0.68441458  0.16619704  0.82426289  1
  O  O72  1  0.66666700  0.33333300  0.68684244  1
  O  O73  1  0.17494725  0.17494725  0.43309537  1
  O  O74  1  0.80389106  0.00000000  0.90944622  1
  O  O75  1  0.30151473  0.82566887  0.59225874  1
  O  O76  1  0.33333300  0.66666700  0.68684244  1
  O  O77  1  0.00000000  0.82271021  0.75374458  1
  O  O78  1  0.51805232  0.68858429  0.07937851  1
  O  O79  1  0.17728979  0.17728979  0.24625542  1
  O  O80  1  0.16619704  0.68441458  0.17573711  1
  O  O81  1  0.68858429  0.51805232  0.07937851  1
  O  O82  1  0.82946802  0.31141571  0.92062149  1
  O  O83  1  0.16619704  0.68441458  0.82426289  1
  O  O84  1  0.00000000  0.82505275  0.56690463  1
  O  O85  1  0.79173904  0.79173904  0.00000000  1
  O  O86  1  0.82566887  0.30151473  0.40774126  1
  O  O87  1  0.83380296  0.51821754  0.17573711  1
  O  O88  1  0.51821754  0.83380296  0.82426289  1
  O  O89  1  0.82505275  0.00000000  0.43309537  1
  O  O90  1  0.00000000  0.17740704  0.34154609  1
  O  O91  1  0.00000000  0.20998368  0.16131383  1
  O  O92  1  0.31141571  0.82946802  0.92062149  1
  O  O93  1  0.47584486  0.17433113  0.40774126  1
  O  O94  1  0.47584486  0.17433113  0.59225874  1
  O  O95  1  0.82946802  0.31141571  0.07937851  1
  O  O96  1  0.68441458  0.16619704  0.17573711  1
  O  O97  1  0.82271021  0.00000000  0.75374458  1
  O  O98  1  0.20826096  0.00000000  0.00000000  1
  O  O99  1  0.66666700  0.33333300  0.31315756  1
  O  O100  1  0.48178246  0.31558542  0.17573711  1
  O  O101  1  0.51805232  0.68858429  0.92062149  1
  O  O102  1  0.17740704  0.00000000  0.65845391  1
  O  O103  1  0.31558542  0.48178246  0.17573711  1
  O  O104  1  0.82505275  0.00000000  0.56690463  1
  O  O105  1  0.17053198  0.48194768  0.92062149  1
  O  O106  1  0.00000000  0.28551870  0.50000000  1
  O  O107  1  0.00000000  0.82505275  0.43309537  1
  O  O108  1  0.31141571  0.82946802  0.07937851  1
  O  O109  1  0.69848527  0.52415514  0.40774126  1
  O  O110  1  0.17728979  0.17728979  0.75374458  1
  O  O111  1  0.82259296  0.82259296  0.34154609  1
  O  O112  1  0.79001632  0.79001632  0.83868617  1
  O  O113  1  0.82259296  0.82259296  0.65845391  1
  O  O114  1  0.69848527  0.52415514  0.59225874  1
  O  O115  1  0.19610894  0.19610894  0.90944622  1
