# generated using pymatgen
data_DyNiSn2
_symmetry_space_group_name_H-M   'P 1'
_cell_length_a   4.44121298
_cell_length_b   14.64726590
_cell_length_c   16.15591953
_cell_angle_alpha   90.00000000
_cell_angle_beta   90.00000000
_cell_angle_gamma   90.00000000
_symmetry_Int_Tables_number   1
_chemical_formula_structural   DyNiSn2
_chemical_formula_sum   'Dy12 Ni12 Sn24'
_cell_volume   1050.96885816
_cell_formula_units_Z   12
loop_
 _symmetry_equiv_pos_site_id
 _symmetry_equiv_pos_as_xyz
  1  'x, y, z'
loop_
 _atom_site_type_symbol
 _atom_site_label
 _atom_site_symmetry_multiplicity
 _atom_site_fract_x
 _atom_site_fract_y
 _atom_site_fract_z
 _atom_site_occupancy
  Dy  Dy0  1  0.75000000  0.47251222  0.15068466  1
  Dy  Dy1  1  0.25000000  0.52748778  0.84931534  1
  Dy  Dy2  1  0.75000000  0.77084187  0.62480918  1
  Dy  Dy3  1  0.75000000  0.89434136  0.85409054  1
  Dy  Dy4  1  0.75000000  0.72915813  0.12480918  1
  Dy  Dy5  1  0.75000000  0.60565864  0.35409054  1
  Dy  Dy6  1  0.25000000  0.22915813  0.37519082  1
  Dy  Dy7  1  0.25000000  0.10565864  0.14590946  1
  Dy  Dy8  1  0.75000000  0.02748778  0.65068466  1
  Dy  Dy9  1  0.25000000  0.39434136  0.64590946  1
  Dy  Dy10  1  0.25000000  0.27084187  0.87519082  1
  Dy  Dy11  1  0.25000000  0.97251222  0.34931534  1
  Ni  Ni12  1  0.25000000  0.75265391  0.80432782  1
  Ni  Ni13  1  0.75000000  0.95658961  0.20079478  1
  Ni  Ni14  1  0.75000000  0.25265391  0.69567218  1
  Ni  Ni15  1  0.75000000  0.39370354  0.94865234  1
  Ni  Ni16  1  0.75000000  0.24734609  0.19567218  1
  Ni  Ni17  1  0.25000000  0.04341039  0.79920522  1
  Ni  Ni18  1  0.75000000  0.54341039  0.70079478  1
  Ni  Ni19  1  0.25000000  0.45658961  0.29920522  1
  Ni  Ni20  1  0.25000000  0.89370354  0.55134766  1
  Ni  Ni21  1  0.25000000  0.60629646  0.05134766  1
  Ni  Ni22  1  0.25000000  0.74734609  0.30432782  1
  Ni  Ni23  1  0.75000000  0.10629646  0.44865234  1
  Sn  Sn24  1  0.25000000  0.32457552  0.18542965  1
  Sn  Sn25  1  0.25000000  0.44998305  0.45631591  1
  Sn  Sn26  1  0.25000000  0.42200016  0.02111459  1
  Sn  Sn27  1  0.25000000  0.07799984  0.52111459  1
  Sn  Sn28  1  0.75000000  0.57799984  0.97888541  1
  Sn  Sn29  1  0.75000000  0.10625328  0.28678080  1
  Sn  Sn30  1  0.25000000  0.73856944  0.46660444  1
  Sn  Sn31  1  0.75000000  0.37155351  0.32609389  1
  Sn  Sn32  1  0.75000000  0.26143056  0.53339556  1
  Sn  Sn33  1  0.25000000  0.60625328  0.21321920  1
  Sn  Sn34  1  0.75000000  0.94998305  0.04368409  1
  Sn  Sn35  1  0.75000000  0.23856944  0.03339556  1
  Sn  Sn36  1  0.25000000  0.05001695  0.95631591  1
  Sn  Sn37  1  0.75000000  0.39374672  0.78678080  1
  Sn  Sn38  1  0.75000000  0.12844649  0.82609389  1
  Sn  Sn39  1  0.75000000  0.82457552  0.31457035  1
  Sn  Sn40  1  0.25000000  0.76143056  0.96660444  1
  Sn  Sn41  1  0.25000000  0.87155351  0.17390611  1
  Sn  Sn42  1  0.25000000  0.89374672  0.71321920  1
  Sn  Sn43  1  0.75000000  0.67542448  0.81457035  1
  Sn  Sn44  1  0.25000000  0.62844649  0.67390611  1
  Sn  Sn45  1  0.25000000  0.17542448  0.68542965  1
  Sn  Sn46  1  0.75000000  0.92200016  0.47888541  1
  Sn  Sn47  1  0.75000000  0.55001695  0.54368409  1
