# generated using pymatgen
data_HoGe2Pt
_symmetry_space_group_name_H-M   'P 1'
_cell_length_a   4.32280795
_cell_length_b   8.76965669
_cell_length_c   9.60115699
_cell_angle_alpha   117.17243328
_cell_angle_beta   103.00850614
_cell_angle_gamma   90.00149628
_symmetry_Int_Tables_number   1
_chemical_formula_structural   HoGe2Pt
_chemical_formula_sum   'Ho4 Ge8 Pt4'
_cell_volume   313.26831250
_cell_formula_units_Z   4
loop_
 _symmetry_equiv_pos_site_id
 _symmetry_equiv_pos_as_xyz
  1  'x, y, z'
loop_
 _atom_site_type_symbol
 _atom_site_label
 _atom_site_symmetry_multiplicity
 _atom_site_fract_x
 _atom_site_fract_y
 _atom_site_fract_z
 _atom_site_occupancy
  Ho  Ho0  1  1.00001283  0.73585758  -0.00000133  1
  Ho  Ho1  1  0.20053444  0.70047930  0.40097146  1
  Ho  Ho2  1  0.79946556  0.29952070  0.59902854  1
  Ho  Ho3  1  -0.00001283  0.26414242  1.00000133  1
  Ge  Ge4  1  0.79860418  0.64828877  0.59713536  1
  Ge  Ge5  1  0.42697757  0.92694974  0.85389226  1
  Ge  Ge6  1  0.20144721  0.05114159  0.40286369  1
  Ge  Ge7  1  0.20139582  0.35171123  0.40286464  1
  Ge  Ge8  1  0.79855279  0.94885841  0.59713631  1
  Ge  Ge9  1  0.42593283  0.42609617  0.85222548  1
  Ge  Ge10  1  0.57302243  0.07305026  0.14610774  1
  Ge  Ge11  1  0.57406717  0.57390383  0.14777452  1
  Pt  Pt12  1  0.64722562  0.39642582  0.29457901  1
  Pt  Pt13  1  0.35277438  0.60357418  0.70542099  1
  Pt  Pt14  1  0.64732260  0.89818163  0.29460692  1
  Pt  Pt15  1  0.35267740  0.10181837  0.70539308  1
