# generated using pymatgen
data_Na3InBi2
_symmetry_space_group_name_H-M   'P 1'
_cell_length_a   9.66402470
_cell_length_b   13.16198980
_cell_length_c   19.56803510
_cell_angle_alpha   99.08025357
_cell_angle_beta   90.00000000
_cell_angle_gamma   90.00000000
_symmetry_Int_Tables_number   1
_chemical_formula_structural   Na3InBi2
_chemical_formula_sum   'Na36 In12 Bi24'
_cell_volume   2457.81926080
_cell_formula_units_Z   12
loop_
 _symmetry_equiv_pos_site_id
 _symmetry_equiv_pos_as_xyz
  1  'x, y, z'
loop_
 _atom_site_type_symbol
 _atom_site_label
 _atom_site_symmetry_multiplicity
 _atom_site_fract_x
 _atom_site_fract_y
 _atom_site_fract_z
 _atom_site_occupancy
  Na  Na0  1  0.42629880  0.97961590  0.40896933  1
  Na  Na1  1  0.92629880  0.52038410  0.59103067  1
  Na  Na2  1  0.07250746  0.80871467  0.06955544  1
  Na  Na3  1  0.82148293  0.92828559  0.44813661  1
  Na  Na4  1  0.34607933  0.25725092  0.38801910  1
  Na  Na5  1  0.81662968  0.60994058  0.28552431  1
  Na  Na6  1  0.19019334  0.08545089  0.04998823  1
  Na  Na7  1  0.31662968  0.89005942  0.71447569  1
  Na  Na8  1  0.07370120  0.47961590  0.40896933  1
  Na  Na9  1  0.92749254  0.19128533  0.93044456  1
  Na  Na10  1  0.06885690  0.14889087  0.23731217  1
  Na  Na11  1  0.65392067  0.74274908  0.61198090  1
  Na  Na12  1  0.32626893  0.92541648  0.21832286  1
  Na  Na13  1  0.18740007  0.73395472  0.88059614  1
  Na  Na14  1  0.93114310  0.85110913  0.76268783  1
  Na  Na15  1  0.15392067  0.75725092  0.38801910  1
  Na  Na16  1  0.32148293  0.57171441  0.55186339  1
  Na  Na17  1  0.42749254  0.30871467  0.06955544  1
  Na  Na18  1  0.81259993  0.26604528  0.11940386  1
  Na  Na19  1  0.57370120  0.02038410  0.59103067  1
  Na  Na20  1  0.80980666  0.91454911  0.95001177  1
  Na  Na21  1  0.68740007  0.76604528  0.11940386  1
  Na  Na22  1  0.82626893  0.57458352  0.78167714  1
  Na  Na23  1  0.68337032  0.10994058  0.28552431  1
  Na  Na24  1  0.18337032  0.39005942  0.71447569  1
  Na  Na25  1  0.67373107  0.07458352  0.78167714  1
  Na  Na26  1  0.43114310  0.64889087  0.23731217  1
  Na  Na27  1  0.17373107  0.42541648  0.21832286  1
  Na  Na28  1  0.84607933  0.24274908  0.61198090  1
  Na  Na29  1  0.57250746  0.69128533  0.93044456  1
  Na  Na30  1  0.31259993  0.23395472  0.88059614  1
  Na  Na31  1  0.67851707  0.42828559  0.44813661  1
  Na  Na32  1  0.17851707  0.07171441  0.55186339  1
  Na  Na33  1  0.30980666  0.58545089  0.04998823  1
  Na  Na34  1  0.69019334  0.41454911  0.95001177  1
  Na  Na35  1  0.56885690  0.35110913  0.76268783  1
  In  In36  1  0.93306179  0.55047546  0.09395611  1
  In  In37  1  0.42267274  0.61428024  0.74860903  1
  In  In38  1  0.06693821  0.44952454  0.90604389  1
  In  In39  1  0.92267274  0.88571976  0.25139097  1
  In  In40  1  0.56625823  0.71630332  0.41716603  1
  In  In41  1  0.43374177  0.28369668  0.58283397  1
  In  In42  1  0.06625823  0.78369668  0.58283397  1
  In  In43  1  0.57732726  0.38571976  0.25139097  1
  In  In44  1  0.56693821  0.05047546  0.09395611  1
  In  In45  1  0.07732726  0.11428024  0.74860903  1
  In  In46  1  0.93374177  0.21630332  0.41716603  1
  In  In47  1  0.43306179  0.94952454  0.90604389  1
  Bi  Bi48  1  0.62254212  0.84644645  0.29621533  1
  Bi  Bi49  1  0.59717909  0.48508575  0.63292102  1
  Bi  Bi50  1  0.86688723  0.66966443  0.46917751  1
  Bi  Bi51  1  0.63311277  0.16966443  0.46917751  1
  Bi  Bi52  1  0.89828862  0.31104083  0.79251757  1
  Bi  Bi53  1  0.36688723  0.83033557  0.53082249  1
  Bi  Bi54  1  0.89655257  0.64564079  0.95732768  1
  Bi  Bi55  1  0.87745788  0.34644645  0.29621533  1
  Bi  Bi56  1  0.13311277  0.33033557  0.53082249  1
  Bi  Bi57  1  0.10344743  0.35435921  0.04267232  1
  Bi  Bi58  1  0.10171138  0.68895917  0.20748243  1
  Bi  Bi59  1  0.90282091  0.98508575  0.63292102  1
  Bi  Bi60  1  0.60171138  0.81104083  0.79251757  1
  Bi  Bi61  1  0.60344743  0.14564079  0.95732768  1
  Bi  Bi62  1  0.62933352  0.50355729  0.12423671  1
  Bi  Bi63  1  0.09717909  0.01491425  0.36707898  1
  Bi  Bi64  1  0.12254212  0.65355355  0.70378467  1
  Bi  Bi65  1  0.12933352  0.99644271  0.87576329  1
  Bi  Bi66  1  0.37066648  0.49644271  0.87576329  1
  Bi  Bi67  1  0.39655257  0.85435921  0.04267232  1
  Bi  Bi68  1  0.40282091  0.51491425  0.36707898  1
  Bi  Bi69  1  0.39828862  0.18895917  0.20748243  1
  Bi  Bi70  1  0.37745788  0.15355355  0.70378467  1
  Bi  Bi71  1  0.87066648  0.00355729  0.12423671  1
