# generated using pymatgen
data_Eu(Ni2B)6
_symmetry_space_group_name_H-M   'P 1'
_cell_length_a   6.03505597
_cell_length_b   6.03505611
_cell_length_c   6.03505653
_cell_angle_alpha   104.30943383
_cell_angle_beta   104.30943414
_cell_angle_gamma   104.30943975
_symmetry_Int_Tables_number   1
_chemical_formula_structural   Eu(Ni2B)6
_chemical_formula_sum   'Eu1 Ni12 B6'
_cell_volume   194.94169435
_cell_formula_units_Z   1
loop_
 _symmetry_equiv_pos_site_id
 _symmetry_equiv_pos_as_xyz
  1  'x, y, z'
loop_
 _atom_site_type_symbol
 _atom_site_label
 _atom_site_symmetry_multiplicity
 _atom_site_fract_x
 _atom_site_fract_y
 _atom_site_fract_z
 _atom_site_occupancy
  Eu  Eu0  1  0.00000000  0.00000000  0.00000000  1
  Ni  Ni1  1  0.54197589  0.81244460  0.54197589  1
  Ni  Ni2  1  0.86886400  0.50000000  0.13113600  1
  Ni  Ni3  1  0.50000000  0.13113600  0.86886400  1
  Ni  Ni4  1  0.86886400  0.13113600  0.50000000  1
  Ni  Ni5  1  0.50000000  0.86886400  0.13113600  1
  Ni  Ni6  1  0.54197589  0.54197589  0.81244460  1
  Ni  Ni7  1  0.13113600  0.50000000  0.86886400  1
  Ni  Ni8  1  0.45802411  0.45802411  0.18755540  1
  Ni  Ni9  1  0.13113600  0.86886400  0.50000000  1
  Ni  Ni10  1  0.45802411  0.18755540  0.45802411  1
  Ni  Ni11  1  0.18755540  0.45802411  0.45802411  1
  Ni  Ni12  1  0.81244460  0.54197589  0.54197589  1
  B  B13  1  0.66291961  0.23376670  0.23376670  1
  B  B14  1  0.76623330  0.76623330  0.33708039  1
  B  B15  1  0.76623330  0.33708039  0.76623330  1
  B  B16  1  0.23376670  0.66291961  0.23376670  1
  B  B17  1  0.23376670  0.23376670  0.66291961  1
  B  B18  1  0.33708039  0.76623330  0.76623330  1
