# generated using pymatgen
data_Cs2YSi4O10F
_symmetry_space_group_name_H-M   'P 1'
_cell_length_a   8.99352120
_cell_length_b   12.15111558
_cell_length_c   22.68919254
_cell_angle_alpha   90.00000000
_cell_angle_beta   90.00000000
_cell_angle_gamma   90.00000000
_symmetry_Int_Tables_number   1
_chemical_formula_structural   Cs2YSi4O10F
_chemical_formula_sum   'Cs16 Y8 Si32 O80 F8'
_cell_volume   2479.50481005
_cell_formula_units_Z   8
loop_
 _symmetry_equiv_pos_site_id
 _symmetry_equiv_pos_as_xyz
  1  'x, y, z'
loop_
 _atom_site_type_symbol
 _atom_site_label
 _atom_site_symmetry_multiplicity
 _atom_site_fract_x
 _atom_site_fract_y
 _atom_site_fract_z
 _atom_site_occupancy
  Cs  Cs0  1  0.75000000  0.04771432  0.01621590  1
  Cs  Cs1  1  0.75000000  0.44323657  0.04341615  1
  Cs  Cs2  1  0.75000000  0.62317299  0.23667586  1
  Cs  Cs3  1  0.25000000  0.37682701  0.76332414  1
  Cs  Cs4  1  0.75000000  0.87682701  0.73667586  1
  Cs  Cs5  1  0.25000000  0.54771432  0.48378410  1
  Cs  Cs6  1  0.25000000  0.12317299  0.26332414  1
  Cs  Cs7  1  0.75000000  0.45228568  0.51621590  1
  Cs  Cs8  1  0.75000000  0.05676343  0.54341615  1
  Cs  Cs9  1  0.25000000  0.94323657  0.45658385  1
  Cs  Cs10  1  0.25000000  0.67952821  0.27182670  1
  Cs  Cs11  1  0.75000000  0.17952821  0.22817330  1
  Cs  Cs12  1  0.75000000  0.32047179  0.72817330  1
  Cs  Cs13  1  0.25000000  0.95228568  0.98378410  1
  Cs  Cs14  1  0.25000000  0.82047179  0.77182670  1
  Cs  Cs15  1  0.25000000  0.55676343  0.95658385  1
  Y  Y16  1  0.00020495  0.59673983  0.65088883  1
  Y  Y17  1  0.00020495  0.90326017  0.15088883  1
  Y  Y18  1  0.49979505  0.59673983  0.65088883  1
  Y  Y19  1  0.50020495  0.40326017  0.34911117  1
  Y  Y20  1  0.99979505  0.09673983  0.84911117  1
  Y  Y21  1  0.49979505  0.90326017  0.15088883  1
  Y  Y22  1  0.50020495  0.09673983  0.84911117  1
  Y  Y23  1  0.99979505  0.40326017  0.34911117  1
  Si  Si24  1  0.93105579  0.58887830  0.81022821  1
  Si  Si25  1  0.92894256  0.12285421  0.38251034  1
  Si  Si26  1  0.57205688  0.75021434  0.02001701  1
  Si  Si27  1  0.42894256  0.87714579  0.61748966  1
  Si  Si28  1  0.56886295  0.69596085  0.38806873  1
  Si  Si29  1  0.57105744  0.12285421  0.38251034  1
  Si  Si30  1  0.93105579  0.91112170  0.31022821  1
  Si  Si31  1  0.92794312  0.74978566  0.52001701  1
  Si  Si32  1  0.06894421  0.41112170  0.18977179  1
  Si  Si33  1  0.07105744  0.87714579  0.61748966  1
  Si  Si34  1  0.56886295  0.80403915  0.88806873  1
  Si  Si35  1  0.06894421  0.08887830  0.68977179  1
  Si  Si36  1  0.42794312  0.25021434  0.47998299  1
  Si  Si37  1  0.56894421  0.58887830  0.81022821  1
  Si  Si38  1  0.07105744  0.62285421  0.11748966  1
  Si  Si39  1  0.43105579  0.41112170  0.18977179  1
  Si  Si40  1  0.43113705  0.30403915  0.61193127  1
  Si  Si41  1  0.43105579  0.08887830  0.68977179  1
  Si  Si42  1  0.56894421  0.91112170  0.31022821  1
  Si  Si43  1  0.42894256  0.62285421  0.11748966  1
  Si  Si44  1  0.92894256  0.37714579  0.88251034  1
  Si  Si45  1  0.92794312  0.75021434  0.02001701  1
  Si  Si46  1  0.07205688  0.25021434  0.47998299  1
  Si  Si47  1  0.93113705  0.80403915  0.88806873  1
  Si  Si48  1  0.93113705  0.69596085  0.38806873  1
  Si  Si49  1  0.57105744  0.37714579  0.88251034  1
  Si  Si50  1  0.43113705  0.19596085  0.11193127  1
  Si  Si51  1  0.06886295  0.19596085  0.11193127  1
  Si  Si52  1  0.06886295  0.30403915  0.61193127  1
  Si  Si53  1  0.07205688  0.24978566  0.97998299  1
  Si  Si54  1  0.57205688  0.74978566  0.52001701  1
  Si  Si55  1  0.42794312  0.24978566  0.97998299  1
  O  O56  1  0.96997770  0.78766205  0.33641025  1
  O  O57  1  0.02355675  0.78230671  0.66257448  1
  O  O58  1  0.98941725  1.00040207  0.36073442  1
  O  O59  1  0.02828884  0.13958384  0.94585170  1
  O  O60  1  0.96997770  0.71233795  0.83641025  1
  O  O61  1  0.50068729  0.13773523  0.44982110  1
  O  O62  1  0.50915434  0.75080623  0.95122380  1
  O  O63  1  0.03002230  0.28766205  0.16358975  1
  O  O64  1  0.75000000  0.68188809  0.39196512  1
  O  O65  1  0.47171116  0.36041616  0.44585170  1
  O  O66  1  0.99931271  0.13773523  0.44982110  1
  O  O67  1  0.98660073  0.08335561  0.12786001  1
  O  O68  1  0.51334847  0.43031858  0.25129041  1
  O  O69  1  0.52828884  0.63958384  0.55414830  1
  O  O70  1  0.00068729  0.63773523  0.05017890  1
  O  O71  1  0.01334847  0.93031858  0.24870959  1
  O  O72  1  0.01334847  0.56968142  0.74870959  1
  O  O73  1  0.75000000  0.57637968  0.80447463  1
  O  O74  1  0.00068729  0.86226477  0.55017890  1
  O  O75  1  0.48660073  0.91664439  0.87213999  1
  O  O76  1  0.75000000  0.92362032  0.30447463  1
  O  O77  1  0.75000000  0.81811191  0.89196512  1
  O  O78  1  0.53002230  0.71233795  0.83641025  1
  O  O79  1  0.97644325  0.28230671  0.83742552  1
  O  O80  1  0.98941725  0.49959793  0.86073442  1
  O  O81  1  0.25000000  0.27651370  0.98309332  1
  O  O82  1  0.99931271  0.36226477  0.94982110  1
  O  O83  1  0.53002230  0.78766205  0.33641025  1
  O  O84  1  0.75000000  0.77651370  0.51690668  1
  O  O85  1  0.47171116  0.13958384  0.94585170  1
  O  O86  1  0.49931271  0.86226477  0.55017890  1
  O  O87  1  0.97171116  0.63958384  0.55414830  1
  O  O88  1  0.25000000  0.61206810  0.10627037  1
  O  O89  1  0.99084566  0.74919377  0.45122380  1
  O  O90  1  0.25000000  0.18188809  0.10803488  1
  O  O91  1  0.02828884  0.36041616  0.44585170  1
  O  O92  1  0.00915434  0.25080623  0.54877620  1
  O  O93  1  0.51334847  0.06968142  0.75129041  1
  O  O94  1  0.01058275  -0.00040207  0.63926558  1
  O  O95  1  0.46997770  0.21233795  0.66358975  1
  O  O96  1  0.50915434  0.74919377  0.45122380  1
  O  O97  1  0.25000000  0.31811191  0.60803488  1
  O  O98  1  0.48660073  0.58335561  0.37213999  1
  O  O99  1  0.52828884  0.86041616  0.05414830  1
  O  O100  1  0.00915434  0.24919377  0.04877620  1
  O  O101  1  0.48941725  0.50040207  0.13926558  1
  O  O102  1  0.01058275  0.50040207  0.13926558  1
  O  O103  1  0.49084566  0.25080623  0.54877620  1
  O  O104  1  0.98665153  0.43031858  0.25129041  1
  O  O105  1  0.01339927  0.91664439  0.87213999  1
  O  O106  1  0.48665153  0.93031858  0.24870959  1
  O  O107  1  0.51058275  0.49959793  0.86073442  1
  O  O108  1  0.98660073  0.41664439  0.62786001  1
  O  O109  1  0.97644325  0.21769329  0.33742552  1
  O  O110  1  0.51339927  0.41664439  0.62786001  1
  O  O111  1  0.25000000  0.42362032  0.19552537  1
  O  O112  1  0.99084566  0.75080623  0.95122380  1
  O  O113  1  0.47644325  0.71769329  0.16257448  1
  O  O114  1  0.25000000  0.07637968  0.69552537  1
  O  O115  1  0.75000000  0.72348630  0.01690668  1
  O  O116  1  0.51339927  0.08335561  0.12786001  1
  O  O117  1  0.25000000  0.88793190  0.60627037  1
  O  O118  1  0.49084566  0.24919377  0.04877620  1
  O  O119  1  0.01339927  0.58335561  0.37213999  1
  O  O120  1  0.75000000  0.38793190  0.89372963  1
  O  O121  1  0.25000000  0.22348630  0.48309332  1
  O  O122  1  0.97171116  0.86041616  0.05414830  1
  O  O123  1  0.50068729  0.36226477  0.94982110  1
  O  O124  1  0.98665153  0.06968142  0.75129041  1
  O  O125  1  0.47644325  0.78230671  0.66257448  1
  O  O126  1  0.49931271  0.63773523  0.05017890  1
  O  O127  1  0.51058275  1.00040207  0.36073442  1
  O  O128  1  0.46997770  0.28766205  0.16358975  1
  O  O129  1  0.03002230  0.21233795  0.66358975  1
  O  O130  1  0.02355675  0.71769329  0.16257448  1
  O  O131  1  0.52355675  0.21769329  0.33742552  1
  O  O132  1  0.48941725  -0.00040207  0.63926558  1
  O  O133  1  0.75000000  0.11206810  0.39372963  1
  O  O134  1  0.48665153  0.56968142  0.74870959  1
  O  O135  1  0.52355675  0.28230671  0.83742552  1
  F  F136  1  0.75000000  0.60229659  0.65948680  1
  F  F137  1  0.25000000  0.58427343  0.64403990  1
  F  F138  1  0.25000000  0.39770341  0.34051320  1
  F  F139  1  0.25000000  0.10229659  0.84051320  1
  F  F140  1  0.75000000  0.41572657  0.35596010  1
  F  F141  1  0.75000000  0.08427343  0.85596010  1
  F  F142  1  0.75000000  0.89770341  0.15948680  1
  F  F143  1  0.25000000  0.91572657  0.14403990  1
