# generated using pymatgen
data_YGe2Ir
_symmetry_space_group_name_H-M   'P 1'
_cell_length_a   4.29488671
_cell_length_b   8.91489949
_cell_length_c   9.47198983
_cell_angle_alpha   118.07289459
_cell_angle_beta   103.10487449
_cell_angle_gamma   89.99993130
_symmetry_Int_Tables_number   1
_chemical_formula_structural   YGe2Ir
_chemical_formula_sum   'Y4 Ge8 Ir4'
_cell_volume   309.25463529
_cell_formula_units_Z   4
loop_
 _symmetry_equiv_pos_site_id
 _symmetry_equiv_pos_as_xyz
  1  'x, y, z'
loop_
 _atom_site_type_symbol
 _atom_site_label
 _atom_site_symmetry_multiplicity
 _atom_site_fract_x
 _atom_site_fract_y
 _atom_site_fract_z
 _atom_site_occupancy
  Y  Y0  1  0.79456697  0.29455765  0.58911524  1
  Y  Y1  1  0.00000279  0.26126153  0.99999985  1
  Y  Y2  1  0.99999721  0.73873847  0.00000015  1
  Y  Y3  1  0.20543303  0.70544235  0.41088476  1
  Ge  Ge4  1  0.57701007  0.57702277  0.15404553  1
  Ge  Ge5  1  0.79955106  0.95245153  0.59912015  1
  Ge  Ge6  1  0.79955145  0.64666938  0.59912103  1
  Ge  Ge7  1  0.20044894  0.04754847  0.40087985  1
  Ge  Ge8  1  0.42179704  0.92180533  0.84360986  1
  Ge  Ge9  1  0.42298993  0.42297723  0.84595447  1
  Ge  Ge10  1  0.57820296  0.07819467  0.15639014  1
  Ge  Ge11  1  0.20044855  0.35333062  0.40087897  1
  Ir  Ir12  1  0.64561025  0.89617000  0.29123290  1
  Ir  Ir13  1  0.35438975  0.10383000  0.70876710  1
  Ir  Ir14  1  0.35439019  0.60493727  0.70876718  1
  Ir  Ir15  1  0.64560981  0.39506273  0.29123282  1
