# generated using pymatgen
data_K3C6N9O
_symmetry_space_group_name_H-M   'P 1'
_cell_length_a   3.85612928
_cell_length_b   8.13221865
_cell_length_c   10.25588065
_cell_angle_alpha   71.60146187
_cell_angle_beta   78.36597823
_cell_angle_gamma   87.35599463
_symmetry_Int_Tables_number   1
_chemical_formula_structural   K3C6N9O
_chemical_formula_sum   'K3 C6 N9 O1'
_cell_volume   298.85076044
_cell_formula_units_Z   1
loop_
 _symmetry_equiv_pos_site_id
 _symmetry_equiv_pos_as_xyz
  1  'x, y, z'
loop_
 _atom_site_type_symbol
 _atom_site_label
 _atom_site_symmetry_multiplicity
 _atom_site_fract_x
 _atom_site_fract_y
 _atom_site_fract_z
 _atom_site_occupancy
  K  K0  1  0.97761560  0.97846272  0.99833323  1
  K  K1  1  0.87052706  0.76055394  0.62146205  1
  K  K2  1  0.99839285  0.44089774  0.12589485  1
  C  C3  1  0.43320222  0.17791758  0.49518138  1
  C  C4  1  0.48002207  0.46884176  0.46866525  1
  C  C5  1  0.48489349  0.27277714  0.68604431  1
  C  C6  1  0.39951804  0.08022526  0.31527078  1
  C  C7  1  0.44158827  0.67699003  0.26214865  1
  C  C8  1  0.57639031  0.36049170  0.86351180  1
  N  N9  1  0.38960543  0.10475243  0.19578438  1
  N  N10  1  0.41796270  0.72206809  0.14196267  1
  N  N11  1  0.63624767  0.46896340  0.91121830  1
  N  N12  1  0.46299420  0.34263692  0.41010364  1
  N  N13  1  0.50515657  0.43823113  0.60330360  1
  N  N14  1  0.42615148  0.13707074  0.63803187  1
  N  N15  1  0.40423489  0.04211958  0.44842522  1
  N  N16  1  0.47186620  0.63928052  0.39127790  1
  N  N17  1  0.51472405  0.23078628  0.82217428  1
  O  O18  1  0.37360690  0.97433306  0.72370585  1
