# generated using pymatgen
data_K3Nb2Ag3S8
_symmetry_space_group_name_H-M   'P 1'
_cell_length_a   5.97729092
_cell_length_b   12.86423194
_cell_length_c   13.88525433
_cell_angle_alpha   65.16180208
_cell_angle_beta   77.57114316
_cell_angle_gamma   76.56504984
_symmetry_Int_Tables_number   1
_chemical_formula_structural   K3Nb2Ag3S8
_chemical_formula_sum   'K6 Nb4 Ag6 S16'
_cell_volume   933.99797298
_cell_formula_units_Z   2
loop_
 _symmetry_equiv_pos_site_id
 _symmetry_equiv_pos_as_xyz
  1  'x, y, z'
loop_
 _atom_site_type_symbol
 _atom_site_label
 _atom_site_symmetry_multiplicity
 _atom_site_fract_x
 _atom_site_fract_y
 _atom_site_fract_z
 _atom_site_occupancy
  K  K0  1  0.24604657  0.79099509  0.60049762  1
  K  K1  1  0.75395343  0.20900491  0.39950238  1
  K  K2  1  0.36254282  0.29068191  0.10049826  1
  K  K3  1  0.00000000  0.50000000  0.50000000  1
  K  K4  1  0.63745718  0.70931809  0.89950174  1
  K  K5  1  0.00000000  0.00000000  0.00000000  1
  Nb  Nb6  1  0.41193508  0.52365424  0.22064488  1
  Nb  Nb7  1  0.58806492  0.47634576  0.77935512  1
  Nb  Nb8  1  0.84375310  0.02367920  0.72069042  1
  Nb  Nb9  1  0.15624690  0.97632080  0.27930958  1
  Ag  Ag10  1  0.28294006  0.74999459  0.24996189  1
  Ag  Ag11  1  0.71705994  0.25000541  0.75003811  1
  Ag  Ag12  1  0.91102339  0.53146534  0.21475401  1
  Ag  Ag13  1  0.65708167  0.96866977  0.28529582  1
  Ag  Ag14  1  0.08897661  0.46853466  0.78524599  1
  Ag  Ag15  1  0.34291833  0.03133023  0.71470418  1
  S  S16  1  0.45264396  0.43881996  0.65314656  1
  S  S17  1  0.78255949  0.63263287  0.68365305  1
  S  S18  1  0.71177011  0.96957008  0.60798410  1
  S  S19  1  0.17385524  0.68655832  0.11597967  1
  S  S20  1  0.82614476  0.31344168  0.88402033  1
  S  S21  1  0.54452692  0.06120909  0.84684800  1
  S  S22  1  0.02362053  0.18653656  0.61604513  1
  S  S23  1  0.54735604  0.56118004  0.34685344  1
  S  S24  1  0.97637947  0.81346344  0.38395487  1
  S  S25  1  0.71084203  0.46961458  0.10794903  1
  S  S26  1  0.28915797  0.53038542  0.89205097  1
  S  S27  1  0.28822989  0.03042992  0.39201590  1
  S  S28  1  0.09885281  0.86737816  0.81644690  1
  S  S29  1  0.21744051  0.36736713  0.31634695  1
  S  S30  1  0.45547308  0.93879091  0.15315200  1
  S  S31  1  0.90114719  0.13262184  0.18355310  1
