# generated using pymatgen
data_Ta2Hg2F11
_symmetry_space_group_name_H-M   'P 1'
_cell_length_a   7.73237400
_cell_length_b   12.55220793
_cell_length_c   12.98371248
_cell_angle_alpha   72.11469896
_cell_angle_beta   72.68599065
_cell_angle_gamma   72.06115579
_symmetry_Int_Tables_number   1
_chemical_formula_structural   Ta2Hg2F11
_chemical_formula_sum   'Ta8 Hg8 F44'
_cell_volume   1111.92290631
_cell_formula_units_Z   4
loop_
 _symmetry_equiv_pos_site_id
 _symmetry_equiv_pos_as_xyz
  1  'x, y, z'
loop_
 _atom_site_type_symbol
 _atom_site_label
 _atom_site_symmetry_multiplicity
 _atom_site_fract_x
 _atom_site_fract_y
 _atom_site_fract_z
 _atom_site_occupancy
  Ta  Ta0  1  0.07705109  0.28160475  0.01681476  1
  Ta  Ta1  1  0.29840169  0.91707760  0.87132115  1
  Ta  Ta2  1  0.37539447  0.21843129  0.48318907  1
  Ta  Ta3  1  0.08688083  0.58296405  0.62875748  1
  Ta  Ta4  1  0.91311917  0.41703595  0.37124252  1
  Ta  Ta5  1  0.92294891  0.71839525  0.98318524  1
  Ta  Ta6  1  0.62460553  0.78156871  0.51681093  1
  Ta  Ta7  1  0.70159831  0.08292240  0.12867885  1
  Hg  Hg8  1  0.46826579  0.46280258  0.12610170  1
  Hg  Hg9  1  0.94278228  0.96280839  0.62609280  1
  Hg  Hg10  1  0.19915496  0.84798454  0.28502770  1
  Hg  Hg11  1  0.66794137  0.34796975  0.78503853  1
  Hg  Hg12  1  0.80084504  0.15201546  0.71497230  1
  Hg  Hg13  1  0.53173421  0.53719742  0.87389830  1
  Hg  Hg14  1  0.05721772  0.03719161  0.37390720  1
  Hg  Hg15  1  0.33205863  0.65203025  0.21496147  1
  F  F16  1  0.54967528  0.23853944  0.09561527  1
  F  F17  1  0.59893297  0.10768482  0.49996239  1
  F  F18  1  0.20650364  0.39242062  1.00002562  1
  F  F19  1  0.27740664  0.19946604  0.92284212  1
  F  F20  1  0.96246475  0.36054175  0.89337180  1
  F  F21  1  0.88378856  0.26141001  0.40430832  1
  F  F22  1  0.15591054  0.17691151  0.14533749  1
  F  F23  1  0.40106703  0.89231518  0.50003761  1
  F  F24  1  0.30123826  0.93018238  0.01301788  1
  F  F25  1  0.39977837  0.30050127  0.57719238  1
  F  F26  1  0.27369872  0.50908857  0.70865343  1
  F  F27  1  0.52214529  0.67684740  0.64537038  1
  F  F28  1  0.00417807  0.44934798  0.64689048  1
  F  F29  1  0.26264771  0.88083738  0.74761529  1
  F  F30  1  0.99582193  0.55065202  0.35310952  1
  F  F31  1  0.03753525  0.63945825  0.10662820  1
  F  F32  1  0.73735229  0.11916262  0.25238471  1
  F  F33  1  0.78360977  0.86051232  0.39336959  1
  F  F34  1  0.21639023  0.13948768  0.60663041  1
  F  F35  1  0.69876174  0.06981762  0.98698212  1
  F  F36  1  0.89984307  0.94933231  0.14686111  1
  F  F37  1  0.10015693  0.05066769  0.85313889  1
  F  F38  1  0.49129792  0.99087832  0.79142978  1
  F  F39  1  0.92218207  0.16362393  0.03803820  1
  F  F40  1  0.45032472  0.76146056  0.90438473  1
  F  F41  1  0.87628032  0.66367101  0.53804958  1
  F  F42  1  0.72259336  0.80053396  0.07715788  1
  F  F43  1  0.72630128  0.49091143  0.29134657  1
  F  F44  1  0.75562612  0.43010454  0.51296968  1
  F  F45  1  0.84408946  0.82308849  0.85466251  1
  F  F46  1  0.24437388  0.56989546  0.48703032  1
  F  F47  1  0.11621144  0.73858999  0.59569168  1
  F  F48  1  0.67819665  0.85441397  0.61040526  1
  F  F49  1  0.50870208  0.00912168  0.20857022  1
  F  F50  1  0.12371968  0.33632899  0.46195042  1
  F  F51  1  0.89121922  0.61916524  0.75247059  1
  F  F52  1  0.85697310  0.35437812  0.11039621  1
  F  F53  1  0.47785471  0.32315260  0.35462962  1
  F  F54  1  0.07781793  0.83637607  0.96196180  1
  F  F55  1  0.10878078  0.38083476  0.24752941  1
  F  F56  1  0.60022163  0.69949873  0.42280762  1
  F  F57  1  0.79349636  0.60757938  -0.00002562  1
  F  F58  1  0.14302690  0.64562188  0.88960379  1
  F  F59  1  0.32180335  0.14558603  0.38959474  1
