# generated using pymatgen
data_Rb6U5V2O23
_symmetry_space_group_name_H-M   'P 1'
_cell_length_a   7.24106489
_cell_length_b   14.55621166
_cell_length_c   25.23777743
_cell_angle_alpha   90.00000000
_cell_angle_beta   90.29128282
_cell_angle_gamma   90.00000000
_symmetry_Int_Tables_number   1
_chemical_formula_structural   Rb6U5V2O23
_chemical_formula_sum   'Rb24 U20 V8 O92'
_cell_volume   2660.08978325
_cell_formula_units_Z   4
loop_
 _symmetry_equiv_pos_site_id
 _symmetry_equiv_pos_as_xyz
  1  'x, y, z'
loop_
 _atom_site_type_symbol
 _atom_site_label
 _atom_site_symmetry_multiplicity
 _atom_site_fract_x
 _atom_site_fract_y
 _atom_site_fract_z
 _atom_site_occupancy
  Rb  Rb0  1  0.50139724  0.62523287  0.74544995  1
  Rb  Rb1  1  0.99118802  0.40344146  0.16691149  1
  Rb  Rb2  1  0.50881198  0.90344146  0.33308851  1
  Rb  Rb3  1  0.98448986  0.55700878  0.65381995  1
  Rb  Rb4  1  0.49452390  0.53196728  0.91902547  1
  Rb  Rb5  1  0.01551014  0.44299122  0.34618005  1
  Rb  Rb6  1  0.00547610  0.03196728  0.58097453  1
  Rb  Rb7  1  0.00881198  0.59655854  0.83308851  1
  Rb  Rb8  1  0.48448986  0.94299122  0.15381995  1
  Rb  Rb9  1  0.00313503  0.05610491  0.92360333  1
  Rb  Rb10  1  0.50313503  0.44389509  0.42360333  1
  Rb  Rb11  1  0.99686497  0.94389509  0.07639667  1
  Rb  Rb12  1  0.50000000  0.00000000  0.50000000  1
  Rb  Rb13  1  0.51551014  0.05700878  0.84618005  1
  Rb  Rb14  1  0.99452390  0.96803272  0.41902547  1
  Rb  Rb15  1  0.00000000  0.50000000  0.50000000  1
  Rb  Rb16  1  0.50000000  0.00000000  0.00000000  1
  Rb  Rb17  1  0.00139724  0.87476713  0.24544995  1
  Rb  Rb18  1  0.49118802  0.09655854  0.66691149  1
  Rb  Rb19  1  0.49860276  0.37476713  0.25455005  1
  Rb  Rb20  1  0.50547610  0.46803272  0.08097453  1
  Rb  Rb21  1  0.00000000  0.50000000  0.00000000  1
  Rb  Rb22  1  0.49686497  0.55610491  0.57639667  1
  Rb  Rb23  1  0.99860276  0.12523287  0.75455005  1
  U  U24  1  0.32527776  0.27030265  0.54334866  1
  U  U25  1  0.83324268  0.22640450  0.46296960  1
  U  U26  1  0.33324268  0.27359550  0.96296960  1
  U  U27  1  0.67694833  0.81290599  0.61934037  1
  U  U28  1  0.17472224  0.77030265  0.95665134  1
  U  U29  1  0.18483704  0.83062888  0.68005231  1
  U  U30  1  0.68114058  0.80153727  0.89613450  1
  U  U31  1  0.82527776  0.22969735  0.04334866  1
  U  U32  1  0.18114058  0.69846273  0.39613450  1
  U  U33  1  0.17694833  0.68709401  0.11934037  1
  U  U34  1  0.32305167  0.18709401  0.38065963  1
  U  U35  1  0.67472224  0.72969735  0.45665134  1
  U  U36  1  0.31516296  0.33062888  0.81994769  1
  U  U37  1  0.66675732  0.72640450  0.03703040  1
  U  U38  1  0.82305167  0.31290599  0.88065963  1
  U  U39  1  0.16675732  0.77359550  0.53703040  1
  U  U40  1  0.31885942  0.19846273  0.10386550  1
  U  U41  1  0.68483704  0.66937112  0.18005231  1
  U  U42  1  0.81885942  0.30153727  0.60386550  1
  U  U43  1  0.81516296  0.16937112  0.31994769  1
  V  V44  1  0.82490473  0.13908207  0.16516336  1
  V  V45  1  0.81365560  0.38762971  0.75645617  1
  V  V46  1  0.32490473  0.36091793  0.66516336  1
  V  V47  1  0.18634440  0.61237029  0.24354383  1
  V  V48  1  0.17509527  0.86091793  0.83483664  1
  V  V49  1  0.31365560  0.11237029  0.25645617  1
  V  V50  1  0.67509527  0.63908207  0.33483664  1
  V  V51  1  0.68634440  0.88762971  0.74354383  1
  O  O52  1  0.31345279  0.45884208  0.82376840  1
  O  O53  1  0.67038180  0.60557770  0.47692525  1
  O  O54  1  0.63725001  0.19237452  0.39554024  1
  O  O55  1  0.68654721  0.54115792  0.17623160  1
  O  O56  1  0.50414843  0.84613052  0.70198535  1
  O  O57  1  0.32961820  0.39442230  0.52307475  1
  O  O58  1  0.00414843  0.65386948  0.20198535  1
  O  O59  1  0.81804238  0.18985704  0.85832902  1
  O  O60  1  0.30560728  0.31307913  0.72748984  1
  O  O61  1  0.19439272  0.81307913  0.77251016  1
  O  O62  1  0.87072901  0.84763254  0.70462798  1
  O  O63  1  0.50535881  0.31608337  0.89295651  1
  O  O64  1  0.35941344  0.73740022  0.46971229  1
  O  O65  1  0.31367543  0.22582830  0.46268375  1
  O  O66  1  0.37072901  0.65236746  0.20462798  1
  O  O67  1  0.18195762  0.81014296  0.14167098  1
  O  O68  1  0.33210278  0.06112155  0.39611422  1
  O  O69  1  0.68195762  0.68985704  0.64167098  1
  O  O70  1  0.99464119  0.81608337  0.60704349  1
  O  O71  1  0.15626912  0.65023824  0.55907305  1
  O  O72  1  0.13553910  0.33157632  0.62394331  1
  O  O73  1  0.84943334  0.02404417  0.16978782  1
  O  O74  1  0.17616870  0.64872691  0.93156404  1
  O  O75  1  0.69063729  0.79597150  0.18707494  1
  O  O76  1  0.69439272  0.68692087  0.27251016  1
  O  O77  1  0.49910098  0.69185516  0.37458952  1
  O  O78  1  0.36274999  0.80762548  0.60445976  1
  O  O79  1  0.31577995  0.99599705  0.25263296  1
  O  O80  1  0.67156216  0.68103279  0.87129218  1
  O  O81  1  0.32843784  0.31896721  0.12870782  1
  O  O82  1  0.82843784  0.18103279  0.62870782  1
  O  O83  1  0.80297238  0.42538903  0.58498019  1
  O  O84  1  0.30936271  0.20402850  0.81292506  1
  O  O85  1  0.12927099  0.15236746  0.29537202  1
  O  O86  1  0.99277606  0.73588325  0.46619923  1
  O  O87  1  0.49277606  0.76411675  0.96619923  1
  O  O88  1  0.68422005  0.00400295  0.74736704  1
  O  O89  1  0.64058656  0.26259978  0.53028771  1
  O  O90  1  0.81345279  0.04115792  0.32376840  1
  O  O91  1  0.30297238  0.07461097  0.08498019  1
  O  O92  1  0.82383130  0.35127309  0.06843596  1
  O  O93  1  0.82961820  0.10557770  0.02307475  1
  O  O94  1  0.50089902  0.30814484  0.62541048  1
  O  O95  1  0.99585157  0.34613052  0.79801465  1
  O  O96  1  0.69702762  0.92538903  0.91501981  1
  O  O97  1  0.15056666  0.97595583  0.83021218  1
  O  O98  1  0.18632457  0.72582830  0.03731625  1
  O  O99  1  0.17992619  0.65888449  0.30675735  1
  O  O100  1  0.82007381  0.34111551  0.69324265  1
  O  O101  1  0.65626912  0.84976176  0.05907305  1
  O  O102  1  0.49464119  0.68391663  0.10704349  1
  O  O103  1  0.81367543  0.27417170  0.96268375  1
  O  O104  1  0.19063729  0.70402850  0.68707494  1
  O  O105  1  0.66789722  0.93887845  0.60388578  1
  O  O106  1  0.67992619  0.84111551  0.80675735  1
  O  O107  1  0.80560728  0.18692087  0.22748984  1
  O  O108  1  0.49585157  0.15386948  0.29801465  1
  O  O109  1  0.33100064  0.39693843  0.98550079  1
  O  O110  1  0.18654721  0.95884208  0.67623160  1
  O  O111  1  0.65056666  0.52404417  0.33021218  1
  O  O112  1  0.17038180  0.89442230  0.97692525  1
  O  O113  1  0.86274999  0.69237452  0.10445976  1
  O  O114  1  0.00089902  0.19185516  0.12541048  1
  O  O115  1  0.16789722  0.56112155  0.10388578  1
  O  O116  1  0.81577995  0.50400295  0.75263296  1
  O  O117  1  0.85941344  0.76259978  0.96971229  1
  O  O118  1  0.83210278  0.43887845  0.89611422  1
  O  O119  1  0.99910098  0.80814484  0.87458952  1
  O  O120  1  0.84373088  0.34976176  0.44092695  1
  O  O121  1  0.18422005  0.49599705  0.24736704  1
  O  O122  1  0.80936271  0.29597150  0.31292506  1
  O  O123  1  0.19702762  0.57461097  0.41501981  1
  O  O124  1  0.68632457  0.77417170  0.53731625  1
  O  O125  1  0.31804238  0.31014296  0.35832902  1
  O  O126  1  0.63553910  0.16842368  0.12394331  1
  O  O127  1  0.62927099  0.34763254  0.79537202  1
  O  O128  1  0.32007381  0.15888449  0.19324265  1
  O  O129  1  0.16899936  0.89693843  0.51449921  1
  O  O130  1  0.00535881  0.18391663  0.39295651  1
  O  O131  1  0.13725001  0.30762548  0.89554024  1
  O  O132  1  0.32383130  0.14872691  0.56843596  1
  O  O133  1  0.14058656  0.23740022  0.03028771  1
  O  O134  1  0.67616870  0.85127309  0.43156404  1
  O  O135  1  0.00722394  0.26411675  0.53380077  1
  O  O136  1  0.36446090  0.83157632  0.87605669  1
  O  O137  1  0.34943334  0.47595583  0.66978782  1
  O  O138  1  0.86446090  0.66842368  0.37605669  1
  O  O139  1  0.34373088  0.15023824  0.94092695  1
  O  O140  1  0.50722394  0.23588325  0.03380077  1
  O  O141  1  0.83100064  0.10306157  0.48550079  1
  O  O142  1  0.17156216  0.81896721  0.37129218  1
  O  O143  1  0.66899936  0.60306157  0.01449921  1
