# generated using pymatgen
data_CsCa2Nb3O10
_symmetry_space_group_name_H-M   'P 1'
_cell_length_a   7.82522482
_cell_length_b   7.83452282
_cell_length_c   31.03140601
_cell_angle_alpha   90.00000000
_cell_angle_beta   90.00000000
_cell_angle_gamma   90.00000000
_symmetry_Int_Tables_number   1
_chemical_formula_structural   CsCa2Nb3O10
_chemical_formula_sum   'Cs8 Ca16 Nb24 O80'
_cell_volume   1902.43938033
_cell_formula_units_Z   8
loop_
 _symmetry_equiv_pos_site_id
 _symmetry_equiv_pos_as_xyz
  1  'x, y, z'
loop_
 _atom_site_type_symbol
 _atom_site_label
 _atom_site_symmetry_multiplicity
 _atom_site_fract_x
 _atom_site_fract_y
 _atom_site_fract_z
 _atom_site_occupancy
  Cs  Cs0  1  0.73738243  0.75000000  0.25424647  1
  Cs  Cs1  1  0.25336523  0.75000000  0.74515495  1
  Cs  Cs2  1  0.23738243  0.25000000  0.24575353  1
  Cs  Cs3  1  0.24663477  0.75000000  0.24515495  1
  Cs  Cs4  1  0.26261757  0.25000000  0.74575353  1
  Cs  Cs5  1  0.76261757  0.75000000  0.75424647  1
  Cs  Cs6  1  0.75336523  0.25000000  0.75484505  1
  Cs  Cs7  1  0.74663477  0.25000000  0.25484505  1
  Ca  Ca8  1  0.26199119  0.75000000  0.57576500  1
  Ca  Ca9  1  0.76199119  0.25000000  0.92423500  1
  Ca  Ca10  1  0.27612128  0.75000000  0.43054873  1
  Ca  Ca11  1  0.25736810  0.25000000  0.06815253  1
  Ca  Ca12  1  0.71597444  0.75000000  0.07333376  1
  Ca  Ca13  1  0.74263190  0.75000000  0.93184747  1
  Ca  Ca14  1  0.28402556  0.25000000  0.92666624  1
  Ca  Ca15  1  0.23800881  0.75000000  0.07576500  1
  Ca  Ca16  1  0.78402556  0.75000000  0.57333376  1
  Ca  Ca17  1  0.75736810  0.75000000  0.43184747  1
  Ca  Ca18  1  0.72387872  0.25000000  0.56945127  1
  Ca  Ca19  1  0.21597444  0.25000000  0.42666624  1
  Ca  Ca20  1  0.24263190  0.25000000  0.56815253  1
  Ca  Ca21  1  0.77612128  0.25000000  0.06945127  1
  Ca  Ca22  1  0.22387872  0.75000000  0.93054873  1
  Ca  Ca23  1  0.73800881  0.25000000  0.42423500  1
  Nb  Nb24  1  0.50000000  0.50000000  0.50000000  1
  Nb  Nb25  1  0.48889365  0.49709082  0.36060244  1
  Nb  Nb26  1  0.49671936  0.00412245  0.13951438  1
  Nb  Nb27  1  0.51110635  0.50290918  0.63939756  1
  Nb  Nb28  1  0.50000000  0.50000000  0.00000000  1
  Nb  Nb29  1  0.98889365  0.50290918  0.13939756  1
  Nb  Nb30  1  0.01110635  0.49709082  0.86060244  1
  Nb  Nb31  1  0.50328064  0.99587755  0.86048562  1
  Nb  Nb32  1  0.01110635  0.00290918  0.86060244  1
  Nb  Nb33  1  0.00000000  0.00000000  0.50000000  1
  Nb  Nb34  1  0.51110635  0.99709082  0.63939756  1
  Nb  Nb35  1  0.00000000  0.50000000  0.50000000  1
  Nb  Nb36  1  0.00000000  0.50000000  0.00000000  1
  Nb  Nb37  1  0.99671936  0.99587755  0.36048562  1
  Nb  Nb38  1  0.00328064  0.49587755  0.63951438  1
  Nb  Nb39  1  0.48889365  0.00290918  0.36060244  1
  Nb  Nb40  1  0.98889365  0.99709082  0.13939756  1
  Nb  Nb41  1  0.50328064  0.50412245  0.86048562  1
  Nb  Nb42  1  0.50000000  0.00000000  0.00000000  1
  Nb  Nb43  1  0.00000000  0.00000000  0.00000000  1
  Nb  Nb44  1  0.49671936  0.49587755  0.13951438  1
  Nb  Nb45  1  0.99671936  0.50412245  0.36048562  1
  Nb  Nb46  1  0.00328064  0.00412245  0.63951438  1
  Nb  Nb47  1  0.50000000  0.00000000  0.50000000  1
  O  O48  1  0.98268371  0.02678222  0.69682526  1
  O  O49  1  0.25741815  0.98890384  0.88289304  1
  O  O50  1  0.74258185  0.48890384  0.11710696  1
  O  O51  1  0.25704152  0.98300542  0.63307229  1
  O  O52  1  0.74979754  0.56018108  0.51105558  1
  O  O53  1  0.45246985  0.54748672  0.06106538  1
  O  O54  1  0.07125585  0.75000000  0.00909231  1
  O  O55  1  0.96879733  0.54791982  0.93828558  1
  O  O56  1  0.02193933  0.25000000  0.88283114  1
  O  O57  1  0.04753015  0.95251328  0.56106538  1
  O  O58  1  0.25020246  0.43981892  0.48894442  1
  O  O59  1  0.04753015  0.54748672  0.56106538  1
  O  O60  1  0.51731629  0.02678222  0.19682526  1
  O  O61  1  0.46549358  0.02664305  0.30334757  1
  O  O62  1  0.99674353  0.25000000  0.13452431  1
  O  O63  1  0.25741815  0.51109616  0.88289304  1
  O  O64  1  0.95246985  0.45251328  0.43893462  1
  O  O65  1  0.74295848  0.48300542  0.36692771  1
  O  O66  1  0.01781721  0.25000000  0.61859334  1
  O  O67  1  0.48464523  0.25000000  0.86642402  1
  O  O68  1  0.24979754  0.43981892  0.98894442  1
  O  O69  1  0.01731629  0.97321778  0.30317474  1
  O  O70  1  0.92874415  0.25000000  0.99090769  1
  O  O71  1  0.03450642  0.47335695  0.80334757  1
  O  O72  1  0.54753015  0.04748672  0.93893462  1
  O  O73  1  0.53120267  0.95208018  0.43828558  1
  O  O74  1  0.47806067  0.25000000  0.38283114  1
  O  O75  1  0.96549358  0.97335695  0.19665243  1
  O  O76  1  0.95246985  0.04748672  0.43893462  1
  O  O77  1  0.75704152  0.01699458  0.86692771  1
  O  O78  1  0.03450642  0.02664305  0.80334757  1
  O  O79  1  0.75020246  0.93981892  0.01105558  1
  O  O80  1  0.50325647  0.25000000  0.63452431  1
  O  O81  1  0.49674353  0.75000000  0.36547569  1
  O  O82  1  0.48218279  0.25000000  0.11859334  1
  O  O83  1  0.74258185  0.01109616  0.11710696  1
  O  O84  1  0.75704152  0.48300542  0.86692771  1
  O  O85  1  0.54753015  0.45251328  0.93893462  1
  O  O86  1  0.45767427  0.75000000  0.98330654  1
  O  O87  1  0.46549358  0.47335695  0.30334757  1
  O  O88  1  0.54232573  0.25000000  0.01669346  1
  O  O89  1  0.00325647  0.75000000  0.86547569  1
  O  O90  1  0.98464523  0.75000000  0.63357598  1
  O  O91  1  0.24295848  0.98300542  0.13307229  1
  O  O92  1  0.01731629  0.52678222  0.30317474  1
  O  O93  1  0.75741815  0.48890384  0.61710696  1
  O  O94  1  0.01535477  0.25000000  0.36642402  1
  O  O95  1  0.97806067  0.75000000  0.11716886  1
  O  O96  1  0.53450642  0.52664305  0.69665243  1
  O  O97  1  0.98218279  0.75000000  0.38140666  1
  O  O98  1  0.24258185  0.51109616  0.38289304  1
  O  O99  1  0.48268371  0.52678222  0.80317474  1
  O  O100  1  0.03120267  0.04791982  0.06171442  1
  O  O101  1  0.74979754  0.93981892  0.51105558  1
  O  O102  1  0.46879733  0.04791982  0.56171442  1
  O  O103  1  0.24979754  0.06018108  0.98894442  1
  O  O104  1  0.51535477  0.75000000  0.13357598  1
  O  O105  1  0.74295848  0.01699458  0.36692771  1
  O  O106  1  0.25704152  0.51699458  0.63307229  1
  O  O107  1  0.46879733  0.45208018  0.56171442  1
  O  O108  1  0.04232573  0.75000000  0.48330654  1
  O  O109  1  0.48268371  0.97321778  0.80317474  1
  O  O110  1  0.24295848  0.51699458  0.13307229  1
  O  O111  1  0.52193933  0.75000000  0.61716886  1
  O  O112  1  0.75741815  0.01109616  0.61710696  1
  O  O113  1  0.95767427  0.25000000  0.51669346  1
  O  O114  1  0.98268371  0.47321778  0.69682526  1
  O  O115  1  0.25020246  0.06018108  0.48894442  1
  O  O116  1  0.57125585  0.25000000  0.49090769  1
  O  O117  1  0.51731629  0.47321778  0.19682526  1
  O  O118  1  0.96879733  0.95208018  0.93828558  1
  O  O119  1  0.53120267  0.54791982  0.43828558  1
  O  O120  1  0.51781721  0.75000000  0.88140666  1
  O  O121  1  0.75020246  0.56018108  0.01105558  1
  O  O122  1  0.53450642  0.97335695  0.69665243  1
  O  O123  1  0.45246985  0.95251328  0.06106538  1
  O  O124  1  0.24258185  0.98890384  0.38289304  1
  O  O125  1  0.96549358  0.52664305  0.19665243  1
  O  O126  1  0.42874415  0.75000000  0.50909231  1
  O  O127  1  0.03120267  0.45208018  0.06171442  1
