# generated using pymatgen
data_Cs2Te10Mo9
_symmetry_space_group_name_H-M   'P 1'
_cell_length_a   14.54534775
_cell_length_b   14.54534792
_cell_length_c   14.54534817
_cell_angle_alpha   42.11405330
_cell_angle_beta   42.11405256
_cell_angle_gamma   42.11405228
_symmetry_Int_Tables_number   1
_chemical_formula_structural   Cs2Te10Mo9
_chemical_formula_sum   'Cs4 Te20 Mo18'
_cell_volume   1252.13814837
_cell_formula_units_Z   2
loop_
 _symmetry_equiv_pos_site_id
 _symmetry_equiv_pos_as_xyz
  1  'x, y, z'
loop_
 _atom_site_type_symbol
 _atom_site_label
 _atom_site_symmetry_multiplicity
 _atom_site_fract_x
 _atom_site_fract_y
 _atom_site_fract_z
 _atom_site_occupancy
  Cs  Cs0  1  0.69890059  0.69890059  0.69890059  1
  Cs  Cs1  1  0.30109941  0.30109941  0.30109941  1
  Cs  Cs2  1  0.57582523  0.57582523  0.57582523  1
  Cs  Cs3  1  0.42417477  0.42417477  0.42417477  1
  Te  Te4  1  0.79703053  0.79703053  0.79703053  1
  Te  Te5  1  0.56273276  0.82165183  0.18548948  1
  Te  Te6  1  0.20300135  0.94520105  0.58666956  1
  Te  Te7  1  0.32009947  0.06821483  0.69770035  1
  Te  Te8  1  0.94520105  0.58666956  0.20300135  1
  Te  Te9  1  0.43726724  0.17834817  0.81451052  1
  Te  Te10  1  0.67990053  0.93178517  0.30229965  1
  Te  Te11  1  0.18548948  0.56273276  0.82165183  1
  Te  Te12  1  0.82165183  0.18548948  0.56273276  1
  Te  Te13  1  0.06821483  0.69770035  0.32009947  1
  Te  Te14  1  0.79699865  0.05479895  0.41333044  1
  Te  Te15  1  0.30229965  0.67990053  0.93178517  1
  Te  Te16  1  0.05479895  0.41333044  0.79699865  1
  Te  Te17  1  0.69770035  0.32009947  0.06821483  1
  Te  Te18  1  0.58666956  0.20300135  0.94520105  1
  Te  Te19  1  0.20296947  0.20296947  0.20296947  1
  Te  Te20  1  0.81451052  0.43726724  0.17834817  1
  Te  Te21  1  0.41333044  0.79699865  0.05479895  1
  Te  Te22  1  0.17834817  0.81451052  0.43726724  1
  Te  Te23  1  0.93178517  0.30229965  0.67990053  1
  Mo  Mo24  1  0.93156495  0.22870521  0.10223420  1
  Mo  Mo25  1  0.99094524  0.87196678  0.69933602  1
  Mo  Mo26  1  0.98802256  0.81517588  0.10781136  1
  Mo  Mo27  1  0.77129479  0.89776580  0.06843505  1
  Mo  Mo28  1  0.01197744  0.18482412  0.89218864  1
  Mo  Mo29  1  0.69933602  0.99094524  0.87196678  1
  Mo  Mo30  1  0.81517588  0.10781136  0.98802256  1
  Mo  Mo31  1  0.12803322  0.30066398  0.00905476  1
  Mo  Mo32  1  0.22870521  0.10223420  0.93156495  1
  Mo  Mo33  1  0.30066398  0.00905476  0.12803322  1
  Mo  Mo34  1  0.89218864  0.01197744  0.18482412  1
  Mo  Mo35  1  0.10781136  0.98802256  0.81517588  1
  Mo  Mo36  1  0.18482412  0.89218864  0.01197744  1
  Mo  Mo37  1  0.06843505  0.77129479  0.89776580  1
  Mo  Mo38  1  0.00905476  0.12803322  0.30066398  1
  Mo  Mo39  1  0.89776580  0.06843505  0.77129479  1
  Mo  Mo40  1  0.87196678  0.69933602  0.99094524  1
  Mo  Mo41  1  0.10223420  0.93156495  0.22870521  1
