# generated using pymatgen
data_Cs2Nb4O11
_symmetry_space_group_name_H-M   'P 1'
_cell_length_a   7.60603278
_cell_length_b   10.70163160
_cell_length_c   29.48337769
_cell_angle_alpha   90.00000000
_cell_angle_beta   90.00000000
_cell_angle_gamma   90.00000000
_symmetry_Int_Tables_number   1
_chemical_formula_structural   Cs2Nb4O11
_chemical_formula_sum   'Cs16 Nb32 O88'
_cell_volume   2399.85733658
_cell_formula_units_Z   8
loop_
 _symmetry_equiv_pos_site_id
 _symmetry_equiv_pos_as_xyz
  1  'x, y, z'
loop_
 _atom_site_type_symbol
 _atom_site_label
 _atom_site_symmetry_multiplicity
 _atom_site_fract_x
 _atom_site_fract_y
 _atom_site_fract_z
 _atom_site_occupancy
  Cs  Cs0  1  0.49754342  0.58810861  0.42382582  1
  Cs  Cs1  1  0.99202393  0.10990363  0.30718408  1
  Cs  Cs2  1  0.50797607  0.60990363  0.80718408  1
  Cs  Cs3  1  0.50649100  0.35588294  0.69276972  1
  Cs  Cs4  1  0.99856000  0.87797893  0.42367621  1
  Cs  Cs5  1  0.99350900  0.85588294  0.19276972  1
  Cs  Cs6  1  0.49202393  0.60990363  0.19281592  1
  Cs  Cs7  1  0.49856000  0.37797893  0.07632379  1
  Cs  Cs8  1  0.99754342  0.08810861  0.07617418  1
  Cs  Cs9  1  0.49350900  0.35588294  0.30723028  1
  Cs  Cs10  1  0.00245658  0.08810861  0.92382582  1
  Cs  Cs11  1  0.00144000  0.87797893  0.57632379  1
  Cs  Cs12  1  0.00649100  0.85588294  0.80723028  1
  Cs  Cs13  1  0.50144000  0.37797893  0.92367621  1
  Cs  Cs14  1  0.50245658  0.58810861  0.57617418  1
  Cs  Cs15  1  0.00797607  0.10990363  0.69281592  1
  Nb  Nb16  1  0.73281827  0.24376941  0.18833847  1
  Nb  Nb17  1  0.50725274  0.98478732  0.25047687  1
  Nb  Nb18  1  0.49631430  0.97250068  0.62496709  1
  Nb  Nb19  1  0.50000000  0.96327795  0.00000000  1
  Nb  Nb20  1  0.23317919  0.22447531  0.18824571  1
  Nb  Nb21  1  0.99274726  0.48478732  0.75047687  1
  Nb  Nb22  1  0.50360538  0.99483056  0.12541526  1
  Nb  Nb23  1  0.76718173  0.74376941  0.68833847  1
  Nb  Nb24  1  0.76682081  0.22447531  0.81175429  1
  Nb  Nb25  1  0.23281827  0.74376941  0.31166153  1
  Nb  Nb26  1  0.73317919  0.72447531  0.31175429  1
  Nb  Nb27  1  0.74901265  0.23515900  0.43842904  1
  Nb  Nb28  1  0.26718173  0.24376941  0.81166153  1
  Nb  Nb29  1  0.00000000  0.46327795  0.50000000  1
  Nb  Nb30  1  0.26682081  0.72447531  0.68824571  1
  Nb  Nb31  1  0.00360538  0.49483056  0.37458474  1
  Nb  Nb32  1  0.50000000  0.00367373  0.50000000  1
  Nb  Nb33  1  0.25111108  0.73238980  0.93842250  1
  Nb  Nb34  1  0.75098735  0.73515900  0.93842904  1
  Nb  Nb35  1  0.49639462  0.99483056  0.87458474  1
  Nb  Nb36  1  0.50368570  0.97250068  0.37503291  1
  Nb  Nb37  1  0.00725274  0.48478732  0.24952313  1
  Nb  Nb38  1  0.00368570  0.47250068  0.12496709  1
  Nb  Nb39  1  0.99631430  0.47250068  0.87503291  1
  Nb  Nb40  1  0.25098735  0.23515900  0.56157096  1
  Nb  Nb41  1  0.24901265  0.73515900  0.06157096  1
  Nb  Nb42  1  0.99639462  0.49483056  0.62541526  1
  Nb  Nb43  1  0.00000000  0.50367373  0.00000000  1
  Nb  Nb44  1  0.74888892  0.73238980  0.06157750  1
  Nb  Nb45  1  0.49274726  0.98478732  0.74952313  1
  Nb  Nb46  1  0.24888892  0.23238980  0.43842250  1
  Nb  Nb47  1  0.75111108  0.23238980  0.56157750  1
  O  O48  1  0.18558082  0.60985158  0.63699753  1
  O  O49  1  0.20242844  0.35760861  0.50015530  1
  O  O50  1  0.81522790  0.60874576  0.26605182  1
  O  O51  1  0.68524936  0.85664478  0.36305820  1
  O  O52  1  0.31398577  0.86256149  0.26658807  1
  O  O53  1  0.18524936  0.35664478  0.13694180  1
  O  O54  1  0.20175556  0.60978931  0.99982624  1
  O  O55  1  0.68491170  0.86039211  0.26698703  1
  O  O56  1  0.50040857  0.68387211  0.94645501  1
  O  O57  1  0.29824444  0.10978931  0.49982624  1
  O  O58  1  0.49774047  0.04673639  0.68412704  1
  O  O59  1  0.81538166  0.61172318  0.63701476  1
  O  O60  1  0.00046641  0.78406548  0.94616981  1
  O  O61  1  0.68821344  0.86581541  0.89925366  1
  O  O62  1  0.18884600  0.60060698  0.89978627  1
  O  O63  1  0.79824444  0.60978931  0.00017376  1
  O  O64  1  0.81545584  0.35771020  0.13688740  1
  O  O65  1  0.99959143  0.18387211  0.44645501  1
  O  O66  1  0.81508830  0.36039211  0.76698703  1
  O  O67  1  0.49953359  0.28406548  0.44616981  1
  O  O68  1  0.81559466  0.61047583  0.73368130  1
  O  O69  1  0.81475064  0.35664478  0.86305820  1
  O  O70  1  0.18454416  0.35771020  0.86311260  1
  O  O71  1  0.68440534  0.11047583  0.23368130  1
  O  O72  1  0.99795259  0.17028172  0.18567719  1
  O  O73  1  0.99774047  0.54673639  0.81587296  1
  O  O74  1  0.00195058  0.79857051  0.68511712  1
  O  O75  1  0.79757156  0.35760861  0.49984470  1
  O  O76  1  0.18491170  0.36039211  0.23301297  1
  O  O77  1  0.00248436  0.42318199  0.31522009  1
  O  O78  1  0.81441918  0.60985158  0.36300247  1
  O  O79  1  0.81398577  0.36256149  0.23341193  1
  O  O80  1  0.18440534  0.61047583  0.26631870  1
  O  O81  1  0.18821344  0.36581541  0.60074634  1
  O  O82  1  0.81178656  0.36581541  0.39925366  1
  O  O83  1  0.99885790  0.40502658  0.94812050  1
  O  O84  1  0.49917577  0.06168428  0.94809512  1
  O  O85  1  0.31178656  0.86581541  0.10074634  1
  O  O86  1  0.18601423  0.36256149  0.76658807  1
  O  O87  1  0.18755383  0.36586527  0.39939287  1
  O  O88  1  0.68884600  0.10060698  0.60021373  1
  O  O89  1  0.49804942  0.29857051  0.18511712  1
  O  O90  1  0.50204741  0.67028172  0.68567719  1
  O  O91  1  0.29757156  0.85760861  0.00015530  1
  O  O92  1  0.31475064  0.85664478  0.63694180  1
  O  O93  1  0.68477210  0.10874576  0.76605182  1
  O  O94  1  0.81183861  0.60092838  0.89986151  1
  O  O95  1  0.31183861  0.10092838  0.60013849  1
  O  O96  1  0.50046641  0.28406548  0.55383019  1
  O  O97  1  0.49751564  0.92318199  0.81522009  1
  O  O98  1  0.00225953  0.54673639  0.18412704  1
  O  O99  1  0.68816139  0.10092838  0.39986151  1
  O  O100  1  0.50225953  0.04673639  0.31587296  1
  O  O101  1  0.99953359  0.78406548  0.05383019  1
  O  O102  1  0.18816139  0.60092838  0.10013849  1
  O  O103  1  0.81115400  0.60060698  0.10021373  1
  O  O104  1  0.49959143  0.68387211  0.05354499  1
  O  O105  1  0.31522790  0.10874576  0.23394818  1
  O  O106  1  0.99804942  0.79857051  0.31488288  1
  O  O107  1  0.50114210  0.90502658  0.44812050  1
  O  O108  1  0.18477210  0.60874576  0.73394818  1
  O  O109  1  0.00040857  0.18387211  0.55354499  1
  O  O110  1  0.31508830  0.86039211  0.73301297  1
  O  O111  1  0.99917577  0.56168428  0.55190488  1
  O  O112  1  0.50248436  0.92318199  0.18477991  1
  O  O113  1  0.18461834  0.61172318  0.36298524  1
  O  O114  1  0.00082423  0.56168428  0.44809512  1
  O  O115  1  0.31538166  0.11172318  0.86298524  1
  O  O116  1  0.68601423  0.86256149  0.73341193  1
  O  O117  1  0.49795259  0.67028172  0.31432281  1
  O  O118  1  0.68755383  0.86586527  0.10060713  1
  O  O119  1  0.00204741  0.17028172  0.81432281  1
  O  O120  1  0.68454416  0.85771020  0.63688740  1
  O  O121  1  0.00114210  0.40502658  0.05187950  1
  O  O122  1  0.50195058  0.29857051  0.81488288  1
  O  O123  1  0.31244617  0.86586527  0.89939287  1
  O  O124  1  0.70242844  0.85760861  0.99984470  1
  O  O125  1  0.31441918  0.10985158  0.13699753  1
  O  O126  1  0.31545584  0.85771020  0.36311260  1
  O  O127  1  0.70175556  0.10978931  0.50017376  1
  O  O128  1  0.50082423  0.06168428  0.05190488  1
  O  O129  1  0.68558082  0.10985158  0.86300247  1
  O  O130  1  0.49885790  0.90502658  0.55187950  1
  O  O131  1  0.31115400  0.10060698  0.39978627  1
  O  O132  1  0.68461834  0.11172318  0.13701476  1
  O  O133  1  0.99751564  0.42318199  0.68477991  1
  O  O134  1  0.31559466  0.11047583  0.76631870  1
  O  O135  1  0.81244617  0.36586527  0.60060713  1
