# generated using pymatgen
data_Rb15Hg16
_symmetry_space_group_name_H-M   'P 1'
_cell_length_a   15.33773720
_cell_length_b   15.33773725
_cell_length_c   15.33773724
_cell_angle_alpha   105.04022973
_cell_angle_beta   111.73112050
_cell_angle_gamma   111.73112284
_symmetry_Int_Tables_number   1
_chemical_formula_structural   Rb15Hg16
_chemical_formula_sum   'Rb30 Hg32'
_cell_volume   2765.21848350
_cell_formula_units_Z   2
loop_
 _symmetry_equiv_pos_site_id
 _symmetry_equiv_pos_as_xyz
  1  'x, y, z'
loop_
 _atom_site_type_symbol
 _atom_site_label
 _atom_site_symmetry_multiplicity
 _atom_site_fract_x
 _atom_site_fract_y
 _atom_site_fract_z
 _atom_site_occupancy
  Rb  Rb0  1  0.25563258  0.36223073  0.56891126  1
  Rb  Rb1  1  0.02321155  0.67097955  0.68683440  1
  Rb  Rb2  1  0.20668053  0.06891126  0.31327868  1
  Rb  Rb3  1  0.01585485  0.18683440  0.66362284  1
  Rb  Rb4  1  0.45496109  0.36826864  0.86453037  1
  Rb  Rb5  1  0.95496109  0.09043072  0.08669244  1
  Rb  Rb6  1  0.99626173  0.58669244  0.13173136  1
  Rb  Rb7  1  0.25000000  0.63117859  0.38117859  1
  Rb  Rb8  1  0.25000000  0.87500000  0.62500000  1
  Rb  Rb9  1  0.49626173  0.36453037  0.40956928  1
  Rb  Rb10  1  0.97678845  0.32902045  0.31316560  1
  Rb  Rb11  1  0.25000000  0.11882141  0.86882141  1
  Rb  Rb12  1  0.74436742  0.63776927  0.43108874  1
  Rb  Rb13  1  0.24436742  0.81327868  0.10659815  1
  Rb  Rb14  1  0.75563258  0.18672132  0.89340185  1
  Rb  Rb15  1  0.54503891  0.63173136  0.13546963  1
  Rb  Rb16  1  0.75000000  0.88117859  0.13117859  1
  Rb  Rb17  1  0.04503891  0.90956928  0.91330756  1
  Rb  Rb18  1  0.51585485  0.85223201  0.82902045  1
  Rb  Rb19  1  0.79331947  0.93108874  0.68672132  1
  Rb  Rb20  1  0.47678845  0.16362284  0.64776799  1
  Rb  Rb21  1  0.75000000  0.36882141  0.61882141  1
  Rb  Rb22  1  0.00373827  0.41330756  0.86826864  1
  Rb  Rb23  1  0.75000000  0.12500000  0.37500000  1
  Rb  Rb24  1  0.70668053  0.39340185  0.13776927  1
  Rb  Rb25  1  0.29331947  0.60659815  0.86223073  1
  Rb  Rb26  1  0.48414515  0.14776799  0.17097955  1
  Rb  Rb27  1  0.50373827  0.63546963  0.59043072  1
  Rb  Rb28  1  0.52321155  0.83637716  0.35223201  1
  Rb  Rb29  1  0.98414515  0.81316560  0.33637716  1
  Hg  Hg30  1  0.99665587  0.08150627  0.39957675  1
  Hg  Hg31  1  0.74044088  0.61293987  0.03748737  1
  Hg  Hg32  1  0.25955912  0.38706013  0.96251263  1
  Hg  Hg33  1  0.50796154  0.91583099  0.59735627  1
  Hg  Hg34  1  0.24044088  0.20295351  0.12750101  1
  Hg  Hg35  1  0.00334413  0.91849373  0.60042325  1
  Hg  Hg36  1  0.18192952  0.58485040  0.58150627  1
  Hg  Hg37  1  0.81807048  0.41514960  0.41849373  1
  Hg  Hg38  1  0.49665587  0.09707912  0.91514960  1
  Hg  Hg39  1  0.93585856  0.79799224  0.06078256  1
  Hg  Hg40  1  0.18152528  0.09213055  0.58416901  1
  Hg  Hg41  1  0.99203846  0.58939473  0.40786945  1
  Hg  Hg42  1  0.76279032  0.63786631  0.70200776  1
  Hg  Hg43  1  0.43585856  0.37507600  0.13786631  1
  Hg  Hg44  1  0.50334413  0.90292088  0.08485040  1
  Hg  Hg45  1  0.57545249  0.46251263  0.70295351  1
  Hg  Hg46  1  0.23720968  0.36213369  0.29799224  1
  Hg  Hg47  1  0.73720968  0.43921744  0.87507600  1
  Hg  Hg48  1  0.75955912  0.79704649  0.87249899  1
  Hg  Hg49  1  0.31847472  0.90264373  0.91060527  1
  Hg  Hg50  1  0.56414144  0.62492400  0.86213369  1
  Hg  Hg51  1  0.81847472  0.90786945  0.41583099  1
  Hg  Hg52  1  0.42454751  0.53748737  0.29704649  1
  Hg  Hg53  1  0.26279032  0.56078256  0.12492400  1
  Hg  Hg54  1  0.68192952  0.10042325  0.59707912  1
  Hg  Hg55  1  0.07545249  0.37249899  0.11293987  1
  Hg  Hg56  1  0.00796154  0.41060527  0.59213055  1
  Hg  Hg57  1  0.68152528  0.09735627  0.08939473  1
  Hg  Hg58  1  0.92454751  0.62750101  0.88706013  1
  Hg  Hg59  1  0.06414144  0.20200776  0.93921744  1
  Hg  Hg60  1  0.31807048  0.89957675  0.40292088  1
  Hg  Hg61  1  0.49203846  0.08416901  0.40264373  1
