# generated using pymatgen
data_Gd2Ge2O7
_symmetry_space_group_name_H-M   'P 1'
_cell_length_a   6.85814726
_cell_length_b   6.92528758
_cell_length_c   18.67922731
_cell_angle_alpha   88.59584003
_cell_angle_beta   85.65754569
_cell_angle_gamma   87.85991052
_symmetry_Int_Tables_number   1
_chemical_formula_structural   Gd2Ge2O7
_chemical_formula_sum   'Gd12 Ge12 O42'
_cell_volume   883.79021514
_cell_formula_units_Z   6
loop_
 _symmetry_equiv_pos_site_id
 _symmetry_equiv_pos_as_xyz
  1  'x, y, z'
loop_
 _atom_site_type_symbol
 _atom_site_label
 _atom_site_symmetry_multiplicity
 _atom_site_fract_x
 _atom_site_fract_y
 _atom_site_fract_z
 _atom_site_occupancy
  Gd  Gd0  1  0.09879718  0.10716148  0.08949270  1
  Gd  Gd1  1  0.19732692  0.37026512  0.90803134  1
  Gd  Gd2  1  0.11848377  0.44819033  0.41044416  1
  Gd  Gd3  1  0.48582229  0.46195873  0.73888617  1
  Gd  Gd4  1  0.98873141  0.19966882  0.73871385  1
  Gd  Gd5  1  0.89069771  0.57893658  0.58752835  1
  Gd  Gd6  1  0.01266770  0.80440916  0.25905691  1
  Gd  Gd7  1  0.80560474  0.62831395  0.09122823  1
  Gd  Gd8  1  0.90391366  0.89259857  0.90978611  1
  Gd  Gd9  1  0.38845216  0.85869674  0.60026078  1
  Gd  Gd10  1  0.51957842  0.54495566  0.26192369  1
  Gd  Gd11  1  0.59635805  0.13072499  0.39362699  1
  Ge  Ge12  1  0.70063372  0.38864714  0.91631473  1
  Ge  Ge13  1  0.12264545  0.95604360  0.44436098  1
  Ge  Ge14  1  0.80516869  0.08224353  0.55732730  1
  Ge  Ge15  1  0.30354248  0.60989011  0.08293025  1
  Ge  Ge16  1  0.98937009  0.33592129  0.25749188  1
  Ge  Ge17  1  0.37776789  0.34755206  0.58028505  1
  Ge  Ge18  1  0.62960447  0.65966586  0.42055416  1
  Ge  Ge19  1  0.64785061  0.14029675  0.05923565  1
  Ge  Ge20  1  0.52075680  0.00538423  0.21140565  1
  Ge  Ge21  1  0.01320030  0.66610279  0.74378130  1
  Ge  Ge22  1  0.48160932  0.99647645  0.78665905  1
  Ge  Ge23  1  0.35602958  0.85792433  0.93948743  1
  O  O24  1  0.81825596  0.29250280  0.09006780  1
  O  O25  1  0.17542511  0.42574997  0.04530540  1
  O  O26  1  0.54927787  0.25134108  0.98223818  1
  O  O27  1  0.70550450  0.78458529  0.33707338  1
  O  O28  1  0.45508841  0.74496007  0.01623098  1
  O  O29  1  0.82993822  0.57171277  0.95403943  1
  O  O30  1  0.44661148  0.80195393  0.73232851  1
  O  O31  1  0.15027862  0.48103963  0.78752514  1
  O  O32  1  0.55097877  0.19796754  0.26775681  1
  O  O33  1  0.19345560  0.05356264  0.96806614  1
  O  O34  1  0.19435467  0.44879064  0.52883386  1
  O  O35  1  0.65122692  0.16557363  0.75326617  1
  O  O36  1  0.49140906  0.54143057  0.13740494  1
  O  O37  1  0.48906935  0.83784595  0.46831853  1
  O  O38  1  0.26330334  0.14495926  0.40724539  1
  O  O39  1  0.12526190  0.70330016  0.65744907  1
  O  O40  1  0.81030937  0.94469781  0.03102890  1
  O  O41  1  0.56010932  0.90924884  0.87743067  1
  O  O42  1  0.85221906  0.51901415  0.21214137  1
  O  O43  1  0.18216854  0.48962182  0.27926732  1
  O  O44  1  0.29700657  0.21119975  0.65894260  1
  O  O45  1  0.48422894  0.47122103  0.38868546  1
  O  O46  1  0.94005989  0.87898406  0.78748301  1
  O  O47  1  0.11134983  0.76884321  0.11875949  1
  O  O48  1  0.88969473  0.24557827  0.61574953  1
  O  O49  1  0.10325436  0.77919508  0.38050978  1
  O  O50  1  0.89213460  0.23016511  0.87986892  1
  O  O51  1  0.51948877  0.53554239  0.61198991  1
  O  O52  1  0.26446997  0.12892615  0.81500858  1
  O  O53  1  0.44266020  0.09123617  0.12110583  1
  O  O54  1  0.73965550  0.87602309  0.18297006  1
  O  O55  1  0.54714463  0.18097832  0.53260434  1
  O  O56  1  0.72401630  0.86951089  0.59929411  1
  O  O57  1  0.35234483  0.83656061  0.24522823  1
  O  O58  1  0.06453043  0.12597717  0.21173880  1
  O  O59  1  0.81949510  0.51633490  0.72161447  1
  O  O60  1  0.51202188  0.46010941  0.86262699  1
  O  O61  1  0.87664459  0.08838467  0.46197953  1
  O  O62  1  0.11273332  0.89869709  0.53686769  1
  O  O63  1  0.82010741  0.55494633  0.46976445  1
  O  O64  1  0.87890628  0.29380275  0.34369779  1
  O  O65  1  0.18429238  0.70685671  0.90877974  1
