# generated using pymatgen
data_K3Nb2Cu3S8
_symmetry_space_group_name_H-M   'P 1'
_cell_length_a   5.57363412
_cell_length_b   12.24860491
_cell_length_c   13.63828009
_cell_angle_alpha   68.01062865
_cell_angle_beta   78.20926377
_cell_angle_gamma   76.84882586
_symmetry_Int_Tables_number   1
_chemical_formula_structural   K3Nb2Cu3S8
_chemical_formula_sum   'K6 Nb4 Cu6 S16'
_cell_volume   833.34844427
_cell_formula_units_Z   2
loop_
 _symmetry_equiv_pos_site_id
 _symmetry_equiv_pos_as_xyz
  1  'x, y, z'
loop_
 _atom_site_type_symbol
 _atom_site_label
 _atom_site_symmetry_multiplicity
 _atom_site_fract_x
 _atom_site_fract_y
 _atom_site_fract_z
 _atom_site_occupancy
  K  K0  1  0.65298613  0.20897209  0.40533234  1
  K  K1  1  0.26729056  0.29102791  0.09466766  1
  K  K2  1  0.34701387  0.79102791  0.59466766  1
  K  K3  1  0.00000000  0.50000000  0.50000000  1
  K  K4  1  0.00000000  0.00000000  0.00000000  1
  K  K5  1  0.73270944  0.70897209  0.90533234  1
  Nb  Nb6  1  0.59189491  0.97127495  0.27925779  1
  Nb  Nb7  1  0.15757234  0.47127495  0.77925779  1
  Nb  Nb8  1  0.84242766  0.52872505  0.22074221  1
  Nb  Nb9  1  0.40810509  0.02872505  0.72074221  1
  Cu  Cu10  1  0.09550536  0.96393682  0.28007589  1
  Cu  Cu11  1  0.90449464  0.03606318  0.71992411  1
  Cu  Cu12  1  0.66048193  0.46393682  0.78007589  1
  Cu  Cu13  1  0.27874092  0.25000000  0.75000000  1
  Cu  Cu14  1  0.33951807  0.53606318  0.21992411  1
  Cu  Cu15  1  0.72125908  0.75000000  0.25000000  1
  S  S16  1  0.87367843  0.62541420  0.68664436  1
  S  S17  1  0.74106156  0.97274246  0.61011468  1
  S  S18  1  0.44084511  0.91548507  0.16146046  1
  S  S19  1  0.81426301  0.12541420  0.18664436  1
  S  S20  1  0.18573699  0.87458580  0.81335564  1
  S  S21  1  0.95647789  0.30790712  0.87106393  1
  S  S22  1  0.48220936  0.41548507  0.66146046  1
  S  S23  1  0.51779064  0.58451493  0.33853954  1
  S  S24  1  0.86455105  0.80790712  0.37106393  1
  S  S25  1  0.67608130  0.47274246  0.11011468  1
  S  S26  1  0.55915489  0.08451493  0.83853954  1
  S  S27  1  0.25893844  0.02725754  0.38988532  1
  S  S28  1  0.12632157  0.37458580  0.31335564  1
  S  S29  1  0.32391870  0.52725754  0.88988532  1
  S  S30  1  0.13544895  0.19209288  0.62893607  1
  S  S31  1  0.04352211  0.69209288  0.12893607  1
