# generated using pymatgen
data_Nd2Fe17H3
_symmetry_space_group_name_H-M   'P 1'
_cell_length_a   6.46340656
_cell_length_b   6.46340656
_cell_length_c   6.46340616
_cell_angle_alpha   84.43531121
_cell_angle_beta   84.43531121
_cell_angle_gamma   84.43531868
_symmetry_Int_Tables_number   1
_chemical_formula_structural   Nd2Fe17H3
_chemical_formula_sum   'Nd2 Fe17 H3'
_cell_volume   266.42678698
_cell_formula_units_Z   1
loop_
 _symmetry_equiv_pos_site_id
 _symmetry_equiv_pos_as_xyz
  1  'x, y, z'
loop_
 _atom_site_type_symbol
 _atom_site_label
 _atom_site_symmetry_multiplicity
 _atom_site_fract_x
 _atom_site_fract_y
 _atom_site_fract_z
 _atom_site_occupancy
  Nd  Nd0  1  0.65521223  0.65521223  0.65521223  1
  Nd  Nd1  1  0.34478777  0.34478777  0.34478777  1
  Fe  Fe2  1  -0.00000000  -0.00000000  0.50000000  1
  Fe  Fe3  1  -0.00000000  0.50000000  -0.00000000  1
  Fe  Fe4  1  0.50000000  -0.00000000  -0.00000000  1
  Fe  Fe5  1  0.28284140  0.71715860  -0.00000000  1
  Fe  Fe6  1  0.71715860  -0.00000000  0.28284140  1
  Fe  Fe7  1  0.00000000  0.28284140  0.71715860  1
  Fe  Fe8  1  0.28284140  0.00000000  0.71715860  1
  Fe  Fe9  1  -0.00000000  0.71715860  0.28284140  1
  Fe  Fe10  1  0.71715860  0.28284140  -0.00000000  1
  Fe  Fe11  1  0.34121357  0.34121357  0.85023311  1
  Fe  Fe12  1  0.34121357  0.85023311  0.34121357  1
  Fe  Fe13  1  0.85023311  0.34121357  0.34121357  1
  Fe  Fe14  1  0.65878643  0.65878643  0.14976689  1
  Fe  Fe15  1  0.65878643  0.14976689  0.65878643  1
  Fe  Fe16  1  0.14976689  0.65878643  0.65878643  1
  Fe  Fe17  1  0.90254625  0.90254625  0.90254625  1
  Fe  Fe18  1  0.09745375  0.09745375  0.09745375  1
  H  H19  1  0.50000000  0.50000000  -0.00000000  1
  H  H20  1  0.50000000  -0.00000000  0.50000000  1
  H  H21  1  -0.00000000  0.50000000  0.50000000  1
