# generated using pymatgen
data_Tl3Ag3(SbS3)2
_symmetry_space_group_name_H-M   'P 1'
_cell_length_a   11.53770816
_cell_length_b   11.94602276
_cell_length_c   12.14193049
_cell_angle_alpha   90.00000000
_cell_angle_beta   90.00000000
_cell_angle_gamma   117.16930931
_symmetry_Int_Tables_number   1
_chemical_formula_structural   Tl3Ag3(SbS3)2
_chemical_formula_sum   'Tl12 Ag12 Sb8 S24'
_cell_volume   1488.86468060
_cell_formula_units_Z   4
loop_
 _symmetry_equiv_pos_site_id
 _symmetry_equiv_pos_as_xyz
  1  'x, y, z'
loop_
 _atom_site_type_symbol
 _atom_site_label
 _atom_site_symmetry_multiplicity
 _atom_site_fract_x
 _atom_site_fract_y
 _atom_site_fract_z
 _atom_site_occupancy
  Tl  Tl0  1  0.89684991  0.11188568  0.88477965  1
  Tl  Tl1  1  0.43277989  0.27089707  0.75351441  1
  Tl  Tl2  1  0.22886948  0.03462131  0.48965705  1
  Tl  Tl3  1  0.27113052  0.46537869  0.98965705  1
  Tl  Tl4  1  0.10315009  0.88811432  0.11522035  1
  Tl  Tl5  1  0.39684991  0.61188568  0.61522035  1
  Tl  Tl6  1  0.72886948  0.53462131  0.01034295  1
  Tl  Tl7  1  0.60315009  0.38811432  0.38477965  1
  Tl  Tl8  1  0.77113052  0.96537869  0.51034295  1
  Tl  Tl9  1  0.06722011  0.22910293  0.25351441  1
  Tl  Tl10  1  0.93277989  0.77089707  0.74648559  1
  Tl  Tl11  1  0.56722011  0.72910293  0.24648559  1
  Ag  Ag12  1  0.31894010  0.42903192  0.34657336  1
  Ag  Ag13  1  0.54781426  0.07459576  0.36515529  1
  Ag  Ag14  1  0.95218574  0.42540424  0.86515529  1
  Ag  Ag15  1  0.04781426  0.57459576  0.13484471  1
  Ag  Ag16  1  0.42237779  0.94921415  0.12511954  1
  Ag  Ag17  1  0.92237779  0.44921415  0.37488046  1
  Ag  Ag18  1  0.57762221  0.05078585  0.87488046  1
  Ag  Ag19  1  0.07762221  0.55078585  0.62511954  1
  Ag  Ag20  1  0.68105990  0.57096808  0.65342664  1
  Ag  Ag21  1  0.45218574  0.92540424  0.63484471  1
  Ag  Ag22  1  0.81894010  0.92903192  0.15342664  1
  Ag  Ag23  1  0.18105990  0.07096808  0.84657336  1
  Sb  Sb24  1  0.09022566  0.25946953  0.59033934  1
  Sb  Sb25  1  0.59022566  0.75946953  0.90966066  1
  Sb  Sb26  1  0.74674777  0.24470876  0.14664668  1
  Sb  Sb27  1  0.25325223  0.75529124  0.85335332  1
  Sb  Sb28  1  0.90977434  0.74053047  0.40966066  1
  Sb  Sb29  1  0.40977434  0.24053047  0.09033934  1
  Sb  Sb30  1  0.24674777  0.74470876  0.35335332  1
  Sb  Sb31  1  0.75325223  0.25529124  0.64664668  1
  S  S32  1  0.63013779  0.90096790  0.75116223  1
  S  S33  1  0.70410207  0.28805063  0.83687405  1
  S  S34  1  0.68365912  0.67814301  0.46823054  1
  S  S35  1  0.31634088  0.32185699  0.53176946  1
  S  S36  1  0.81634088  0.82185699  0.96823054  1
  S  S37  1  0.82891242  0.47403832  0.58210352  1
  S  S38  1  0.47177637  0.84289792  0.42579977  1
  S  S39  1  0.67108758  0.02596168  0.08210352  1
  S  S40  1  0.29589793  0.71194937  0.16312595  1
  S  S41  1  0.05252597  0.05665898  0.67878255  1
  S  S42  1  0.32891242  0.97403832  0.91789648  1
  S  S43  1  0.36986221  0.09903210  0.24883777  1
  S  S44  1  0.17108758  0.52596168  0.41789648  1
  S  S45  1  0.18365912  0.17814301  0.03176946  1
  S  S46  1  0.13013779  0.40096790  0.74883777  1
  S  S47  1  0.86986221  0.59903210  0.25116223  1
  S  S48  1  0.02822363  0.65710208  0.92579977  1
  S  S49  1  0.52822363  0.15710208  0.57420023  1
  S  S50  1  0.79589793  0.21194937  0.33687405  1
  S  S51  1  0.94747403  0.94334102  0.32121745  1
  S  S52  1  0.20410207  0.78805063  0.66312595  1
  S  S53  1  0.44747403  0.44334102  0.17878255  1
  S  S54  1  0.97177637  0.34289792  0.07420023  1
  S  S55  1  0.55252597  0.55665898  0.82121745  1
