# generated using pymatgen
data_Cs2U(SiO4)2
_symmetry_space_group_name_H-M   'P 1'
_cell_length_a   13.71429459
_cell_length_b   13.71429406
_cell_length_c   13.71429373
_cell_angle_alpha   105.52022700
_cell_angle_beta   110.97577958
_cell_angle_gamma   111.99021213
_symmetry_Int_Tables_number   1
_chemical_formula_structural   Cs2U(SiO4)2
_chemical_formula_sum   'Cs16 U8 Si16 O64'
_cell_volume   1978.44553875
_cell_formula_units_Z   8
loop_
 _symmetry_equiv_pos_site_id
 _symmetry_equiv_pos_as_xyz
  1  'x, y, z'
loop_
 _atom_site_type_symbol
 _atom_site_label
 _atom_site_symmetry_multiplicity
 _atom_site_fract_x
 _atom_site_fract_y
 _atom_site_fract_z
 _atom_site_occupancy
  Cs  Cs0  1  0.75000000  0.90067975  0.65067975  1
  Cs  Cs1  1  0.75000000  0.14804198  0.89804198  1
  Cs  Cs2  1  0.37967932  0.75000000  0.62967932  1
  Cs  Cs3  1  0.25000000  0.35195802  0.60195802  1
  Cs  Cs4  1  0.75000000  0.40067975  0.15067975  1
  Cs  Cs5  1  0.25000000  0.59932025  0.84932025  1
  Cs  Cs6  1  0.10633811  0.85633811  0.75000000  1
  Cs  Cs7  1  0.25000000  0.85195802  0.10195802  1
  Cs  Cs8  1  0.12032068  0.25000000  0.87032068  1
  Cs  Cs9  1  0.25000000  0.09932025  0.34932025  1
  Cs  Cs10  1  0.87967932  0.75000000  0.12967932  1
  Cs  Cs11  1  0.89366189  0.14366189  0.25000000  1
  Cs  Cs12  1  0.60633811  0.35633811  0.75000000  1
  Cs  Cs13  1  0.75000000  0.64804198  0.39804198  1
  Cs  Cs14  1  0.62032068  0.25000000  0.37032068  1
  Cs  Cs15  1  0.39366189  0.64366189  0.25000000  1
  U  U16  1  0.00000000  0.50000000  0.50000000  1
  U  U17  1  0.50000000  0.00000000  0.50000000  1
  U  U18  1  0.50000000  0.00000000  0.00000000  1
  U  U19  1  0.50000000  0.50000000  0.00000000  1
  U  U20  1  0.00000000  0.00000000  0.00000000  1
  U  U21  1  0.00000000  0.50000000  0.00000000  1
  U  U22  1  0.50000000  0.50000000  0.50000000  1
  U  U23  1  0.00000000  0.00000000  0.50000000  1
  Si  Si24  1  0.43948087  0.19330469  0.89223475  1
  Si  Si25  1  0.81513448  0.28823867  0.69252459  1
  Si  Si26  1  0.18486552  0.71176133  0.30747541  1
  Si  Si27  1  0.30106994  0.04724613  0.60776525  1
  Si  Si28  1  0.40428591  0.37739010  0.19252459  1
  Si  Si29  1  0.09571409  0.78823867  0.47310419  1
  Si  Si30  1  0.56051913  0.80669531  0.10776525  1
  Si  Si31  1  0.68486552  0.87739010  0.97310419  1
  Si  Si32  1  0.90428591  0.21176133  0.52689581  1
  Si  Si33  1  0.19893006  0.30669531  0.24617618  1
  Si  Si34  1  0.93948087  0.54724613  0.74617618  1
  Si  Si35  1  0.69893006  0.95275387  0.39223475  1
  Si  Si36  1  0.06051913  0.45275387  0.25382382  1
  Si  Si37  1  0.59571409  0.62260990  0.80747541  1
  Si  Si38  1  0.80106994  0.69330469  0.75382382  1
  Si  Si39  1  0.31513448  0.12260990  0.02689581  1
  O  O40  1  0.12639689  0.67565329  0.16755595  1
  O  O41  1  0.55066667  0.96895837  0.62840909  1
  O  O42  1  0.82509971  0.40689864  0.67587827  1
  O  O43  1  0.61711220  0.86711220  0.25000000  1
  O  O44  1  0.01229685  0.56920036  0.67503737  1
  O  O45  1  0.60583701  0.93079964  0.44309648  1
  O  O46  1  0.88288780  0.63288780  0.75000000  1
  O  O47  1  0.05066667  0.92225758  0.08170830  1
  O  O48  1  0.87360311  0.32434671  0.83244405  1
  O  O49  1  0.44933333  0.03104163  0.37159091  1
  O  O50  1  0.48770315  0.66274052  0.05690352  1
  O  O51  1  0.89955170  0.25000000  0.64955170  1
  O  O52  1  0.32871759  0.81678185  0.38840074  1
  O  O53  1  0.07161889  0.68321815  0.51193574  1
  O  O54  1  0.51229685  0.33725948  0.94309648  1
  O  O55  1  0.98770315  0.43079964  0.32496263  1
  O  O56  1  0.57161889  0.55968315  0.88840074  1
  O  O57  1  0.19901996  0.08033837  0.54826149  1
  O  O58  1  0.82871759  0.94031685  0.01193574  1
  O  O59  1  0.84054928  0.46895837  0.41829170  1
  O  O60  1  0.26897962  0.35077856  0.17587827  1
  O  O61  1  0.46792312  0.84924154  0.04826149  1
  O  O62  1  0.13487323  0.48519509  0.02242540  1
  O  O63  1  0.92838111  0.31678185  0.48806426  1
  O  O64  1  0.53207688  0.15075846  0.95173851  1
  O  O65  1  0.00809734  0.17565329  0.54925641  1
  O  O66  1  0.39416299  0.06920036  0.55690352  1
  O  O67  1  0.03723031  0.01480491  0.64967815  1
  O  O68  1  0.30098004  0.34924154  0.38131842  1
  O  O69  1  0.67128241  0.18321815  0.61159926  1
  O  O70  1  0.32509971  0.14922144  0.91820106  1
  O  O71  1  0.96792312  0.41966163  0.11868158  1
  O  O72  1  0.10583701  0.16274052  0.17503737  1
  O  O73  1  0.86512677  0.51480491  0.97757460  1
  O  O74  1  0.37360311  0.04115906  0.04925641  1
  O  O75  1  0.60044830  0.75000000  0.85044830  1
  O  O76  1  0.99190266  0.82434671  0.45074359  1
  O  O77  1  0.46276969  0.61244783  0.47757460  1
  O  O78  1  0.03207688  0.58033837  0.88131842  1
  O  O79  1  0.65945072  0.57774242  0.12840909  1
  O  O80  1  0.69901996  0.65075846  0.61868158  1
  O  O81  1  0.17128241  0.05968315  0.98806426  1
  O  O82  1  0.38288780  0.13288780  0.75000000  1
  O  O83  1  0.39955170  0.25000000  0.14955170  1
  O  O84  1  0.17490029  0.59310136  0.32412173  1
  O  O85  1  0.34054928  0.42225758  0.87159091  1
  O  O86  1  0.36512677  0.88755217  0.85032185  1
  O  O87  1  0.62639689  0.95884094  0.95074359  1
  O  O88  1  0.53723031  0.38755217  0.52242540  1
  O  O89  1  0.96276969  0.98519509  0.35032185  1
  O  O90  1  0.80098004  0.91966163  0.45173851  1
  O  O91  1  0.42838111  0.44031685  0.11159926  1
  O  O92  1  0.15945072  0.53104163  0.58170830  1
  O  O93  1  0.76897962  0.09310136  0.41820106  1
  O  O94  1  0.11711220  0.36711220  0.25000000  1
  O  O95  1  0.94933333  0.07774242  0.91829170  1
  O  O96  1  0.89416299  0.83725948  0.82496263  1
  O  O97  1  0.73102038  0.64922144  0.82412173  1
  O  O98  1  0.67490029  0.85077856  0.08179894  1
  O  O99  1  0.63487323  0.11244783  0.14967815  1
  O  O100  1  0.50809734  0.45884094  0.33244405  1
  O  O101  1  0.49190266  0.54115906  0.66755595  1
  O  O102  1  0.10044830  0.75000000  0.35044830  1
  O  O103  1  0.23102038  0.90689864  0.58179894  1
