# generated using pymatgen
data_LiEu2Si3
_symmetry_space_group_name_H-M   'P 1'
_cell_length_a   4.48662960
_cell_length_b   7.83001907
_cell_length_c   7.98182811
_cell_angle_alpha   104.24028575
_cell_angle_beta   106.34774588
_cell_angle_gamma   89.97712288
_symmetry_Int_Tables_number   1
_chemical_formula_structural   LiEu2Si3
_chemical_formula_sum   'Li2 Eu4 Si6'
_cell_volume   260.08524952
_cell_formula_units_Z   2
loop_
 _symmetry_equiv_pos_site_id
 _symmetry_equiv_pos_as_xyz
  1  'x, y, z'
loop_
 _atom_site_type_symbol
 _atom_site_label
 _atom_site_symmetry_multiplicity
 _atom_site_fract_x
 _atom_site_fract_y
 _atom_site_fract_z
 _atom_site_occupancy
  Eu  Eu0  1  0.62209862  0.93502028  0.24428415  1
  Eu  Eu1  1  0.38667081  0.56919809  0.77339554  1
  Eu  Eu2  1  0.37790138  0.06497972  0.75571585  1
  Eu  Eu3  1  0.61332919  0.43080191  0.22660446  1
  Li  Li4  1  0.21335231  0.26524660  0.42672304  1
  Li  Li5  1  0.78664769  0.73475340  0.57327696  1
  Si  Si6  1  0.79562284  0.28473205  0.59160924  1
  Si  Si7  1  0.95496342  0.85349895  0.91112217  1
  Si  Si8  1  0.04503658  0.14650105  0.08887783  1
  Si  Si9  1  0.95394984  0.35064052  0.90800164  1
  Si  Si10  1  0.20437716  0.71526795  0.40839076  1
  Si  Si11  1  0.04605016  0.64935948  0.09199836  1
