# generated using pymatgen
data_Ho4Ga21Ni10
_symmetry_space_group_name_H-M   'P 1'
_cell_length_a   4.06821840
_cell_length_b   10.65206712
_cell_length_c   12.92839548
_cell_angle_alpha   81.14625151
_cell_angle_beta   80.96220730
_cell_angle_gamma   78.97482590
_symmetry_Int_Tables_number   1
_chemical_formula_structural   Ho4Ga21Ni10
_chemical_formula_sum   'Ho4 Ga21 Ni10'
_cell_volume   538.63116794
_cell_formula_units_Z   1
loop_
 _symmetry_equiv_pos_site_id
 _symmetry_equiv_pos_as_xyz
  1  'x, y, z'
loop_
 _atom_site_type_symbol
 _atom_site_label
 _atom_site_symmetry_multiplicity
 _atom_site_fract_x
 _atom_site_fract_y
 _atom_site_fract_z
 _atom_site_occupancy
  Ho  Ho0  1  0.76625794  0.14228021  0.32254270  1
  Ho  Ho1  1  0.11568728  0.59700814  0.16694238  1
  Ho  Ho2  1  0.88336941  0.40293511  0.83263116  1
  Ho  Ho3  1  0.23110449  0.85753891  0.67741259  1
  Ga  Ga4  1  0.11256895  0.81874355  0.94771882  1
  Ga  Ga5  1  0.00281876  0.58091017  0.40891839  1
  Ga  Ga6  1  0.61466634  0.97286334  0.79560348  1
  Ga  Ga7  1  0.29719573  0.40391689  0.00174309  1
  Ga  Ga8  1  0.20302206  0.09937847  0.49602999  1
  Ga  Ga9  1  0.62184498  0.44748526  0.30587584  1
  Ga  Ga10  1  0.38058123  0.02894048  0.20341713  1
  Ga  Ga11  1  0.60256022  0.29345812  0.50362583  1
  Ga  Ga12  1  0.37785381  0.55192725  0.69412465  1
  Ga  Ga13  1  0.24460681  0.30325482  0.20529941  1
  Ga  Ga14  1  0.99803776  0.41827460  0.59109917  1
  Ga  Ga15  1  0.06980884  0.16067599  0.70446340  1
  Ga  Ga16  1  0.79911647  0.89796290  0.50270248  1
  Ga  Ga17  1  0.93270028  0.83794194  0.29459672  1
  Ga  Ga18  1  0.49652860  0.99984927  0.99985134  1
  Ga  Ga19  1  0.46135521  0.20982193  0.87073374  1
  Ga  Ga20  1  0.88123772  0.18136499  0.05353335  1
  Ga  Ga21  1  0.70095049  0.59694373  0.99797014  1
  Ga  Ga22  1  0.53522419  0.79075567  0.13026844  1
  Ga  Ga23  1  0.39713775  0.70541661  0.49647356  1
  Ga  Ga24  1  0.75214895  0.69772219  0.79487339  1
  Ni  Ni25  1  0.49975598  0.68649680  0.31238154  1
  Ni  Ni26  1  0.96959776  0.94271673  0.10661108  1
  Ni  Ni27  1  0.02369349  0.05762015  0.89369407  1
  Ni  Ni28  1  0.65702751  0.07951928  0.61075270  1
  Ni  Ni29  1  0.13036658  0.34239280  0.39659816  1
  Ni  Ni30  1  0.74918882  0.38603651  0.11361476  1
  Ni  Ni31  1  0.24776276  0.61489123  0.88606888  1
  Ni  Ni32  1  0.86886841  0.65651051  0.60393847  1
  Ni  Ni33  1  0.34697077  0.91850237  0.38745447  1
  Ni  Ni34  1  0.50334566  0.31207606  0.68788668  1
