# generated using pymatgen
data_La4CdCo
_symmetry_space_group_name_H-M   'P 1'
_cell_length_a   9.98337568
_cell_length_b   9.98337503
_cell_length_c   9.98337520
_cell_angle_alpha   59.99999618
_cell_angle_beta   59.99999834
_cell_angle_gamma   59.99999863
_symmetry_Int_Tables_number   1
_chemical_formula_structural   La4CdCo
_chemical_formula_sum   'La16 Cd4 Co4'
_cell_volume   703.58597351
_cell_formula_units_Z   4
loop_
 _symmetry_equiv_pos_site_id
 _symmetry_equiv_pos_as_xyz
  1  'x, y, z'
loop_
 _atom_site_type_symbol
 _atom_site_label
 _atom_site_symmetry_multiplicity
 _atom_site_fract_x
 _atom_site_fract_y
 _atom_site_fract_z
 _atom_site_occupancy
  La  La0  1  0.55937144  0.94062856  0.94062856  1
  La  La1  1  0.94062856  0.55937144  0.94062856  1
  La  La2  1  0.94062856  0.94062856  0.55937144  1
  La  La3  1  0.81041206  0.18958794  0.18958794  1
  La  La4  1  0.34554362  0.34554362  0.96336913  1
  La  La5  1  0.18958794  0.18958794  0.81041206  1
  La  La6  1  0.34554362  0.96336913  0.34554362  1
  La  La7  1  0.96336913  0.34554362  0.34554362  1
  La  La8  1  0.18958794  0.81041206  0.18958794  1
  La  La9  1  0.18958794  0.81041206  0.81041206  1
  La  La10  1  0.81041206  0.18958794  0.81041206  1
  La  La11  1  0.55937144  0.55937144  0.94062856  1
  La  La12  1  0.94062856  0.55937144  0.55937144  1
  La  La13  1  0.34554362  0.34554362  0.34554362  1
  La  La14  1  0.81041206  0.81041206  0.18958794  1
  La  La15  1  0.55937144  0.94062856  0.55937144  1
  Cd  Cd16  1  0.26383782  0.57872073  0.57872073  1
  Cd  Cd17  1  0.57872073  0.26383782  0.57872073  1
  Cd  Cd18  1  0.57872073  0.57872073  0.26383782  1
  Cd  Cd19  1  0.57872073  0.57872073  0.57872073  1
  Co  Co20  1  0.57943988  0.14018671  0.14018671  1
  Co  Co21  1  0.14018671  0.14018671  0.57943988  1
  Co  Co22  1  0.14018671  0.14018671  0.14018671  1
  Co  Co23  1  0.14018671  0.57943988  0.14018671  1
