# generated using pymatgen
data_ZrMn2Ag4(MoO4)6
_symmetry_space_group_name_H-M   'P 1'
_cell_length_a   5.48845703
_cell_length_b   19.31785516
_cell_length_c   21.81884436
_cell_angle_alpha   90.00000000
_cell_angle_beta   90.00000000
_cell_angle_gamma   90.00000000
_symmetry_Int_Tables_number   1
_chemical_formula_structural   ZrMn2Ag4(MoO4)6
_chemical_formula_sum   'Zr4 Mn8 Ag16 Mo24 O96'
_cell_volume   2313.34772885
_cell_formula_units_Z   4
loop_
 _symmetry_equiv_pos_site_id
 _symmetry_equiv_pos_as_xyz
  1  'x, y, z'
loop_
 _atom_site_type_symbol
 _atom_site_label
 _atom_site_symmetry_multiplicity
 _atom_site_fract_x
 _atom_site_fract_y
 _atom_site_fract_z
 _atom_site_occupancy
  Zr  Zr0  1  0.64941718  0.00027501  0.63212403  1
  Zr  Zr1  1  0.85058282  0.99972499  0.13212403  1
  Zr  Zr2  1  0.35058282  0.50027501  0.86787597  1
  Zr  Zr3  1  0.14941718  0.49972499  0.36787597  1
  Mn  Mn4  1  0.48359003  0.96246568  0.88290148  1
  Mn  Mn5  1  0.52173831  0.26694437  0.22003395  1
  Mn  Mn6  1  0.47826169  0.76694437  0.27996605  1
  Mn  Mn7  1  0.01640997  0.03753432  0.38290148  1
  Mn  Mn8  1  0.02173831  0.23305563  0.77996605  1
  Mn  Mn9  1  0.98359003  0.53753432  0.11709852  1
  Mn  Mn10  1  0.97826169  0.73305563  0.72003395  1
  Mn  Mn11  1  0.51640997  0.46246568  0.61709852  1
  Ag  Ag12  1  0.48745339  0.78732394  0.81049163  1
  Ag  Ag13  1  0.00689050  0.22094265  0.45886000  1
  Ag  Ag14  1  0.01012754  0.22347449  0.95712695  1
  Ag  Ag15  1  0.49847371  0.92107186  0.38390549  1
  Ag  Ag16  1  0.50152629  0.42107186  0.11609451  1
  Ag  Ag17  1  0.98987246  0.72347449  0.54287305  1
  Ag  Ag18  1  0.51012754  0.27652551  0.04287305  1
  Ag  Ag19  1  0.99310950  0.72094265  0.04114000  1
  Ag  Ag20  1  0.01254661  0.21267606  0.31049163  1
  Ag  Ag21  1  0.99847371  0.57892814  0.61609451  1
  Ag  Ag22  1  0.00152629  0.07892814  0.88390549  1
  Ag  Ag23  1  0.98745339  0.71267606  0.18950837  1
  Ag  Ag24  1  0.50689050  0.27905735  0.54114000  1
  Ag  Ag25  1  0.49310950  0.77905735  0.95886000  1
  Ag  Ag26  1  0.48987246  0.77652551  0.45712695  1
  Ag  Ag27  1  0.51254661  0.28732394  0.68950837  1
  Mo  Mo28  1  0.00363680  0.17533719  0.62531094  1
  Mo  Mo29  1  0.46605438  0.81312975  0.63517782  1
  Mo  Mo30  1  0.50363680  0.32466281  0.37468906  1
  Mo  Mo31  1  0.50238331  0.09249912  0.99984965  1
  Mo  Mo32  1  0.98837232  0.39657030  0.22940138  1
  Mo  Mo33  1  0.45768108  0.58651366  0.22357578  1
  Mo  Mo34  1  0.99761669  0.90750088  0.49984965  1
  Mo  Mo35  1  0.95768108  0.91348634  0.77642422  1
  Mo  Mo36  1  0.49761669  0.59249912  0.50015035  1
  Mo  Mo37  1  0.01162768  0.89657030  0.27059862  1
  Mo  Mo38  1  0.04231892  0.41348634  0.72357578  1
  Mo  Mo39  1  0.51162768  0.60342970  0.72940138  1
  Mo  Mo40  1  0.49163780  0.08643940  0.48448761  1
  Mo  Mo41  1  0.99163780  0.41356060  0.51551239  1
  Mo  Mo42  1  0.49636320  0.82466281  0.12531094  1
  Mo  Mo43  1  0.96605438  0.68687025  0.36482218  1
  Mo  Mo44  1  0.50836220  0.58643940  0.01551239  1
  Mo  Mo45  1  0.48837232  0.10342970  0.77059862  1
  Mo  Mo46  1  0.53394562  0.31312975  0.86482218  1
  Mo  Mo47  1  0.00238331  0.40750088  0.00015035  1
  Mo  Mo48  1  0.54231892  0.08651366  0.27642422  1
  Mo  Mo49  1  0.00836220  0.91356060  0.98448761  1
  Mo  Mo50  1  0.03394562  0.18687025  0.13517782  1
  Mo  Mo51  1  0.99636320  0.67533719  0.87468906  1
  O  O52  1  0.24085057  0.36884790  0.04371116  1
  O  O53  1  0.30480846  0.15976995  0.02501905  1
  O  O54  1  0.04895844  0.95710262  0.05957311  1
  O  O55  1  0.95104156  0.45710262  0.44042689  1
  O  O56  1  0.83156183  0.46625251  0.68173986  1
  O  O57  1  0.12198946  0.45409254  0.93338277  1
  O  O58  1  0.74085057  0.13115210  0.95628884  1
  O  O59  1  0.94267408  0.59142607  0.36475091  1
  O  O60  1  0.89201555  0.33308603  0.74017445  1
  O  O61  1  0.66843817  0.53374749  0.18173986  1
  O  O62  1  0.69506570  0.31734885  0.43999426  1
  O  O63  1  0.44267408  0.90857393  0.63524909  1
  O  O64  1  0.86792896  0.95233316  0.32559521  1
  O  O65  1  0.68476551  0.03129441  0.43952166  1
  O  O66  1  0.62198946  0.04590746  0.06661723  1
  O  O67  1  0.19519154  0.84023005  0.52501905  1
  O  O68  1  0.16843817  0.96625251  0.81826014  1
  O  O69  1  0.93959516  0.44704045  0.29932306  1
  O  O70  1  0.85373598  0.20798018  0.20145315  1
  O  O71  1  0.36792896  0.54766684  0.67440479  1
  O  O72  1  0.43959516  0.05295955  0.70067694  1
  O  O73  1  0.63207104  0.04766684  0.82559521  1
  O  O74  1  0.13913911  0.71786665  0.42752021  1
  O  O75  1  0.45104156  0.04289738  0.55957311  1
  O  O76  1  0.13207104  0.45233316  0.17440479  1
  O  O77  1  0.54895844  0.54289738  0.94042689  1
  O  O78  1  0.63913911  0.78213335  0.57247979  1
  O  O79  1  0.30493430  0.81734885  0.06000574  1
  O  O80  1  0.18476551  0.46870559  0.56047834  1
  O  O81  1  0.78318360  0.63804909  0.69283590  1
  O  O82  1  0.33077942  0.03752623  0.94785804  1
  O  O83  1  0.33797737  0.66351166  0.00609633  1
  O  O84  1  0.69566790  0.89432235  0.82418789  1
  O  O85  1  0.19506570  0.18265115  0.56000574  1
  O  O86  1  0.21681640  0.13804909  0.80716410  1
  O  O87  1  0.77916693  0.60653868  0.05982055  1
  O  O88  1  0.55732592  0.40857393  0.86475091  1
  O  O89  1  0.72083307  0.39346132  0.55982055  1
  O  O90  1  0.31773930  0.23442844  0.14171143  1
  O  O91  1  0.35373598  0.29201982  0.79854685  1
  O  O92  1  0.82066856  0.70158972  0.80796122  1
  O  O93  1  0.25914943  0.63115210  0.54371116  1
  O  O94  1  0.22083307  0.10653868  0.44017945  1
  O  O95  1  0.67933144  0.29841028  0.30796122  1
  O  O96  1  0.80480846  0.34023005  0.97498095  1
  O  O97  1  0.87801054  0.95409254  0.56661723  1
  O  O98  1  0.88238471  0.08724636  0.63238307  1
  O  O99  1  0.64626402  0.79201982  0.70145315  1
  O  O100  1  0.05732592  0.09142607  0.13524909  1
  O  O101  1  0.73836930  0.76362821  0.11727671  1
  O  O102  1  0.66202263  0.16351166  0.49390367  1
  O  O103  1  0.86117251  0.95676979  0.70647891  1
  O  O104  1  0.80493430  0.68265115  0.93999426  1
  O  O105  1  0.13882749  0.45676979  0.79352109  1
  O  O106  1  0.69519154  0.65976995  0.47498095  1
  O  O107  1  0.56040484  0.55295955  0.79932306  1
  O  O108  1  0.30043147  0.67114344  0.74560310  1
  O  O109  1  0.86086089  0.21786665  0.07247979  1
  O  O110  1  0.83077942  0.46247377  0.05214196  1
  O  O111  1  0.80043147  0.82885656  0.25439690  1
  O  O112  1  0.10798445  0.83308603  0.75982555  1
  O  O113  1  0.18226070  0.76557156  0.64171143  1
  O  O114  1  0.33156183  0.03374749  0.31826014  1
  O  O115  1  0.06040484  0.94704045  0.20067694  1
  O  O116  1  0.63882749  0.04323021  0.20647891  1
  O  O117  1  0.19566790  0.60567765  0.17581211  1
  O  O118  1  0.30433210  0.39432335  0.67581211  1
  O  O119  1  0.76163070  0.23637179  0.61727671  1
  O  O120  1  0.68226070  0.73442844  0.35828857  1
  O  O121  1  0.37801054  0.54590746  0.43338277  1
  O  O122  1  0.26163070  0.26362821  0.38272329  1
  O  O123  1  0.28318360  0.86195091  0.30716410  1
  O  O124  1  0.14626402  0.70798018  0.29854685  1
  O  O125  1  0.16922058  0.96247377  0.44785804  1
  O  O126  1  0.81773930  0.26557156  0.85828857  1
  O  O127  1  0.32066856  0.79841028  0.19203878  1
  O  O128  1  0.75914943  0.86884790  0.45628884  1
  O  O129  1  0.16202263  0.33648834  0.50609633  1
  O  O130  1  0.23836930  0.73637179  0.88272329  1
  O  O131  1  0.27916693  0.89346132  0.94017945  1
  O  O132  1  0.36117251  0.54323021  0.29352109  1
  O  O133  1  0.36086089  0.28213335  0.92752021  1
  O  O134  1  0.17933144  0.20158972  0.69203878  1
  O  O135  1  0.83797737  0.83648834  0.99390367  1
  O  O136  1  0.39201555  0.16691397  0.25982555  1
  O  O137  1  0.66922058  0.53752623  0.55214196  1
  O  O138  1  0.19956853  0.32885656  0.24560310  1
  O  O139  1  0.61761529  0.91275364  0.13238307  1
  O  O140  1  0.31523449  0.53129441  0.06047834  1
  O  O141  1  0.60798445  0.66691397  0.24017445  1
  O  O142  1  0.81523449  0.96870559  0.93952166  1
  O  O143  1  0.71681640  0.36195091  0.19283590  1
  O  O144  1  0.38238471  0.41275364  0.36761693  1
  O  O145  1  0.11761529  0.58724636  0.86761693  1
  O  O146  1  0.80433210  0.10567765  0.32418789  1
  O  O147  1  0.69956853  0.17114344  0.75439690  1
