# generated using pymatgen
data_CsLu2Cu3Se5
_symmetry_space_group_name_H-M   'P 1'
_cell_length_a   4.08739106
_cell_length_b   7.61379718
_cell_length_c   17.12074273
_cell_angle_alpha   90.00000000
_cell_angle_beta   90.00000000
_cell_angle_gamma   105.57026997
_symmetry_Int_Tables_number   1
_chemical_formula_structural   CsLu2Cu3Se5
_chemical_formula_sum   'Cs2 Lu4 Cu6 Se10'
_cell_volume   513.25424133
_cell_formula_units_Z   2
loop_
 _symmetry_equiv_pos_site_id
 _symmetry_equiv_pos_as_xyz
  1  'x, y, z'
loop_
 _atom_site_type_symbol
 _atom_site_label
 _atom_site_symmetry_multiplicity
 _atom_site_fract_x
 _atom_site_fract_y
 _atom_site_fract_z
 _atom_site_occupancy
  Cs  Cs0  1  0.93889453  0.87778906  0.75000000  1
  Cs  Cs1  1  0.06110547  0.12221094  0.25000000  1
  Lu  Lu2  1  0.80744817  0.61489633  0.40809149  1
  Lu  Lu3  1  0.80744817  0.61489633  0.09190851  1
  Lu  Lu4  1  0.19255183  0.38510367  0.59190851  1
  Lu  Lu5  1  0.19255183  0.38510367  0.90809149  1
  Cu  Cu6  1  0.34503180  0.69006361  0.25000000  1
  Cu  Cu7  1  0.41777373  0.83554747  0.96663736  1
  Cu  Cu8  1  0.58222627  0.16445253  0.03336264  1
  Cu  Cu9  1  0.65496820  0.30993639  0.75000000  1
  Cu  Cu10  1  0.58222627  0.16445253  0.46663736  1
  Cu  Cu11  1  0.41777373  0.83554747  0.53336264  1
  Se  Se12  1  0.76110739  0.52221478  0.25000000  1
  Se  Se13  1  0.17044711  0.34089421  0.06952827  1
  Se  Se14  1  0.23889261  0.47778522  0.75000000  1
  Se  Se15  1  0.82955289  0.65910579  0.56952827  1
  Se  Se16  1  0.82955289  0.65910579  0.93047173  1
  Se  Se17  1  0.56365624  0.12731248  0.88730491  1
  Se  Se18  1  0.43634376  0.87268752  0.11269509  1
  Se  Se19  1  0.56365624  0.12731248  0.61269509  1
  Se  Se20  1  0.43634376  0.87268752  0.38730491  1
  Se  Se21  1  0.17044711  0.34089421  0.43047173  1
