# generated using pymatgen
data_K2In(PSe4)2
_symmetry_space_group_name_H-M   'P 1'
_cell_length_a   11.39400333
_cell_length_b   13.03766847
_cell_length_c   12.92466432
_cell_angle_alpha   81.72957138
_cell_angle_beta   63.84600358
_cell_angle_gamma   70.95327921
_symmetry_Int_Tables_number   1
_chemical_formula_structural   K2In(PSe4)2
_chemical_formula_sum   'K8 In4 P8 Se32'
_cell_volume   1629.04259139
_cell_formula_units_Z   4
loop_
 _symmetry_equiv_pos_site_id
 _symmetry_equiv_pos_as_xyz
  1  'x, y, z'
loop_
 _atom_site_type_symbol
 _atom_site_label
 _atom_site_symmetry_multiplicity
 _atom_site_fract_x
 _atom_site_fract_y
 _atom_site_fract_z
 _atom_site_occupancy
  K  K0  1  0.75366806  0.92823248  0.11873660  1
  K  K1  1  0.64152339  0.65329181  0.40026646  1
  K  K2  1  0.20713827  0.67792252  0.39878460  1
  K  K3  1  0.04178985  0.15329181  0.59973354  1
  K  K4  1  0.87240466  0.42823248  0.88126340  1
  K  K5  1  0.14921123  0.98265894  0.10860771  1
  K  K6  1  0.25781894  0.48265894  0.89139229  1
  K  K7  1  0.60592287  0.17792252  0.60121540  1
  In  In8  1  0.86646209  0.80987898  0.75687635  1
  In  In9  1  0.26461150  0.31631119  0.23552045  1
  In  In10  1  0.62333844  0.30987898  0.24312365  1
  In  In11  1  0.50013195  0.81631119  0.76447955  1
  P  P12  1  0.54490957  0.79506633  0.05197271  1
  P  P13  1  0.12845640  0.86645832  0.83455533  1
  P  P14  1  0.82544634  0.83041204  0.46779601  1
  P  P15  1  0.92238595  0.25790931  0.32609921  1
  P  P16  1  0.29324235  0.33041204  0.53220399  1
  P  P17  1  0.59688229  0.29506633  0.94802729  1
  P  P18  1  0.96301172  0.36645832  0.16544467  1
  P  P19  1  0.24848516  0.75790931  0.67390079  1
  Se  Se20  1  0.77072491  0.71301506  0.97348320  1
  Se  Se21  1  0.37908614  0.14908696  0.48921176  1
  Se  Se22  1  0.60040925  0.90360289  0.53804045  1
  Se  Se23  1  0.52142900  0.47763242  0.98650238  1
  Se  Se24  1  0.81842134  0.15013244  0.30162620  1
  Se  Se25  1  0.46698037  0.40112808  0.46328261  1
  Se  Se26  1  0.47946908  0.15717496  0.28516352  1
  Se  Se27  1  0.93671309  0.96839209  0.81890619  1
  Se  Se28  1  0.60496009  0.96768924  0.80911404  1
  Se  Se29  1  0.74420812  0.21301506  0.02651680  1
  Se  Se30  1  0.12004754  0.65013244  0.69837380  1
  Se  Se31  1  0.08337077  0.26629261  0.01238009  1
  Se  Se32  1  0.93067606  0.81323866  0.28027828  1
  Se  Se33  1  0.50793139  0.97763242  0.01349762  1
  Se  Se34  1  0.28664974  0.85705732  0.52097782  1
  Se  Se35  1  0.25300887  0.97758262  0.80589724  1
  Se  Se36  1  0.43511132  0.65408960  0.69731990  1
  Se  Se37  1  0.70142752  0.30184712  0.75996342  1
  Se  Se38  1  0.40820798  0.24389598  0.00652082  1
  Se  Se39  1  0.13243122  0.15408960  0.30268010  1
  Se  Se40  1  0.21095434  0.31323866  0.71972172  1
  Se  Se41  1  0.86829791  0.64908696  0.51078824  1
  Se  Se42  1  0.46139093  0.80184712  0.24003658  1
  Se  Se43  1  0.09575086  0.76629261  0.98761991  1
  Se  Se44  1  0.05890610  0.47758262  0.19410276  1
  Se  Se45  1  0.75561927  0.46839209  0.18109381  1
  Se  Se46  1  0.41407413  0.46768924  0.19088596  1
  Se  Se47  1  0.41472880  0.74389598  0.99347918  1
  Se  Se48  1  0.76463260  0.65717496  0.71483648  1
  Se  Se49  1  0.80762756  0.35705732  0.47902218  1
  Se  Se50  1  0.93026298  0.90112808  0.53671739  1
  Se  Se51  1  0.13844970  0.40360289  0.46195955  1
