# generated using pymatgen
data_Cs7(In2Bi3)2
_symmetry_space_group_name_H-M   'P 1'
_cell_length_a   10.45429663
_cell_length_b   10.49737233
_cell_length_c   28.24657663
_cell_angle_alpha   94.59966425
_cell_angle_beta   90.86352991
_cell_angle_gamma   90.24703202
_symmetry_Int_Tables_number   1
_chemical_formula_structural   Cs7(In2Bi3)2
_chemical_formula_sum   'Cs28 In16 Bi24'
_cell_volume   3089.47214924
_cell_formula_units_Z   4
loop_
 _symmetry_equiv_pos_site_id
 _symmetry_equiv_pos_as_xyz
  1  'x, y, z'
loop_
 _atom_site_type_symbol
 _atom_site_label
 _atom_site_symmetry_multiplicity
 _atom_site_fract_x
 _atom_site_fract_y
 _atom_site_fract_z
 _atom_site_occupancy
  Cs  Cs0  1  0.51890351  0.47392757  0.07534923  1
  Cs  Cs1  1  0.62593902  0.19659101  0.17830793  1
  Cs  Cs2  1  0.95479863  0.33972231  0.08863784  1
  Cs  Cs3  1  0.30184726  0.14798258  0.41911858  1
  Cs  Cs4  1  0.48109649  0.52607243  0.92465077  1
  Cs  Cs5  1  0.81760898  0.57195587  0.32946891  1
  Cs  Cs6  1  0.37406098  0.80340899  0.82169207  1
  Cs  Cs7  1  0.74787025  0.90675795  0.25658787  1
  Cs  Cs8  1  0.98267039  0.25650339  0.24997986  1
  Cs  Cs9  1  0.25212975  0.09324205  0.74341213  1
  Cs  Cs10  1  0.10029659  0.74470050  0.58449260  1
  Cs  Cs11  1  0.88147622  0.30578542  0.76829988  1
  Cs  Cs12  1  0.18239102  0.42804413  0.67053109  1
  Cs  Cs13  1  0.89970341  0.25529950  0.41550740  1
  Cs  Cs14  1  0.71605239  0.90080679  0.91151689  1
  Cs  Cs15  1  0.65366829  0.92953986  0.41512278  1
  Cs  Cs16  1  0.83204380  0.29989356  0.92839642  1
  Cs  Cs17  1  0.04520137  0.66027769  0.91136216  1
  Cs  Cs18  1  0.01732961  0.74349661  0.75002014  1
  Cs  Cs19  1  0.28394761  0.09919321  0.08848311  1
  Cs  Cs20  1  0.52097531  0.48839202  0.42589328  1
  Cs  Cs21  1  0.67544661  0.96717501  0.73780280  1
  Cs  Cs22  1  0.47902469  0.51160798  0.57410672  1
  Cs  Cs23  1  0.34633171  0.07046014  0.58487722  1
  Cs  Cs24  1  0.69815274  0.85201742  0.58088142  1
  Cs  Cs25  1  0.32455339  0.03282499  0.26219720  1
  Cs  Cs26  1  0.11852378  0.69421458  0.23170012  1
  Cs  Cs27  1  0.16795620  0.70010644  0.07160358  1
  In  In28  1  0.77262809  0.75720927  0.12833716  1
  In  In29  1  0.45014932  0.13955345  0.95883586  1
  In  In30  1  0.90164113  0.96296231  0.03533918  1
  In  In31  1  0.49901826  0.60247930  0.20456079  1
  In  In32  1  0.96537488  0.10771517  0.53734323  1
  In  In33  1  0.13422145  0.53762809  0.45485477  1
  In  In34  1  0.54985068  0.86044655  0.04116414  1
  In  In35  1  0.86577855  0.46237191  0.54514523  1
  In  In36  1  0.50098174  0.39752070  0.79543921  1
  In  In37  1  0.23595734  0.73221541  0.36475388  1
  In  In38  1  0.41691734  0.41261196  0.29424614  1
  In  In39  1  0.09835887  0.03703769  0.96466082  1
  In  In40  1  0.76404266  0.26778459  0.63524612  1
  In  In41  1  0.03462512  0.89228483  0.46265677  1
  In  In42  1  0.22737191  0.24279073  0.87166284  1
  In  In43  1  0.58308266  0.58738804  0.70575386  1
  Bi  Bi44  1  0.61041369  0.22820184  0.32297935  1
  Bi  Bi45  1  0.86311022  0.64543769  0.46623907  1
  Bi  Bi46  1  0.30830662  0.77881178  0.47068179  1
  Bi  Bi47  1  0.30449081  0.38857809  0.19174091  1
  Bi  Bi48  1  0.77786513  0.53973106  0.18985475  1
  Bi  Bi49  1  0.22213487  0.46026894  0.81014525  1
  Bi  Bi50  1  0.47989444  0.70741907  0.30853949  1
  Bi  Bi51  1  0.38958631  0.77179816  0.67702065  1
  Bi  Bi52  1  0.21514782  0.31248753  0.97996487  1
  Bi  Bi53  1  0.13688978  0.35456231  0.53376093  1
  Bi  Bi54  1  0.65520143  0.13250122  0.03741962  1
  Bi  Bi55  1  0.02587245  0.92198989  0.35606734  1
  Bi  Bi56  1  0.97412755  0.07801011  0.64393266  1
  Bi  Bi57  1  0.16552034  0.44932252  0.35109958  1
  Bi  Bi58  1  0.78485218  0.68751247  0.02003513  1
  Bi  Bi59  1  0.83447966  0.55067748  0.64890042  1
  Bi  Bi60  1  0.69550919  0.61142191  0.80825909  1
  Bi  Bi61  1  0.34479857  0.86749878  0.96258038  1
  Bi  Bi62  1  0.52010556  0.29258093  0.69146051  1
  Bi  Bi63  1  0.50942838  0.16244925  0.85449442  1
  Bi  Bi64  1  0.03965376  0.02495766  0.85918064  1
  Bi  Bi65  1  0.49057162  0.83755075  0.14550558  1
  Bi  Bi66  1  0.96034624  0.97504234  0.14081936  1
  Bi  Bi67  1  0.69169338  0.22118822  0.52931821  1
