# generated using pymatgen
data_Rb2CeCu3Te5
_symmetry_space_group_name_H-M   'P 1'
_cell_length_a   6.24993732
_cell_length_b   9.87993795
_cell_length_c   12.51915796
_cell_angle_alpha   111.36985047
_cell_angle_beta   90.00000000
_cell_angle_gamma   108.43897087
_symmetry_Int_Tables_number   1
_chemical_formula_structural   Rb2CeCu3Te5
_chemical_formula_sum   'Rb4 Ce2 Cu6 Te10'
_cell_volume   677.10133847
_cell_formula_units_Z   2
loop_
 _symmetry_equiv_pos_site_id
 _symmetry_equiv_pos_as_xyz
  1  'x, y, z'
loop_
 _atom_site_type_symbol
 _atom_site_label
 _atom_site_symmetry_multiplicity
 _atom_site_fract_x
 _atom_site_fract_y
 _atom_site_fract_z
 _atom_site_occupancy
  Rb  Rb0  1  0.99522780  0.99045560  0.31927577  1
  Rb  Rb1  1  0.67165100  0.34330199  0.32794445  1
  Rb  Rb2  1  0.32834900  0.65669801  0.67205555  1
  Rb  Rb3  1  0.00477220  0.00954440  0.68072423  1
  Ce  Ce4  1  0.70186205  0.40372409  0.81373732  1
  Ce  Ce5  1  0.29813795  0.59627591  0.18626268  1
  Cu  Cu6  1  0.89012980  0.28769882  0.00149696  1
  Cu  Cu7  1  0.39756902  0.28769882  0.00149696  1
  Cu  Cu8  1  0.75229328  0.00000000  0.00000000  1
  Cu  Cu9  1  0.60243098  0.71230118  0.99850304  1
  Cu  Cu10  1  0.10987020  0.71230118  0.99850304  1
  Cu  Cu11  1  0.24770672  0.00000000  0.00000000  1
  Te  Te12  1  0.11278779  0.71756786  0.41977913  1
  Te  Te13  1  0.39521993  0.28243214  0.58022087  1
  Te  Te14  1  0.22313765  0.44627530  0.89794624  1
  Te  Te15  1  0.11638616  0.23277231  0.14586555  1
  Te  Te16  1  0.77686235  0.55372470  0.10205376  1
  Te  Te17  1  0.88361384  0.76722769  0.85413445  1
  Te  Te18  1  0.88721221  0.28243214  0.58022087  1
  Te  Te19  1  0.45940533  0.91881065  0.14524044  1
  Te  Te20  1  0.54059467  0.08118935  0.85475956  1
  Te  Te21  1  0.60478007  0.71756786  0.41977913  1
