# generated using pymatgen
data_CsTm2Cu3Se5
_symmetry_space_group_name_H-M   'P 1'
_cell_length_a   4.11586353
_cell_length_b   7.62349276
_cell_length_c   17.24349365
_cell_angle_alpha   90.00000000
_cell_angle_beta   90.00000000
_cell_angle_gamma   105.66105656
_symmetry_Int_Tables_number   1
_chemical_formula_structural   CsTm2Cu3Se5
_chemical_formula_sum   'Cs2 Tm4 Cu6 Se10'
_cell_volume   520.96714254
_cell_formula_units_Z   2
loop_
 _symmetry_equiv_pos_site_id
 _symmetry_equiv_pos_as_xyz
  1  'x, y, z'
loop_
 _atom_site_type_symbol
 _atom_site_label
 _atom_site_symmetry_multiplicity
 _atom_site_fract_x
 _atom_site_fract_y
 _atom_site_fract_z
 _atom_site_occupancy
  Cs  Cs0  1  0.93888454  0.87776908  0.75000000  1
  Cs  Cs1  1  0.06111546  0.12223092  0.25000000  1
  Tm  Tm2  1  0.80762648  0.61525296  0.09157196  1
  Tm  Tm3  1  0.19237352  0.38474704  0.59157196  1
  Tm  Tm4  1  0.19237352  0.38474704  0.90842804  1
  Tm  Tm5  1  0.80762648  0.61525296  0.40842804  1
  Cu  Cu6  1  0.41709451  0.83418902  0.53298924  1
  Cu  Cu7  1  0.34422162  0.68844324  0.25000000  1
  Cu  Cu8  1  0.58290549  0.16581098  0.46701076  1
  Cu  Cu9  1  0.58290549  0.16581098  0.03298924  1
  Cu  Cu10  1  0.65577838  0.31155676  0.75000000  1
  Cu  Cu11  1  0.41709451  0.83418902  0.96701076  1
  Se  Se12  1  0.56279307  0.12558614  0.88784655  1
  Se  Se13  1  0.16972584  0.33945169  0.43022148  1
  Se  Se14  1  0.43720693  0.87441386  0.11215345  1
  Se  Se15  1  0.23808180  0.47616360  0.75000000  1
  Se  Se16  1  0.83027416  0.66054831  0.93022148  1
  Se  Se17  1  0.83027416  0.66054831  0.56977852  1
  Se  Se18  1  0.43720693  0.87441386  0.38784655  1
  Se  Se19  1  0.76191820  0.52383640  0.25000000  1
  Se  Se20  1  0.16972584  0.33945169  0.06977852  1
  Se  Se21  1  0.56279307  0.12558614  0.61215345  1
