# generated using pymatgen
data_La23Mg4Ni7
_symmetry_space_group_name_H-M   'P 1'
_cell_length_a   10.11457703
_cell_length_b   10.11457744
_cell_length_c   22.88769203
_cell_angle_alpha   90.00000000
_cell_angle_beta   90.00000000
_cell_angle_gamma   119.99999863
_symmetry_Int_Tables_number   1
_chemical_formula_structural   La23Mg4Ni7
_chemical_formula_sum   'La46 Mg8 Ni14'
_cell_volume   2027.81396085
_cell_formula_units_Z   2
loop_
 _symmetry_equiv_pos_site_id
 _symmetry_equiv_pos_as_xyz
  1  'x, y, z'
loop_
 _atom_site_type_symbol
 _atom_site_label
 _atom_site_symmetry_multiplicity
 _atom_site_fract_x
 _atom_site_fract_y
 _atom_site_fract_z
 _atom_site_occupancy
  La  La0  1  0.45799925  0.91599849  0.85547838  1
  La  La1  1  0.92105218  0.46052609  0.08671924  1
  La  La2  1  0.87191617  0.74383234  0.63153085  1
  La  La3  1  0.74383234  0.87191617  0.13153085  1
  La  La4  1  0.20637409  0.79362591  0.71923590  1
  La  La5  1  0.00000000  0.00000000  0.99828337  1
  La  La6  1  0.91599849  0.45799925  0.35547838  1
  La  La7  1  0.54200075  0.45799925  0.35547838  1
  La  La8  1  0.78728141  0.57456281  0.49341323  1
  La  La9  1  0.41159478  0.20579739  0.78177192  1
  La  La10  1  0.41340112  0.20670056  0.94823953  1
  La  La11  1  0.79329944  0.20670056  0.94823953  1
  La  La12  1  0.79362591  0.20637409  0.21923590  1
  La  La13  1  0.42543719  0.21271859  0.49341323  1
  La  La14  1  0.46052609  0.92105218  0.58671924  1
  La  La15  1  0.53947391  0.07894782  0.08671924  1
  La  La16  1  0.57456281  0.78728141  0.99341323  1
  La  La17  1  0.66666700  0.33333300  0.64593090  1
  La  La18  1  0.20670056  0.79329944  0.44823953  1
  La  La19  1  0.07894782  0.53947391  0.58671924  1
  La  La20  1  0.46052609  0.53947391  0.58671924  1
  La  La21  1  0.79420261  0.20579739  0.78177192  1
  La  La22  1  0.00000000  0.00000000  0.49828337  1
  La  La23  1  0.79420261  0.58840522  0.78177192  1
  La  La24  1  0.33333300  0.66666700  0.14593090  1
  La  La25  1  0.21271859  0.78728141  0.99341323  1
  La  La26  1  0.58840522  0.79420261  0.28177192  1
  La  La27  1  0.58725182  0.79362591  0.71923590  1
  La  La28  1  0.41274818  0.20637409  0.21923590  1
  La  La29  1  0.20637409  0.41274818  0.71923590  1
  La  La30  1  0.20579739  0.41159478  0.28177192  1
  La  La31  1  0.20579739  0.79420261  0.28177192  1
  La  La32  1  0.25616766  0.12808383  0.63153085  1
  La  La33  1  0.79329944  0.58659888  0.94823953  1
  La  La34  1  0.20670056  0.41340112  0.44823953  1
  La  La35  1  0.21271859  0.42543719  0.99341323  1
  La  La36  1  0.12808383  0.25616766  0.13153085  1
  La  La37  1  0.54200075  0.08400151  0.35547838  1
  La  La38  1  0.53947391  0.46052609  0.08671924  1
  La  La39  1  0.12808383  0.87191617  0.13153085  1
  La  La40  1  0.45799925  0.54200075  0.85547838  1
  La  La41  1  0.08400151  0.54200075  0.85547838  1
  La  La42  1  0.87191617  0.12808383  0.63153085  1
  La  La43  1  0.58659888  0.79329944  0.44823953  1
  La  La44  1  0.78728141  0.21271859  0.49341323  1
  La  La45  1  0.79362591  0.58725182  0.21923590  1
  Mg  Mg46  1  0.10503791  0.89496209  0.86299414  1
  Mg  Mg47  1  0.10503791  0.21007582  0.86299414  1
  Mg  Mg48  1  0.89496209  0.78992418  0.36299414  1
  Mg  Mg49  1  0.00000000  0.00000000  0.74942598  1
  Mg  Mg50  1  0.21007582  0.10503791  0.36299414  1
  Mg  Mg51  1  0.89496209  0.10503791  0.36299414  1
  Mg  Mg52  1  0.00000000  0.00000000  0.24942598  1
  Mg  Mg53  1  0.78992418  0.89496209  0.86299414  1
  Ni  Ni54  1  0.33333300  0.66666700  0.36371265  1
  Ni  Ni55  1  0.14325575  0.85674425  0.56281002  1
  Ni  Ni56  1  0.48018689  0.96037378  0.21224250  1
  Ni  Ni57  1  0.51981311  0.03962622  0.71224250  1
  Ni  Ni58  1  0.28651150  0.14325575  0.06281002  1
  Ni  Ni59  1  0.14325575  0.28651150  0.56281002  1
  Ni  Ni60  1  0.03962622  0.51981311  0.21224250  1
  Ni  Ni61  1  0.66666700  0.33333300  0.86371265  1
  Ni  Ni62  1  0.85674425  0.14325575  0.06281002  1
  Ni  Ni63  1  0.51981311  0.48018689  0.71224250  1
  Ni  Ni64  1  0.96037378  0.48018689  0.71224250  1
  Ni  Ni65  1  0.71348850  0.85674425  0.56281002  1
  Ni  Ni66  1  0.85674425  0.71348850  0.06281002  1
  Ni  Ni67  1  0.48018689  0.51981311  0.21224250  1
