# generated using pymatgen
data_Cs5Mo21Se23
_symmetry_space_group_name_H-M   'P 1'
_cell_length_a   9.88779977
_cell_length_b   9.88779979
_cell_length_c   30.19939650
_cell_angle_alpha   90.00000000
_cell_angle_beta   90.00000000
_cell_angle_gamma   119.99999996
_symmetry_Int_Tables_number   1
_chemical_formula_structural   Cs5Mo21Se23
_chemical_formula_sum   'Cs10 Mo42 Se46'
_cell_volume   2556.98525277
_cell_formula_units_Z   2
loop_
 _symmetry_equiv_pos_site_id
 _symmetry_equiv_pos_as_xyz
  1  'x, y, z'
loop_
 _atom_site_type_symbol
 _atom_site_label
 _atom_site_symmetry_multiplicity
 _atom_site_fract_x
 _atom_site_fract_y
 _atom_site_fract_z
 _atom_site_occupancy
  Cs  Cs0  1  0.66666700  0.33333300  0.33283350  1
  Cs  Cs1  1  0.00000000  0.00000000  0.75000000  1
  Cs  Cs2  1  0.66666700  0.33333300  0.16716650  1
  Cs  Cs3  1  0.00000000  0.00000000  0.09348191  1
  Cs  Cs4  1  0.33333300  0.66666700  0.66716650  1
  Cs  Cs5  1  0.00000000  0.00000000  0.90651809  1
  Cs  Cs6  1  0.00000000  0.00000000  0.59348191  1
  Cs  Cs7  1  0.00000000  0.00000000  0.40651809  1
  Cs  Cs8  1  0.00000000  0.00000000  0.25000000  1
  Cs  Cs9  1  0.33333300  0.66666700  0.83283350  1
  Mo  Mo10  1  0.49825137  0.68729651  0.25000000  1
  Mo  Mo11  1  0.16850897  0.64656190  0.17480887  1
  Mo  Mo12  1  0.83149103  0.35343810  0.82519113  1
  Mo  Mo13  1  0.50174863  0.31270349  0.75000000  1
  Mo  Mo14  1  0.64620360  0.47746788  0.97603099  1
  Mo  Mo15  1  0.52194707  0.16850897  0.82519113  1
  Mo  Mo16  1  0.47805293  0.83149103  0.17480887  1
  Mo  Mo17  1  0.50191071  0.31580017  0.89997503  1
  Mo  Mo18  1  0.64656190  0.47805293  0.67480887  1
  Mo  Mo19  1  0.81095485  0.49825137  0.75000000  1
  Mo  Mo20  1  0.35343810  0.52194707  0.32519113  1
  Mo  Mo21  1  0.18904515  0.50174863  0.25000000  1
  Mo  Mo22  1  0.35379640  0.52253212  0.02396901  1
  Mo  Mo23  1  0.68419983  0.18611054  0.89997503  1
  Mo  Mo24  1  0.16873572  0.64620360  0.47603099  1
  Mo  Mo25  1  0.52253212  0.16873572  0.52396901  1
  Mo  Mo26  1  0.18611054  0.50191071  0.10002497  1
  Mo  Mo27  1  0.64656190  0.47805293  0.82519113  1
  Mo  Mo28  1  0.50191071  0.31580017  0.60002497  1
  Mo  Mo29  1  0.31580017  0.81388946  0.10002497  1
  Mo  Mo30  1  0.52194707  0.16850897  0.67480887  1
  Mo  Mo31  1  0.64620360  0.47746788  0.52396901  1
  Mo  Mo32  1  0.68419983  0.18611054  0.60002497  1
  Mo  Mo33  1  0.18611054  0.50191071  0.39997503  1
  Mo  Mo34  1  0.68729651  0.18904515  0.75000000  1
  Mo  Mo35  1  0.83149103  0.35343810  0.67480887  1
  Mo  Mo36  1  0.35343810  0.52194707  0.17480887  1
  Mo  Mo37  1  0.35379640  0.52253212  0.47603099  1
  Mo  Mo38  1  0.47746788  0.83126428  0.02396901  1
  Mo  Mo39  1  0.81388946  0.49808929  0.89997503  1
  Mo  Mo40  1  0.83126428  0.35379640  0.97603099  1
  Mo  Mo41  1  0.49808929  0.68419983  0.39997503  1
  Mo  Mo42  1  0.83126428  0.35379640  0.52396901  1
  Mo  Mo43  1  0.31580017  0.81388946  0.39997503  1
  Mo  Mo44  1  0.81388946  0.49808929  0.60002497  1
  Mo  Mo45  1  0.16850897  0.64656190  0.32519113  1
  Mo  Mo46  1  0.31270349  0.81095485  0.25000000  1
  Mo  Mo47  1  0.49808929  0.68419983  0.10002497  1
  Mo  Mo48  1  0.52253212  0.16873572  0.97603099  1
  Mo  Mo49  1  0.47746788  0.83126428  0.47603099  1
  Mo  Mo50  1  0.47805293  0.83149103  0.32519113  1
  Mo  Mo51  1  0.16873572  0.64620360  0.02396901  1
  Se  Se52  1  0.70340059  0.04662179  0.52914146  1
  Se  Se53  1  0.01207981  0.63081697  0.09914992  1
  Se  Se54  1  0.29659941  0.95337821  0.02914146  1
  Se  Se55  1  0.62353190  0.61759807  0.75000000  1
  Se  Se56  1  0.70842035  0.04829959  0.82476046  1
  Se  Se57  1  0.66666700  0.33333300  0.04315418  1
  Se  Se58  1  0.01207981  0.63081697  0.40085008  1
  Se  Se59  1  0.98792019  0.36918303  0.90085008  1
  Se  Se60  1  0.63081697  0.61873716  0.90085008  1
  Se  Se61  1  0.33333300  0.66666700  0.95684582  1
  Se  Se62  1  0.38240193  0.00593383  0.75000000  1
  Se  Se63  1  0.95170041  0.66012077  0.82476046  1
  Se  Se64  1  0.99406617  0.37646810  0.75000000  1
  Se  Se65  1  0.04662179  0.34322120  0.02914146  1
  Se  Se66  1  0.36918303  0.38126284  0.09914992  1
  Se  Se67  1  0.04829959  0.33987923  0.17523954  1
  Se  Se68  1  0.95170041  0.66012077  0.67523954  1
  Se  Se69  1  0.33333300  0.66666700  0.54315418  1
  Se  Se70  1  0.29157965  0.95170041  0.17523954  1
  Se  Se71  1  0.29157965  0.95170041  0.32476046  1
  Se  Se72  1  0.29659941  0.95337821  0.47085854  1
  Se  Se73  1  0.98792019  0.36918303  0.59914992  1
  Se  Se74  1  0.63081697  0.61873716  0.59914992  1
  Se  Se75  1  0.70340059  0.04662179  0.97085854  1
  Se  Se76  1  0.61873716  0.98792019  0.09914992  1
  Se  Se77  1  0.04829959  0.33987923  0.32476046  1
  Se  Se78  1  0.38126284  0.01207981  0.59914992  1
  Se  Se79  1  0.00593383  0.62353190  0.25000000  1
  Se  Se80  1  0.65677880  0.70340059  0.02914146  1
  Se  Se81  1  0.61873716  0.98792019  0.40085008  1
  Se  Se82  1  0.34322120  0.29659941  0.97085854  1
  Se  Se83  1  0.95337821  0.65677880  0.97085854  1
  Se  Se84  1  0.37646810  0.38240193  0.25000000  1
  Se  Se85  1  0.36918303  0.38126284  0.40085008  1
  Se  Se86  1  0.61759807  0.99406617  0.25000000  1
  Se  Se87  1  0.33987923  0.29157965  0.82476046  1
  Se  Se88  1  0.66012077  0.70842035  0.17523954  1
  Se  Se89  1  0.33987923  0.29157965  0.67523954  1
  Se  Se90  1  0.66012077  0.70842035  0.32476046  1
  Se  Se91  1  0.70842035  0.04829959  0.67523954  1
  Se  Se92  1  0.04662179  0.34322120  0.47085854  1
  Se  Se93  1  0.65677880  0.70340059  0.47085854  1
  Se  Se94  1  0.95337821  0.65677880  0.52914146  1
  Se  Se95  1  0.34322120  0.29659941  0.52914146  1
  Se  Se96  1  0.38126284  0.01207981  0.90085008  1
  Se  Se97  1  0.66666700  0.33333300  0.45684582  1
