# generated using pymatgen
data_Na3Fe2P2O8F3
_symmetry_space_group_name_H-M   'P 1'
_cell_length_a   10.80115650
_cell_length_b   12.95234770
_cell_length_c   12.95473234
_cell_angle_alpha   90.00000000
_cell_angle_beta   90.00000000
_cell_angle_gamma   90.00000000
_symmetry_Int_Tables_number   1
_chemical_formula_structural   Na3Fe2P2O8F3
_chemical_formula_sum   'Na24 Fe16 P16 O64 F24'
_cell_volume   1812.37138837
_cell_formula_units_Z   8
loop_
 _symmetry_equiv_pos_site_id
 _symmetry_equiv_pos_as_xyz
  1  'x, y, z'
loop_
 _atom_site_type_symbol
 _atom_site_label
 _atom_site_symmetry_multiplicity
 _atom_site_fract_x
 _atom_site_fract_y
 _atom_site_fract_z
 _atom_site_occupancy
  Na  Na0  1  0.50000000  0.12508661  0.13246451  1
  Na  Na1  1  0.00000000  0.13045821  0.87839591  1
  Na  Na2  1  0.50000000  0.90791469  0.62465598  1
  Na  Na3  1  0.50000000  0.40791469  0.87534402  1
  Na  Na4  1  0.00000000  0.34064223  0.62381070  1
  Na  Na5  1  0.00000000  0.87691137  0.59048852  1
  Na  Na6  1  0.00000000  0.12308863  0.40951148  1
  Na  Na7  1  0.00000000  0.62308863  0.09048852  1
  Na  Na8  1  0.50000000  0.09208531  0.37534402  1
  Na  Na9  1  0.00000000  0.63045821  0.62160409  1
  Na  Na10  1  0.50000000  0.87928218  0.15581906  1
  Na  Na11  1  0.00000000  0.37691137  0.90951148  1
  Na  Na12  1  0.50000000  0.59208531  0.12465598  1
  Na  Na13  1  0.50000000  0.87491339  0.86753549  1
  Na  Na14  1  0.00000000  0.65935777  0.37618930  1
  Na  Na15  1  0.50000000  0.12071782  0.84418094  1
  Na  Na16  1  0.00000000  0.15935777  0.12381070  1
  Na  Na17  1  0.00000000  0.84064223  0.87618930  1
  Na  Na18  1  0.50000000  0.37491339  0.63246451  1
  Na  Na19  1  0.50000000  0.62508661  0.36753549  1
  Na  Na20  1  0.00000000  0.36954179  0.37839591  1
  Na  Na21  1  0.00000000  0.86954179  0.12160409  1
  Na  Na22  1  0.50000000  0.62071782  0.65581906  1
  Na  Na23  1  0.50000000  0.37928218  0.34418094  1
  Fe  Fe24  1  0.68926356  0.24844999  0.49720915  1
  Fe  Fe25  1  0.68926356  0.74844999  0.00279085  1
  Fe  Fe26  1  0.18906715  0.00222252  0.25147803  1
  Fe  Fe27  1  0.81093285  0.00222252  0.25147803  1
  Fe  Fe28  1  0.68926356  0.25155001  0.99720915  1
  Fe  Fe29  1  0.31073644  0.25155001  0.99720915  1
  Fe  Fe30  1  0.18906715  0.50222252  0.24852197  1
  Fe  Fe31  1  0.81093285  0.49777748  0.75147803  1
  Fe  Fe32  1  0.18906715  0.49777748  0.75147803  1
  Fe  Fe33  1  0.31073644  0.74844999  0.00279085  1
  Fe  Fe34  1  0.31073644  0.24844999  0.49720915  1
  Fe  Fe35  1  0.18906715  0.99777748  0.74852197  1
  Fe  Fe36  1  0.68926356  0.75155001  0.50279085  1
  Fe  Fe37  1  0.81093285  0.50222252  0.24852197  1
  Fe  Fe38  1  0.31073644  0.75155001  0.50279085  1
  Fe  Fe39  1  0.81093285  0.99777748  0.74852197  1
  P  P40  1  0.74997964  0.75078694  0.74867342  1
  P  P41  1  0.25002036  0.24921306  0.25132658  1
  P  P42  1  0.24998382  0.00000000  0.00000000  1
  P  P43  1  0.24975995  0.50000000  0.00000000  1
  P  P44  1  0.75001618  0.50000000  0.50000000  1
  P  P45  1  0.25002036  0.25078694  0.75132658  1
  P  P46  1  0.75024005  0.00000000  0.50000000  1
  P  P47  1  0.74997964  0.74921306  0.24867342  1
  P  P48  1  0.24975995  0.00000000  0.50000000  1
  P  P49  1  0.74997964  0.24921306  0.25132658  1
  P  P50  1  0.24998382  0.50000000  0.50000000  1
  P  P51  1  0.75001618  0.00000000  0.00000000  1
  P  P52  1  0.25002036  0.75078694  0.74867342  1
  P  P53  1  0.75024005  0.50000000  0.00000000  1
  P  P54  1  0.25002036  0.74921306  0.24867342  1
  P  P55  1  0.74997964  0.25078694  0.75132658  1
  O  O56  1  0.67461739  0.25699901  0.65015109  1
  O  O57  1  0.67461739  0.74300099  0.34984891  1
  O  O58  1  0.15652370  0.65810275  0.24193029  1
  O  O59  1  0.83696821  0.01085238  0.09503093  1
  O  O60  1  0.66490050  0.09587409  0.49772001  1
  O  O61  1  0.84347630  0.15810275  0.25806971  1
  O  O62  1  0.16429211  0.00138498  0.59584745  1
  O  O63  1  0.16303179  0.01085238  0.09503093  1
  O  O64  1  0.84347630  0.34189725  0.75806971  1
  O  O65  1  0.33693986  0.40490178  0.48940879  1
  O  O66  1  0.66490050  0.40412591  0.99772001  1
  O  O67  1  0.83696821  0.51085238  0.40496907  1
  O  O68  1  0.82707641  0.15055966  0.75864901  1
  O  O69  1  0.33693986  0.59509822  0.51059121  1
  O  O70  1  0.32538261  0.74300099  0.34984891  1
  O  O71  1  0.15652370  0.34189725  0.75806971  1
  O  O72  1  0.17292359  0.15055966  0.75864901  1
  O  O73  1  0.65488543  0.75636683  0.65867520  1
  O  O74  1  0.16303179  0.51085238  0.40496907  1
  O  O75  1  0.65488543  0.74363317  0.15867520  1
  O  O76  1  0.15652370  0.84189725  0.74193029  1
  O  O77  1  0.17292359  0.65055966  0.74135099  1
  O  O78  1  0.82707641  0.84944034  0.24135099  1
  O  O79  1  0.15652370  0.15810275  0.25806971  1
  O  O80  1  0.65488543  0.24363317  0.34132480  1
  O  O81  1  0.33693986  0.90490178  0.01059121  1
  O  O82  1  0.32538261  0.24300099  0.15015109  1
  O  O83  1  0.82707641  0.65055966  0.74135099  1
  O  O84  1  0.33509950  0.90412591  0.50227999  1
  O  O85  1  0.33693986  0.09509822  0.98940879  1
  O  O86  1  0.32538261  0.25699901  0.65015109  1
  O  O87  1  0.83570789  0.99861502  0.40415255  1
  O  O88  1  0.82707641  0.34944034  0.25864901  1
  O  O89  1  0.83570789  0.00138498  0.59584745  1
  O  O90  1  0.67461739  0.24300099  0.15015109  1
  O  O91  1  0.16429211  0.49861502  0.09584745  1
  O  O92  1  0.66306014  0.09509822  0.98940879  1
  O  O93  1  0.83570789  0.49861502  0.09584745  1
  O  O94  1  0.34511457  0.75636683  0.65867520  1
  O  O95  1  0.84347630  0.84189725  0.74193029  1
  O  O96  1  0.16429211  0.50138498  0.90415255  1
  O  O97  1  0.16303179  0.48914762  0.59503093  1
  O  O98  1  0.17292359  0.34944034  0.25864901  1
  O  O99  1  0.67461739  0.75699901  0.84984891  1
  O  O100  1  0.83570789  0.50138498  0.90415255  1
  O  O101  1  0.32538261  0.75699901  0.84984891  1
  O  O102  1  0.33509950  0.40412591  0.99772001  1
  O  O103  1  0.34511457  0.24363317  0.34132480  1
  O  O104  1  0.83696821  0.48914762  0.59503093  1
  O  O105  1  0.33509950  0.59587409  0.00227999  1
  O  O106  1  0.84347630  0.65810275  0.24193029  1
  O  O107  1  0.65488543  0.25636683  0.84132480  1
  O  O108  1  0.66306014  0.40490178  0.48940879  1
  O  O109  1  0.83696821  0.98914762  0.90496907  1
  O  O110  1  0.33509950  0.09587409  0.49772001  1
  O  O111  1  0.66490050  0.90412591  0.50227999  1
  O  O112  1  0.66306014  0.59509822  0.51059121  1
  O  O113  1  0.66490050  0.59587409  0.00227999  1
  O  O114  1  0.16429211  0.99861502  0.40415255  1
  O  O115  1  0.16303179  0.98914762  0.90496907  1
  O  O116  1  0.34511457  0.74363317  0.15867520  1
  O  O117  1  0.17292359  0.84944034  0.24135099  1
  O  O118  1  0.34511457  0.25636683  0.84132480  1
  O  O119  1  0.66306014  0.90490178  0.01059121  1
  F  F120  1  0.36900767  0.51225407  0.25743579  1
  F  F121  1  0.86919773  0.75689062  0.01221345  1
  F  F122  1  0.00000000  0.49783975  0.74647657  1
  F  F123  1  0.36900767  0.48774593  0.74256421  1
  F  F124  1  0.00000000  0.99783975  0.75352343  1
  F  F125  1  0.13080227  0.25689062  0.48778655  1
  F  F126  1  0.00000000  0.00216025  0.24647657  1
  F  F127  1  0.00000000  0.50216025  0.25352343  1
  F  F128  1  0.36900767  0.98774593  0.75743579  1
  F  F129  1  0.63099233  0.98774593  0.75743579  1
  F  F130  1  0.13080227  0.24310938  0.98778655  1
  F  F131  1  0.50000000  0.75309164  0.00099883  1
  F  F132  1  0.36900767  0.01225407  0.24256421  1
  F  F133  1  0.50000000  0.74690836  0.50099883  1
  F  F134  1  0.50000000  0.24690836  0.99900117  1
  F  F135  1  0.63099233  0.48774593  0.74256421  1
  F  F136  1  0.86919773  0.24310938  0.98778655  1
  F  F137  1  0.13080227  0.74310938  0.51221345  1
  F  F138  1  0.50000000  0.25309164  0.49900117  1
  F  F139  1  0.86919773  0.25689062  0.48778655  1
  F  F140  1  0.86919773  0.74310938  0.51221345  1
  F  F141  1  0.63099233  0.01225407  0.24256421  1
  F  F142  1  0.63099233  0.51225407  0.25743579  1
  F  F143  1  0.13080227  0.75689062  0.01221345  1
