# generated using pymatgen
data_Sm4Al23Ni6
_symmetry_space_group_name_H-M   'P 1'
_cell_length_a   4.10807479
_cell_length_b   8.23036466
_cell_length_c   17.01035898
_cell_angle_alpha   85.72513950
_cell_angle_beta   83.06187839
_cell_angle_gamma   75.57398977
_symmetry_Int_Tables_number   1
_chemical_formula_structural   Sm4Al23Ni6
_chemical_formula_sum   'Sm4 Al23 Ni6'
_cell_volume   552.33243588
_cell_formula_units_Z   1
loop_
 _symmetry_equiv_pos_site_id
 _symmetry_equiv_pos_as_xyz
  1  'x, y, z'
loop_
 _atom_site_type_symbol
 _atom_site_label
 _atom_site_symmetry_multiplicity
 _atom_site_fract_x
 _atom_site_fract_y
 _atom_site_fract_z
 _atom_site_occupancy
  Sm  Sm0  1  0.26482007  0.68873503  0.78165785  1
  Sm  Sm1  1  0.57087842  0.26485299  0.59318560  1
  Sm  Sm2  1  0.73517993  0.31126497  0.21834215  1
  Sm  Sm3  1  0.42912158  0.73514701  0.40681440  1
  Al  Al4  1  0.46785632  0.28215463  0.78218429  1
  Al  Al5  1  0.08155754  0.52320143  0.31350938  1
  Al  Al6  1  0.60897960  0.94345830  0.83846280  1
  Al  Al7  1  0.25532190  0.53517629  0.95412708  1
  Al  Al8  1  0.62331386  0.34840007  0.40479442  1
  Al  Al9  1  0.09000730  0.86977425  0.95030237  1
  Al  Al10  1  0.53214368  0.71784537  0.21781571  1
  Al  Al11  1  0.20229458  0.11630070  0.47916619  1
  Al  Al12  1  0.90965570  0.90074870  0.27969484  1
  Al  Al13  1  0.39102040  0.05654170  0.16153720  1
  Al  Al14  1  0.90999270  0.13022575  0.04969763  1
  Al  Al15  1  0.74467810  0.46482371  0.04587292  1
  Al  Al16  1  0.37668614  0.65159993  0.59520558  1
  Al  Al17  1  0.27596583  0.12397479  0.32428552  1
  Al  Al18  1  0.85584292  0.43078337  0.85768298  1
  Al  Al19  1  0.14415708  0.56921663  0.14231702  1
  Al  Al20  1  0.43262109  0.19473892  0.94014510  1
  Al  Al21  1  0.79770542  0.88369930  0.52083381  1
  Al  Al22  1  0.56737891  0.80526108  0.05985490  1
  Al  Al23  1  0.72403417  0.87602521  0.67571448  1
  Al  Al24  1  0.91844246  0.47679857  0.68649062  1
  Al  Al25  1  0.09034430  0.09925130  0.72030516  1
  Al  Al26  1  0.00000000  0.50000000  0.50000000  1
  Ni  Ni27  1  0.99239633  0.87972478  0.13559341  1
  Ni  Ni28  1  0.00760367  0.12027522  0.86440659  1
  Ni  Ni29  1  0.31052201  0.31186666  0.06720429  1
  Ni  Ni30  1  0.68947799  0.68813334  0.93279571  1
  Ni  Ni31  1  0.77313443  0.05554936  0.39831846  1
  Ni  Ni32  1  0.22686557  0.94445064  0.60168154  1
