# generated using pymatgen
data_Na2Al(P2O7)2
_symmetry_space_group_name_H-M   'P 1'
_cell_length_a   4.95291514
_cell_length_b   7.54943060
_cell_length_c   8.34735772
_cell_angle_alpha   65.98783515
_cell_angle_beta   81.35438458
_cell_angle_gamma   80.84400219
_symmetry_Int_Tables_number   1
_chemical_formula_structural   Na2Al(P2O7)2
_chemical_formula_sum   'Na2 Al1 P4 O14'
_cell_volume   280.20783899
_cell_formula_units_Z   1
loop_
 _symmetry_equiv_pos_site_id
 _symmetry_equiv_pos_as_xyz
  1  'x, y, z'
loop_
 _atom_site_type_symbol
 _atom_site_label
 _atom_site_symmetry_multiplicity
 _atom_site_fract_x
 _atom_site_fract_y
 _atom_site_fract_z
 _atom_site_occupancy
  Na  Na0  1  0.09978203  0.78047527  0.71079467  1
  Na  Na1  1  0.90021797  0.21952473  0.28920533  1
  Al  Al2  1  0.00000000  0.00000000  0.00000000  1
  P  P3  1  0.55113333  0.07926269  0.73543108  1
  P  P4  1  0.44886667  0.92073731  0.26456892  1
  P  P5  1  0.71472121  0.42255045  0.77188086  1
  P  P6  1  0.28527879  0.57744955  0.22811914  1
  O  O7  1  0.25349879  0.03853242  0.79154363  1
  O  O8  1  0.74650121  0.96146758  0.20845637  1
  O  O9  1  0.87802286  0.27115372  0.91786663  1
  O  O10  1  0.12197714  0.72884628  0.08213337  1
  O  O11  1  0.74327217  0.95728218  0.87919114  1
  O  O12  1  0.25672783  0.04271782  0.12080886  1
  O  O13  1  0.56049473  0.30794195  0.69237288  1
  O  O14  1  0.43950527  0.69205805  0.30762712  1
  O  O15  1  0.66627342  0.04689621  0.56680308  1
  O  O16  1  0.33372658  0.95310379  0.43319692  1
  O  O17  1  0.88618470  0.57046356  0.62455075  1
  O  O18  1  0.11381530  0.42953644  0.37544925  1
  O  O19  1  0.49719619  0.56269559  0.82372826  1
  O  O20  1  0.50280381  0.43730441  0.17627174  1
