# generated using pymatgen
data_CsNa5(WN3)2
_symmetry_space_group_name_H-M   'P 1'
_cell_length_a   9.48052614
_cell_length_b   10.33819901
_cell_length_c   19.69309566
_cell_angle_alpha   90.00000000
_cell_angle_beta   90.08971055
_cell_angle_gamma   90.00000000
_symmetry_Int_Tables_number   1
_chemical_formula_structural   CsNa5(WN3)2
_chemical_formula_sum   'Cs8 Na40 W16 N48'
_cell_volume   1930.14877768
_cell_formula_units_Z   8
loop_
 _symmetry_equiv_pos_site_id
 _symmetry_equiv_pos_as_xyz
  1  'x, y, z'
loop_
 _atom_site_type_symbol
 _atom_site_label
 _atom_site_symmetry_multiplicity
 _atom_site_fract_x
 _atom_site_fract_y
 _atom_site_fract_z
 _atom_site_occupancy
  Cs  Cs0  1  0.12706691  0.76053931  0.04090156  1
  Cs  Cs1  1  0.61647155  0.73444154  0.08138566  1
  Cs  Cs2  1  0.38352845  0.26555846  0.91861434  1
  Cs  Cs3  1  0.87293309  0.26053931  0.45909844  1
  Cs  Cs4  1  0.87293309  0.23946069  0.95909844  1
  Cs  Cs5  1  0.61647155  0.76555846  0.58138566  1
  Cs  Cs6  1  0.12706691  0.73946069  0.54090156  1
  Cs  Cs7  1  0.38352845  0.23444154  0.41861434  1
  Na  Na8  1  0.37505106  0.00287253  0.56410289  1
  Na  Na9  1  0.37994593  0.49368849  0.56207772  1
  Na  Na10  1  0.12472860  0.99335886  0.68184791  1
  Na  Na11  1  0.11033741  0.50656888  0.68134218  1
  Na  Na12  1  0.37228559  0.49046982  0.79525974  1
  Na  Na13  1  0.12632426  0.47978441  0.94752518  1
  Na  Na14  1  0.63274658  0.48726961  0.67256178  1
  Na  Na15  1  0.87367574  0.52021559  0.05247482  1
  Na  Na16  1  0.63274658  0.01273039  0.17256178  1
  Na  Na17  1  0.62494894  0.99712747  0.43589711  1
  Na  Na18  1  0.36725342  0.98726961  0.82743822  1
  Na  Na19  1  0.87527140  0.49335886  0.81815209  1
  Na  Na20  1  0.87876179  0.16646768  0.65975172  1
  Na  Na21  1  0.36725342  0.51273039  0.32743822  1
  Na  Na22  1  0.88966259  0.49343112  0.31865782  1
  Na  Na23  1  0.37951023  0.16435001  0.71426444  1
  Na  Na24  1  0.11033741  0.99343112  0.18134218  1
  Na  Na25  1  0.62005407  0.50631151  0.43792228  1
  Na  Na26  1  0.37951023  0.33564999  0.21426444  1
  Na  Na27  1  0.87876179  0.33353232  0.15975172  1
  Na  Na28  1  0.12632426  0.02021559  0.44752518  1
  Na  Na29  1  0.12472860  0.50664114  0.18184791  1
  Na  Na30  1  0.37228559  0.00953018  0.29525974  1
  Na  Na31  1  0.13014010  0.49177551  0.43977785  1
  Na  Na32  1  0.12123821  0.66646768  0.84024828  1
  Na  Na33  1  0.37994593  0.00631151  0.06207772  1
  Na  Na34  1  0.37505106  0.49712747  0.06410289  1
  Na  Na35  1  0.86985990  0.50822449  0.56022215  1
  Na  Na36  1  0.62771441  0.99046982  0.70474026  1
  Na  Na37  1  0.62005407  0.99368849  0.93792228  1
  Na  Na38  1  0.88966259  0.00656888  0.81865782  1
  Na  Na39  1  0.62771441  0.50953018  0.20474026  1
  Na  Na40  1  0.12123821  0.83353232  0.34024828  1
  Na  Na41  1  0.62494894  0.50287253  0.93589711  1
  Na  Na42  1  0.62048977  0.83564999  0.28573556  1
  Na  Na43  1  0.87527140  0.00664114  0.31815209  1
  Na  Na44  1  0.13014010  0.00822449  0.93977785  1
  Na  Na45  1  0.86985990  0.99177551  0.06022215  1
  Na  Na46  1  0.62048977  0.66435001  0.78573556  1
  Na  Na47  1  0.87367574  0.97978441  0.55247482  1
  W  W48  1  0.92065628  0.73836419  0.21385614  1
  W  W49  1  0.17323683  0.24417556  0.09543436  1
  W  W50  1  0.82676317  0.74417556  0.40456564  1
  W  W51  1  0.57771260  0.24415910  0.58878078  1
  W  W52  1  0.67435893  0.25850038  0.78054644  1
  W  W53  1  0.17323683  0.25582444  0.59543436  1
  W  W54  1  0.82676317  0.75582444  0.90456564  1
  W  W55  1  0.07934372  0.23836419  0.28614386  1
  W  W56  1  0.07934372  0.26163581  0.78614386  1
  W  W57  1  0.42228740  0.75584090  0.41121922  1
  W  W58  1  0.67435893  0.24149962  0.28054644  1
  W  W59  1  0.32564107  0.74149962  0.21945356  1
  W  W60  1  0.32564107  0.75850038  0.71945356  1
  W  W61  1  0.92065628  0.76163581  0.71385614  1
  W  W62  1  0.42228740  0.74415910  0.91121922  1
  W  W63  1  0.57771260  0.25584090  0.08878078  1
  N  N64  1  0.36146008  0.60395697  0.44990506  1
  N  N65  1  0.13427036  0.25017675  0.69187370  1
  N  N66  1  0.36146008  0.89604303  0.94990506  1
  N  N67  1  0.83807270  0.62670117  0.66830707  1
  N  N68  1  0.58610361  0.37709396  0.32354489  1
  N  N69  1  0.13183963  0.07948357  0.32191477  1
  N  N70  1  0.91861608  0.61597008  0.94180448  1
  N  N71  1  0.62539437  0.73814519  0.91559826  1
  N  N72  1  0.87650063  0.25589380  0.29015843  1
  N  N73  1  0.83807270  0.87329883  0.16830707  1
  N  N74  1  0.13183963  0.42051643  0.82191477  1
  N  N75  1  0.12349937  0.75589380  0.20984157  1
  N  N76  1  0.34624154  0.60371975  0.95506349  1
  N  N77  1  0.62539437  0.76185481  0.41559826  1
  N  N78  1  0.63853992  0.10395697  0.05009494  1
  N  N79  1  0.16192730  0.12670117  0.83169293  1
  N  N80  1  0.87650063  0.24410620  0.79015843  1
  N  N81  1  0.38413859  0.91804640  0.68626063  1
  N  N82  1  0.61586141  0.41804640  0.81373937  1
  N  N83  1  0.13427036  0.24982325  0.19187370  1
  N  N84  1  0.86572964  0.74982325  0.30812630  1
  N  N85  1  0.37460563  0.23814519  0.58440174  1
  N  N86  1  0.08138392  0.11597008  0.55819552  1
  N  N87  1  0.63118788  0.25933079  0.18474138  1
  N  N88  1  0.86816037  0.92051643  0.67808523  1
  N  N89  1  0.58610361  0.12290604  0.82354489  1
  N  N90  1  0.36881212  0.74066921  0.81525862  1
  N  N91  1  0.91861608  0.88402992  0.44180448  1
  N  N92  1  0.11117558  0.09006076  0.05941311  1
  N  N93  1  0.41389639  0.87709396  0.17645511  1
  N  N94  1  0.37460563  0.26185481  0.08440174  1
  N  N95  1  0.65375846  0.39628025  0.04493651  1
  N  N96  1  0.86572964  0.75017675  0.80812630  1
  N  N97  1  0.36881212  0.75933079  0.31525862  1
  N  N98  1  0.63118788  0.24066921  0.68474138  1
  N  N99  1  0.88882442  0.59006076  0.44058689  1
  N  N100  1  0.08138392  0.38402992  0.05819552  1
  N  N101  1  0.65375846  0.10371975  0.54493651  1
  N  N102  1  0.12349937  0.74410620  0.70984157  1
  N  N103  1  0.38413859  0.58195360  0.18626063  1
  N  N104  1  0.88882442  0.90993924  0.94058689  1
  N  N105  1  0.34624154  0.89628025  0.45506349  1
  N  N106  1  0.16192730  0.37329883  0.33169293  1
  N  N107  1  0.63853992  0.39604303  0.55009494  1
  N  N108  1  0.86816037  0.57948357  0.17808523  1
  N  N109  1  0.11117558  0.40993924  0.55941311  1
  N  N110  1  0.41389639  0.62290604  0.67645511  1
  N  N111  1  0.61586141  0.08195360  0.31373937  1
