# generated using pymatgen
data_CsMo3Br3Cl4
_symmetry_space_group_name_H-M   'P 1'
_cell_length_a   10.31268498
_cell_length_b   10.31268538
_cell_length_c   15.81032505
_cell_angle_alpha   90.00000000
_cell_angle_beta   90.00000000
_cell_angle_gamma   119.99999871
_symmetry_Int_Tables_number   1
_chemical_formula_structural   CsMo3Br3Cl4
_chemical_formula_sum   'Cs4 Mo12 Br12 Cl16'
_cell_volume   1456.17964639
_cell_formula_units_Z   4
loop_
 _symmetry_equiv_pos_site_id
 _symmetry_equiv_pos_as_xyz
  1  'x, y, z'
loop_
 _atom_site_type_symbol
 _atom_site_label
 _atom_site_symmetry_multiplicity
 _atom_site_fract_x
 _atom_site_fract_y
 _atom_site_fract_z
 _atom_site_occupancy
  Cs  Cs0  1  0.00000000  0.00000000  0.51790490  1
  Cs  Cs1  1  0.00000000  0.00000000  0.01790490  1
  Cs  Cs2  1  0.33333300  0.66666700  0.24393495  1
  Cs  Cs3  1  0.66666700  0.33333300  0.74393495  1
  Mo  Mo4  1  0.51637648  0.32755620  0.31742456  1
  Mo  Mo5  1  0.67244380  0.18882028  0.31742456  1
  Mo  Mo6  1  0.34073629  0.81758008  0.68187710  1
  Mo  Mo7  1  0.47684379  0.65926371  0.68187710  1
  Mo  Mo8  1  0.32755620  0.51637648  0.81742456  1
  Mo  Mo9  1  0.48362352  0.81117972  0.81742456  1
  Mo  Mo10  1  0.18882028  0.67244380  0.81742456  1
  Mo  Mo11  1  0.81117972  0.48362352  0.31742456  1
  Mo  Mo12  1  0.52315621  0.18241992  0.18187710  1
  Mo  Mo13  1  0.81758008  0.34073629  0.18187710  1
  Mo  Mo14  1  0.18241992  0.52315621  0.68187710  1
  Mo  Mo15  1  0.65926371  0.47684379  0.18187710  1
  Br  Br16  1  0.36015501  0.03963033  0.59263729  1
  Br  Br17  1  0.97492955  0.67094418  0.90606461  1
  Br  Br18  1  0.67094418  0.97492955  0.40606461  1
  Br  Br19  1  0.69601463  0.02507045  0.90606461  1
  Br  Br20  1  0.63984499  0.67947532  0.09263729  1
  Br  Br21  1  0.32905582  0.30398537  0.90606461  1
  Br  Br22  1  0.30398537  0.32905582  0.40606461  1
  Br  Br23  1  0.02507045  0.69601463  0.40606461  1
  Br  Br24  1  0.03963033  0.36015501  0.09263729  1
  Br  Br25  1  0.32052468  0.96036967  0.09263729  1
  Br  Br26  1  0.67947532  0.63984499  0.59263729  1
  Br  Br27  1  0.96036967  0.32052468  0.59263729  1
  Cl  Cl28  1  0.33333300  0.66666700  0.55713691  1
  Cl  Cl29  1  0.65667331  0.60703422  0.31520588  1
  Cl  Cl30  1  0.38048200  0.31838843  0.18401749  1
  Cl  Cl31  1  0.61951800  0.93790642  0.68401749  1
  Cl  Cl32  1  0.93790642  0.61951800  0.18401749  1
  Cl  Cl33  1  0.31838843  0.38048200  0.68401749  1
  Cl  Cl34  1  0.04963909  0.39296578  0.81520588  1
  Cl  Cl35  1  0.34332669  0.95036091  0.81520588  1
  Cl  Cl36  1  0.39296578  0.04963909  0.31520588  1
  Cl  Cl37  1  0.66666700  0.33333300  0.44174246  1
  Cl  Cl38  1  0.06209358  0.68161157  0.68401749  1
  Cl  Cl39  1  0.60703422  0.65667331  0.81520588  1
  Cl  Cl40  1  0.68161157  0.06209358  0.18401749  1
  Cl  Cl41  1  0.33333300  0.66666700  0.94174246  1
  Cl  Cl42  1  0.95036091  0.34332669  0.31520588  1
  Cl  Cl43  1  0.66666700  0.33333300  0.05713691  1
