# generated using pymatgen
data_NaY(IO3)4
_symmetry_space_group_name_H-M   'P 1'
_cell_length_a   5.65320654
_cell_length_b   12.64819236
_cell_length_c   16.12066064
_cell_angle_alpha   90.81297917
_cell_angle_beta   100.10204057
_cell_angle_gamma   90.00008882
_symmetry_Int_Tables_number   1
_chemical_formula_structural   NaY(IO3)4
_chemical_formula_sum   'Na4 Y4 I16 O48'
_cell_volume   1134.68524693
_cell_formula_units_Z   4
loop_
 _symmetry_equiv_pos_site_id
 _symmetry_equiv_pos_as_xyz
  1  'x, y, z'
loop_
 _atom_site_type_symbol
 _atom_site_label
 _atom_site_symmetry_multiplicity
 _atom_site_fract_x
 _atom_site_fract_y
 _atom_site_fract_z
 _atom_site_occupancy
  Na  Na0  1  0.59358623  0.02931358  0.62798337  1
  Na  Na1  1  0.16193585  0.93492541  0.77787751  1
  Na  Na2  1  0.03444963  0.52934358  0.62803543  1
  Na  Na3  1  0.61594012  0.43492369  0.77789675  1
  Y  Y4  1  0.56219189  0.32379337  0.54626781  1
  Y  Y5  1  0.98402325  0.82381550  0.54621435  1
  Y  Y6  1  0.78780847  0.82951339  0.95508196  1
  Y  Y7  1  0.16727104  0.32951555  0.95512698  1
  I  I8  1  0.11455236  0.62445073  0.83109304  1
  I  I9  1  0.29482653  0.03549220  0.99185426  1
  I  I10  1  0.69702297  0.53548438  0.99186227  1
  I  I11  1  0.78947708  0.23104325  0.10952003  1
  I  I12  1  0.59947604  0.78300640  0.71500293  1
  I  I13  1  0.43806517  0.91568232  0.39394862  1
  I  I14  1  0.06094915  0.11963498  0.50638454  1
  I  I15  1  0.32005768  0.73106929  0.10946311  1
  I  I16  1  0.11547737  0.28298554  0.71506008  1
  I  I17  1  0.84201971  0.68749705  0.31512624  1
  I  I18  1  0.92093117  0.96183058  0.18839924  1
  I  I19  1  0.26756622  0.46185310  0.18841129  1
  I  I20  1  0.44543468  0.61962019  0.50641272  1
  I  I21  1  0.47314132  0.18752502  0.31509209  1
  I  I22  1  0.71653783  0.12448882  0.83111325  1
  I  I23  1  0.95578084  0.41563717  0.39398834  1
  O  O24  1  0.89606730  0.07970610  0.75429024  1
  O  O25  1  0.32597531  0.34905021  0.65746075  1
  O  O26  1  0.19109844  0.66685041  0.55315641  1
  O  O27  1  0.09710709  0.08391492  0.19443552  1
  O  O28  1  0.64411815  0.76943217  0.24008827  1
  O  O29  1  0.02438515  0.76414828  0.84107141  1
  O  O30  1  0.12743226  0.87772253  0.25929983  1
  O  O31  1  0.65929120  0.56772804  0.31327960  1
  O  O32  1  0.63590428  0.65718446  0.93033773  1
  O  O33  1  0.09718402  0.40691013  0.08813215  1
  O  O34  1  0.87620920  0.46549870  0.92193045  1
  O  O35  1  0.99100222  0.90690357  0.08812174  1
  O  O36  1  0.53578784  0.97584485  0.94551516  1
  O  O37  1  0.40971542  0.47582997  0.94554708  1
  O  O38  1  0.46198466  0.49857462  0.56753993  1
  O  O39  1  0.04569580  0.96549635  0.92191769  1
  O  O40  1  0.25726032  0.03606658  0.40026402  1
  O  O41  1  0.59618193  0.26943971  0.24008401  1
  O  O42  1  0.55542862  0.31968713  0.05604435  1
  O  O43  1  0.58282747  0.85789980  0.81365013  1
  O  O44  1  0.85818889  0.57967389  0.75426475  1
  O  O45  1  0.88350193  0.19205241  0.57611018  1
  O  O46  1  0.85143996  0.36629064  0.67205017  1
  O  O47  1  0.76729647  0.74998008  0.41253916  1
  O  O48  1  0.14293666  0.53601933  0.40031803  1
  O  O49  1  0.10552786  0.99856943  0.56749538  1
  O  O50  1  0.29442651  0.15720763  0.93035666  1
  O  O51  1  0.48332484  0.60606687  0.10116134  1
  O  O52  1  0.67139570  0.94333854  0.48793432  1
  O  O53  1  0.69266479  0.69204576  0.57611310  1
  O  O54  1  0.13212948  0.37771775  0.25932475  1
  O  O55  1  0.33140886  0.84910983  0.65741193  1
  O  O56  1  0.81640335  0.44331818  0.48795204  1
  O  O57  1  0.95241396  0.20494858  0.02081130  1
  O  O58  1  0.25615750  0.82221739  0.44355845  1
  O  O59  1  0.81676137  0.26417529  0.84108777  1
  O  O60  1  0.32150631  0.63044986  0.75577160  1
  O  O61  1  0.50064861  0.81968555  0.05598148  1
  O  O62  1  0.06837251  0.70498893  0.02077095  1
  O  O63  1  0.18728966  0.32217365  0.44361120  1
  O  O64  1  0.23084678  0.35790191  0.81368894  1
  O  O65  1  0.43425351  0.13048010  0.75578999  1
  O  O66  1  0.64521730  0.24997872  0.41252745  1
  O  O67  1  0.61780304  0.10606139  0.10120540  1
  O  O68  1  0.36205867  0.16682292  0.55313612  1
  O  O69  1  0.65397965  0.06773175  0.31326154  1
  O  O70  1  0.82055243  0.86630853  0.67202648  1
  O  O71  1  0.09735406  0.58391148  0.19443682  1
