# generated using pymatgen
data_CsSi2SbO7
_symmetry_space_group_name_H-M   'P 1'
_cell_length_a   7.24026062
_cell_length_b   13.82861089
_cell_length_c   21.34111089
_cell_angle_alpha   90.00000000
_cell_angle_beta   90.00000000
_cell_angle_gamma   90.00000000
_symmetry_Int_Tables_number   1
_chemical_formula_structural   CsSi2SbO7
_chemical_formula_sum   'Cs12 Si24 Sb12 O84'
_cell_volume   2136.73064327
_cell_formula_units_Z   12
loop_
 _symmetry_equiv_pos_site_id
 _symmetry_equiv_pos_as_xyz
  1  'x, y, z'
loop_
 _atom_site_type_symbol
 _atom_site_label
 _atom_site_symmetry_multiplicity
 _atom_site_fract_x
 _atom_site_fract_y
 _atom_site_fract_z
 _atom_site_occupancy
  Cs  Cs0  1  0.22496360  0.84150288  0.16863261  1
  Cs  Cs1  1  0.22496360  0.65849712  0.66863261  1
  Cs  Cs2  1  0.21295059  0.86645433  0.83639149  1
  Cs  Cs3  1  0.71295059  0.36645433  0.66360851  1
  Cs  Cs4  1  0.22798358  0.85492712  0.49221171  1
  Cs  Cs5  1  0.72798358  0.35492712  0.00778829  1
  Cs  Cs6  1  0.72496360  0.34150288  0.33136739  1
  Cs  Cs7  1  0.72798358  0.14507288  0.50778829  1
  Cs  Cs8  1  0.21295059  0.63354567  0.33639149  1
  Cs  Cs9  1  0.22798358  0.64507288  0.99221171  1
  Cs  Cs10  1  0.71295059  0.13354567  0.16360851  1
  Cs  Cs11  1  0.72496360  0.15849712  0.83136739  1
  Si  Si12  1  0.70130753  0.63969351  0.26940458  1
  Si  Si13  1  0.22288617  0.38097448  0.07180658  1
  Si  Si14  1  0.22288617  0.11902552  0.57180658  1
  Si  Si15  1  0.72160777  0.85020161  0.57325706  1
  Si  Si16  1  0.75344171  0.65283701  0.41577188  1
  Si  Si17  1  0.75344171  0.84716299  0.91577188  1
  Si  Si18  1  0.70061031  0.86202737  0.24877371  1
  Si  Si19  1  0.74987480  0.62770026  0.59871543  1
  Si  Si20  1  0.22160777  0.14979839  0.42674294  1
  Si  Si21  1  0.22160777  0.35020161  0.92674294  1
  Si  Si22  1  0.25344171  0.15283701  0.08422812  1
  Si  Si23  1  0.25344171  0.34716299  0.58422812  1
  Si  Si24  1  0.72288617  0.61902552  0.92819342  1
  Si  Si25  1  0.20061031  0.36202737  0.25122629  1
  Si  Si26  1  0.20061031  0.13797263  0.75122629  1
  Si  Si27  1  0.74987480  0.87229974  0.09871543  1
  Si  Si28  1  0.24987480  0.12770026  0.90128457  1
  Si  Si29  1  0.20130753  0.13969351  0.23059542  1
  Si  Si30  1  0.70130753  0.86030649  0.76940458  1
  Si  Si31  1  0.24987480  0.37229974  0.40128457  1
  Si  Si32  1  0.72160777  0.64979839  0.07325706  1
  Si  Si33  1  0.70061031  0.63797263  0.74877371  1
  Si  Si34  1  0.20130753  0.36030649  0.73059542  1
  Si  Si35  1  0.72288617  0.88097448  0.42819342  1
  Sb  Sb36  1  0.99688346  0.49601199  0.50036488  1
  Sb  Sb37  1  0.46449689  0.01607451  0.33120375  1
  Sb  Sb38  1  0.99688346  0.00398801  0.00036488  1
  Sb  Sb39  1  0.46407426  0.98664410  0.66691156  1
  Sb  Sb40  1  0.96449689  0.51607451  0.16879625  1
  Sb  Sb41  1  0.96407426  0.48664410  0.83308844  1
  Sb  Sb42  1  0.96449689  0.98392549  0.66879625  1
  Sb  Sb43  1  0.96407426  0.01335590  0.33308844  1
  Sb  Sb44  1  0.49688346  0.50398801  0.49963512  1
  Sb  Sb45  1  0.46449689  0.48392549  0.83120375  1
  Sb  Sb46  1  0.49688346  0.99601199  0.99963512  1
  Sb  Sb47  1  0.46407426  0.51335590  0.16691156  1
  O  O48  1  0.89895282  0.95300356  0.41652596  1
  O  O49  1  0.78236356  0.73025729  0.91400701  1
  O  O50  1  0.05790006  0.42659462  0.41982643  1
  O  O51  1  0.74446437  0.05511061  0.98970710  1
  O  O52  1  0.02575200  0.42869640  0.74922616  1
  O  O53  1  0.71612641  0.07544485  0.32721887  1
  O  O54  1  0.94002720  0.61311326  0.44936820  1
  O  O55  1  0.74446437  0.44488939  0.48970710  1
  O  O56  1  0.26222845  0.23450002  0.93364578  1
  O  O57  1  0.04055808  0.40707997  0.11266808  1
  O  O58  1  0.28236356  0.23025729  0.58599299  1
  O  O59  1  0.75475670  0.88545662  0.84251341  1
  O  O60  1  0.04736845  0.13326940  0.37936440  1
  O  O61  1  0.88409808  0.87594416  0.72591973  1
  O  O62  1  0.63186402  0.75263168  0.26713541  1
  O  O63  1  0.54055808  0.90707997  0.38733192  1
  O  O64  1  0.55884459  0.62331800  0.44935104  1
  O  O65  1  0.13186402  0.25263168  0.23286459  1
  O  O66  1  0.93169225  0.56393501  0.58067223  1
  O  O67  1  0.54055808  0.59292003  0.88733192  1
  O  O68  1  0.25475670  0.38545662  0.65748659  1
  O  O69  1  0.39895282  0.04699644  0.58347404  1
  O  O70  1  0.21481698  0.95527057  0.33738360  1
  O  O71  1  0.21481698  0.54472943  0.83738360  1
  O  O72  1  0.26222845  0.26549998  0.43364578  1
  O  O73  1  0.43169225  0.06393501  0.91932777  1
  O  O74  1  0.91537592  0.59777909  0.09326162  1
  O  O75  1  0.38150004  0.10821101  0.71032687  1
  O  O76  1  0.76222845  0.76549998  0.06635422  1
  O  O77  1  0.16510440  0.38985573  0.99717287  1
  O  O78  1  0.38409808  0.12405584  0.27408027  1
  O  O79  1  0.76222845  0.73450002  0.56635422  1
  O  O80  1  0.28236356  0.26974271  0.08599299  1
  O  O81  1  0.39895282  0.45300356  0.08347404  1
  O  O82  1  0.88150004  0.89178899  0.28967313  1
  O  O83  1  0.66510440  0.88985573  0.50282713  1
  O  O84  1  0.54736845  0.86673060  0.62063560  1
  O  O85  1  0.75886427  0.85913854  0.17465056  1
  O  O86  1  0.55884459  0.87668200  0.94935104  1
  O  O87  1  0.44002720  0.11311326  0.05063180  1
  O  O88  1  0.24446437  0.94488939  0.01029290  1
  O  O89  1  0.38150004  0.39178899  0.21032687  1
  O  O90  1  0.52575200  0.57130360  0.25077384  1
  O  O91  1  0.13186402  0.24736832  0.73286459  1
  O  O92  1  0.55790006  0.57340538  0.58017357  1
  O  O93  1  0.21612641  0.57544485  0.17278113  1
  O  O94  1  0.05884459  0.12331800  0.05064896  1
  O  O95  1  0.24446437  0.55511061  0.51029290  1
  O  O96  1  0.02396067  0.43543505  0.24485404  1
  O  O97  1  0.71481698  0.45527057  0.16261640  1
  O  O98  1  0.04055808  0.09292003  0.61266808  1
  O  O99  1  0.41537592  0.40222091  0.90673838  1
  O  O100  1  0.04736845  0.36673060  0.87936440  1
  O  O101  1  0.88150004  0.60821101  0.78967313  1
  O  O102  1  0.43169225  0.43606499  0.41932777  1
  O  O103  1  0.02396067  0.06456495  0.74485404  1
  O  O104  1  0.25886427  0.35913854  0.32534944  1
  O  O105  1  0.52396067  0.93543505  0.25514596  1
  O  O106  1  0.25886427  0.14086146  0.82534944  1
  O  O107  1  0.75475670  0.61454338  0.34251341  1
  O  O108  1  0.88409808  0.62405584  0.22591973  1
  O  O109  1  0.21612641  0.92455515  0.67278113  1
  O  O110  1  0.05790006  0.07340538  0.91982643  1
  O  O111  1  0.71481698  0.04472943  0.66261640  1
  O  O112  1  0.63186402  0.74736832  0.76713541  1
  O  O113  1  0.93169225  0.93606499  0.08067223  1
  O  O114  1  0.05884459  0.37668200  0.55064896  1
  O  O115  1  0.78236356  0.76974271  0.41400701  1
  O  O116  1  0.89895282  0.54699644  0.91652596  1
  O  O117  1  0.71612641  0.42455515  0.82721887  1
  O  O118  1  0.54736845  0.63326940  0.12063560  1
  O  O119  1  0.02575200  0.07130360  0.24922616  1
  O  O120  1  0.25475670  0.11454338  0.15748659  1
  O  O121  1  0.66510440  0.61014427  0.00282713  1
  O  O122  1  0.52396067  0.56456495  0.75514596  1
  O  O123  1  0.94002720  0.88688674  0.94936820  1
  O  O124  1  0.52575200  0.92869640  0.75077384  1
  O  O125  1  0.38409808  0.37594416  0.77408027  1
  O  O126  1  0.44002720  0.38688674  0.55063180  1
  O  O127  1  0.91537592  0.90222091  0.59326162  1
  O  O128  1  0.75886427  0.64086146  0.67465056  1
  O  O129  1  0.16510440  0.11014427  0.49717287  1
  O  O130  1  0.55790006  0.92659462  0.08017357  1
  O  O131  1  0.41537592  0.09777909  0.40673838  1
