# generated using pymatgen
data_TmCO4
_symmetry_space_group_name_H-M   'P 1'
_cell_length_a   4.80754309
_cell_length_b   7.00569630
_cell_length_c   8.74489347
_cell_angle_alpha   90.00000000
_cell_angle_beta   90.00000000
_cell_angle_gamma   90.00000000
_symmetry_Int_Tables_number   1
_chemical_formula_structural   TmCO4
_chemical_formula_sum   'Tm4 C4 O16'
_cell_volume   294.52964595
_cell_formula_units_Z   4
loop_
 _symmetry_equiv_pos_site_id
 _symmetry_equiv_pos_as_xyz
  1  'x, y, z'
loop_
 _atom_site_type_symbol
 _atom_site_label
 _atom_site_symmetry_multiplicity
 _atom_site_fract_x
 _atom_site_fract_y
 _atom_site_fract_z
 _atom_site_occupancy
  Tm  Tm0  1  0.27581938  0.12291207  0.58850970  1
  Tm  Tm1  1  0.72418062  0.37708793  0.08850970  1
  Tm  Tm2  1  0.22418062  0.62291207  0.41149030  1
  Tm  Tm3  1  0.77581938  0.87708793  0.91149030  1
  C  C4  1  0.25756966  0.20510984  0.92005935  1
  C  C5  1  0.74243034  0.29489016  0.42005935  1
  C  C6  1  0.24243034  0.70510984  0.07994065  1
  C  C7  1  0.75756966  0.79489016  0.57994065  1
  O  O8  1  0.21979303  0.93568869  0.39289854  1
  O  O9  1  0.78020697  0.56431131  0.89289854  1
  O  O10  1  0.28020697  0.43568869  0.60710146  1
  O  O11  1  0.71979303  0.06431131  0.10710146  1
  O  O12  1  0.79571607  0.19486770  0.53823840  1
  O  O13  1  0.20428393  0.30513230  0.03823840  1
  O  O14  1  0.70428393  0.69486770  0.46176160  1
  O  O15  1  0.29571607  0.80513230  0.96176160  1
  O  O16  1  0.01939452  0.82142407  0.61810183  1
  O  O17  1  0.98060548  0.67857593  0.11810183  1
  O  O18  1  0.48060548  0.32142407  0.38189817  1
  O  O19  1  0.51939452  0.17857593  0.88189817  1
  O  O20  1  0.57045210  0.86754747  0.66883540  1
  O  O21  1  0.42954790  0.63245253  0.16883540  1
  O  O22  1  0.92954790  0.36754747  0.33116460  1
  O  O23  1  0.07045210  0.13245253  0.83116460  1
