# generated using pymatgen
data_Zn53Ni16
_symmetry_space_group_name_H-M   'P 1'
_cell_length_a   7.67902849
_cell_length_b   7.67902773
_cell_length_c   33.32697827
_cell_angle_alpha   90.00000000
_cell_angle_beta   90.00000000
_cell_angle_gamma   109.26495886
_symmetry_Int_Tables_number   1
_chemical_formula_structural   Zn53Ni16
_chemical_formula_sum   'Zn106 Ni32'
_cell_volume   1855.16177476
_cell_formula_units_Z   2
loop_
 _symmetry_equiv_pos_site_id
 _symmetry_equiv_pos_as_xyz
  1  'x, y, z'
loop_
 _atom_site_type_symbol
 _atom_site_label
 _atom_site_symmetry_multiplicity
 _atom_site_fract_x
 _atom_site_fract_y
 _atom_site_fract_z
 _atom_site_occupancy
  Zn  Zn0  1  0.40616516  0.55471072  0.97285038  1
  Zn  Zn1  1  0.06079830  0.91640702  0.35156077  1
  Zn  Zn2  1  0.67559158  0.17559158  0.82640424  1
  Zn  Zn3  1  0.11582894  0.61582894  0.86370370  1
  Zn  Zn4  1  0.42963508  0.57192359  0.45819163  1
  Zn  Zn5  1  0.09303102  0.59303102  0.09639642  1
  Zn  Zn6  1  0.10171932  0.60171932  0.47816553  1
  Zn  Zn7  1  0.70751577  0.83587710  0.22657136  1
  Zn  Zn8  1  0.54227653  0.80172599  0.03028966  1
  Zn  Zn9  1  0.32952525  0.05324096  0.40401879  1
  Zn  Zn10  1  0.22484079  0.36869630  0.66422376  1
  Zn  Zn11  1  0.83587710  0.70751577  0.77342864  1
  Zn  Zn12  1  0.14082926  0.64082926  0.24997423  1
  Zn  Zn13  1  0.58328047  0.45401211  0.90735223  1
  Zn  Zn14  1  0.71033851  0.85322815  0.95783119  1
  Zn  Zn15  1  0.77605325  0.52658039  0.84174531  1
  Zn  Zn16  1  0.17559158  0.67559158  0.17359576  1
  Zn  Zn17  1  0.72126116  0.86608475  0.85148662  1
  Zn  Zn18  1  0.22741784  0.37670876  0.52698953  1
  Zn  Zn19  1  0.41367068  0.55723169  0.83561215  1
  Zn  Zn20  1  0.07542004  0.94781472  0.72595844  1
  Zn  Zn21  1  0.59081938  0.09081938  0.28599960  1
  Zn  Zn22  1  0.18988352  0.68988352  0.40363838  1
  Zn  Zn23  1  0.91367068  0.05723169  0.16438785  1
  Zn  Zn24  1  0.68047964  0.18047964  0.97832153  1
  Zn  Zn25  1  0.91640702  0.06079830  0.64843923  1
  Zn  Zn26  1  0.07192359  0.92963508  0.45819163  1
  Zn  Zn27  1  0.09081938  0.59081938  0.71400040  1
  Zn  Zn28  1  0.80172599  0.54227653  0.96971034  1
  Zn  Zn29  1  0.32938710  0.19970912  0.59229813  1
  Zn  Zn30  1  0.69199039  0.19199039  0.21417722  1
  Zn  Zn31  1  0.25696341  0.00713566  0.65785838  1
  Zn  Zn32  1  0.69970912  0.82938710  0.59229813  1
  Zn  Zn33  1  0.22611124  0.95957396  0.28185834  1
  Zn  Zn34  1  0.72611124  0.45957396  0.71814166  1
  Zn  Zn35  1  0.92963508  0.07192359  0.54180837  1
  Zn  Zn36  1  0.55324096  0.82952525  0.40401879  1
  Zn  Zn37  1  0.50713566  0.75696341  0.65785838  1
  Zn  Zn38  1  0.62809060  0.12809060  0.05942860  1
  Zn  Zn39  1  0.74018924  0.47977297  0.46969944  1
  Zn  Zn40  1  0.32169784  0.05673638  0.78162035  1
  Zn  Zn41  1  0.82938710  0.69970912  0.40770187  1
  Zn  Zn42  1  0.87670876  0.72741784  0.52698953  1
  Zn  Zn43  1  0.05673638  0.32169784  0.21837965  1
  Zn  Zn44  1  0.72484079  0.86869630  0.33577624  1
  Zn  Zn45  1  0.57542004  0.44781472  0.27404156  1
  Zn  Zn46  1  0.30172599  0.04227653  0.03028966  1
  Zn  Zn47  1  0.59303102  0.09303102  0.90360358  1
  Zn  Zn48  1  0.60171932  0.10171932  0.52183447  1
  Zn  Zn49  1  0.72741784  0.87670876  0.47301047  1
  Zn  Zn50  1  0.82952525  0.55324096  0.59598121  1
  Zn  Zn51  1  0.56079830  0.41640702  0.64843923  1
  Zn  Zn52  1  0.15374063  0.65374063  0.55954884  1
  Zn  Zn53  1  0.36869630  0.22484079  0.33577624  1
  Zn  Zn54  1  0.19970912  0.32938710  0.40770187  1
  Zn  Zn55  1  0.12809060  0.62809060  0.94057140  1
  Zn  Zn56  1  0.05324096  0.32952525  0.59598121  1
  Zn  Zn57  1  0.72942322  0.45188467  0.09614942  1
  Zn  Zn58  1  0.22942322  0.95188467  0.90385058  1
  Zn  Zn59  1  0.18047964  0.68047964  0.02167847  1
  Zn  Zn60  1  0.37670876  0.22741784  0.47301047  1
  Zn  Zn61  1  0.24018924  0.97977297  0.53030056  1
  Zn  Zn62  1  0.45401211  0.58328047  0.09264777  1
  Zn  Zn63  1  0.08328047  0.95401211  0.09264777  1
  Zn  Zn64  1  0.10746883  0.60746883  0.32648444  1
  Zn  Zn65  1  0.16688817  0.66688817  0.63621320  1
  Zn  Zn66  1  0.35322815  0.21033851  0.95783119  1
  Zn  Zn67  1  0.65374063  0.15374063  0.44045116  1
  Zn  Zn68  1  0.57192359  0.42963508  0.54180837  1
  Zn  Zn69  1  0.05471072  0.90616516  0.97285038  1
  Zn  Zn70  1  0.19199039  0.69199039  0.78582278  1
  Zn  Zn71  1  0.90616516  0.05471072  0.02714962  1
  Zn  Zn72  1  0.52658039  0.77605325  0.15825469  1
  Zn  Zn73  1  0.68988352  0.18988352  0.59636162  1
  Zn  Zn74  1  0.85322815  0.71033851  0.04216881  1
  Zn  Zn75  1  0.27605325  0.02658039  0.15825469  1
  Zn  Zn76  1  0.45957396  0.72611124  0.28185834  1
  Zn  Zn77  1  0.41640702  0.56079830  0.35156077  1
  Zn  Zn78  1  0.20751577  0.33587710  0.77342864  1
  Zn  Zn79  1  0.22126116  0.36608475  0.14851338  1
  Zn  Zn80  1  0.36608475  0.22126116  0.85148662  1
  Zn  Zn81  1  0.82169784  0.55673638  0.21837965  1
  Zn  Zn82  1  0.60746883  0.10746883  0.67351556  1
  Zn  Zn83  1  0.21033851  0.35322815  0.04216881  1
  Zn  Zn84  1  0.94781472  0.07542004  0.27404156  1
  Zn  Zn85  1  0.75696341  0.50713566  0.34214162  1
  Zn  Zn86  1  0.45188467  0.72942322  0.90385058  1
  Zn  Zn87  1  0.00713566  0.25696341  0.34214162  1
  Zn  Zn88  1  0.55673638  0.82169784  0.78162035  1
  Zn  Zn89  1  0.66688817  0.16688817  0.36378680  1
  Zn  Zn90  1  0.64082926  0.14082926  0.75002577  1
  Zn  Zn91  1  0.04227653  0.30172599  0.96971034  1
  Zn  Zn92  1  0.47977297  0.74018924  0.53030056  1
  Zn  Zn93  1  0.05723169  0.91367068  0.83561215  1
  Zn  Zn94  1  0.02658039  0.27605325  0.84174531  1
  Zn  Zn95  1  0.55471072  0.40616516  0.02714962  1
  Zn  Zn96  1  0.61582894  0.11582894  0.13629630  1
  Zn  Zn97  1  0.95401211  0.08328047  0.90735223  1
  Zn  Zn98  1  0.95957396  0.22611124  0.71814166  1
  Zn  Zn99  1  0.86869630  0.72484079  0.66422376  1
  Zn  Zn100  1  0.97977297  0.24018924  0.46969944  1
  Zn  Zn101  1  0.55723169  0.41367068  0.16438785  1
  Zn  Zn102  1  0.33587710  0.20751577  0.22657136  1
  Zn  Zn103  1  0.44781472  0.57542004  0.72595844  1
  Zn  Zn104  1  0.86608475  0.72126116  0.14851338  1
  Zn  Zn105  1  0.95188467  0.22942322  0.09614942  1
  Ni  Ni106  1  0.88532135  0.38532135  0.53143079  1
  Ni  Ni107  1  0.87461056  0.37461056  0.90619875  1
  Ni  Ni108  1  0.73260662  0.88213892  0.71523991  1
  Ni  Ni109  1  0.90947264  0.40947264  0.78034861  1
  Ni  Ni110  1  0.38213892  0.23260662  0.71523991  1
  Ni  Ni111  1  0.40084792  0.55006192  0.21552813  1
  Ni  Ni112  1  0.39505564  0.89505564  0.84239169  1
  Ni  Ni113  1  0.40815305  0.90815305  0.59361652  1
  Ni  Ni114  1  0.40947264  0.90947264  0.21965139  1
  Ni  Ni115  1  0.39695606  0.89695606  0.96858515  1
  Ni  Ni116  1  0.37315487  0.87315487  0.71939796  1
  Ni  Ni117  1  0.23609850  0.38249334  0.90469062  1
  Ni  Ni118  1  0.90815305  0.40815305  0.40638348  1
  Ni  Ni119  1  0.40043454  0.54647402  0.59514448  1
  Ni  Ni120  1  0.38532135  0.88532135  0.46856921  1
  Ni  Ni121  1  0.88249334  0.73609850  0.90469062  1
  Ni  Ni122  1  0.54647402  0.40043454  0.40485552  1
  Ni  Ni123  1  0.87315487  0.37315487  0.28060204  1
  Ni  Ni124  1  0.05006192  0.90084792  0.21552813  1
  Ni  Ni125  1  0.90043454  0.04647402  0.40485552  1
  Ni  Ni126  1  0.88773288  0.38773288  0.65724950  1
  Ni  Ni127  1  0.88213892  0.73260662  0.28476009  1
  Ni  Ni128  1  0.04647402  0.90043454  0.59514448  1
  Ni  Ni129  1  0.38773288  0.88773288  0.34275050  1
  Ni  Ni130  1  0.38249334  0.23609850  0.09530938  1
  Ni  Ni131  1  0.90084792  0.05006192  0.78447187  1
  Ni  Ni132  1  0.89695606  0.39695606  0.03141485  1
  Ni  Ni133  1  0.23260662  0.38213892  0.28476009  1
  Ni  Ni134  1  0.37461056  0.87461056  0.09380125  1
  Ni  Ni135  1  0.73609850  0.88249334  0.09530938  1
  Ni  Ni136  1  0.89505564  0.39505564  0.15760831  1
  Ni  Ni137  1  0.55006192  0.40084792  0.78447187  1
