# generated using pymatgen
data_Cs2NaAl(PO4)2
_symmetry_space_group_name_H-M   'P 1'
_cell_length_a   9.35255836
_cell_length_b   11.20211887
_cell_length_c   19.23402640
_cell_angle_alpha   90.05949815
_cell_angle_beta   90.00000000
_cell_angle_gamma   90.00000000
_symmetry_Int_Tables_number   1
_chemical_formula_structural   Cs2NaAl(PO4)2
_chemical_formula_sum   'Cs16 Na8 Al8 P16 O64'
_cell_volume   2015.11844107
_cell_formula_units_Z   8
loop_
 _symmetry_equiv_pos_site_id
 _symmetry_equiv_pos_as_xyz
  1  'x, y, z'
loop_
 _atom_site_type_symbol
 _atom_site_label
 _atom_site_symmetry_multiplicity
 _atom_site_fract_x
 _atom_site_fract_y
 _atom_site_fract_z
 _atom_site_occupancy
  Cs  Cs0  1  0.99978493  0.08495561  0.11874696  1
  Cs  Cs1  1  0.99477139  0.59271794  0.60230937  1
  Cs  Cs2  1  0.54106059  0.18469057  0.14623429  1
  Cs  Cs3  1  0.95893941  0.18469057  0.64623429  1
  Cs  Cs4  1  0.04106059  0.81530943  0.35376571  1
  Cs  Cs5  1  0.45893941  0.81530943  0.85376571  1
  Cs  Cs6  1  0.00522861  0.40728206  0.39769063  1
  Cs  Cs7  1  0.96598100  0.31345159  0.86671882  1
  Cs  Cs8  1  0.49477139  0.40728206  0.89769063  1
  Cs  Cs9  1  0.00021507  0.91504439  0.88125304  1
  Cs  Cs10  1  0.49978493  0.91504439  0.38125304  1
  Cs  Cs11  1  0.50522861  0.59271794  0.10230937  1
  Cs  Cs12  1  0.03401900  0.68654841  0.13328118  1
  Cs  Cs13  1  0.50021507  0.08495561  0.61874696  1
  Cs  Cs14  1  0.53401900  0.31345159  0.36671882  1
  Cs  Cs15  1  0.46598100  0.68654841  0.63328118  1
  Na  Na16  1  0.35302606  0.91057203  0.20856693  1
  Na  Na17  1  0.16965819  0.60274528  0.96059541  1
  Na  Na18  1  0.83034181  0.39725472  0.03940459  1
  Na  Na19  1  0.33034181  0.60274528  0.46059541  1
  Na  Na20  1  0.85302606  0.08942797  0.29143307  1
  Na  Na21  1  0.64697394  0.08942797  0.79143307  1
  Na  Na22  1  0.66965819  0.39725472  0.53940459  1
  Na  Na23  1  0.14697394  0.91057203  0.70856693  1
  Al  Al24  1  0.17352713  0.38431069  0.21043927  1
  Al  Al25  1  0.83991117  0.88191998  0.54126690  1
  Al  Al26  1  0.33991117  0.11808002  0.95873310  1
  Al  Al27  1  0.82647287  0.61568931  0.78956073  1
  Al  Al28  1  0.16008883  0.11808002  0.45873310  1
  Al  Al29  1  0.67352713  0.61568931  0.28956073  1
  Al  Al30  1  0.66008883  0.88191998  0.04126690  1
  Al  Al31  1  0.32647287  0.38431069  0.71043927  1
  P  P32  1  0.77094228  0.85301725  0.70095915  1
  P  P33  1  0.31249255  0.87857787  0.03906781  1
  P  P34  1  0.81249255  0.12142213  0.46093219  1
  P  P35  1  0.17460594  0.60332681  0.78200422  1
  P  P36  1  0.78873140  0.66319251  0.95236911  1
  P  P37  1  0.82539406  0.39667319  0.21799578  1
  P  P38  1  0.68750745  0.12142213  0.96093219  1
  P  P39  1  0.28873140  0.33680749  0.54763089  1
  P  P40  1  0.72905772  0.85301725  0.20095915  1
  P  P41  1  0.27094228  0.14698275  0.79904085  1
  P  P42  1  0.18750745  0.87857787  0.53906781  1
  P  P43  1  0.21126860  0.33680749  0.04763089  1
  P  P44  1  0.67460594  0.39667319  0.71799578  1
  P  P45  1  0.32539406  0.60332681  0.28200422  1
  P  P46  1  0.71126860  0.66319251  0.45236911  1
  P  P47  1  0.22905772  0.14698275  0.29904085  1
  O  O48  1  0.77169537  0.09869750  0.89427934  1
  O  O49  1  0.49173498  0.57672565  0.28663828  1
  O  O50  1  0.27713115  0.32210852  0.62974773  1
  O  O51  1  0.22874174  0.97774576  0.48320074  1
  O  O52  1  0.22830463  0.90130250  0.10572066  1
  O  O53  1  0.47632777  0.89829232  0.05614641  1
  O  O54  1  0.20890141  0.75661053  0.50626096  1
  O  O55  1  0.28218460  0.28265079  0.77609194  1
  O  O56  1  0.29109859  0.75661053  0.00626096  1
  O  O57  1  0.22286885  0.32210852  0.12974773  1
  O  O58  1  0.00826502  0.57672565  0.78663828  1
  O  O59  1  0.97632777  0.10170768  0.44385359  1
  O  O60  1  0.25427932  0.56868741  0.35038418  1
  O  O61  1  0.74623402  0.84111852  0.11874082  1
  O  O62  1  0.30725309  0.22835729  0.02166269  1
  O  O63  1  0.75376598  0.84111852  0.61874082  1
  O  O64  1  0.77713115  0.67789148  0.87025227  1
  O  O65  1  0.13282199  0.09374295  0.77047935  1
  O  O66  1  0.70127760  0.26802436  0.74042276  1
  O  O67  1  0.86717801  0.90625705  0.22952065  1
  O  O68  1  0.90505529  0.92227654  0.71949233  1
  O  O69  1  0.78218460  0.71734921  0.72390806  1
  O  O70  1  0.44336551  0.32024945  0.52458047  1
  O  O71  1  0.29872240  0.73197564  0.25957724  1
  O  O72  1  0.25376598  0.15888148  0.88125918  1
  O  O73  1  0.52367223  0.10170768  0.94385359  1
  O  O74  1  0.22721394  0.51718534  0.72120967  1
  O  O75  1  0.22040701  0.45396920  0.52491329  1
  O  O76  1  0.02367223  0.89829232  0.55614641  1
  O  O77  1  0.09494471  0.07772346  0.28050767  1
  O  O78  1  0.72721394  0.48281466  0.77879033  1
  O  O79  1  0.55663449  0.67975055  0.47541953  1
  O  O80  1  0.63282199  0.90625705  0.72952065  1
  O  O81  1  0.80725309  0.77164271  0.47833731  1
  O  O82  1  0.72874174  0.02225424  0.01679926  1
  O  O83  1  0.79872240  0.26802436  0.24042276  1
  O  O84  1  0.40505529  0.07772346  0.78050767  1
  O  O85  1  0.94336551  0.67975055  0.97541953  1
  O  O86  1  0.19274691  0.22835729  0.52166269  1
  O  O87  1  0.50826502  0.42327435  0.71336172  1
  O  O88  1  0.77959299  0.54603080  0.47508671  1
  O  O89  1  0.27169537  0.90130250  0.60572066  1
  O  O90  1  0.21781540  0.28265079  0.27609194  1
  O  O91  1  0.71781540  0.71734921  0.22390806  1
  O  O92  1  0.77278606  0.48281466  0.27879033  1
  O  O93  1  0.77125826  0.02225424  0.51679926  1
  O  O94  1  0.24572068  0.56868741  0.85038418  1
  O  O95  1  0.27959299  0.45396920  0.02491329  1
  O  O96  1  0.69274691  0.77164271  0.97833731  1
  O  O97  1  0.74572068  0.43131259  0.64961582  1
  O  O98  1  0.27278606  0.51718534  0.22120967  1
  O  O99  1  0.20127760  0.73197564  0.75957724  1
  O  O100  1  0.70890141  0.24338947  0.99373904  1
  O  O101  1  0.24623402  0.15888148  0.38125918  1
  O  O102  1  0.72040701  0.54603080  0.97508671  1
  O  O103  1  0.59494471  0.92227654  0.21949233  1
  O  O104  1  0.72830463  0.09869750  0.39427934  1
  O  O105  1  0.72286885  0.67789148  0.37025227  1
  O  O106  1  0.99173498  0.42327435  0.21336172  1
  O  O107  1  0.75427932  0.43131259  0.14961582  1
  O  O108  1  0.05663449  0.32024945  0.02458047  1
  O  O109  1  0.79109859  0.24338947  0.49373904  1
  O  O110  1  0.36717801  0.09374295  0.27047935  1
  O  O111  1  0.27125826  0.97774576  0.98320074  1
