# generated using pymatgen
data_K4Hf3Te17
_symmetry_space_group_name_H-M   'P 1'
_cell_length_a   10.42084011
_cell_length_b   11.97144767
_cell_length_c   31.17634547
_cell_angle_alpha   90.00000000
_cell_angle_beta   90.00000000
_cell_angle_gamma   116.14467975
_symmetry_Int_Tables_number   1
_chemical_formula_structural   K4Hf3Te17
_chemical_formula_sum   'K16 Hf12 Te68'
_cell_volume   3491.38874088
_cell_formula_units_Z   4
loop_
 _symmetry_equiv_pos_site_id
 _symmetry_equiv_pos_as_xyz
  1  'x, y, z'
loop_
 _atom_site_type_symbol
 _atom_site_label
 _atom_site_symmetry_multiplicity
 _atom_site_fract_x
 _atom_site_fract_y
 _atom_site_fract_z
 _atom_site_occupancy
  K  K0  1  0.26209784  0.46166199  0.98080581  1
  K  K1  1  0.69646708  0.43506169  0.72288808  1
  K  K2  1  0.26209784  0.96166199  0.51919419  1
  K  K3  1  0.77122621  0.01981613  0.93276263  1
  K  K4  1  0.77122621  0.51981613  0.56723737  1
  K  K5  1  0.22877379  0.98018387  0.06723737  1
  K  K6  1  0.24047206  0.96429558  0.70538935  1
  K  K7  1  0.75952794  0.03570442  0.29461065  1
  K  K8  1  0.73790216  0.03833801  0.48080581  1
  K  K9  1  0.30353292  0.56493831  0.27711192  1
  K  K10  1  0.22877379  0.48018387  0.43276263  1
  K  K11  1  0.69646708  0.93506169  0.77711192  1
  K  K12  1  0.75952794  0.53570442  0.20538935  1
  K  K13  1  0.24047206  0.46429558  0.79461065  1
  K  K14  1  0.73790216  0.53833801  0.01919419  1
  K  K15  1  0.30353292  0.06493831  0.22288808  1
  Hf  Hf16  1  0.55115174  0.33412455  0.38203503  1
  Hf  Hf17  1  0.21413635  0.50526531  0.11886270  1
  Hf  Hf18  1  0.11775486  0.82477655  0.88075562  1
  Hf  Hf19  1  0.78586365  0.99473469  0.61886270  1
  Hf  Hf20  1  0.44884826  0.66587545  0.61796497  1
  Hf  Hf21  1  0.44884826  0.16587545  0.88203503  1
  Hf  Hf22  1  0.11775486  0.32477655  0.61924438  1
  Hf  Hf23  1  0.55115174  0.83412455  0.11796497  1
  Hf  Hf24  1  0.21413635  0.00526531  0.38113730  1
  Hf  Hf25  1  0.88224514  0.17522345  0.11924438  1
  Hf  Hf26  1  0.88224514  0.67522345  0.38075562  1
  Hf  Hf27  1  0.78586365  0.49473469  0.88113730  1
  Te  Te28  1  0.68995579  0.77217516  0.67785543  1
  Te  Te29  1  0.31004421  0.72782484  0.17785543  1
  Te  Te30  1  0.30184052  0.71546489  0.05592501  1
  Te  Te31  1  0.79919665  0.24052389  0.59995891  1
  Te  Te32  1  0.86892653  0.91686811  0.11404614  1
  Te  Te33  1  0.79919665  0.74052389  0.90004109  1
  Te  Te34  1  0.39813197  0.70931516  0.70767475  1
  Te  Te35  1  0.30184052  0.21546489  0.44407499  1
  Te  Te36  1  -0.00353782  0.65625596  0.46975474  1
  Te  Te37  1  0.00764402  0.65833641  0.29408946  1
  Te  Te38  1  0.06285090  0.63136013  0.69723972  1
  Te  Te39  1  0.39813197  0.20931516  0.79232525  1
  Te  Te40  1  0.01630162  0.62076750  0.10585048  1
  Te  Te41  1  0.59620004  0.78461546  0.02674671  1
  Te  Te42  1  0.13107347  0.58313189  0.61404614  1
  Te  Te43  1  0.37244033  0.26011229  0.61781646  1
  Te  Te44  1  0.37244033  0.76011229  0.88218354  1
  Te  Te45  1  0.31004421  0.22782484  0.32214457  1
  Te  Te46  1  0.61622444  0.54688071  0.43891285  1
  Te  Te47  1  0.02288711  0.60849377  0.94316731  1
  Te  Te48  1  0.69815948  0.78453511  0.55592501  1
  Te  Te49  1  0.38377556  0.45311929  0.56108715  1
  Te  Te50  1  0.98369838  0.87923250  0.60585048  1
  Te  Te51  1  0.59620004  0.28461546  0.47325329  1
  Te  Te52  1  0.37370570  0.41275786  0.17635143  1
  Te  Te53  1  0.62629430  0.58724214  0.82364857  1
  Te  Te54  1  0.98687782  0.38198809  0.18271630  1
  Te  Te55  1  0.52313678  0.57610682  0.10619555  1
  Te  Te56  1  0.40379996  0.21538454  0.97325329  1
  Te  Te57  1  0.20080335  0.75947611  0.40004109  1
  Te  Te58  1  0.01312218  0.11801191  0.68271630  1
  Te  Te59  1  0.60186803  0.29068484  0.29232525  1
  Te  Te60  1  0.98369838  0.37923250  0.89414952  1
  Te  Te61  1  0.62298258  0.54637574  0.32331806  1
  Te  Te62  1  0.69815948  0.28453511  0.94407499  1
  Te  Te63  1  0.62755967  0.73988771  0.38218354  1
  Te  Te64  1  0.97711289  0.89150623  0.44316731  1
  Te  Te65  1  0.01630162  0.12076750  0.39414952  1
  Te  Te66  1  0.02288711  0.10849377  0.55683269  1
  Te  Te67  1  0.01312218  0.61801191  0.81728370  1
  Te  Te68  1  0.93714910  0.86863987  0.19723972  1
  Te  Te69  1  0.37701742  0.45362426  0.67668194  1
  Te  Te70  1  0.37701742  0.95362426  0.82331806  1
  Te  Te71  1  0.06285090  0.13136013  0.80276028  1
  Te  Te72  1  0.47686322  0.42389318  0.89380445  1
  Te  Te73  1  0.47686322  0.92389318  0.60619555  1
  Te  Te74  1  0.86892653  0.41686811  0.38595386  1
  Te  Te75  1  1.00353782  0.84374404  0.96975474  1
  Te  Te76  1  0.62629430  0.08724214  0.67635143  1
  Te  Te77  1  0.00764402  0.15833641  0.20591054  1
  Te  Te78  1  0.99235598  0.34166359  0.70591054  1
  Te  Te79  1  -0.00353782  0.15625596  0.03024526  1
  Te  Te80  1  1.00353782  0.34374404  0.53024526  1
  Te  Te81  1  0.52313678  0.07610682  0.39380445  1
  Te  Te82  1  0.98687782  0.88198809  0.31728370  1
  Te  Te83  1  0.13107347  0.08313189  0.88595386  1
  Te  Te84  1  0.40379996  0.71538454  0.52674671  1
  Te  Te85  1  0.93714910  0.36863987  0.30276028  1
  Te  Te86  1  0.62755967  0.23988771  0.11781646  1
  Te  Te87  1  0.68995579  0.27217516  0.82214457  1
  Te  Te88  1  0.20080335  0.25947611  0.09995891  1
  Te  Te89  1  0.37370570  0.91275786  0.32364857  1
  Te  Te90  1  0.97711289  0.39150623  0.05683269  1
  Te  Te91  1  0.38377556  0.95311929  0.93891285  1
  Te  Te92  1  0.61622444  0.04688071  0.06108715  1
  Te  Te93  1  0.99235598  0.84166359  0.79408946  1
  Te  Te94  1  0.60186803  0.79068484  0.20767475  1
  Te  Te95  1  0.62298258  0.04637574  0.17668194  1
