# generated using pymatgen
data_CsAsSe2
_symmetry_space_group_name_H-M   'P 1'
_cell_length_a   7.27578852
_cell_length_b   10.80630292
_cell_length_c   15.56320635
_cell_angle_alpha   90.00000000
_cell_angle_beta   90.00000000
_cell_angle_gamma   104.08984554
_symmetry_Int_Tables_number   1
_chemical_formula_structural   CsAsSe2
_chemical_formula_sum   'Cs8 As8 Se16'
_cell_volume   1186.83415079
_cell_formula_units_Z   8
loop_
 _symmetry_equiv_pos_site_id
 _symmetry_equiv_pos_as_xyz
  1  'x, y, z'
loop_
 _atom_site_type_symbol
 _atom_site_label
 _atom_site_symmetry_multiplicity
 _atom_site_fract_x
 _atom_site_fract_y
 _atom_site_fract_z
 _atom_site_occupancy
  Cs  Cs0  1  0.77234638  0.56368278  0.89786272  1
  Cs  Cs1  1  0.14535638  0.45811779  0.70436795  1
  Cs  Cs2  1  0.64535638  0.95811779  0.79563205  1
  Cs  Cs3  1  0.27234638  0.06368278  0.60213728  1
  Cs  Cs4  1  0.72765362  0.93631722  0.39786272  1
  Cs  Cs5  1  0.22765362  0.43631722  0.10213728  1
  Cs  Cs6  1  0.35464362  0.04188221  0.20436795  1
  Cs  Cs7  1  0.85464362  0.54188221  0.29563205  1
  As  As8  1  0.21009563  0.66918424  0.48934931  1
  As  As9  1  0.75601075  0.84337361  0.06385903  1
  As  As10  1  0.78990437  0.33081576  0.51065069  1
  As  As11  1  0.24398925  0.15662639  0.93614097  1
  As  As12  1  0.28990437  0.83081576  0.98934931  1
  As  As13  1  0.71009563  0.16918424  0.01065069  1
  As  As14  1  0.25601075  0.34337361  0.43614097  1
  As  As15  1  0.74398925  0.65662639  0.56385903  1
  Se  Se16  1  0.69259849  0.34984109  0.08983762  1
  Se  Se17  1  0.19259849  0.84984109  0.41016238  1
  Se  Se18  1  0.03059215  0.75488296  0.09812063  1
  Se  Se19  1  0.56638179  0.74507405  0.17851315  1
  Se  Se20  1  0.43361821  0.25492595  0.82148685  1
  Se  Se21  1  0.06638179  0.24507405  0.32148685  1
  Se  Se22  1  0.80740151  0.15015891  0.58983762  1
  Se  Se23  1  0.13096380  0.93495434  0.88035993  1
  Se  Se24  1  0.93361821  0.75492595  0.67851315  1
  Se  Se25  1  0.63096380  0.43495434  0.61964007  1
  Se  Se26  1  0.86903620  0.06504566  0.11964007  1
  Se  Se27  1  0.36903620  0.56504566  0.38035993  1
  Se  Se28  1  0.96940785  0.24511704  0.90187937  1
  Se  Se29  1  0.46940785  0.74511704  0.59812063  1
  Se  Se30  1  0.30740151  0.65015891  0.91016238  1
  Se  Se31  1  0.53059215  0.25488296  0.40187937  1
