# generated using pymatgen
data_Cs2Zr(Si2O5)3
_symmetry_space_group_name_H-M   'P 1'
_cell_length_a   7.61301258
_cell_length_b   11.78537955
_cell_length_c   14.03168651
_cell_angle_alpha   106.69329026
_cell_angle_beta   105.74147729
_cell_angle_gamma   90.00021169
_symmetry_Int_Tables_number   1
_chemical_formula_structural   Cs2Zr(Si2O5)3
_chemical_formula_sum   'Cs6 Zr3 Si18 O45'
_cell_volume   1156.51636057
_cell_formula_units_Z   3
loop_
 _symmetry_equiv_pos_site_id
 _symmetry_equiv_pos_as_xyz
  1  'x, y, z'
loop_
 _atom_site_type_symbol
 _atom_site_label
 _atom_site_symmetry_multiplicity
 _atom_site_fract_x
 _atom_site_fract_y
 _atom_site_fract_z
 _atom_site_occupancy
  Cs  Cs0  1  0.10265077  0.62914394  0.20516218  1
  Cs  Cs1  1  0.42396336  0.98747011  0.84794698  1
  Cs  Cs2  1  0.75277564  0.36173000  0.50545028  1
  Cs  Cs3  1  0.24722436  0.63827000  0.49454972  1
  Cs  Cs4  1  0.57603664  0.01252989  0.15205302  1
  Cs  Cs5  1  0.89734923  0.37085606  0.79483782  1
  Zr  Zr6  1  0.00000000  0.00000000  0.00000000  1
  Zr  Zr7  1  0.67944531  0.64189666  0.35889250  1
  Zr  Zr8  1  0.32055469  0.35810334  0.64110750  1
  Si  Si9  1  0.43034423  0.37094883  0.25624066  1
  Si  Si10  1  0.18312898  0.26781674  0.36619892  1
  Si  Si11  1  0.13699604  0.99819455  0.27408167  1
  Si  Si12  1  0.89152704  0.90792066  0.38803067  1
  Si  Si13  1  0.56965577  0.62905117  0.74375934  1
  Si  Si14  1  0.79112559  0.73191786  0.97488704  1
  Si  Si15  1  0.18370170  0.73189426  0.97487644  1
  Si  Si16  1  0.10847296  0.09207934  0.61196933  1
  Si  Si17  1  0.81687102  0.73218326  0.63380108  1
  Si  Si18  1  0.54161569  0.63244818  0.08323705  1
  Si  Si19  1  0.45838431  0.36755182  0.91676295  1
  Si  Si20  1  0.50353380  0.09207884  0.61197396  1
  Si  Si21  1  0.81629830  0.26810574  0.02512356  1
  Si  Si22  1  0.17401774  0.62902048  0.74375919  1
  Si  Si23  1  0.20887441  0.26808214  0.02511296  1
  Si  Si24  1  0.86300396  0.00180545  0.72591833  1
  Si  Si25  1  0.82598226  0.37097952  0.25624081  1
  Si  Si26  1  0.49646620  0.90792116  0.38802604  1
  O  O27  1  0.18135711  0.12830035  0.36273239  1
  O  O28  1  0.46735421  0.50693240  0.32923608  1
  O  O29  1  0.07869804  0.00522418  0.15736568  1
  O  O30  1  0.67203380  0.71292123  0.69713614  1
  O  O31  1  0.50767698  0.22906424  0.61164022  1
  O  O32  1  0.50000000  0.00000000  0.50000000  1
  O  O33  1  0.00000000  0.00000000  0.50000000  1
  O  O34  1  0.62541185  0.31009936  0.25071955  1
  O  O35  1  0.81864289  0.87169965  0.63726761  1
  O  O36  1  0.53264579  0.49306760  0.67076392  1
  O  O37  1  0.92130196  0.99477582  0.84263432  1
  O  O38  1  0.17053701  0.63590767  0.86133685  1
  O  O39  1  0.35792535  0.70603909  0.06187307  1
  O  O40  1  0.13806166  0.49304950  0.67073995  1
  O  O41  1  0.89605660  0.77093732  0.38836116  1
  O  O42  1  0.32189253  0.92585827  0.29611847  1
  O  O43  1  0.75834373  0.64506952  0.51668101  1
  O  O44  1  0.64207465  0.29396091  0.93812693  1
  O  O45  1  0.02500568  0.71290802  0.69717328  1
  O  O46  1  0.32117897  0.05447437  0.64233096  1
  O  O47  1  0.86193834  0.50695050  0.32926005  1
  O  O48  1  0.30929898  0.36405064  0.13865569  1
  O  O49  1  0.99640853  0.30526231  0.99275829  1
  O  O50  1  0.02590455  0.07411491  0.70390181  1
  O  O51  1  0.00359147  0.69473769  0.00724171  1
  O  O52  1  0.39938322  0.36932793  0.79873522  1
  O  O53  1  0.10394340  0.22906268  0.61163884  1
  O  O54  1  0.78499921  0.86807585  0.97339807  1
  O  O55  1  0.69070102  0.63594936  0.86134431  1
  O  O56  1  0.29606216  0.29395009  0.93811240  1
  O  O57  1  0.70393784  0.70604991  0.06188760  1
  O  O58  1  0.24165627  0.35493048  0.48331899  1
  O  O59  1  0.60061678  0.63067207  0.20126478  1
  O  O60  1  0.37458815  0.68990064  0.74928045  1
  O  O61  1  0.81167106  0.13194645  0.02661281  1
  O  O62  1  0.49232302  0.77093576  0.38835978  1
  O  O63  1  0.21500079  0.13192415  0.02660193  1
  O  O64  1  0.50000000  0.50000000  0.00000000  1
  O  O65  1  0.67810747  0.07414173  0.70388153  1
  O  O66  1  0.32796620  0.28707877  0.30286386  1
  O  O67  1  0.82946299  0.36409233  0.13866315  1
  O  O68  1  0.97409545  0.92588509  0.29609819  1
  O  O69  1  0.18832894  0.86805355  0.97338719  1
  O  O70  1  0.97499432  0.28709198  0.30282672  1
  O  O71  1  0.67882103  0.94552563  0.35766904  1
