# generated using pymatgen
data_RbAg3S2
_symmetry_space_group_name_H-M   'P 1'
_cell_length_a   4.35272763
_cell_length_b   10.17840539
_cell_length_c   9.96128489
_cell_angle_alpha   124.17319996
_cell_angle_beta   90.00000000
_cell_angle_gamma   102.34640745
_symmetry_Int_Tables_number   1
_chemical_formula_structural   RbAg3S2
_chemical_formula_sum   'Rb2 Ag6 S4'
_cell_volume   352.72103730
_cell_formula_units_Z   2
loop_
 _symmetry_equiv_pos_site_id
 _symmetry_equiv_pos_as_xyz
  1  'x, y, z'
loop_
 _atom_site_type_symbol
 _atom_site_label
 _atom_site_symmetry_multiplicity
 _atom_site_fract_x
 _atom_site_fract_y
 _atom_site_fract_z
 _atom_site_occupancy
  S  S0  1  0.52678665  0.05357330  0.77849595  1
  S  S1  1  0.20446959  0.40893919  0.65748229  1
  S  S2  1  0.79553041  0.59106081  0.34251771  1
  S  S3  1  0.47321335  0.94642670  0.22150405  1
  Rb  Rb4  1  0.85367950  0.70735900  0.89621008  1
  Rb  Rb5  1  0.14632050  0.29264100  0.10378992  1
  Ag  Ag6  1  0.09111741  0.18223482  0.69085035  1
  Ag  Ag7  1  0.94650181  0.89300361  0.66566154  1
  Ag  Ag8  1  0.90888259  0.81776518  0.30914965  1
  Ag  Ag9  1  0.63582040  0.27164081  0.54533713  1
  Ag  Ag10  1  0.36417960  0.72835919  0.45466287  1
  Ag  Ag11  1  0.05349819  0.10699639  0.33433846  1
