# generated using pymatgen
data_Sr21(Cd2Bi9)2
_symmetry_space_group_name_H-M   'P 1'
_cell_length_a   13.02176412
_cell_length_b   13.02176353
_cell_length_c   18.48110460
_cell_angle_alpha   88.58583176
_cell_angle_beta   88.58583182
_cell_angle_gamma   87.50421000
_symmetry_Int_Tables_number   1
_chemical_formula_structural   Sr21(Cd2Bi9)2
_chemical_formula_sum   'Sr42 Cd8 Bi36'
_cell_volume   3128.97267330
_cell_formula_units_Z   2
loop_
 _symmetry_equiv_pos_site_id
 _symmetry_equiv_pos_as_xyz
  1  'x, y, z'
loop_
 _atom_site_type_symbol
 _atom_site_label
 _atom_site_symmetry_multiplicity
 _atom_site_fract_x
 _atom_site_fract_y
 _atom_site_fract_z
 _atom_site_occupancy
  Sr  Sr0  1  0.25871768  0.59702266  0.84369136  1
  Sr  Sr1  1  0.99692053  0.73996064  0.93859210  1
  Sr  Sr2  1  0.99201098  0.23061230  0.42413639  1
  Sr  Sr3  1  0.42112498  0.07206530  0.24233661  1
  Sr  Sr4  1  0.24147521  0.92959185  0.64875882  1
  Sr  Sr5  1  0.57154165  0.32087782  0.61836198  1
  Sr  Sr6  1  0.07040815  0.75852479  0.35124118  1
  Sr  Sr7  1  0.40652438  0.40652438  0.25414416  1
  Sr  Sr8  1  0.76938770  0.00798902  0.57586361  1
  Sr  Sr9  1  0.49504008  0.81889354  0.56459013  1
  Sr  Sr10  1  0.81889354  0.49504008  0.56459013  1
  Sr  Sr11  1  0.26003936  0.00307947  0.06140790  1
  Sr  Sr12  1  0.57887502  0.92793470  0.75766339  1
  Sr  Sr13  1  0.74948276  0.07589068  0.14558625  1
  Sr  Sr14  1  0.50892901  0.25481852  0.05594729  1
  Sr  Sr15  1  0.59702266  0.25871768  0.84369136  1
  Sr  Sr16  1  0.50495992  0.18110646  0.43540987  1
  Sr  Sr17  1  0.00798902  0.76938770  0.57586361  1
  Sr  Sr18  1  0.07589068  0.74948276  0.14558625  1
  Sr  Sr19  1  0.75852479  0.07040815  0.35124118  1
  Sr  Sr20  1  0.49107099  0.74518148  0.94405271  1
  Sr  Sr21  1  0.74565406  0.74565406  0.41773929  1
  Sr  Sr22  1  0.92959185  0.24147521  0.64875882  1
  Sr  Sr23  1  0.40297734  0.74128232  0.15630864  1
  Sr  Sr24  1  0.25434594  0.25434594  0.58226071  1
  Sr  Sr25  1  0.23061230  0.99201098  0.42413639  1
  Sr  Sr26  1  0.26389417  0.26389417  0.90594327  1
  Sr  Sr27  1  0.74518148  0.49107099  0.94405271  1
  Sr  Sr28  1  0.73996064  0.99692053  0.93859210  1
  Sr  Sr29  1  0.73610583  0.73610583  0.09405673  1
  Sr  Sr30  1  0.59347562  0.59347562  0.74585584  1
  Sr  Sr31  1  0.07206530  0.42112498  0.24233661  1
  Sr  Sr32  1  0.92410932  0.25051724  0.85441375  1
  Sr  Sr33  1  0.32087782  0.57154165  0.61836198  1
  Sr  Sr34  1  0.25481852  0.50892901  0.05594729  1
  Sr  Sr35  1  0.25051724  0.92410932  0.85441375  1
  Sr  Sr36  1  0.67912218  0.42845835  0.38163802  1
  Sr  Sr37  1  0.18110646  0.50495992  0.43540987  1
  Sr  Sr38  1  0.42845835  0.67912218  0.38163802  1
  Sr  Sr39  1  0.74128232  0.40297734  0.15630864  1
  Sr  Sr40  1  0.92793470  0.57887502  0.75766339  1
  Sr  Sr41  1  0.00307947  0.26003936  0.06140790  1
  Cd  Cd42  1  0.38989489  0.14300690  0.75321964  1
  Cd  Cd43  1  0.00217323  0.00217323  0.20936893  1
  Cd  Cd44  1  0.15503965  0.15503965  0.24678589  1
  Cd  Cd45  1  0.99782677  0.99782677  0.79063107  1
  Cd  Cd46  1  0.14300690  0.38989489  0.75321964  1
  Cd  Cd47  1  0.61010511  0.85699310  0.24678036  1
  Cd  Cd48  1  0.84496035  0.84496035  0.75321411  1
  Cd  Cd49  1  0.85699310  0.61010511  0.24678036  1
  Bi  Bi50  1  0.38199735  0.38199735  0.74380381  1
  Bi  Bi51  1  0.23917515  0.60335834  0.25633406  1
  Bi  Bi52  1  0.06038509  0.06038509  0.94070319  1
  Bi  Bi53  1  0.60335834  0.23917515  0.25633406  1
  Bi  Bi54  1  0.26056654  0.26056654  0.11668220  1
  Bi  Bi55  1  0.24421443  0.75578557  0.00000000  1
  Bi  Bi56  1  0.05645499  0.45752462  0.90734941  1
  Bi  Bi57  1  0.25145172  0.25145172  0.37619281  1
  Bi  Bi58  1  0.95074835  0.95074835  0.43446920  1
  Bi  Bi59  1  0.21728966  0.92061335  0.24340129  1
  Bi  Bi60  1  0.53651833  0.53651833  0.07639850  1
  Bi  Bi61  1  0.84717314  0.84717314  0.25308157  1
  Bi  Bi62  1  0.75505705  0.24494295  0.50000000  1
  Bi  Bi63  1  0.07938665  0.78271034  0.75659871  1
  Bi  Bi64  1  0.74854828  0.74854828  0.62380719  1
  Bi  Bi65  1  0.15282686  0.15282686  0.74691843  1
  Bi  Bi66  1  0.46718456  0.07169511  0.60718751  1
  Bi  Bi67  1  0.61800265  0.61800265  0.25619619  1
  Bi  Bi68  1  0.39664166  0.76082485  0.74366594  1
  Bi  Bi69  1  0.76082485  0.39664166  0.74366594  1
  Bi  Bi70  1  0.93961491  0.93961491  0.05929681  1
  Bi  Bi71  1  0.94354501  0.54247538  0.09265059  1
  Bi  Bi72  1  0.46348167  0.46348167  0.92360150  1
  Bi  Bi73  1  0.92830489  0.53281544  0.39281249  1
  Bi  Bi74  1  0.73943346  0.73943346  0.88331780  1
  Bi  Bi75  1  0.42529808  0.42529808  0.46436213  1
  Bi  Bi76  1  0.07169511  0.46718456  0.60718751  1
  Bi  Bi77  1  0.54247538  0.94354501  0.09265059  1
  Bi  Bi78  1  0.24494295  0.75505705  0.50000000  1
  Bi  Bi79  1  0.75578557  0.24421443  0.00000000  1
  Bi  Bi80  1  0.45752462  0.05645499  0.90734941  1
  Bi  Bi81  1  0.78271034  0.07938665  0.75659871  1
  Bi  Bi82  1  0.57470192  0.57470192  0.53563787  1
  Bi  Bi83  1  0.53281544  0.92830489  0.39281249  1
  Bi  Bi84  1  0.92061335  0.21728966  0.24340129  1
  Bi  Bi85  1  0.04925165  0.04925165  0.56553080  1
