# generated using pymatgen
data_Cs3Cu2Cl5
_symmetry_space_group_name_H-M   'P 1'
_cell_length_a   9.47826320
_cell_length_b   10.63628765
_cell_length_c   13.30294592
_cell_angle_alpha   90.00000000
_cell_angle_beta   90.00000000
_cell_angle_gamma   90.00000000
_symmetry_Int_Tables_number   1
_chemical_formula_structural   Cs3Cu2Cl5
_chemical_formula_sum   'Cs12 Cu8 Cl20'
_cell_volume   1341.11698838
_cell_formula_units_Z   4
loop_
 _symmetry_equiv_pos_site_id
 _symmetry_equiv_pos_as_xyz
  1  'x, y, z'
loop_
 _atom_site_type_symbol
 _atom_site_label
 _atom_site_symmetry_multiplicity
 _atom_site_fract_x
 _atom_site_fract_y
 _atom_site_fract_z
 _atom_site_occupancy
  Cs  Cs0  1  0.53866254  0.51318162  0.82104018  1
  Cs  Cs1  1  0.46133746  0.48681838  0.17895982  1
  Cs  Cs2  1  0.96133746  0.01318162  0.32104018  1
  Cs  Cs3  1  0.03866254  0.98681838  0.67895982  1
  Cs  Cs4  1  0.39265186  0.75000000  0.45401413  1
  Cs  Cs5  1  0.03866254  0.51318162  0.67895982  1
  Cs  Cs6  1  0.60734814  0.25000000  0.54598587  1
  Cs  Cs7  1  0.46133746  0.01318162  0.17895982  1
  Cs  Cs8  1  0.89265186  0.75000000  0.04598587  1
  Cs  Cs9  1  0.96133746  0.48681838  0.32104018  1
  Cs  Cs10  1  0.10734814  0.25000000  0.95401413  1
  Cs  Cs11  1  0.53866254  0.98681838  0.82104018  1
  Cu  Cu12  1  0.26485843  0.25000000  0.36276124  1
  Cu  Cu13  1  0.29227532  0.75000000  0.04896591  1
  Cu  Cu14  1  0.23514157  0.75000000  0.86276124  1
  Cu  Cu15  1  0.79227532  0.75000000  0.45103409  1
  Cu  Cu16  1  0.73514157  0.75000000  0.63723876  1
  Cu  Cu17  1  0.70772468  0.25000000  0.95103409  1
  Cu  Cu18  1  0.76485843  0.25000000  0.13723876  1
  Cu  Cu19  1  0.20772468  0.25000000  0.54896591  1
  Cl  Cl20  1  0.67924614  0.25000000  0.29313865  1
  Cl  Cl21  1  0.81471312  0.06684137  0.05908879  1
  Cl  Cl22  1  0.80305704  0.25000000  0.79729910  1
  Cl  Cl23  1  0.82075386  0.75000000  0.79313865  1
  Cl  Cl24  1  0.02346446  0.75000000  0.48917611  1
  Cl  Cl25  1  0.69694296  0.75000000  0.29729910  1
  Cl  Cl26  1  0.68528688  0.56684137  0.55908879  1
  Cl  Cl27  1  0.17924614  0.25000000  0.20686135  1
  Cl  Cl28  1  0.32075386  0.75000000  0.70686135  1
  Cl  Cl29  1  0.19694296  0.75000000  0.20270090  1
  Cl  Cl30  1  0.31471312  0.43315863  0.44091121  1
  Cl  Cl31  1  0.47653554  0.25000000  0.98917611  1
  Cl  Cl32  1  0.18528688  0.93315863  0.94091121  1
  Cl  Cl33  1  0.81471312  0.43315863  0.05908879  1
  Cl  Cl34  1  0.31471312  0.06684137  0.44091121  1
  Cl  Cl35  1  0.52346446  0.75000000  0.01082389  1
  Cl  Cl36  1  0.97653554  0.25000000  0.51082389  1
  Cl  Cl37  1  0.18528688  0.56684137  0.94091121  1
  Cl  Cl38  1  0.68528688  0.93315863  0.55908879  1
  Cl  Cl39  1  0.30305704  0.25000000  0.70270090  1
