# generated using pymatgen
data_Cs3LaCl6
_symmetry_space_group_name_H-M   'P 1'
_cell_length_a   8.40178293
_cell_length_b   13.75087113
_cell_length_c   14.48408364
_cell_angle_alpha   99.48284944
_cell_angle_beta   106.87313455
_cell_angle_gamma   90.00201314
_symmetry_Int_Tables_number   1
_chemical_formula_structural   Cs3LaCl6
_chemical_formula_sum   'Cs12 La4 Cl24'
_cell_volume   1577.42005940
_cell_formula_units_Z   4
loop_
 _symmetry_equiv_pos_site_id
 _symmetry_equiv_pos_as_xyz
  1  'x, y, z'
loop_
 _atom_site_type_symbol
 _atom_site_label
 _atom_site_symmetry_multiplicity
 _atom_site_fract_x
 _atom_site_fract_y
 _atom_site_fract_z
 _atom_site_occupancy
  Cs  Cs0  1  0.02438222  0.19686402  0.67382501  1
  Cs  Cs1  1  0.16221455  0.85515292  0.69546483  1
  Cs  Cs2  1  0.83778545  0.14484708  0.30453517  1
  Cs  Cs3  1  0.35043736  0.30307124  0.32615366  1
  Cs  Cs4  1  0.78709296  0.42945213  0.09631295  1
  Cs  Cs5  1  0.97561778  0.80313598  0.32617499  1
  Cs  Cs6  1  0.46684936  0.64486200  0.30461543  1
  Cs  Cs7  1  0.64956264  0.69692876  0.67384634  1
  Cs  Cs8  1  0.21290704  0.57054787  0.90368705  1
  Cs  Cs9  1  0.69090184  0.07057472  0.90372325  1
  Cs  Cs10  1  0.30909816  0.92942528  0.09627675  1
  Cs  Cs11  1  0.53315064  0.35513800  0.69538457  1
  La  La12  1  0.79222739  0.74998284  0.00000075  1
  La  La13  1  0.00000000  0.50000000  0.50000000  1
  La  La14  1  0.20777261  0.25001716  0.99999925  1
  La  La15  1  0.50000000  0.00000000  0.50000000  1
  Cl  Cl16  1  0.38746345  0.07931153  0.66069565  1
  Cl  Cl17  1  0.27328235  0.57933502  0.66066798  1
  Cl  Cl18  1  0.09950899  0.70259172  0.12037473  1
  Cl  Cl19  1  0.63535444  0.18628212  0.49678040  1
  Cl  Cl20  1  0.72671765  0.42066498  0.33933202  1
  Cl  Cl21  1  0.02081696  0.20261747  0.12036484  1
  Cl  Cl22  1  0.20639145  0.03019553  0.36076335  1
  Cl  Cl23  1  0.79360855  0.96980447  0.63923665  1
  Cl  Cl24  1  0.15160796  0.06470478  0.88445419  1
  Cl  Cl25  1  0.86147768  0.68627118  0.49677554  1
  Cl  Cl26  1  0.26720333  0.43531723  0.11554620  1
  Cl  Cl27  1  0.49660063  0.17490442  0.11201152  1
  Cl  Cl28  1  0.50339937  0.82509558  0.88798848  1
  Cl  Cl29  1  0.90049101  0.29740828  0.87962527  1
  Cl  Cl30  1  0.84563335  0.46984265  0.63926330  1
  Cl  Cl31  1  0.97918304  0.79738253  0.87963516  1
  Cl  Cl32  1  0.61540648  0.67489445  0.11202758  1
  Cl  Cl33  1  0.84839204  0.93529522  0.11554581  1
  Cl  Cl34  1  0.61253655  0.92068847  0.33930435  1
  Cl  Cl35  1  0.73279667  0.56468277  0.88445380  1
  Cl  Cl36  1  0.38459352  0.32510555  0.88797242  1
  Cl  Cl37  1  0.36464556  0.81371788  0.50321960  1
  Cl  Cl38  1  0.13852232  0.31372882  0.50322446  1
  Cl  Cl39  1  0.15436665  0.53015735  0.36073670  1
