# generated using pymatgen
data_Hf3As
_symmetry_space_group_name_H-M   'P 1'
_cell_length_a   5.41193004
_cell_length_b   8.20187540
_cell_length_c   15.41822747
_cell_angle_alpha   90.30926183
_cell_angle_beta   90.00000000
_cell_angle_gamma   109.26393682
_symmetry_Int_Tables_number   1
_chemical_formula_structural   Hf3As
_chemical_formula_sum   'Hf24 As8'
_cell_volume   646.05386989
_cell_formula_units_Z   8
loop_
 _symmetry_equiv_pos_site_id
 _symmetry_equiv_pos_as_xyz
  1  'x, y, z'
loop_
 _atom_site_type_symbol
 _atom_site_label
 _atom_site_symmetry_multiplicity
 _atom_site_fract_x
 _atom_site_fract_y
 _atom_site_fract_z
 _atom_site_occupancy
  Hf  Hf0  1  0.95474830  0.83463153  0.80913984  1
  Hf  Hf1  1  0.54101744  0.11701892  0.83277280  1
  Hf  Hf2  1  0.12011676  0.16536847  0.69086016  1
  Hf  Hf3  1  0.57600148  0.11701892  0.33277280  1
  Hf  Hf4  1  0.52936777  0.47870971  0.90515991  1
  Hf  Hf5  1  0.42399852  0.88298108  0.66722720  1
  Hf  Hf6  1  0.12011000  0.68982728  0.99016930  1
  Hf  Hf7  1  0.29676162  0.09841831  0.01603305  1
  Hf  Hf8  1  0.87989000  0.31017272  0.00983070  1
  Hf  Hf9  1  0.43028272  0.31017272  0.50983070  1
  Hf  Hf10  1  0.47063223  0.52129029  0.09484009  1
  Hf  Hf11  1  0.56971728  0.68982728  0.49016930  1
  Hf  Hf12  1  0.46845390  0.46770283  0.30078138  1
  Hf  Hf13  1  0.53154610  0.53229717  0.69921862  1
  Hf  Hf14  1  0.70323838  0.90158169  0.98396695  1
  Hf  Hf15  1  0.05065806  0.52129029  0.59484009  1
  Hf  Hf16  1  0.87988324  0.83463153  0.30913984  1
  Hf  Hf17  1  0.80165670  0.09841831  0.51603305  1
  Hf  Hf18  1  0.19834330  0.90158169  0.48396695  1
  Hf  Hf19  1  0.04525170  0.16536847  0.19086016  1
  Hf  Hf20  1  1.00075108  0.53229717  0.19921862  1
  Hf  Hf21  1  0.45898256  0.88298108  0.16722720  1
  Hf  Hf22  1  -0.00075108  0.46770283  0.80078138  1
  Hf  Hf23  1  0.94934194  0.47870971  0.40515991  1
  As  As24  1  0.57962520  0.24357116  0.16652364  1
  As  As25  1  0.06490278  0.16935917  0.87108947  1
  As  As26  1  0.93509722  0.83064083  0.12891053  1
  As  As27  1  0.42037480  0.75642884  0.83347636  1
  As  As28  1  0.33605404  0.75642884  0.33347636  1
  As  As29  1  0.66394596  0.24357116  0.66652364  1
  As  As30  1  0.10445639  0.16935917  0.37108947  1
  As  As31  1  0.89554361  0.83064083  0.62891053  1
