# generated using pymatgen
data_CdI2
_symmetry_space_group_name_H-M   'P 1'
_cell_length_a   4.33697914
_cell_length_b   4.33697941
_cell_length_c   116.34162628
_cell_angle_alpha   90.00000000
_cell_angle_beta   90.00000000
_cell_angle_gamma   119.99999796
_symmetry_Int_Tables_number   1
_chemical_formula_structural   CdI2
_chemical_formula_sum   'Cd15 I30'
_cell_volume   1895.13636105
_cell_formula_units_Z   15
loop_
 _symmetry_equiv_pos_site_id
 _symmetry_equiv_pos_as_xyz
  1  'x, y, z'
loop_
 _atom_site_type_symbol
 _atom_site_label
 _atom_site_symmetry_multiplicity
 _atom_site_fract_x
 _atom_site_fract_y
 _atom_site_fract_z
 _atom_site_occupancy
  Cd  Cd0  1  0.66666700  0.33333300  0.01673858  1
  Cd  Cd1  1  0.00000000  0.00000000  0.48310779  1
  Cd  Cd2  1  0.00000000  0.00000000  0.95010417  1
  Cd  Cd3  1  0.66666700  0.33333300  0.61660396  1
  Cd  Cd4  1  0.00000000  0.00000000  0.81679670  1
  Cd  Cd5  1  0.00000000  0.00000000  0.35011501  1
  Cd  Cd6  1  0.66666700  0.33333300  0.28332016  1
  Cd  Cd7  1  0.00000000  0.00000000  0.68330225  1
  Cd  Cd8  1  0.00000000  0.00000000  0.21659968  1
  Cd  Cd9  1  0.66666700  0.33333300  0.55009140  1
  Cd  Cd10  1  0.66666700  0.33333300  0.14985333  1
  Cd  Cd11  1  0.00000000  0.00000000  0.08323990  1
  Cd  Cd12  1  0.00000000  0.00000000  0.88343193  1
  Cd  Cd13  1  0.66666700  0.33333300  0.41663403  1
  Cd  Cd14  1  0.66666700  0.33333300  0.75006958  1
  I  I15  1  0.00000000  0.00000000  0.73527042  1
  I  I16  1  0.33333300  0.66666700  0.56487281  1
  I  I17  1  0.00000000  0.00000000  0.40182721  1
  I  I18  1  0.33333300  0.66666700  0.43143023  1
  I  I19  1  0.66666700  0.33333300  0.33532475  1
  I  I20  1  0.33333300  0.66666700  0.36489783  1
  I  I21  1  0.33333300  0.66666700  0.89820842  1
  I  I22  1  0.33333300  0.66666700  0.96488412  1
  I  I23  1  0.33333300  0.66666700  0.23138629  1
  I  I24  1  0.00000000  0.00000000  0.53530585  1
  I  I25  1  0.66666700  0.33333300  0.80200927  1
  I  I26  1  0.33333300  0.66666700  0.69809011  1
  I  I27  1  0.00000000  0.00000000  0.60181516  1
  I  I28  1  0.66666700  0.33333300  0.86864901  1
  I  I29  1  0.33333300  0.66666700  0.76487493  1
  I  I30  1  0.66666700  0.33333300  0.46833259  1
  I  I31  1  0.33333300  0.66666700  0.63139154  1
  I  I32  1  0.66666700  0.33333300  0.20181721  1
  I  I33  1  0.33333300  0.66666700  0.09802834  1
  I  I34  1  0.00000000  0.00000000  0.00194916  1
  I  I35  1  0.00000000  0.00000000  0.13505817  1
  I  I36  1  0.66666700  0.33333300  0.06845793  1
  I  I37  1  0.33333300  0.66666700  0.03152337  1
  I  I38  1  0.00000000  0.00000000  0.26852921  1
  I  I39  1  0.33333300  0.66666700  0.29810650  1
  I  I40  1  0.66666700  0.33333300  0.93531201  1
  I  I41  1  0.33333300  0.66666700  0.83157454  1
  I  I42  1  0.66666700  0.33333300  0.66851898  1
  I  I43  1  0.33333300  0.66666700  0.16464247  1
  I  I44  1  0.33333300  0.66666700  0.49790308  1
