# generated using pymatgen
data_La7Ni16
_symmetry_space_group_name_H-M   'P 1'
_cell_length_a   7.33410908
_cell_length_b   7.33410927
_cell_length_c   8.88980151
_cell_angle_alpha   114.36205676
_cell_angle_beta   114.36205743
_cell_angle_gamma   89.99999966
_symmetry_Int_Tables_number   1
_chemical_formula_structural   La7Ni16
_chemical_formula_sum   'La7 Ni16'
_cell_volume   388.37856265
_cell_formula_units_Z   1
loop_
 _symmetry_equiv_pos_site_id
 _symmetry_equiv_pos_as_xyz
  1  'x, y, z'
loop_
 _atom_site_type_symbol
 _atom_site_label
 _atom_site_symmetry_multiplicity
 _atom_site_fract_x
 _atom_site_fract_y
 _atom_site_fract_z
 _atom_site_occupancy
  La  La0  1  0.59291558  0.20225944  0.79517501  1
  La  La1  1  0.20225944  0.59291558  0.79517501  1
  La  La2  1  0.40708442  0.40708442  0.20482499  1
  La  La3  1  0.25000000  0.75000000  0.50000000  1
  La  La4  1  0.00000000  0.00000000  0.00000000  1
  La  La5  1  0.79774056  0.79774056  0.20482499  1
  La  La6  1  0.75000000  0.25000000  0.50000000  1
  Ni  Ni7  1  0.93187532  0.93187532  0.62767543  1
  Ni  Ni8  1  0.18215342  0.69845866  0.13193449  1
  Ni  Ni9  1  0.43347583  0.94978107  0.13193449  1
  Ni  Ni10  1  0.69580011  0.69580011  0.62767543  1
  Ni  Ni11  1  0.81784658  0.56652417  0.86806551  1
  Ni  Ni12  1  0.44129355  0.44129355  0.60272531  1
  Ni  Ni13  1  0.30419989  0.06812468  0.37232457  1
  Ni  Ni14  1  0.56652417  0.81784658  0.86806551  1
  Ni  Ni15  1  0.55870645  0.83856824  0.39727469  1
  Ni  Ni16  1  0.16143176  0.16143176  0.60272531  1
  Ni  Ni17  1  0.06812468  0.30419989  0.37232457  1
  Ni  Ni18  1  0.30154134  0.05021893  0.86806551  1
  Ni  Ni19  1  0.05021893  0.30154134  0.86806551  1
  Ni  Ni20  1  0.69845866  0.18215342  0.13193449  1
  Ni  Ni21  1  0.83856824  0.55870645  0.39727469  1
  Ni  Ni22  1  0.94978107  0.43347583  0.13193449  1
