# generated using pymatgen
data_Cs3NdCl6
_symmetry_space_group_name_H-M   'P 1'
_cell_length_a   8.39529848
_cell_length_b   13.57909499
_cell_length_c   27.09991198
_cell_angle_alpha   90.00000000
_cell_angle_beta   90.00000000
_cell_angle_gamma   90.00000000
_symmetry_Int_Tables_number   1
_chemical_formula_structural   Cs3NdCl6
_chemical_formula_sum   'Cs24 Nd8 Cl48'
_cell_volume   3089.40502052
_cell_formula_units_Z   8
loop_
 _symmetry_equiv_pos_site_id
 _symmetry_equiv_pos_as_xyz
  1  'x, y, z'
loop_
 _atom_site_type_symbol
 _atom_site_label
 _atom_site_symmetry_multiplicity
 _atom_site_fract_x
 _atom_site_fract_y
 _atom_site_fract_z
 _atom_site_occupancy
  Cs  Cs0  1  0.18271690  0.75560704  0.83734211  1
  Cs  Cs1  1  0.26062810  0.08562837  0.55029222  1
  Cs  Cs2  1  0.73937190  0.91437163  0.05029222  1
  Cs  Cs3  1  0.81728310  0.25560704  0.66265789  1
  Cs  Cs4  1  0.73937190  0.58562837  0.94970778  1
  Cs  Cs5  1  0.73937190  0.91437163  0.44970778  1
  Cs  Cs6  1  0.30944761  0.40929322  0.65318178  1
  Cs  Cs7  1  0.69055239  0.90929322  0.65318178  1
  Cs  Cs8  1  0.26062810  0.41437163  0.44970778  1
  Cs  Cs9  1  0.81728310  0.24439296  0.33734211  1
  Cs  Cs10  1  0.26062810  0.41437163  0.05029222  1
  Cs  Cs11  1  0.69055239  0.59070678  0.15318178  1
  Cs  Cs12  1  0.69055239  0.90929322  0.84681822  1
  Cs  Cs13  1  0.30944761  0.40929322  0.84681822  1
  Cs  Cs14  1  0.30944761  0.09070678  0.15318178  1
  Cs  Cs15  1  0.30944761  0.09070678  0.34681822  1
  Cs  Cs16  1  0.18271690  0.74439296  0.33734211  1
  Cs  Cs17  1  0.69055239  0.59070678  0.34681822  1
  Cs  Cs18  1  0.73937190  0.58562837  0.55029222  1
  Cs  Cs19  1  0.81728310  0.25560704  0.83734211  1
  Cs  Cs20  1  0.81728310  0.24439296  0.16265789  1
  Cs  Cs21  1  0.26062810  0.08562837  0.94970778  1
  Cs  Cs22  1  0.18271690  0.75560704  0.66265789  1
  Cs  Cs23  1  0.18271690  0.74439296  0.16265789  1
  Nd  Nd24  1  0.25862361  0.08224023  0.75000000  1
  Nd  Nd25  1  0.74137639  0.58224023  0.75000000  1
  Nd  Nd26  1  0.78790490  0.25000000  0.00000000  1
  Nd  Nd27  1  0.21209510  0.75000000  0.00000000  1
  Nd  Nd28  1  0.74137639  0.91775977  0.25000000  1
  Nd  Nd29  1  0.25862361  0.41775977  0.25000000  1
  Nd  Nd30  1  0.78790490  0.25000000  0.50000000  1
  Nd  Nd31  1  0.21209510  0.75000000  0.50000000  1
  Cl  Cl32  1  0.45746606  0.36345125  0.32650147  1
  Cl  Cl33  1  0.03273913  0.31996636  0.94147783  1
  Cl  Cl34  1  0.43695799  0.84015820  0.55869090  1
  Cl  Cl35  1  0.77686099  0.41560596  0.44308326  1
  Cl  Cl36  1  0.77686099  0.08439404  0.55691674  1
  Cl  Cl37  1  0.22313901  0.58439404  0.94308326  1
  Cl  Cl38  1  0.56304201  0.34015820  0.94130910  1
  Cl  Cl39  1  0.45746606  0.13654875  0.82650147  1
  Cl  Cl40  1  0.43695799  0.65984180  0.05869090  1
  Cl  Cl41  1  0.94846647  0.52566427  0.82331269  1
  Cl  Cl42  1  0.59957940  0.39845939  0.75000000  1
  Cl  Cl43  1  0.03273913  0.31996636  0.55852217  1
  Cl  Cl44  1  0.03273913  0.18003364  0.05852217  1
  Cl  Cl45  1  0.22313901  0.58439404  0.55691674  1
  Cl  Cl46  1  0.03273913  0.18003364  0.44147783  1
  Cl  Cl47  1  0.56304201  0.15984180  0.05869090  1
  Cl  Cl48  1  0.54253394  0.63654875  0.82650147  1
  Cl  Cl49  1  0.54253394  0.86345125  0.32650147  1
  Cl  Cl50  1  0.56304201  0.34015820  0.55869090  1
  Cl  Cl51  1  0.12514292  0.26866348  0.75000000  1
  Cl  Cl52  1  0.96726087  0.68003364  0.05852217  1
  Cl  Cl53  1  0.43695799  0.65984180  0.44130910  1
  Cl  Cl54  1  0.77686099  0.08439404  0.94308326  1
  Cl  Cl55  1  0.59957940  0.10154061  0.25000000  1
  Cl  Cl56  1  0.05153353  0.02566427  0.67668731  1
  Cl  Cl57  1  0.56304201  0.15984180  0.44130910  1
  Cl  Cl58  1  0.96726087  0.68003364  0.44147783  1
  Cl  Cl59  1  0.94846647  0.97433573  0.32331269  1
  Cl  Cl60  1  0.22313901  0.91560596  0.05691674  1
  Cl  Cl61  1  0.05153353  0.47433573  0.17668731  1
  Cl  Cl62  1  0.40042060  0.89845939  0.75000000  1
  Cl  Cl63  1  0.96726087  0.81996636  0.94147783  1
  Cl  Cl64  1  0.45746606  0.36345125  0.17349853  1
  Cl  Cl65  1  0.12514292  0.23133652  0.25000000  1
  Cl  Cl66  1  0.96726087  0.81996636  0.55852217  1
  Cl  Cl67  1  0.05153353  0.47433573  0.32331269  1
  Cl  Cl68  1  0.94846647  0.52566427  0.67668731  1
  Cl  Cl69  1  0.77686099  0.41560596  0.05691674  1
  Cl  Cl70  1  0.87485708  0.73133652  0.25000000  1
  Cl  Cl71  1  0.45746606  0.13654875  0.67349853  1
  Cl  Cl72  1  0.87485708  0.76866348  0.75000000  1
  Cl  Cl73  1  0.22313901  0.91560596  0.44308326  1
  Cl  Cl74  1  0.54253394  0.86345125  0.17349853  1
  Cl  Cl75  1  0.05153353  0.02566427  0.82331269  1
  Cl  Cl76  1  0.43695799  0.84015820  0.94130910  1
  Cl  Cl77  1  0.40042060  0.60154061  0.25000000  1
  Cl  Cl78  1  0.94846647  0.97433573  0.17668731  1
  Cl  Cl79  1  0.54253394  0.63654875  0.67349853  1
