# generated using pymatgen
data_TlHgAsS3
_symmetry_space_group_name_H-M   'P 1'
_cell_length_a   9.81621955
_cell_length_b   9.81621955
_cell_length_c   9.81621955
_cell_angle_alpha   114.46058844
_cell_angle_beta   107.03563328
_cell_angle_gamma   107.03563328
_symmetry_Int_Tables_number   1
_chemical_formula_structural   TlHgAsS3
_chemical_formula_sum   'Tl4 Hg4 As4 S12'
_cell_volume   723.95528825
_cell_formula_units_Z   4
loop_
 _symmetry_equiv_pos_site_id
 _symmetry_equiv_pos_as_xyz
  1  'x, y, z'
loop_
 _atom_site_type_symbol
 _atom_site_label
 _atom_site_symmetry_multiplicity
 _atom_site_fract_x
 _atom_site_fract_y
 _atom_site_fract_z
 _atom_site_occupancy
  Tl  Tl0  1  0.00000000  0.65758808  0.65758808  1
  Tl  Tl1  1  0.00000000  0.34241192  0.34241192  1
  Tl  Tl2  1  0.50000000  0.25000000  0.75000000  1
  Tl  Tl3  1  0.50000000  0.75000000  0.25000000  1
  Hg  Hg4  1  0.72330457  0.00000000  0.72330457  1
  Hg  Hg5  1  0.27669543  0.00000000  0.27669543  1
  Hg  Hg6  1  0.27669543  0.27669543  0.00000000  1
  Hg  Hg7  1  0.72330457  0.72330457  0.00000000  1
  As  As8  1  0.50367903  0.98117756  0.98117756  1
  As  As9  1  0.49632097  0.47749853  0.47749853  1
  As  As10  1  -0.00000000  0.01882244  0.52250147  1
  As  As11  1  -0.00000000  0.52250147  0.01882244  1
  S  S12  1  0.44693532  0.91530241  0.71320676  1
  S  S13  1  0.55306468  0.26627143  0.46836708  1
  S  S14  1  0.79790435  0.08469759  0.53163292  1
  S  S15  1  0.20209565  0.73372857  0.28679324  1
  S  S16  1  0.20209565  0.28679324  0.73372857  1
  S  S17  1  0.79790435  0.53163292  0.08469759  1
  S  S18  1  0.44693532  0.71320676  0.91530241  1
  S  S19  1  0.55306468  0.46836708  0.26627143  1
  S  S20  1  0.25994828  0.97359080  0.97359080  1
  S  S21  1  0.74005172  0.71364252  0.71364252  1
  S  S22  1  0.00000000  0.02640920  0.28635748  1
  S  S23  1  -0.00000000  0.28635748  0.02640920  1
