# generated using pymatgen
data_Y3Ni2
_symmetry_space_group_name_H-M   'P 1'
_cell_length_a   7.07096343
_cell_length_b   7.07096343
_cell_length_c   36.69076648
_cell_angle_alpha   90.00000000
_cell_angle_beta   90.00000000
_cell_angle_gamma   90.00000000
_symmetry_Int_Tables_number   1
_chemical_formula_structural   Y3Ni2
_chemical_formula_sum   'Y48 Ni32'
_cell_volume   1834.48416213
_cell_formula_units_Z   16
loop_
 _symmetry_equiv_pos_site_id
 _symmetry_equiv_pos_as_xyz
  1  'x, y, z'
loop_
 _atom_site_type_symbol
 _atom_site_label
 _atom_site_symmetry_multiplicity
 _atom_site_fract_x
 _atom_site_fract_y
 _atom_site_fract_z
 _atom_site_occupancy
  Y  Y0  1  0.83632312  0.98888600  0.41068595  1
  Y  Y1  1  0.93938982  0.69200418  0.76445023  1
  Y  Y2  1  0.84024433  0.66428221  0.31861337  1
  Y  Y3  1  0.81835819  0.18164181  0.75000000  1
  Y  Y4  1  0.53474825  0.46525175  0.25000000  1
  Y  Y5  1  0.70887247  0.48486338  0.40738347  1
  Y  Y6  1  0.83571779  0.34024433  0.56861337  1
  Y  Y7  1  0.68164181  0.68164181  0.50000000  1
  Y  Y8  1  0.48888600  0.66367688  0.16068595  1
  Y  Y9  1  0.65975567  0.16428221  0.93138663  1
  Y  Y10  1  0.98888600  0.83632312  0.58931405  1
  Y  Y11  1  0.30649959  0.85690444  0.82579732  1
  Y  Y12  1  0.33632312  0.51111400  0.33931405  1
  Y  Y13  1  0.66428221  0.84024433  0.68138663  1
  Y  Y14  1  0.20887247  0.01513662  0.34261653  1
  Y  Y15  1  0.69200418  0.93938982  0.23554977  1
  Y  Y16  1  0.66367688  0.48888600  0.83931405  1
  Y  Y17  1  0.14309556  0.69350041  0.67420268  1
  Y  Y18  1  0.16428221  0.65975567  0.06861337  1
  Y  Y19  1  0.46525175  0.53474825  0.75000000  1
  Y  Y20  1  0.80649959  0.64309556  0.92420268  1
  Y  Y21  1  0.51513662  0.29112753  0.09261653  1
  Y  Y22  1  0.16367688  0.01111400  0.91068595  1
  Y  Y23  1  0.80799582  0.43938982  0.01445023  1
  Y  Y24  1  0.96525175  0.96525175  0.00000000  1
  Y  Y25  1  0.01513662  0.20887247  0.65738347  1
  Y  Y26  1  0.35690444  0.19350041  0.57579732  1
  Y  Y27  1  0.15975567  0.33571779  0.81861337  1
  Y  Y28  1  0.31835819  0.31835819  0.00000000  1
  Y  Y29  1  0.06061018  0.30799582  0.26445023  1
  Y  Y30  1  0.34024433  0.83571779  0.43138663  1
  Y  Y31  1  0.18164181  0.81835819  0.25000000  1
  Y  Y32  1  0.03474825  0.03474825  0.50000000  1
  Y  Y33  1  0.30799582  0.06061018  0.73554977  1
  Y  Y34  1  0.69350041  0.14309556  0.32579732  1
  Y  Y35  1  0.33571779  0.15975567  0.18138663  1
  Y  Y36  1  0.43938982  0.80799582  0.98554977  1
  Y  Y37  1  0.48486338  0.70887247  0.59261653  1
  Y  Y38  1  0.56061018  0.19200418  0.48554977  1
  Y  Y39  1  0.19200418  0.56061018  0.51445023  1
  Y  Y40  1  0.64309556  0.80649959  0.07579732  1
  Y  Y41  1  0.01111400  0.16367688  0.08931405  1
  Y  Y42  1  0.51111400  0.33632312  0.66068595  1
  Y  Y43  1  0.98486338  0.79112753  0.15738347  1
  Y  Y44  1  0.29112753  0.51513662  0.90738347  1
  Y  Y45  1  0.79112753  0.98486338  0.84261653  1
  Y  Y46  1  0.19350041  0.35690444  0.42420268  1
  Y  Y47  1  0.85690444  0.30649959  0.17420268  1
  Ni  Ni48  1  0.01173367  0.65353358  0.85588180  1
  Ni  Ni49  1  0.10289711  0.62580785  0.97631812  1
  Ni  Ni50  1  0.12580785  0.39710289  0.72631812  1
  Ni  Ni51  1  0.15353358  0.48826633  0.60588180  1
  Ni  Ni52  1  0.51138399  0.19083829  0.79866089  1
  Ni  Ni53  1  0.98861601  0.69083829  0.45133911  1
  Ni  Ni54  1  0.48826633  0.15353358  0.39411820  1
  Ni  Ni55  1  0.01138399  0.30916171  0.95133911  1
  Ni  Ni56  1  0.62580785  0.10289711  0.02368188  1
  Ni  Ni57  1  0.51173367  0.84646642  0.89411820  1
  Ni  Ni58  1  0.98826633  0.34646642  0.35588180  1
  Ni  Ni59  1  0.19083829  0.51138399  0.20133911  1
  Ni  Ni60  1  0.80916171  0.48861601  0.70133911  1
  Ni  Ni61  1  0.65353358  0.01173367  0.14411820  1
  Ni  Ni62  1  0.94518552  0.31914897  0.88399281  1
  Ni  Ni63  1  0.39710289  0.12580785  0.27368188  1
  Ni  Ni64  1  0.48861601  0.80916171  0.29866089  1
  Ni  Ni65  1  0.05481448  0.68085103  0.38399281  1
  Ni  Ni66  1  0.89710289  0.37419215  0.47631812  1
  Ni  Ni67  1  0.69083829  0.98861601  0.54866089  1
  Ni  Ni68  1  0.60289711  0.87419215  0.77368188  1
  Ni  Ni69  1  0.34646642  0.98826633  0.64411820  1
  Ni  Ni70  1  0.81914897  0.55481448  0.63399281  1
  Ni  Ni71  1  0.31914897  0.94518552  0.11600719  1
  Ni  Ni72  1  0.68085103  0.05481448  0.61600719  1
  Ni  Ni73  1  0.37419215  0.89710289  0.52368188  1
  Ni  Ni74  1  0.55481448  0.81914897  0.36600719  1
  Ni  Ni75  1  0.18085103  0.44518552  0.13399281  1
  Ni  Ni76  1  0.30916171  0.01138399  0.04866089  1
  Ni  Ni77  1  0.44518552  0.18085103  0.86600719  1
  Ni  Ni78  1  0.87419215  0.60289711  0.22631812  1
  Ni  Ni79  1  0.84646642  0.51173367  0.10588180  1
