# generated using pymatgen
data_HgClO4
_symmetry_space_group_name_H-M   'P 1'
_cell_length_a   4.93749443
_cell_length_b   7.34137581
_cell_length_c   12.14689150
_cell_angle_alpha   90.00000000
_cell_angle_beta   90.00000000
_cell_angle_gamma   90.00000000
_symmetry_Int_Tables_number   1
_chemical_formula_structural   HgClO4
_chemical_formula_sum   'Hg4 Cl4 O16'
_cell_volume   440.30054946
_cell_formula_units_Z   4
loop_
 _symmetry_equiv_pos_site_id
 _symmetry_equiv_pos_as_xyz
  1  'x, y, z'
loop_
 _atom_site_type_symbol
 _atom_site_label
 _atom_site_symmetry_multiplicity
 _atom_site_fract_x
 _atom_site_fract_y
 _atom_site_fract_z
 _atom_site_occupancy
  Hg  Hg0  1  0.91434290  0.50000000  0.75000000  1
  Hg  Hg1  1  0.08565710  0.00000000  0.25000000  1
  Hg  Hg2  1  0.08565710  0.50000000  0.25000000  1
  Hg  Hg3  1  0.91434290  -0.00000000  0.75000000  1
  Cl  Cl4  1  0.51332220  0.25000000  0.56008131  1
  Cl  Cl5  1  0.48667780  0.75000000  0.43991869  1
  Cl  Cl6  1  0.51332220  0.75000000  0.93991869  1
  Cl  Cl7  1  0.48667780  0.25000000  0.06008131  1
  O  O8  1  0.91786996  0.25000000  0.81971376  1
  O  O9  1  0.08213004  0.75000000  0.18028624  1
  O  O10  1  0.91786996  0.75000000  0.68028624  1
  O  O11  1  0.08213004  0.25000000  0.31971376  1
  O  O12  1  0.80384623  0.25000000  0.53135395  1
  O  O13  1  0.19615377  0.75000000  0.46864605  1
  O  O14  1  0.80384623  0.75000000  0.96864605  1
  O  O15  1  0.19615377  0.25000000  0.03135395  1
  O  O16  1  0.45126514  0.41649787  0.62705100  1
  O  O17  1  0.54873486  0.91649787  0.37294900  1
  O  O18  1  0.45126514  0.58350213  0.87294900  1
  O  O19  1  0.54873486  0.08350213  0.12705100  1
  O  O20  1  0.54873486  0.58350213  0.37294900  1
  O  O21  1  0.45126514  0.08350213  0.62705100  1
  O  O22  1  0.54873486  0.41649787  0.12705100  1
  O  O23  1  0.45126514  0.91649787  0.87294900  1
