# generated using pymatgen
data_Cs5In3As4
_symmetry_space_group_name_H-M   'P 1'
_cell_length_a   12.55146793
_cell_length_b   17.35258256
_cell_length_c   18.56816178
_cell_angle_alpha   117.22590336
_cell_angle_beta   90.00000000
_cell_angle_gamma   90.00000000
_symmetry_Int_Tables_number   1
_chemical_formula_structural   Cs5In3As4
_chemical_formula_sum   'Cs40 In24 As32'
_cell_volume   3596.09957272
_cell_formula_units_Z   8
loop_
 _symmetry_equiv_pos_site_id
 _symmetry_equiv_pos_as_xyz
  1  'x, y, z'
loop_
 _atom_site_type_symbol
 _atom_site_label
 _atom_site_symmetry_multiplicity
 _atom_site_fract_x
 _atom_site_fract_y
 _atom_site_fract_z
 _atom_site_occupancy
  Cs  Cs0  1  0.36513974  0.21578425  0.40507506  1
  Cs  Cs1  1  0.63512804  0.55949209  0.13737033  1
  Cs  Cs2  1  0.13512804  0.44050791  0.36262967  1
  Cs  Cs3  1  0.41327809  0.74899703  0.31095526  1
  Cs  Cs4  1  0.38173775  0.79202908  0.10635994  1
  Cs  Cs5  1  0.85466283  0.35316466  0.03736627  1
  Cs  Cs6  1  0.87544537  0.23676310  0.78743136  1
  Cs  Cs7  1  0.61826225  0.20797092  0.89364006  1
  Cs  Cs8  1  0.88173775  0.20797092  0.39364006  1
  Cs  Cs9  1  0.33780670  0.24932409  0.18686714  1
  Cs  Cs10  1  0.86487196  0.55949209  0.63737033  1
  Cs  Cs11  1  0.12776049  0.90123885  0.46145991  1
  Cs  Cs12  1  0.62776049  0.09876115  0.03854009  1
  Cs  Cs13  1  0.37544537  0.76323690  0.71256864  1
  Cs  Cs14  1  0.14533717  0.64683534  0.96263373  1
  Cs  Cs15  1  0.62439920  0.92037861  0.46648938  1
  Cs  Cs16  1  0.39737362  0.35802638  0.03488990  1
  Cs  Cs17  1  0.11826225  0.79202908  0.60635994  1
  Cs  Cs18  1  0.12439920  0.07962139  0.03351062  1
  Cs  Cs19  1  0.83780670  0.75067591  0.31313286  1
  Cs  Cs20  1  0.58672191  0.25100297  0.68904474  1
  Cs  Cs21  1  0.66219330  0.75067591  0.81313286  1
  Cs  Cs22  1  0.64533717  0.35316466  0.53736627  1
  Cs  Cs23  1  0.60262638  0.64197362  0.96511010  1
  Cs  Cs24  1  0.16219330  0.24932409  0.68686714  1
  Cs  Cs25  1  0.87560080  0.92037861  0.96648938  1
  Cs  Cs26  1  0.91327809  0.25100297  0.18904474  1
  Cs  Cs27  1  0.12455463  0.76323690  0.21256864  1
  Cs  Cs28  1  0.37560080  0.07962139  0.53351062  1
  Cs  Cs29  1  0.37223951  0.90123885  0.96145991  1
  Cs  Cs30  1  0.10262638  0.35802638  0.53488990  1
  Cs  Cs31  1  0.13486026  0.21578425  0.90507506  1
  Cs  Cs32  1  0.63486026  0.78421575  0.59492494  1
  Cs  Cs33  1  0.89737362  0.64197362  0.46511010  1
  Cs  Cs34  1  0.36487196  0.44050791  0.86262967  1
  Cs  Cs35  1  0.87223951  0.09876115  0.53854009  1
  Cs  Cs36  1  0.35466283  0.64683534  0.46263373  1
  Cs  Cs37  1  0.86513974  0.78421575  0.09492494  1
  Cs  Cs38  1  0.62455463  0.23676310  0.28743136  1
  Cs  Cs39  1  0.08672191  0.74899703  0.81095526  1
  In  In40  1  0.99391547  0.00375917  0.20091359  1
  In  In41  1  0.50608453  0.00375917  0.70091359  1
  In  In42  1  0.00608453  0.99624083  0.79908641  1
  In  In43  1  0.49391547  0.99624083  0.29908641  1
  In  In44  1  0.12512589  0.08531523  0.39628862  1
  In  In45  1  0.62512589  0.91468477  0.10371138  1
  In  In46  1  0.87658803  0.50494428  0.94814922  1
  In  In47  1  0.76532011  0.46811825  0.27870273  1
  In  In48  1  0.02211491  0.47648936  0.77533146  1
  In  In49  1  0.37487411  0.08531523  0.89628862  1
  In  In50  1  0.97788509  0.52351064  0.22466854  1
  In  In51  1  0.23467989  0.53188175  0.72129727  1
  In  In52  1  0.73467989  0.46811825  0.77870273  1
  In  In53  1  0.74643023  0.99346167  0.79992663  1
  In  In54  1  0.25356977  0.00653833  0.20007337  1
  In  In55  1  0.26532011  0.53188175  0.22129727  1
  In  In56  1  0.37658803  0.49505572  0.55185078  1
  In  In57  1  0.62341197  0.50494428  0.44814922  1
  In  In58  1  0.24643023  0.00653833  0.70007337  1
  In  In59  1  0.87487411  0.91468477  0.60371138  1
  In  In60  1  0.12341197  0.49505572  0.05185078  1
  In  In61  1  0.52211491  0.52351064  0.72466854  1
  In  In62  1  0.47788509  0.47648936  0.27533146  1
  In  In63  1  0.75356977  0.99346167  0.29992663  1
  As  As64  1  0.12729816  0.39063766  0.13174025  1
  As  As65  1  0.81374906  0.42099999  0.39979873  1
  As  As66  1  0.88065508  0.36013997  0.66441672  1
  As  As67  1  0.43766453  0.40977336  0.39022541  1
  As  As68  1  0.62344422  0.84901108  0.22826044  1
  As  As69  1  0.45761382  0.04432213  0.17717610  1
  As  As70  1  0.93766453  0.59022664  0.10977459  1
  As  As71  1  0.31374906  0.57900001  0.10020127  1
  As  As72  1  0.37270184  0.39063766  0.63174025  1
  As  As73  1  0.56233547  0.59022664  0.60977459  1
  As  As74  1  0.62729816  0.60936234  0.36825975  1
  As  As75  1  0.37655578  0.15098892  0.77173956  1
  As  As76  1  0.11934492  0.63986003  0.33558328  1
  As  As77  1  0.12344422  0.15098892  0.27173956  1
  As  As78  1  0.18625094  0.57900001  0.60020127  1
  As  As79  1  0.87655578  0.84901108  0.72826044  1
  As  As80  1  0.04238618  0.04432213  0.67717610  1
  As  As81  1  0.37743280  0.89368432  0.57776859  1
  As  As82  1  0.79054049  0.04494350  0.18017944  1
  As  As83  1  0.95761382  0.95567787  0.32282390  1
  As  As84  1  0.87743280  0.10631568  0.92223141  1
  As  As85  1  0.87270184  0.60936234  0.86825975  1
  As  As86  1  0.61934492  0.36013997  0.16441672  1
  As  As87  1  0.06233547  0.40977336  0.89022541  1
  As  As88  1  0.12256720  0.89368432  0.07776859  1
  As  As89  1  0.70945951  0.04494350  0.68017944  1
  As  As90  1  0.20945951  0.95505650  0.81982056  1
  As  As91  1  0.29054049  0.95505650  0.31982056  1
  As  As92  1  0.38065508  0.63986003  0.83558328  1
  As  As93  1  0.62256720  0.10631568  0.42223141  1
  As  As94  1  0.54238618  0.95567787  0.82282390  1
  As  As95  1  0.68625094  0.42099999  0.89979873  1
