# generated using pymatgen
data_Ce3Bi4Pd3
_symmetry_space_group_name_H-M   'P 1'
_cell_length_a   8.73205545
_cell_length_b   8.73205488
_cell_length_c   8.73205488
_cell_angle_alpha   109.47121835
_cell_angle_beta   109.47121702
_cell_angle_gamma   109.47122554
_symmetry_Int_Tables_number   1
_chemical_formula_structural   Ce3Bi4Pd3
_chemical_formula_sum   'Ce6 Bi8 Pd6'
_cell_volume   512.53970218
_cell_formula_units_Z   2
loop_
 _symmetry_equiv_pos_site_id
 _symmetry_equiv_pos_as_xyz
  1  'x, y, z'
loop_
 _atom_site_type_symbol
 _atom_site_label
 _atom_site_symmetry_multiplicity
 _atom_site_fract_x
 _atom_site_fract_y
 _atom_site_fract_z
 _atom_site_occupancy
  Ce  Ce0  1  0.12500000  0.87500000  0.25000000  1
  Ce  Ce1  1  0.62500000  0.75000000  0.37500000  1
  Ce  Ce2  1  0.87500000  0.25000000  0.12500000  1
  Ce  Ce3  1  0.37500000  0.62500000  0.75000000  1
  Ce  Ce4  1  0.75000000  0.37500000  0.62500000  1
  Ce  Ce5  1  0.25000000  0.12500000  0.87500000  1
  Bi  Bi6  1  0.82984566  0.82984566  0.82984566  1
  Bi  Bi7  1  0.50000000  0.00000000  0.17015434  1
  Bi  Bi8  1  1.00000000  0.67015434  0.50000000  1
  Bi  Bi9  1  0.32984566  0.32984566  0.32984566  1
  Bi  Bi10  1  0.17015434  0.50000000  0.00000000  1
  Bi  Bi11  1  0.67015434  0.50000000  0.00000000  1
  Bi  Bi12  1  0.50000000  0.00000000  0.67015434  1
  Bi  Bi13  1  1.00000000  0.17015434  0.50000000  1
  Pd  Pd14  1  0.75000000  0.87500000  0.12500000  1
  Pd  Pd15  1  0.12500000  0.75000000  0.87500000  1
  Pd  Pd16  1  0.62500000  0.37500000  0.25000000  1
  Pd  Pd17  1  0.25000000  0.62500000  0.37500000  1
  Pd  Pd18  1  0.37500000  0.25000000  0.62500000  1
  Pd  Pd19  1  0.87500000  0.12500000  0.75000000  1
