# generated using pymatgen
data_Ge8Pd21
_symmetry_space_group_name_H-M   'P 1'
_cell_length_a   10.17223354
_cell_length_b   10.68359455
_cell_length_c   10.67853931
_cell_angle_alpha   76.89567675
_cell_angle_beta   61.57543690
_cell_angle_gamma   61.56094318
_symmetry_Int_Tables_number   1
_chemical_formula_structural   Ge8Pd21
_chemical_formula_sum   'Ge16 Pd42'
_cell_volume   897.43510115
_cell_formula_units_Z   2
loop_
 _symmetry_equiv_pos_site_id
 _symmetry_equiv_pos_as_xyz
  1  'x, y, z'
loop_
 _atom_site_type_symbol
 _atom_site_label
 _atom_site_symmetry_multiplicity
 _atom_site_fract_x
 _atom_site_fract_y
 _atom_site_fract_z
 _atom_site_occupancy
  Ge  Ge0  1  0.56651872  0.03074226  0.77805357  1
  Ge  Ge1  1  0.72610894  0.64354285  0.55031462  1
  Ge  Ge2  1  0.65542369  0.27798831  0.96935083  1
  Ge  Ge3  1  0.43348128  0.96925774  0.22194643  1
  Ge  Ge4  1  0.08029400  0.14327826  0.05043322  1
  Ge  Ge5  1  0.13037651  0.44947257  0.14339931  1
  Ge  Ge6  1  0.86962349  0.55052743  0.85660069  1
  Ge  Ge7  1  0.91970600  0.85672174  0.94956678  1
  Ge  Ge8  1  0.27655750  0.94953112  0.64339793  1
  Ge  Ge9  1  0.09713561  0.77806041  0.46951492  1
  Ge  Ge10  1  0.27389106  0.35645715  0.44968538  1
  Ge  Ge11  1  0.72344250  0.05046888  0.35660207  1
  Ge  Ge12  1  0.34457631  0.72201169  0.03064917  1
  Ge  Ge13  1  0.37526751  0.46942848  0.72202962  1
  Ge  Ge14  1  0.62473249  0.53057152  0.27797038  1
  Ge  Ge15  1  0.90286439  0.22193959  0.53048508  1
  Pd  Pd16  1  0.01747841  0.40629687  0.41228966  1
  Pd  Pd17  1  0.83114303  0.23227782  0.32577197  1
  Pd  Pd18  1  0.15703138  0.17434953  0.23206103  1
  Pd  Pd19  1  0.38897953  0.26807795  0.17433600  1
  Pd  Pd20  1  0.57040049  0.91219194  0.59368104  1
  Pd  Pd21  1  0.60598667  0.51670433  0.04357369  1
  Pd  Pd22  1  0.93338691  0.28478173  0.89279786  1
  Pd  Pd23  1  0.83352985  0.01668832  0.54383047  1
  Pd  Pd24  1  0.17384082  0.39288708  0.71530265  1
  Pd  Pd25  1  0.23616903  0.55990180  0.27402226  1
  Pd  Pd26  1  0.39401333  0.48329567  0.95642631  1
  Pd  Pd27  1  0.29614565  0.27396654  0.94004244  1
  Pd  Pd28  1  0.51011428  0.22597473  0.55999402  1
  Pd  Pd29  1  0.43668208  0.67420286  0.73216236  1
  Pd  Pd30  1  0.92997218  0.05966038  0.77368700  1
  Pd  Pd31  1  0.88908125  0.78496362  0.39280006  1
  Pd  Pd32  1  0.28189493  0.10700331  0.78493050  1
  Pd  Pd33  1  0.92352852  0.41230696  0.09363908  1
  Pd  Pd34  1  0.98252159  0.59370313  0.58771034  1
  Pd  Pd35  1  0.35033571  0.54359211  0.48329868  1
  Pd  Pd36  1  0.76383097  0.44009820  0.72597774  1
  Pd  Pd37  1  0.64966429  0.45640789  0.51670132  1
  Pd  Pd38  1  0.71810507  0.89299669  0.21506950  1
  Pd  Pd39  1  0.84296862  0.82565047  0.76793897  1
  Pd  Pd40  1  0.06661309  0.71521827  0.10720214  1
  Pd  Pd41  1  0.61102047  0.73192205  0.82566400  1
  Pd  Pd42  1  0.83607279  0.09385131  0.08778185  1
  Pd  Pd43  1  0.16392721  0.90614869  0.91221815  1
  Pd  Pd44  1  0.62505735  0.25004267  0.74993919  1
  Pd  Pd45  1  0.16647015  0.98331168  0.45616953  1
  Pd  Pd46  1  0.37752697  0.95603673  0.01672440  1
  Pd  Pd47  1  0.70385435  0.72603346  0.05995756  1
  Pd  Pd48  1  0.56331792  0.32579714  0.26783764  1
  Pd  Pd49  1  0.62247303  0.04396327  0.98327560  1
  Pd  Pd50  1  0.07002782  0.94033962  0.22631300  1
  Pd  Pd51  1  0.11091875  0.21503638  0.60719994  1
  Pd  Pd52  1  0.07647148  0.58769304  0.90636092  1
  Pd  Pd53  1  0.16885697  0.76772218  0.67422803  1
  Pd  Pd54  1  0.42959951  0.08780806  0.40631896  1
  Pd  Pd55  1  0.37494265  0.74995733  0.25006081  1
  Pd  Pd56  1  0.48988572  0.77402527  0.44000598  1
  Pd  Pd57  1  0.82615918  0.60711292  0.28469735  1
