# generated using pymatgen
data_Ce4Al23Ni6
_symmetry_space_group_name_H-M   'P 1'
_cell_length_a   4.11502397
_cell_length_b   8.25992860
_cell_length_c   16.96657429
_cell_angle_alpha   85.73841184
_cell_angle_beta   83.03712077
_cell_angle_gamma   75.57072149
_symmetry_Int_Tables_number   1
_chemical_formula_structural   Ce4Al23Ni6
_chemical_formula_sum   'Ce4 Al23 Ni6'
_cell_volume   553.79667940
_cell_formula_units_Z   1
loop_
 _symmetry_equiv_pos_site_id
 _symmetry_equiv_pos_as_xyz
  1  'x, y, z'
loop_
 _atom_site_type_symbol
 _atom_site_label
 _atom_site_symmetry_multiplicity
 _atom_site_fract_x
 _atom_site_fract_y
 _atom_site_fract_z
 _atom_site_occupancy
  Ce  Ce0  1  0.73480060  0.81257729  0.71774869  1
  Ce  Ce1  1  0.57019986  0.76690455  0.09269807  1
  Ce  Ce2  1  0.42980014  0.23309545  0.90730193  1
  Ce  Ce3  1  0.26519940  0.18742271  0.28225131  1
  Al  Al4  1  0.85734901  0.92793327  0.35757182  1
  Al  Al5  1  0.43152800  0.69765112  0.43937690  1
  Al  Al6  1  0.91792998  0.97757292  0.18679875  1
  Al  Al7  1  0.46816060  0.78298377  0.28082558  1
  Al  Al8  1  0.74404157  0.96569765  0.54608145  1
  Al  Al9  1  0.20274174  0.61583826  0.97844476  1
  Al  Al10  1  0.91096650  0.39983488  0.77825058  1
  Al  Al11  1  0.08207002  0.02242708  0.81320125  1
  Al  Al12  1  0.37686677  0.15041546  0.09594078  1
  Al  Al13  1  0.39169320  0.55598522  0.66075396  1
  Al  Al14  1  0.56847200  0.30234888  0.56062310  1
  Al  Al15  1  0.72311058  0.37620202  0.17741269  1
  Al  Al16  1  0.25595843  0.03430235  0.45391855  1
  Al  Al17  1  0.53183940  0.21701623  0.71917442  1
  Al  Al18  1  0.00000000  0.00000000  0.00000000  1
  Al  Al19  1  0.08903350  0.60016512  0.22174942  1
  Al  Al20  1  0.62313323  0.84958454  0.90405922  1
  Al  Al21  1  0.27688942  0.62379798  0.82258731  1
  Al  Al22  1  0.79725826  0.38416174  0.02155524  1
  Al  Al23  1  0.08999508  0.36746218  0.45230663  1
  Al  Al24  1  0.91000492  0.63253782  0.54769337  1
  Al  Al25  1  0.14265099  0.07206673  0.64242818  1
  Al  Al26  1  0.60830680  0.44401478  0.33924604  1
  Ni  Ni27  1  0.99237326  0.38200192  0.63332907  1
  Ni  Ni28  1  0.22598585  0.44556019  0.10249392  1
  Ni  Ni29  1  0.69046130  0.18682449  0.43233915  1
  Ni  Ni30  1  0.77401415  0.55443981  0.89750608  1
  Ni  Ni31  1  0.30953870  0.81317551  0.56766085  1
  Ni  Ni32  1  0.00762674  0.61799808  0.36667093  1
