# generated using pymatgen
data_Cs12Nb(In2As3)3
_symmetry_space_group_name_H-M   'P 1'
_cell_length_a   9.74877708
_cell_length_b   9.79464001
_cell_length_c   25.67041325
_cell_angle_alpha   86.83578710
_cell_angle_beta   87.14093834
_cell_angle_gamma   63.54470819
_symmetry_Int_Tables_number   1
_chemical_formula_structural   Cs12Nb(In2As3)3
_chemical_formula_sum   'Cs24 Nb2 In12 As18'
_cell_volume   2190.25654776
_cell_formula_units_Z   2
loop_
 _symmetry_equiv_pos_site_id
 _symmetry_equiv_pos_as_xyz
  1  'x, y, z'
loop_
 _atom_site_type_symbol
 _atom_site_label
 _atom_site_symmetry_multiplicity
 _atom_site_fract_x
 _atom_site_fract_y
 _atom_site_fract_z
 _atom_site_occupancy
  Cs  Cs0  1  0.06044708  0.94668730  0.30720497  1
  Cs  Cs1  1  0.85225045  0.39103172  0.25883076  1
  Cs  Cs2  1  0.66518608  0.44195732  0.43238891  1
  Cs  Cs3  1  0.46540499  0.88301514  0.38399676  1
  Cs  Cs4  1  0.37966488  0.78994029  0.17902727  1
  Cs  Cs5  1  0.20113262  0.03882472  0.53376718  1
  Cs  Cs6  1  0.17607236  0.23669362  0.13236569  1
  Cs  Cs7  1  0.71201522  0.86705412  0.25101390  1
  Cs  Cs8  1  0.47504727  0.68536549  0.81338876  1
  Cs  Cs9  1  0.93955292  0.05331270  0.69279503  1
  Cs  Cs10  1  0.75744089  0.30463314  0.06461249  1
  Cs  Cs11  1  0.28798478  0.13294588  0.74898610  1
  Cs  Cs12  1  0.33481392  0.55804268  0.56761109  1
  Cs  Cs13  1  0.53459501  0.11698486  0.61600324  1
  Cs  Cs14  1  0.46284125  0.23509303  0.98366895  1
  Cs  Cs15  1  0.14774955  0.60896828  0.74116924  1
  Cs  Cs16  1  0.62033512  0.21005971  0.82097273  1
  Cs  Cs17  1  0.00000000  0.50000000  0.50000000  1
  Cs  Cs18  1  0.24255911  0.69536686  0.93538751  1
  Cs  Cs19  1  0.53715875  0.76490697  0.01633105  1
  Cs  Cs20  1  0.79886738  0.96117528  0.46623282  1
  Cs  Cs21  1  0.52495273  0.31463451  0.18661124  1
  Cs  Cs22  1  0.00000000  0.50000000  0.00000000  1
  Cs  Cs23  1  0.82392764  0.76330638  0.86763431  1
  Nb  Nb24  1  0.75806318  0.44240590  0.61214740  1
  Nb  Nb25  1  0.24193682  0.55759410  0.38785260  1
  In  In26  1  0.47614603  0.76613226  0.66550235  1
  In  In27  1  0.17564221  0.50354010  0.26674998  1
  In  In28  1  0.92166500  0.11910440  0.94091173  1
  In  In29  1  0.70303934  0.93946176  0.10497593  1
  In  In30  1  0.52385397  0.23386774  0.33449765  1
  In  In31  1  0.07833500  0.88089560  0.05908827  1
  In  In32  1  0.12902753  0.27225838  0.37599968  1
  In  In33  1  0.87097247  0.72774162  0.62400032  1
  In  In34  1  0.05372476  0.65832762  0.15875795  1
  In  In35  1  0.82435779  0.49645990  0.73325002  1
  In  In36  1  0.94627524  0.34167238  0.84124205  1
  In  In37  1  0.29696066  0.06053824  0.89502407  1
  As  As38  1  0.15798584  0.08587664  0.00372422  1
  As  As39  1  0.79042475  0.24473835  0.55385977  1
  As  As40  1  0.58730937  0.44393935  0.69064523  1
  As  As41  1  0.20957525  0.75526165  0.44614023  1
  As  As42  1  0.36620599  0.29400340  0.43322827  1
  As  As43  1  0.29918790  0.18068740  0.27696111  1
  As  As44  1  0.01947361  0.40110831  0.64391750  1
  As  As45  1  0.71700526  0.41807118  0.91752229  1
  As  As46  1  0.63379401  0.70599660  0.56677173  1
  As  As47  1  0.19615421  0.37826583  0.86408120  1
  As  As48  1  0.04912496  0.02403433  0.84139112  1
  As  As49  1  0.70081210  0.81931260  0.72303889  1
  As  As50  1  0.28299474  0.58192882  0.08247771  1
  As  As51  1  0.84201416  0.91412336  0.99627578  1
  As  As52  1  0.41269063  0.55606065  0.30935477  1
  As  As53  1  0.95087504  0.97596567  0.15860888  1
  As  As54  1  0.98052639  0.59889169  0.35608250  1
  As  As55  1  0.80384579  0.62173417  0.13591880  1
