# generated using pymatgen
data_LaNi5As3
_symmetry_space_group_name_H-M   'P 1'
_cell_length_a   3.91615246
_cell_length_b   11.24035276
_cell_length_c   24.36450569
_cell_angle_alpha   90.00000000
_cell_angle_beta   90.00000000
_cell_angle_gamma   90.00000000
_symmetry_Int_Tables_number   1
_chemical_formula_structural   LaNi5As3
_chemical_formula_sum   'La8 Ni40 As24'
_cell_volume   1072.49959501
_cell_formula_units_Z   8
loop_
 _symmetry_equiv_pos_site_id
 _symmetry_equiv_pos_as_xyz
  1  'x, y, z'
loop_
 _atom_site_type_symbol
 _atom_site_label
 _atom_site_symmetry_multiplicity
 _atom_site_fract_x
 _atom_site_fract_y
 _atom_site_fract_z
 _atom_site_occupancy
  La  La0  1  0.25000000  0.58762403  0.83766710  1
  La  La1  1  0.75000000  0.58658296  0.60355136  1
  La  La2  1  0.75000000  0.08658296  0.89644864  1
  La  La3  1  0.25000000  0.41341704  0.39644864  1
  La  La4  1  0.25000000  0.08762403  0.66233290  1
  La  La5  1  0.75000000  0.91237597  0.33766710  1
  La  La6  1  0.75000000  0.41237597  0.16233290  1
  La  La7  1  0.25000000  0.91341704  0.10355136  1
  Ni  Ni8  1  0.75000000  0.97966561  0.76971300  1
  Ni  Ni9  1  0.75000000  0.16201000  0.24871619  1
  Ni  Ni10  1  0.25000000  0.83799000  0.75128381  1
  Ni  Ni11  1  0.25000000  0.61726154  0.08928694  1
  Ni  Ni12  1  0.25000000  0.52033439  0.26971300  1
  Ni  Ni13  1  0.75000000  0.47966561  0.73028700  1
  Ni  Ni14  1  0.25000000  0.70762317  0.98949915  1
  Ni  Ni15  1  0.25000000  0.97930627  0.53371575  1
  Ni  Ni16  1  0.75000000  0.69530664  0.73317443  1
  Ni  Ni17  1  0.25000000  0.08982433  0.99601408  1
  Ni  Ni18  1  0.25000000  0.11726154  0.41071306  1
  Ni  Ni19  1  0.25000000  0.80469336  0.23317443  1
  Ni  Ni20  1  0.75000000  0.10283968  0.14983233  1
  Ni  Ni21  1  0.25000000  0.77908012  0.65264127  1
  Ni  Ni22  1  0.75000000  0.52069373  0.03371575  1
  Ni  Ni23  1  0.75000000  0.79237683  0.48949915  1
  Ni  Ni24  1  0.75000000  0.38273846  0.91071306  1
  Ni  Ni25  1  0.75000000  0.60283968  0.35016767  1
  Ni  Ni26  1  0.25000000  0.89716032  0.85016767  1
  Ni  Ni27  1  0.75000000  0.91017567  0.00398592  1
  Ni  Ni28  1  0.75000000  0.78715357  0.91341150  1
  Ni  Ni29  1  0.25000000  0.33799000  0.74871619  1
  Ni  Ni30  1  0.25000000  0.71284643  0.41341150  1
  Ni  Ni31  1  0.75000000  0.28715357  0.58658850  1
  Ni  Ni32  1  0.75000000  0.41017567  0.49601408  1
  Ni  Ni33  1  0.25000000  0.47930627  0.96628425  1
  Ni  Ni34  1  0.25000000  0.02033439  0.23028700  1
  Ni  Ni35  1  0.75000000  0.02069373  0.46628425  1
  Ni  Ni36  1  0.25000000  0.21284643  0.08658850  1
  Ni  Ni37  1  0.25000000  0.20762317  0.51050085  1
  Ni  Ni38  1  0.25000000  0.58982433  0.50398592  1
  Ni  Ni39  1  0.75000000  0.66201000  0.25128381  1
  Ni  Ni40  1  0.75000000  0.22091988  0.34735873  1
  Ni  Ni41  1  0.75000000  0.88273846  0.58928694  1
  Ni  Ni42  1  0.25000000  0.27908012  0.84735873  1
  Ni  Ni43  1  0.25000000  0.30469336  0.26682557  1
  Ni  Ni44  1  0.75000000  0.29237683  0.01050085  1
  Ni  Ni45  1  0.75000000  0.19530664  0.76682557  1
  Ni  Ni46  1  0.75000000  0.72091988  0.15264127  1
  Ni  Ni47  1  0.25000000  0.39716032  0.64983233  1
  As  As48  1  0.75000000  0.09990690  0.05283671  1
  As  As49  1  0.75000000  0.22688051  0.44355072  1
  As  As50  1  0.75000000  0.91182509  0.20337958  1
  As  As51  1  0.75000000  0.58849051  0.94005236  1
  As  As52  1  0.25000000  0.27311949  0.94355072  1
  As  As53  1  0.25000000  0.58817491  0.70337958  1
  As  As54  1  0.25000000  0.12320631  0.31445574  1
  As  As55  1  0.25000000  0.62320631  0.18554426  1
  As  As56  1  0.25000000  0.20102342  0.18264038  1
  As  As57  1  0.75000000  0.08849051  0.55994764  1
  As  As58  1  0.25000000  0.77311949  0.55644928  1
  As  As59  1  0.75000000  0.29897658  0.68264038  1
  As  As60  1  0.75000000  0.79897658  0.81735962  1
  As  As61  1  0.75000000  0.37679369  0.81445574  1
  As  As62  1  0.75000000  0.72688051  0.05644928  1
  As  As63  1  0.75000000  0.87679369  0.68554426  1
  As  As64  1  0.25000000  0.70102342  0.31735962  1
  As  As65  1  0.25000000  0.90009310  0.94716329  1
  As  As66  1  0.25000000  0.91150949  0.44005236  1
  As  As67  1  0.25000000  0.40009310  0.55283671  1
  As  As68  1  0.25000000  0.08817491  0.79662042  1
  As  As69  1  0.75000000  0.59990690  0.44716329  1
  As  As70  1  0.25000000  0.41150949  0.05994764  1
  As  As71  1  0.75000000  0.41182509  0.29662042  1
