# generated using pymatgen
data_La8Ni4Br7
_symmetry_space_group_name_H-M   'P 1'
_cell_length_a   4.03246031
_cell_length_b   8.79183964
_cell_length_c   14.96863034
_cell_angle_alpha   94.20473278
_cell_angle_beta   97.74019891
_cell_angle_gamma   89.99519282
_symmetry_Int_Tables_number   1
_chemical_formula_structural   La8Ni4Br7
_chemical_formula_sum   'La8 Ni4 Br7'
_cell_volume   524.40289386
_cell_formula_units_Z   1
loop_
 _symmetry_equiv_pos_site_id
 _symmetry_equiv_pos_as_xyz
  1  'x, y, z'
loop_
 _atom_site_type_symbol
 _atom_site_label
 _atom_site_symmetry_multiplicity
 _atom_site_fract_x
 _atom_site_fract_y
 _atom_site_fract_z
 _atom_site_occupancy
  La  La0  1  0.79010242  0.77682315  0.58009436  1
  La  La1  1  0.98759457  0.18928165  0.97507600  1
  La  La2  1  0.40236086  0.64988361  0.80463156  1
  La  La3  1  0.59763914  0.35011639  0.19536844  1
  La  La4  1  0.62614178  0.93889201  0.25241729  1
  La  La5  1  0.20989758  0.22317685  0.41990564  1
  La  La6  1  0.01240543  0.81071835  0.02492400  1
  La  La7  1  0.37385822  0.06110799  0.74758271  1
  Ni  Ni8  1  0.54118913  0.05412932  0.08217173  1
  Ni  Ni9  1  0.10043086  0.13468526  0.20089213  1
  Ni  Ni10  1  0.89956914  0.86531474  0.79910787  1
  Ni  Ni11  1  0.45881087  0.94587068  0.91782827  1
  Br  Br12  1  0.21240865  0.86817239  0.42501747  1
  Br  Br13  1  0.78759135  0.13182761  0.57498253  1
  Br  Br14  1  0.69790362  0.48335620  0.39658716  1
  Br  Br15  1  0.30209638  0.51664380  0.60341284  1
  Br  Br16  1  0.50000000  0.50000000  0.00000000  1
  Br  Br17  1  0.89669500  0.35391820  0.79317909  1
  Br  Br18  1  0.10330500  0.64608180  0.20682091  1
