# generated using pymatgen
data_EuNi5P3
_symmetry_space_group_name_H-M   'P 1'
_cell_length_a   3.59750727
_cell_length_b   6.11888291
_cell_length_c   11.49897248
_cell_angle_alpha   90.00000000
_cell_angle_beta   90.00000000
_cell_angle_gamma   107.09564348
_symmetry_Int_Tables_number   1
_chemical_formula_structural   EuNi5P3
_chemical_formula_sum   'Eu2 Ni10 P6'
_cell_volume   241.93954929
_cell_formula_units_Z   2
loop_
 _symmetry_equiv_pos_site_id
 _symmetry_equiv_pos_as_xyz
  1  'x, y, z'
loop_
 _atom_site_type_symbol
 _atom_site_label
 _atom_site_symmetry_multiplicity
 _atom_site_fract_x
 _atom_site_fract_y
 _atom_site_fract_z
 _atom_site_occupancy
  Eu  Eu0  1  0.83846606  0.67693211  0.25000000  1
  Eu  Eu1  1  0.16153394  0.32306789  0.75000000  1
  Ni  Ni2  1  0.55127737  0.10255474  0.14491032  1
  Ni  Ni3  1  0.55127737  0.10255474  0.35508968  1
  Ni  Ni4  1  0.80166920  0.60333840  0.93188340  1
  Ni  Ni5  1  0.44872263  0.89744526  0.85508968  1
  Ni  Ni6  1  0.19833080  0.39666160  0.43188340  1
  Ni  Ni7  1  0.44872263  0.89744526  0.64491032  1
  Ni  Ni8  1  0.80166920  0.60333840  0.56811660  1
  Ni  Ni9  1  0.00000000  0.00000000  0.00000000  1
  Ni  Ni10  1  0.00000000  0.00000000  0.50000000  1
  Ni  Ni11  1  0.19833080  0.39666160  0.06811660  1
  P  P12  1  0.88325555  0.76651110  0.75000000  1
  P  P13  1  0.61814119  0.23628237  0.95941262  1
  P  P14  1  0.61814119  0.23628237  0.54058738  1
  P  P15  1  0.38185881  0.76371763  0.45941262  1
  P  P16  1  0.38185881  0.76371763  0.04058738  1
  P  P17  1  0.11674445  0.23348890  0.25000000  1
