# generated using pymatgen
data_Cs3Cu2Br5
_symmetry_space_group_name_H-M   'P 1'
_cell_length_a   9.84892126
_cell_length_b   11.10559257
_cell_length_c   13.85137938
_cell_angle_alpha   90.00000000
_cell_angle_beta   90.00000000
_cell_angle_gamma   90.00000000
_symmetry_Int_Tables_number   1
_chemical_formula_structural   Cs3Cu2Br5
_chemical_formula_sum   'Cs12 Cu8 Br20'
_cell_volume   1515.03765270
_cell_formula_units_Z   4
loop_
 _symmetry_equiv_pos_site_id
 _symmetry_equiv_pos_as_xyz
  1  'x, y, z'
loop_
 _atom_site_type_symbol
 _atom_site_label
 _atom_site_symmetry_multiplicity
 _atom_site_fract_x
 _atom_site_fract_y
 _atom_site_fract_z
 _atom_site_occupancy
  Cs  Cs0  1  0.40193186  0.75000000  0.45436581  1
  Cs  Cs1  1  0.54660338  0.51474727  0.82248322  1
  Cs  Cs2  1  0.09806814  0.25000000  0.95436581  1
  Cs  Cs3  1  0.04660338  0.51474727  0.67751678  1
  Cs  Cs4  1  0.45339662  0.48525273  0.17751678  1
  Cs  Cs5  1  0.04660338  0.98525273  0.67751678  1
  Cs  Cs6  1  0.54660338  0.98525273  0.82248322  1
  Cs  Cs7  1  0.95339662  0.48525273  0.32248322  1
  Cs  Cs8  1  0.95339662  0.01474727  0.32248322  1
  Cs  Cs9  1  0.90193186  0.75000000  0.04563419  1
  Cs  Cs10  1  0.59806814  0.25000000  0.54563419  1
  Cs  Cs11  1  0.45339662  0.01474727  0.17751678  1
  Cu  Cu12  1  0.74748750  0.75000000  0.63077271  1
  Cu  Cu13  1  0.29236084  0.75000000  0.04783092  1
  Cu  Cu14  1  0.25251250  0.25000000  0.36922729  1
  Cu  Cu15  1  0.75251250  0.25000000  0.13077271  1
  Cu  Cu16  1  0.20763916  0.25000000  0.54783092  1
  Cu  Cu17  1  0.70763916  0.25000000  0.95216908  1
  Cu  Cu18  1  0.79236084  0.75000000  0.45216908  1
  Cu  Cu19  1  0.24748750  0.75000000  0.86922729  1
  Br  Br20  1  0.53158440  0.75000000  0.01196640  1
  Br  Br21  1  0.66816744  0.25000000  0.29055967  1
  Br  Br22  1  0.29839092  0.25000000  0.70781806  1
  Br  Br23  1  0.16816744  0.25000000  0.20944033  1
  Br  Br24  1  0.03158440  0.75000000  0.48803360  1
  Br  Br25  1  0.19158501  0.93666782  0.94725478  1
  Br  Br26  1  0.70160908  0.75000000  0.29218194  1
  Br  Br27  1  0.80841499  0.06333218  0.05274522  1
  Br  Br28  1  0.30841499  0.06333218  0.44725478  1
  Br  Br29  1  0.83183256  0.75000000  0.79055967  1
  Br  Br30  1  0.96841560  0.25000000  0.51196640  1
  Br  Br31  1  0.80841499  0.43666782  0.05274522  1
  Br  Br32  1  0.46841560  0.25000000  0.98803360  1
  Br  Br33  1  0.33183256  0.75000000  0.70944033  1
  Br  Br34  1  0.69158501  0.56333218  0.55274522  1
  Br  Br35  1  0.69158501  0.93666782  0.55274522  1
  Br  Br36  1  0.30841499  0.43666782  0.44725478  1
  Br  Br37  1  0.79839092  0.25000000  0.79218194  1
  Br  Br38  1  0.20160908  0.75000000  0.20781806  1
  Br  Br39  1  0.19158501  0.56333218  0.94725478  1
