# generated using pymatgen
data_Eu2B5Os3
_symmetry_space_group_name_H-M   'P 1'
_cell_length_a   4.07412022
_cell_length_b   5.74519976
_cell_length_c   6.96115728
_cell_angle_alpha   78.28501566
_cell_angle_beta   72.98438317
_cell_angle_gamma   69.23307079
_symmetry_Int_Tables_number   1
_chemical_formula_structural   Eu2B5Os3
_chemical_formula_sum   'Eu2 B5 Os3'
_cell_volume   144.78114269
_cell_formula_units_Z   1
loop_
 _symmetry_equiv_pos_site_id
 _symmetry_equiv_pos_as_xyz
  1  'x, y, z'
loop_
 _atom_site_type_symbol
 _atom_site_label
 _atom_site_symmetry_multiplicity
 _atom_site_fract_x
 _atom_site_fract_y
 _atom_site_fract_z
 _atom_site_occupancy
  Eu  Eu0  1  0.05657786  0.56221994  0.76449010  1
  Eu  Eu1  1  0.38328790  0.43778006  0.23550990  1
  B  B2  1  0.72580536  0.50000000  0.50000000  1
  B  B3  1  0.36361640  0.02118377  0.68756520  1
  B  B4  1  0.46830990  0.93530584  0.12078340  1
  B  B5  1  0.07236536  0.97881623  0.31243480  1
  B  B6  1  0.52439915  0.06469416  0.87921660  1
  Os  Os7  1  0.60073552  0.86223890  0.40450083  1
  Os  Os8  1  0.00242730  0.00000000  1.00000000  1
  Os  Os9  1  0.86747525  0.13776110  0.59549917  1
