# generated using pymatgen
data_Mn(FeO2)2
_symmetry_space_group_name_H-M   'P 1'
_cell_length_a   2.98358252
_cell_length_b   9.85633533
_cell_length_c   10.04397604
_cell_angle_alpha   90.00000000
_cell_angle_beta   90.00000000
_cell_angle_gamma   90.00000000
_symmetry_Int_Tables_number   1
_chemical_formula_structural   Mn(FeO2)2
_chemical_formula_sum   'Mn4 Fe8 O16'
_cell_volume   295.36510977
_cell_formula_units_Z   4
loop_
 _symmetry_equiv_pos_site_id
 _symmetry_equiv_pos_as_xyz
  1  'x, y, z'
loop_
 _atom_site_type_symbol
 _atom_site_label
 _atom_site_symmetry_multiplicity
 _atom_site_fract_x
 _atom_site_fract_y
 _atom_site_fract_z
 _atom_site_occupancy
  Mn  Mn0  1  0.25568777  0.63873746  0.75000000  1
  Mn  Mn1  1  0.74431223  0.36126254  0.25000000  1
  Mn  Mn2  1  0.25568777  0.86126254  0.25000000  1
  Mn  Mn3  1  0.74431223  0.13873746  0.75000000  1
  Fe  Fe4  1  0.74986611  0.61679333  0.42756903  1
  Fe  Fe5  1  0.25013389  0.38320667  0.92756903  1
  Fe  Fe6  1  0.74986611  0.88320667  0.57243097  1
  Fe  Fe7  1  0.25013389  0.11679333  0.07243097  1
  Fe  Fe8  1  0.25013389  0.38320667  0.57243097  1
  Fe  Fe9  1  0.74986611  0.61679333  0.07243097  1
  Fe  Fe10  1  0.25013389  0.11679333  0.42756903  1
  Fe  Fe11  1  0.74986611  0.88320667  0.92756903  1
  O  O12  1  0.25379697  0.75000000  0.50000000  1
  O  O13  1  0.74620303  0.25000000  0.00000000  1
  O  O14  1  0.74620303  0.25000000  0.50000000  1
  O  O15  1  0.25379697  0.75000000  0.00000000  1
  O  O16  1  0.75487576  0.70355559  0.25000000  1
  O  O17  1  0.24512424  0.29644441  0.75000000  1
  O  O18  1  0.75487576  0.79644441  0.75000000  1
  O  O19  1  0.24512424  0.20355559  0.25000000  1
  O  O20  1  0.24911294  0.48049381  0.38875825  1
  O  O21  1  0.75088706  0.51950619  0.88875825  1
  O  O22  1  0.24911294  0.01950619  0.61124175  1
  O  O23  1  0.75088706  0.98049381  0.11124175  1
  O  O24  1  0.75088706  0.51950619  0.61124175  1
  O  O25  1  0.24911294  0.48049381  0.11124175  1
  O  O26  1  0.75088706  0.98049381  0.38875825  1
  O  O27  1  0.24911294  0.01950619  0.88875825  1
