# generated using pymatgen
data_Na2Th(PO4)2
_symmetry_space_group_name_H-M   'P 1'
_cell_length_a   7.11375403
_cell_length_b   9.26446970
_cell_length_c   22.01863877
_cell_angle_alpha   90.00000000
_cell_angle_beta   90.00000000
_cell_angle_gamma   111.50913648
_symmetry_Int_Tables_number   1
_chemical_formula_structural   Na2Th(PO4)2
_chemical_formula_sum   'Na16 Th8 P16 O64'
_cell_volume   1350.08307465
_cell_formula_units_Z   8
loop_
 _symmetry_equiv_pos_site_id
 _symmetry_equiv_pos_as_xyz
  1  'x, y, z'
loop_
 _atom_site_type_symbol
 _atom_site_label
 _atom_site_symmetry_multiplicity
 _atom_site_fract_x
 _atom_site_fract_y
 _atom_site_fract_z
 _atom_site_occupancy
  Na  Na0  1  0.85213102  0.46076047  0.93908267  1
  Na  Na1  1  0.14786898  0.53923953  0.06091733  1
  Na  Na2  1  0.64303404  0.54227019  0.56001099  1
  Na  Na3  1  0.14786898  0.03923953  0.43908267  1
  Na  Na4  1  0.37071045  0.50451150  0.68701838  1
  Na  Na5  1  0.88034170  0.98721757  0.31290767  1
  Na  Na6  1  0.11965830  0.01278243  0.68709233  1
  Na  Na7  1  0.62928955  0.49548850  0.31298162  1
  Na  Na8  1  0.62928955  -0.00451150  0.18701838  1
  Na  Na9  1  0.85213102  0.96076047  0.56091733  1
  Na  Na10  1  0.64303404  0.04227019  0.93998901  1
  Na  Na11  1  0.88034170  0.48721757  0.18709233  1
  Na  Na12  1  0.11965830  0.51278243  0.81290767  1
  Na  Na13  1  0.37071045  1.00451150  0.81298162  1
  Na  Na14  1  0.35696596  0.95772981  0.06001099  1
  Na  Na15  1  0.35696596  0.45772981  0.43998901  1
  Th  Th16  1  0.75743655  0.75285131  0.04649161  1
  Th  Th17  1  0.25523310  0.74393820  0.32130941  1
  Th  Th18  1  0.24256345  0.74714869  0.54649161  1
  Th  Th19  1  0.25523310  0.24393820  0.17869059  1
  Th  Th20  1  0.74476690  0.25606180  0.67869059  1
  Th  Th21  1  0.74476690  0.75606180  0.82130941  1
  Th  Th22  1  0.75743655  0.25285131  0.45350839  1
  Th  Th23  1  0.24256345  0.24714869  0.95350839  1
  P  P24  1  0.07340709  0.87291261  0.18329268  1
  P  P25  1  0.44211048  0.11448507  0.31541832  1
  P  P26  1  0.56574093  0.85090765  0.44130087  1
  P  P27  1  0.92659291  0.62708739  0.68329268  1
  P  P28  1  0.43425907  0.14909235  0.55869913  1
  P  P29  1  0.55788952  0.38551493  0.81541832  1
  P  P30  1  0.44211048  0.61448507  0.18458168  1
  P  P31  1  0.56574093  0.35090765  0.05869913  1
  P  P32  1  0.93034715  0.14457738  0.06247069  1
  P  P33  1  0.92659291  0.12708739  0.81670732  1
  P  P34  1  0.43425907  0.64909235  0.94130087  1
  P  P35  1  0.06965285  0.85542262  0.93752931  1
  P  P36  1  0.07340709  0.37291261  0.31670732  1
  P  P37  1  0.55788952  0.88551493  0.68458168  1
  P  P38  1  0.93034715  0.64457738  0.43752931  1
  P  P39  1  0.06965285  0.35542262  0.56247069  1
  O  O40  1  0.77820114  0.49099502  0.83174785  1
  O  O41  1  0.10497708  0.58066809  0.44480711  1
  O  O42  1  0.54025636  0.21913236  0.37089754  1
  O  O43  1  0.53977072  0.75302062  0.38310516  1
  O  O44  1  0.10497708  0.08066809  0.05519289  1
  O  O45  1  0.45189797  1.00076668  0.70013904  1
  O  O46  1  0.53977072  0.25302062  0.11689484  1
  O  O47  1  0.46022928  0.74697938  0.88310516  1
  O  O48  1  0.29324657  0.48120985  0.33228830  1
  O  O49  1  0.27444205  0.99514133  0.93734362  1
  O  O50  1  0.72555795  0.50485867  0.43734362  1
  O  O51  1  0.05222286  0.25032544  0.50572077  1
  O  O52  1  0.44885506  0.74990311  0.99928471  1
  O  O53  1  0.44885506  0.24990311  0.50071529  1
  O  O54  1  0.54810203  0.49923332  0.20013904  1
  O  O55  1  0.23258659  0.50647570  0.94013019  1
  O  O56  1  0.94777714  0.24967456  0.00572077  1
  O  O57  1  0.45974364  0.28086764  0.87089754  1
  O  O58  1  0.96114720  0.23915803  0.12162240  1
  O  O59  1  0.55114494  0.75009689  0.49928471  1
  O  O60  1  0.96365597  0.48577602  0.30114621  1
  O  O61  1  0.05222286  0.75032544  0.99427923  1
  O  O62  1  0.54025636  0.71913236  0.12910246  1
  O  O63  1  0.94777714  0.74967456  0.49427923  1
  O  O64  1  0.27444205  0.49514133  0.56265638  1
  O  O65  1  0.46022928  0.24697938  0.61689484  1
  O  O66  1  0.22179886  0.00900498  0.33174785  1
  O  O67  1  0.96114720  0.73915803  0.37837760  1
  O  O68  1  0.76741341  0.49352430  0.05986981  1
  O  O69  1  0.29324657  0.98120985  0.16771170  1
  O  O70  1  0.89502292  0.91933191  0.94480711  1
  O  O71  1  0.77820114  0.99099502  0.66825215  1
  O  O72  1  0.06131937  0.26341432  0.26259611  1
  O  O73  1  0.22179886  0.50900498  0.16825215  1
  O  O74  1  0.61703170  0.09432728  0.55285082  1
  O  O75  1  0.06131937  0.76341432  0.23740389  1
  O  O76  1  0.38296830  0.90567272  0.44714918  1
  O  O77  1  0.55114494  0.25009689  0.00071529  1
  O  O78  1  0.38296830  0.40567272  0.05285082  1
  O  O79  1  0.54810203  -0.00076668  0.29986096  1
  O  O80  1  0.72555795  0.00485867  0.06265638  1
  O  O81  1  0.76741341  0.99352430  0.44013019  1
  O  O82  1  0.98046076  0.26914926  0.37292662  1
  O  O83  1  0.45458502  0.22338758  0.26107801  1
  O  O84  1  0.03885280  0.76084197  0.87837760  1
  O  O85  1  0.45189797  0.50076668  0.79986096  1
  O  O86  1  0.89502292  0.41933191  0.55519289  1
  O  O87  1  0.70675343  0.51879015  0.66771170  1
  O  O88  1  0.03634403  0.01422398  0.80114621  1
  O  O89  1  0.01953924  0.23085074  0.87292662  1
  O  O90  1  0.61703170  0.59432728  0.94714918  1
  O  O91  1  0.03634403  0.51422398  0.69885379  1
  O  O92  1  0.70675343  0.01879015  0.83228830  1
  O  O93  1  0.93868063  0.23658568  0.76259611  1
  O  O94  1  0.96365597  0.98577602  0.19885379  1
  O  O95  1  0.45974364  0.78086764  0.62910246  1
  O  O96  1  0.54541498  0.77661242  0.73892199  1
  O  O97  1  0.93868063  0.73658568  0.73740389  1
  O  O98  1  0.54541498  0.27661242  0.76107801  1
  O  O99  1  0.03885280  0.26084197  0.62162240  1
  O  O100  1  0.23258659  0.00647570  0.55986981  1
  O  O101  1  0.01953924  0.73085074  0.62707338  1
  O  O102  1  0.98046076  0.76914926  0.12707338  1
  O  O103  1  0.45458502  0.72338758  0.23892199  1
