# generated using pymatgen
data_Cs3GeAsSe5
_symmetry_space_group_name_H-M   'P 1'
_cell_length_a   7.93550570
_cell_length_b   9.84601286
_cell_length_c   20.03636454
_cell_angle_alpha   90.00000000
_cell_angle_beta   99.79466251
_cell_angle_gamma   90.00000000
_symmetry_Int_Tables_number   1
_chemical_formula_structural   Cs3GeAsSe5
_chemical_formula_sum   'Cs12 Ge4 As4 Se20'
_cell_volume   1542.68393406
_cell_formula_units_Z   4
loop_
 _symmetry_equiv_pos_site_id
 _symmetry_equiv_pos_as_xyz
  1  'x, y, z'
loop_
 _atom_site_type_symbol
 _atom_site_label
 _atom_site_symmetry_multiplicity
 _atom_site_fract_x
 _atom_site_fract_y
 _atom_site_fract_z
 _atom_site_occupancy
  Cs  Cs0  1  0.08065184  0.43960592  0.23851770  1
  Cs  Cs1  1  0.62766356  0.69920137  0.54189747  1
  Cs  Cs2  1  0.41934816  0.93960592  0.26148230  1
  Cs  Cs3  1  0.03099592  0.78941549  0.41434320  1
  Cs  Cs4  1  0.58065184  0.06039408  0.73851770  1
  Cs  Cs5  1  0.96900408  0.21058451  0.58565680  1
  Cs  Cs6  1  0.12766356  0.80079863  0.04189747  1
  Cs  Cs7  1  0.46900408  0.28941549  0.08565680  1
  Cs  Cs8  1  0.53099592  0.71058451  0.91434320  1
  Cs  Cs9  1  0.91934816  0.56039408  0.76148230  1
  Cs  Cs10  1  0.37233644  0.30079863  0.45810253  1
  Cs  Cs11  1  0.87233644  0.19920137  0.95810253  1
  Ge  Ge12  1  0.20421811  0.79083827  0.62938774  1
  Ge  Ge13  1  0.79578189  0.20916173  0.37061226  1
  Ge  Ge14  1  0.29578189  0.29083827  0.87061226  1
  Ge  Ge15  1  0.70421811  0.70916173  0.12938774  1
  As  As16  1  0.87144223  0.04164244  0.20041175  1
  As  As17  1  0.12855777  0.95835756  0.79958825  1
  As  As18  1  0.62855777  0.54164244  0.29958825  1
  As  As19  1  0.37144223  0.45835756  0.70041175  1
  Se  Se20  1  0.40930779  0.09597767  0.92766980  1
  Se  Se21  1  0.42556082  0.70597837  0.72244428  1
  Se  Se22  1  0.90930779  0.40402233  0.42766980  1
  Se  Se23  1  0.18031592  0.45984694  0.93058419  1
  Se  Se24  1  0.97370846  0.88606837  0.68446661  1
  Se  Se25  1  0.68031592  0.04015306  0.43058419  1
  Se  Se26  1  0.07443918  0.20597837  0.77755572  1
  Se  Se27  1  0.92411144  0.88389758  0.86340722  1
  Se  Se28  1  0.47370846  0.61393163  0.18446661  1
  Se  Se29  1  0.07588856  0.11610242  0.13659278  1
  Se  Se30  1  0.31968408  0.95984694  0.56941581  1
  Se  Se31  1  0.81968408  0.54015306  0.06941581  1
  Se  Se32  1  0.92556082  0.79402163  0.22244428  1
  Se  Se33  1  0.57588856  0.38389758  0.63659278  1
  Se  Se34  1  0.09069221  0.59597767  0.57233020  1
  Se  Se35  1  0.59069221  0.90402233  0.07233020  1
  Se  Se36  1  0.42411144  0.61610242  0.36340722  1
  Se  Se37  1  0.52629154  0.38606837  0.81553339  1
  Se  Se38  1  0.02629154  0.11393163  0.31553339  1
  Se  Se39  1  0.57443918  0.29402163  0.27755572  1
