# generated using pymatgen
data_Ti4Te9I4O
_symmetry_space_group_name_H-M   'P 1'
_cell_length_a   6.32990580
_cell_length_b   11.95868386
_cell_length_c   17.13760578
_cell_angle_alpha   85.44059254
_cell_angle_beta   79.37253366
_cell_angle_gamma   74.63967358
_symmetry_Int_Tables_number   1
_chemical_formula_structural   Ti4Te9I4O
_chemical_formula_sum   'Ti8 Te18 I8 O2'
_cell_volume   1228.83154956
_cell_formula_units_Z   2
loop_
 _symmetry_equiv_pos_site_id
 _symmetry_equiv_pos_as_xyz
  1  'x, y, z'
loop_
 _atom_site_type_symbol
 _atom_site_label
 _atom_site_symmetry_multiplicity
 _atom_site_fract_x
 _atom_site_fract_y
 _atom_site_fract_z
 _atom_site_occupancy
  Ti  Ti0  1  0.37610044  0.76783279  0.86044500  1
  Ti  Ti1  1  0.24272604  0.58705579  0.76574776  1
  Ti  Ti2  1  0.49549925  0.26791857  0.36064510  1
  Ti  Ti3  1  0.75727396  0.41294421  0.23425224  1
  Ti  Ti4  1  0.90448609  0.08723413  0.26598763  1
  Ti  Ti5  1  0.50450075  0.73208143  0.63935490  1
  Ti  Ti6  1  0.09551391  0.91276587  0.73401237  1
  Ti  Ti7  1  0.62389956  0.23216721  0.13955500  1
  Te  Te8  1  0.19523259  0.25008786  0.25010125  1
  Te  Te9  1  0.84707852  0.12846000  0.43009561  1
  Te  Te10  1  0.65392745  0.49040913  0.67201772  1
  Te  Te11  1  0.28777262  0.57454510  0.59872749  1
  Te  Te12  1  0.46479179  0.47738700  0.12500708  1
  Te  Te13  1  0.34607255  0.50959087  0.32798228  1
  Te  Te14  1  0.15292148  0.87154000  0.56990439  1
  Te  Te15  1  0.68397555  0.99035425  0.17229352  1
  Te  Te16  1  0.31602445  0.00964575  0.82770648  1
  Te  Te17  1  0.80476741  0.74991214  0.74989875  1
  Te  Te18  1  0.56701360  0.02290515  0.37509187  1
  Te  Te19  1  0.03899334  0.07457793  0.09900340  1
  Te  Te20  1  0.09474295  0.62846400  0.92989953  1
  Te  Te21  1  0.53520821  0.52261300  0.87499292  1
  Te  Te22  1  0.96100666  0.92542207  0.90099660  1
  Te  Te23  1  0.71222738  0.42545490  0.40127251  1
  Te  Te24  1  0.43298640  0.97709485  0.62490813  1
  Te  Te25  1  0.90525705  0.37153600  0.07010047  1
  I  I26  1  0.90868094  0.61035669  0.21510950  1
  I  I27  1  0.09131906  0.38964331  0.78489050  1
  I  I28  1  0.23417866  0.88976070  0.28522849  1
  I  I29  1  0.76582134  0.11023930  0.71477151  1
  I  I30  1  0.18105159  0.28855389  0.49672987  1
  I  I31  1  0.81894841  0.71144611  0.50327013  1
  I  I32  1  0.46628229  0.21120595  1.00348804  1
  I  I33  1  0.53371771  0.78879405  -0.00348804  1
  O  O34  1  0.30435313  0.74991692  0.74991564  1
  O  O35  1  0.69564687  0.25008308  0.25008436  1
