# generated using pymatgen
data_CrBiO5
_symmetry_space_group_name_H-M   'P 1'
_cell_length_a   5.74534256
_cell_length_b   7.47164779
_cell_length_c   9.82467229
_cell_angle_alpha   90.00000000
_cell_angle_beta   90.00000000
_cell_angle_gamma   94.09603336
_symmetry_Int_Tables_number   1
_chemical_formula_structural   CrBiO5
_chemical_formula_sum   'Cr4 Bi4 O20'
_cell_volume   420.66818556
_cell_formula_units_Z   4
loop_
 _symmetry_equiv_pos_site_id
 _symmetry_equiv_pos_as_xyz
  1  'x, y, z'
loop_
 _atom_site_type_symbol
 _atom_site_label
 _atom_site_symmetry_multiplicity
 _atom_site_fract_x
 _atom_site_fract_y
 _atom_site_fract_z
 _atom_site_occupancy
  Cr  Cr0  1  0.72466334  0.33427163  0.08551253  1
  Cr  Cr1  1  0.27533666  0.16572837  0.58551253  1
  Cr  Cr2  1  0.27533666  0.66572837  0.91448747  1
  Cr  Cr3  1  0.72466334  0.83427163  0.41448747  1
  Bi  Bi4  1  0.83370136  0.49091335  0.67738404  1
  Bi  Bi5  1  0.16629864  0.00908665  0.17738404  1
  Bi  Bi6  1  0.16629864  0.50908665  0.32261596  1
  Bi  Bi7  1  0.83370136  0.99091335  0.82261596  1
  O  O8  1  0.52372831  0.24797739  0.65678780  1
  O  O9  1  0.47627169  0.25202261  0.15678780  1
  O  O10  1  0.47627169  0.75202261  0.34321220  1
  O  O11  1  0.52372831  0.74797739  0.84321220  1
  O  O12  1  0.26642996  0.95056374  0.59170694  1
  O  O13  1  0.73357004  0.54943626  0.09170694  1
  O  O14  1  0.73357004  0.04943626  0.40829306  1
  O  O15  1  0.26642996  0.45056374  0.90829306  1
  O  O16  1  0.03579262  0.22382281  0.68065268  1
  O  O17  1  0.96420738  0.27617719  0.18065268  1
  O  O18  1  0.96420738  0.77617719  0.31934732  1
  O  O19  1  0.03579262  0.72382281  0.81934732  1
  O  O20  1  0.25552810  0.22879339  0.42085407  1
  O  O21  1  0.74447190  0.27120661  0.92085407  1
  O  O22  1  0.74447190  0.77120661  0.57914593  1
  O  O23  1  0.25552810  0.72879339  0.07914593  1
  O  O24  1  0.15974377  0.54356956  0.55100765  1
  O  O25  1  0.84025623  0.95643044  0.05100765  1
  O  O26  1  0.84025623  0.45643044  0.44899235  1
  O  O27  1  0.15974377  0.04356956  0.94899235  1
