# generated using pymatgen
data_Cs3AlAs2
_symmetry_space_group_name_H-M   'P 1'
_cell_length_a   8.98956854
_cell_length_b   11.64337074
_cell_length_c   19.76052096
_cell_angle_alpha   100.03297216
_cell_angle_beta   90.00000000
_cell_angle_gamma   90.00000000
_symmetry_Int_Tables_number   1
_chemical_formula_structural   Cs3AlAs2
_chemical_formula_sum   'Cs24 Al8 As16'
_cell_volume   2036.68226029
_cell_formula_units_Z   8
loop_
 _symmetry_equiv_pos_site_id
 _symmetry_equiv_pos_as_xyz
  1  'x, y, z'
loop_
 _atom_site_type_symbol
 _atom_site_label
 _atom_site_symmetry_multiplicity
 _atom_site_fract_x
 _atom_site_fract_y
 _atom_site_fract_z
 _atom_site_occupancy
  Cs  Cs0  1  0.57251643  0.37565965  0.61056935  1
  Cs  Cs1  1  0.97469968  0.15075344  0.46793130  1
  Cs  Cs2  1  0.55622615  0.91811255  0.25724621  1
  Cs  Cs3  1  0.58923529  0.73959311  0.57793480  1
  Cs  Cs4  1  0.05622615  0.08188745  0.24275379  1
  Cs  Cs5  1  0.38383457  0.29317399  0.16102840  1
  Cs  Cs6  1  0.41076471  0.26040689  0.42206520  1
  Cs  Cs7  1  0.25484428  0.63911143  0.71075461  1
  Cs  Cs8  1  0.75484428  0.36088857  0.78924539  1
  Cs  Cs9  1  0.74515572  0.36088857  0.28924539  1
  Cs  Cs10  1  0.52530032  0.15075344  0.96793130  1
  Cs  Cs11  1  0.11616543  0.29317399  0.66102840  1
  Cs  Cs12  1  0.94377385  0.91811255  0.75724621  1
  Cs  Cs13  1  0.61616543  0.70682601  0.83897160  1
  Cs  Cs14  1  0.88383457  0.70682601  0.33897160  1
  Cs  Cs15  1  0.08923529  0.26040689  0.92206520  1
  Cs  Cs16  1  0.42748357  0.62434035  0.38943065  1
  Cs  Cs17  1  0.07251643  0.62434035  0.88943065  1
  Cs  Cs18  1  0.92748357  0.37565965  0.11056935  1
  Cs  Cs19  1  0.91076471  0.73959311  0.07793480  1
  Cs  Cs20  1  0.24515572  0.63911143  0.21075461  1
  Cs  Cs21  1  0.02530032  0.84924656  0.53206870  1
  Cs  Cs22  1  0.44377385  0.08188745  0.74275379  1
  Cs  Cs23  1  0.47469968  0.84924656  0.03206870  1
  Al  Al24  1  0.61309472  0.04421405  0.55432699  1
  Al  Al25  1  0.38690528  0.95578595  0.44567301  1
  Al  Al26  1  0.94579654  0.53716500  0.57272862  1
  Al  Al27  1  0.05420346  0.46283500  0.42727138  1
  Al  Al28  1  0.88690528  0.04421405  0.05432699  1
  Al  Al29  1  0.44579654  0.46283500  0.92727138  1
  Al  Al30  1  0.55420346  0.53716500  0.07272862  1
  Al  Al31  1  0.11309472  0.95578595  0.94567301  1
  As  As32  1  0.84007731  0.94316347  0.93613732  1
  As  As33  1  0.20778249  0.89598501  0.35892884  1
  As  As34  1  0.70778249  0.10401499  0.14107116  1
  As  As35  1  0.29314844  0.50818112  0.03255104  1
  As  As36  1  0.35765403  0.40164953  0.81258682  1
  As  As37  1  0.65992269  0.94316347  0.43613732  1
  As  As38  1  0.79314844  0.49181888  0.46744896  1
  As  As39  1  0.64234597  0.59835047  0.18741318  1
  As  As40  1  0.15992269  0.05683653  0.06386268  1
  As  As41  1  0.29221751  0.89598501  0.85892884  1
  As  As42  1  0.34007731  0.05683653  0.56386268  1
  As  As43  1  0.85765403  0.59835047  0.68741318  1
  As  As44  1  0.14234597  0.40164953  0.31258682  1
  As  As45  1  0.79221751  0.10401499  0.64107116  1
  As  As46  1  0.70685156  0.49181888  0.96744896  1
  As  As47  1  0.20685156  0.50818112  0.53255104  1
