# generated using pymatgen
data_RbRe3Br10
_symmetry_space_group_name_H-M   'P 1'
_cell_length_a   9.53959957
_cell_length_b   9.53959915
_cell_length_c   10.67065858
_cell_angle_alpha   88.10696234
_cell_angle_beta   88.10696237
_cell_angle_gamma   71.07788179
_symmetry_Int_Tables_number   1
_chemical_formula_structural   RbRe3Br10
_chemical_formula_sum   'Rb2 Re6 Br20'
_cell_volume   917.83839401
_cell_formula_units_Z   2
loop_
 _symmetry_equiv_pos_site_id
 _symmetry_equiv_pos_as_xyz
  1  'x, y, z'
loop_
 _atom_site_type_symbol
 _atom_site_label
 _atom_site_symmetry_multiplicity
 _atom_site_fract_x
 _atom_site_fract_y
 _atom_site_fract_z
 _atom_site_occupancy
  Rb  Rb0  1  0.21094648  0.78905352  0.00000000  1
  Rb  Rb1  1  0.78905352  0.21094648  1.00000000  1
  Re  Re2  1  0.59145795  0.81302740  0.62667247  1
  Re  Re3  1  0.18697260  0.40854205  0.37332753  1
  Re  Re4  1  0.81302740  0.59145795  0.62667247  1
  Re  Re5  1  0.40854205  0.18697260  0.37332753  1
  Re  Re6  1  0.76164748  0.76164748  0.80602482  1
  Re  Re7  1  0.23835252  0.23835252  0.19397518  1
  Br  Br8  1  0.71000846  0.39838877  0.70037165  1
  Br  Br9  1  0.08243555  0.08243555  0.26204152  1
  Br  Br10  1  0.91756445  0.91756445  0.73795848  1
  Br  Br11  1  0.83884718  0.83884718  0.03435356  1
  Br  Br12  1  0.47085966  0.00751821  0.18951543  1
  Br  Br13  1  0.00229573  0.32471850  0.50317777  1
  Br  Br14  1  0.28999154  0.60161123  0.29962835  1
  Br  Br15  1  0.64351778  0.64351778  0.43668625  1
  Br  Br16  1  0.67528150  0.99770427  0.49682223  1
  Br  Br17  1  0.52914034  0.99248179  0.81048457  1
  Br  Br18  1  0.60161123  0.28999154  0.29962835  1
  Br  Br19  1  0.39838877  0.71000846  0.70037165  1
  Br  Br20  1  0.36731743  0.36731743  0.04584522  1
  Br  Br21  1  0.00751821  0.47085966  0.18951543  1
  Br  Br22  1  0.16115282  0.16115282  0.96564644  1
  Br  Br23  1  0.32471850  0.00229573  0.50317777  1
  Br  Br24  1  0.63268257  0.63268257  0.95415478  1
  Br  Br25  1  0.99248179  0.52914034  0.81048457  1
  Br  Br26  1  0.35648222  0.35648222  0.56331375  1
  Br  Br27  1  0.99770427  0.67528150  0.49682223  1
