# generated using pymatgen
data_Tl2Te
_symmetry_space_group_name_H-M   'P 1'
_cell_length_a   9.17287458
_cell_length_b   9.33611067
_cell_length_c   32.11181661
_cell_angle_alpha   81.35885719
_cell_angle_beta   81.78852966
_cell_angle_gamma   60.57671176
_symmetry_Int_Tables_number   1
_chemical_formula_structural   Tl2Te
_chemical_formula_sum   'Tl44 Te22'
_cell_volume   2360.50095966
_cell_formula_units_Z   22
loop_
 _symmetry_equiv_pos_site_id
 _symmetry_equiv_pos_as_xyz
  1  'x, y, z'
loop_
 _atom_site_type_symbol
 _atom_site_label
 _atom_site_symmetry_multiplicity
 _atom_site_fract_x
 _atom_site_fract_y
 _atom_site_fract_z
 _atom_site_occupancy
  Tl  Tl0  1  0.40344974  0.07898475  0.31181957  1
  Tl  Tl1  1  0.20574594  0.57898475  0.81181957  1
  Tl  Tl2  1  0.48248111  0.42282790  0.41363032  1
  Tl  Tl3  1  0.00802902  0.72920680  0.42858924  1
  Tl  Tl4  1  0.71777737  0.27575549  0.80957542  1
  Tl  Tl5  1  0.52621705  0.98258758  0.43523692  1
  Tl  Tl6  1  0.56194559  0.72609179  0.00170589  1
  Tl  Tl7  1  0.16953558  0.02531550  0.75944687  1
  Tl  Tl8  1  0.04570205  0.52531550  0.25944687  1
  Tl  Tl9  1  0.79425406  0.42101525  0.18818043  1
  Tl  Tl10  1  0.51767890  0.32485682  0.12293741  1
  Tl  Tl11  1  0.99197098  0.27079320  0.57141076  1
  Tl  Tl12  1  0.94404155  0.51741242  0.06476308  1
  Tl  Tl13  1  0.19689172  0.77575549  0.30957542  1
  Tl  Tl14  1  0.73443446  0.86602080  0.14468384  1
  Tl  Tl15  1  0.83417495  0.22920680  0.92858924  1
  Tl  Tl16  1  0.39299332  0.60190421  0.69726418  1
  Tl  Tl17  1  0.30783829  0.10190421  0.19726418  1
  Tl  Tl18  1  0.48232110  0.67514318  0.87706259  1
  Tl  Tl19  1  0.26556554  0.13397920  0.85531616  1
  Tl  Tl20  1  0.95429795  0.47468450  0.74055313  1
  Tl  Tl21  1  0.05595845  0.48258758  0.93523692  1
  Tl  Tl22  1  0.60700668  0.39809579  0.30273582  1
  Tl  Tl23  1  0.43805441  0.27390821  0.99829411  1
  Tl  Tl24  1  0.10623611  0.27610898  0.46287729  1
  Tl  Tl25  1  0.51751889  0.57717210  0.58636968  1
  Tl  Tl26  1  0.28222263  0.72424451  0.19042458  1
  Tl  Tl27  1  0.84522238  0.22389102  0.03712271  1
  Tl  Tl28  1  0.16582505  0.77079320  0.07141076  1
  Tl  Tl29  1  0.25486090  0.36602080  0.64468384  1
  Tl  Tl30  1  0.69216171  0.89809579  0.80273582  1
  Tl  Tl31  1  0.47378295  0.01741242  0.56476308  1
  Tl  Tl32  1  0.74513910  0.63397920  0.35531616  1
  Tl  Tl33  1  0.15477762  0.77610898  0.96287729  1
  Tl  Tl34  1  0.96547313  0.17514318  0.37706259  1
  Tl  Tl35  1  0.68106066  0.92282790  0.91363032  1
  Tl  Tl36  1  0.31893934  0.07717210  0.08636968  1
  Tl  Tl37  1  0.80310828  0.22424451  0.69042458  1
  Tl  Tl38  1  0.28974327  0.77390821  0.49829411  1
  Tl  Tl39  1  0.71025673  0.22609179  0.50170589  1
  Tl  Tl40  1  0.59655026  0.92101525  0.68818043  1
  Tl  Tl41  1  0.89376389  0.72389102  0.53712271  1
  Tl  Tl42  1  0.83046442  0.97468450  0.24055313  1
  Tl  Tl43  1  0.03452687  0.82485682  0.62293741  1
  Te  Te44  1  0.77364570  0.96748265  0.35195719  1
  Te  Te45  1  0.09308554  0.53251735  0.14804281  1
  Te  Te46  1  0.98113496  0.81098672  0.72629730  1
  Te  Te47  1  0.90691446  0.46748265  0.85195719  1
  Te  Te48  1  0.22635430  0.03251735  0.64804281  1
  Te  Te49  1  0.32117089  0.83094869  0.39474963  1
  Te  Te50  1  0.39674801  0.25000000  0.75000000  1
  Te  Te51  1  0.01907822  0.92423160  0.87085531  1
  Te  Te52  1  0.21976894  0.08400390  0.98463288  1
  Te  Te53  1  0.54686922  0.66905131  0.10525037  1
  Te  Te54  1  0.71159429  0.58400390  0.48463288  1
  Te  Te55  1  0.81416513  0.57576840  0.62914469  1
  Te  Te56  1  0.60325199  0.75000000  0.25000000  1
  Te  Te57  1  0.51841898  0.68901328  0.77370270  1
  Te  Te58  1  0.45313078  0.33094869  0.89474963  1
  Te  Te59  1  0.98092178  0.07576840  0.12914469  1
  Te  Te60  1  0.78023106  0.91599610  0.01536712  1
  Te  Te61  1  0.67882911  0.16905131  0.60525037  1
  Te  Te62  1  0.18583487  0.42423160  0.37085531  1
  Te  Te63  1  0.01886504  0.18901328  0.27370270  1
  Te  Te64  1  0.28840571  0.41599610  0.51536712  1
  Te  Te65  1  0.48158102  0.31098672  0.22629730  1
