# generated using pymatgen
data_K10In5Sb9
_symmetry_space_group_name_H-M   'P 1'
_cell_length_a   12.53481421
_cell_length_b   17.09083198
_cell_length_c   17.93041981
_cell_angle_alpha   114.60578830
_cell_angle_beta   90.00000000
_cell_angle_gamma   90.00000000
_symmetry_Int_Tables_number   1
_chemical_formula_structural   K10In5Sb9
_chemical_formula_sum   'K40 In20 Sb36'
_cell_volume   3492.43352501
_cell_formula_units_Z   4
loop_
 _symmetry_equiv_pos_site_id
 _symmetry_equiv_pos_as_xyz
  1  'x, y, z'
loop_
 _atom_site_type_symbol
 _atom_site_label
 _atom_site_symmetry_multiplicity
 _atom_site_fract_x
 _atom_site_fract_y
 _atom_site_fract_z
 _atom_site_occupancy
  K  K0  1  0.85115383  0.43245931  0.67259107  1
  K  K1  1  0.40627583  0.42940984  0.67712740  1
  K  K2  1  0.63314453  0.06094143  0.96449954  1
  K  K3  1  0.11007635  0.18989074  0.38972444  1
  K  K4  1  0.14022695  0.67111481  0.03463076  1
  K  K5  1  0.09712559  0.83280155  0.47597278  1
  K  K6  1  0.62040092  0.45331471  0.53314183  1
  K  K7  1  0.09372417  0.92940984  0.17712740  1
  K  K8  1  0.86618901  0.45980088  0.21394151  1
  K  K9  1  0.13381099  0.54019912  0.78605849  1
  K  K10  1  0.85977305  0.32888519  0.96536924  1
  K  K11  1  0.64884617  0.93245931  0.17259107  1
  K  K12  1  0.63381099  0.95980088  0.71394151  1
  K  K13  1  0.86685547  0.56094143  0.46449954  1
  K  K14  1  0.36358487  0.58018547  0.14254090  1
  K  K15  1  0.90627583  0.07059016  0.82287260  1
  K  K16  1  0.35311798  0.81277321  0.60453045  1
  K  K17  1  0.87959908  0.95331471  0.03314183  1
  K  K18  1  0.36618901  0.04019912  0.28605849  1
  K  K19  1  0.85311798  0.68722679  0.89546955  1
  K  K20  1  0.86358487  0.91981453  0.35745910  1
  K  K21  1  0.35115383  0.06754069  0.82740893  1
  K  K22  1  0.36685547  0.93905857  0.03550046  1
  K  K23  1  0.38992365  0.68989074  0.88972444  1
  K  K24  1  0.59712559  0.66719845  0.02402722  1
  K  K25  1  0.90287441  0.16719845  0.52402722  1
  K  K26  1  0.14884617  0.56754069  0.32740893  1
  K  K27  1  0.35977305  0.17111481  0.53463076  1
  K  K28  1  0.37959908  0.54668529  0.46685817  1
  K  K29  1  0.14688202  0.31277321  0.10453045  1
  K  K30  1  0.13641513  0.08018547  0.64254090  1
  K  K31  1  0.40287441  0.33280155  0.97597278  1
  K  K32  1  0.12040092  0.04668529  0.96685817  1
  K  K33  1  0.61007635  0.31010926  0.11027556  1
  K  K34  1  0.64688202  0.18722679  0.39546955  1
  K  K35  1  0.64022695  0.82888519  0.46536924  1
  K  K36  1  0.63641513  0.41981453  0.85745910  1
  K  K37  1  0.13314453  0.43905857  0.53550046  1
  K  K38  1  0.59372417  0.57059016  0.32287260  1
  K  K39  1  0.88992365  0.81010926  0.61027556  1
  In  In40  1  0.97971741  0.29145943  0.77125787  1
  In  In41  1  0.47971741  0.20854057  0.72874213  1
  In  In42  1  0.49900430  0.68522266  0.69318265  1
  In  In43  1  0.72236716  0.69117346  0.22374050  1
  In  In44  1  0.74898228  0.17783838  0.18994966  1
  In  In45  1  0.52028259  0.79145943  0.27125787  1
  In  In46  1  0.24898228  0.32216162  0.31005034  1
  In  In47  1  0.50099570  0.31477734  0.30681735  1
  In  In48  1  0.63072116  0.06051709  0.55226407  1
  In  In49  1  0.22236716  0.80882654  0.27625950  1
  In  In50  1  0.25101772  0.82216162  0.81005034  1
  In  In51  1  -0.00099570  0.81477734  0.80681735  1
  In  In52  1  0.75101772  0.67783838  0.68994966  1
  In  In53  1  0.02028259  0.70854057  0.22874213  1
  In  In54  1  0.86927884  0.56051709  0.05226407  1
  In  In55  1  0.77763284  0.19117346  0.72374050  1
  In  In56  1  0.36927884  0.93948291  0.44773593  1
  In  In57  1  1.00099570  0.18522266  0.19318265  1
  In  In58  1  0.27763284  0.30882654  0.77625950  1
  In  In59  1  0.13072116  0.43948291  0.94773593  1
  Sb  Sb60  1  0.87635350  0.69759987  0.35285939  1
  Sb  Sb61  1  0.48200030  0.86331808  0.82539541  1
  Sb  Sb62  1  0.87721483  0.07695481  0.25425179  1
  Sb  Sb63  1  0.51799970  0.13668192  0.17460459  1
  Sb  Sb64  1  0.12549911  0.65488603  0.55574143  1
  Sb  Sb65  1  0.83387749  0.01350062  0.60100139  1
  Sb  Sb66  1  0.76957678  0.85722579  0.82293129  1
  Sb  Sb67  1  0.56816851  0.98101663  0.37917354  1
  Sb  Sb68  1  0.43183149  0.01898337  0.62082646  1
  Sb  Sb69  1  0.37721483  0.42304519  0.24574821  1
  Sb  Sb70  1  0.66612251  0.51350062  0.10100139  1
  Sb  Sb71  1  0.06816851  0.51898337  0.12082646  1
  Sb  Sb72  1  0.37635350  0.80240013  0.14714061  1
  Sb  Sb73  1  0.62549911  0.84511397  0.94425857  1
  Sb  Sb74  1  0.13853671  0.24709404  0.87761271  1
  Sb  Sb75  1  0.33387749  0.48649938  0.89899861  1
  Sb  Sb76  1  0.87450089  0.34511397  0.44425857  1
  Sb  Sb77  1  0.16612251  0.98649938  0.39899861  1
  Sb  Sb78  1  0.37726747  0.31919599  0.44584297  1
  Sb  Sb79  1  0.36146329  0.74709404  0.37761271  1
  Sb  Sb80  1  0.93183149  0.48101663  0.87917354  1
  Sb  Sb81  1  0.26957678  0.64277421  0.67706871  1
  Sb  Sb82  1  0.98200030  0.63668192  0.67460459  1
  Sb  Sb83  1  0.62278517  0.57695481  0.75425179  1
  Sb  Sb84  1  0.62273253  0.68080401  0.55415703  1
  Sb  Sb85  1  0.63853671  0.25290596  0.62238729  1
  Sb  Sb86  1  0.12278517  0.92304519  0.74574821  1
  Sb  Sb87  1  0.12273253  0.81919599  0.94584297  1
  Sb  Sb88  1  0.23042322  0.14277421  0.17706871  1
  Sb  Sb89  1  0.12364650  0.30240013  0.64714061  1
  Sb  Sb90  1  0.01799970  0.36331808  0.32539541  1
  Sb  Sb91  1  0.62364650  0.19759987  0.85285939  1
  Sb  Sb92  1  0.86146329  0.75290596  0.12238729  1
  Sb  Sb93  1  0.73042322  0.35722579  0.32293129  1
  Sb  Sb94  1  0.87726747  0.18080401  0.05415703  1
  Sb  Sb95  1  0.37450089  0.15488603  0.05574143  1
