# generated using pymatgen
data_Tl2Ni4P4O15
_symmetry_space_group_name_H-M   'P 1'
_cell_length_a   8.75320504
_cell_length_b   8.75320534
_cell_length_c   18.40634363
_cell_angle_alpha   97.90960060
_cell_angle_beta   97.90960086
_cell_angle_gamma   106.28228125
_symmetry_Int_Tables_number   1
_chemical_formula_structural   Tl2Ni4P4O15
_chemical_formula_sum   'Tl8 Ni16 P16 O60'
_cell_volume   1317.60189839
_cell_formula_units_Z   4
loop_
 _symmetry_equiv_pos_site_id
 _symmetry_equiv_pos_as_xyz
  1  'x, y, z'
loop_
 _atom_site_type_symbol
 _atom_site_label
 _atom_site_symmetry_multiplicity
 _atom_site_fract_x
 _atom_site_fract_y
 _atom_site_fract_z
 _atom_site_occupancy
  Tl  Tl0  1  0.11144370  0.58766785  0.29987643  1
  Tl  Tl1  1  0.35052241  0.54966788  0.05120704  1
  Tl  Tl2  1  0.45033212  0.64947759  0.44879296  1
  Tl  Tl3  1  0.88855630  0.41233215  0.70012357  1
  Tl  Tl4  1  0.64947759  0.45033212  0.94879296  1
  Tl  Tl5  1  0.58766785  0.11144370  0.79987643  1
  Tl  Tl6  1  0.41233215  0.88855630  0.20012357  1
  Tl  Tl7  1  0.54966788  0.35052241  0.55120704  1
  Ni  Ni8  1  0.91358199  0.26994310  0.06824250  1
  Ni  Ni9  1  0.84865921  0.96112203  0.93250526  1
  Ni  Ni10  1  0.53955721  0.46044279  0.25000000  1
  Ni  Ni11  1  0.82793783  0.17206217  0.25000000  1
  Ni  Ni12  1  0.46044279  0.53955721  0.75000000  1
  Ni  Ni13  1  0.00000000  0.50000000  0.50000000  1
  Ni  Ni14  1  0.15134079  0.03887797  0.06749474  1
  Ni  Ni15  1  0.26994310  0.91358199  0.56824250  1
  Ni  Ni16  1  0.03887797  0.15134079  0.56749474  1
  Ni  Ni17  1  0.04644294  0.95355706  0.25000000  1
  Ni  Ni18  1  0.17206217  0.82793783  0.75000000  1
  Ni  Ni19  1  0.96112203  0.84865921  0.43250526  1
  Ni  Ni20  1  0.95355706  0.04644294  0.75000000  1
  Ni  Ni21  1  0.50000000  0.00000000  0.00000000  1
  Ni  Ni22  1  0.73005690  0.08641801  0.43175750  1
  Ni  Ni23  1  0.08641801  0.73005690  0.93175750  1
  P  P24  1  0.44217382  0.77242072  0.87884000  1
  P  P25  1  0.10227857  0.22044838  0.40251364  1
  P  P26  1  0.98696433  0.68749468  0.09794778  1
  P  P27  1  0.31250532  0.01303567  0.40205222  1
  P  P28  1  0.77955162  0.89772143  0.09748636  1
  P  P29  1  0.16017853  0.27674580  0.17888289  1
  P  P30  1  0.72325420  0.83982147  0.32111711  1
  P  P31  1  0.55782618  0.22757928  0.12116000  1
  P  P32  1  0.22044838  0.10227857  0.90251364  1
  P  P33  1  0.27674580  0.16017853  0.67888289  1
  P  P34  1  0.83982147  0.72325420  0.82111711  1
  P  P35  1  0.89772143  0.77955162  0.59748636  1
  P  P36  1  0.01303567  0.31250532  0.90205222  1
  P  P37  1  0.77242072  0.44217382  0.37884000  1
  P  P38  1  0.68749468  0.98696433  0.59794778  1
  P  P39  1  0.22757928  0.55782618  0.62116000  1
  O  O40  1  0.13190882  0.39924759  0.42924835  1
  O  O41  1  0.78167713  0.33054693  0.43845435  1
  O  O42  1  0.70297697  0.59089419  0.76734386  1
  O  O43  1  0.74844798  0.05058124  0.68130738  1
  O  O44  1  0.25155202  0.94941876  0.31869262  1
  O  O45  1  0.60090423  0.45762683  0.35910046  1
  O  O46  1  0.05058124  0.74844798  0.18130738  1
  O  O47  1  0.61433900  0.17253281  0.19324331  1
  O  O48  1  0.94593433  0.50840843  0.07104485  1
  O  O49  1  0.82746719  0.38566100  0.30675669  1
  O  O50  1  0.17253281  0.61433900  0.69324331  1
  O  O51  1  0.96017379  0.83651219  0.68159836  1
  O  O52  1  0.99068418  0.29716249  0.18747103  1
  O  O53  1  0.05406567  0.49159157  0.92895515  1
  O  O54  1  0.94941876  0.25155202  0.81869262  1
  O  O55  1  0.83651219  0.96017379  0.18159836  1
  O  O56  1  0.11132878  0.99207041  0.94871206  1
  O  O57  1  0.16348781  0.03982621  0.81840164  1
  O  O58  1  0.60503338  0.90452132  0.92043395  1
  O  O59  1  0.70283751  0.00931582  0.31252897  1
  O  O60  1  0.09944348  0.78724886  0.05068950  1
  O  O61  1  0.18831661  0.27564119  0.92088919  1
  O  O62  1  0.21275114  0.90055652  0.44931050  1
  O  O63  1  0.33054693  0.78167713  0.93845435  1
  O  O64  1  0.17029798  0.10242190  0.18363248  1
  O  O65  1  0.38566100  0.82746719  0.80675669  1
  O  O66  1  0.28426988  0.16092931  0.59297766  1
  O  O67  1  0.00931582  0.70283751  0.81252897  1
  O  O68  1  0.27564119  0.18831661  0.42088919  1
  O  O69  1  0.90452132  0.60503338  0.42043395  1
  O  O70  1  0.88867122  0.00792959  0.05128794  1
  O  O71  1  0.78724886  0.09944348  0.55068950  1
  O  O72  1  0.81168339  0.72435881  0.07911081  1
  O  O73  1  0.21832287  0.66945307  0.56154565  1
  O  O74  1  0.29716249  0.99068418  0.68747103  1
  O  O75  1  0.10242190  0.17029798  0.68363248  1
  O  O76  1  0.39924759  0.13190882  0.92924835  1
  O  O77  1  0.71573012  0.83907069  0.40702234  1
  O  O78  1  0.29702303  0.40910581  0.23265614  1
  O  O79  1  0.83907069  0.71573012  0.90702234  1
  O  O80  1  0.72435881  0.81168339  0.57911081  1
  O  O81  1  0.09547868  0.39496662  0.57956605  1
  O  O82  1  0.66945307  0.21832287  0.06154565  1
  O  O83  1  0.59089419  0.70297697  0.26734386  1
  O  O84  1  0.00792959  0.88867122  0.55128794  1
  O  O85  1  0.39496662  0.09547868  0.07956605  1
  O  O86  1  0.86809118  0.60075241  0.57075165  1
  O  O87  1  0.82970202  0.89757810  0.81636752  1
  O  O88  1  0.16092931  0.28426988  0.09297766  1
  O  O89  1  0.50840843  0.94593433  0.57104485  1
  O  O90  1  0.60075241  0.86809118  0.07075165  1
  O  O91  1  0.03982621  0.16348781  0.31840164  1
  O  O92  1  0.45762683  0.60090423  0.85910046  1
  O  O93  1  0.49159157  0.05406567  0.42895515  1
  O  O94  1  0.99207041  0.11132878  0.44871206  1
  O  O95  1  0.54237317  0.39909577  0.14089954  1
  O  O96  1  0.39909577  0.54237317  0.64089954  1
  O  O97  1  0.40910581  0.29702303  0.73265614  1
  O  O98  1  0.89757810  0.82970202  0.31636752  1
  O  O99  1  0.90055652  0.21275114  0.94931050  1
