# generated using pymatgen
data_Mo2P3O13
_symmetry_space_group_name_H-M   'P 1'
_cell_length_a   6.43607137
_cell_length_b   19.23403834
_cell_length_c   9.90514770
_cell_angle_alpha   90.00000000
_cell_angle_beta   106.49221629
_cell_angle_gamma   90.00000000
_symmetry_Int_Tables_number   1
_chemical_formula_structural   Mo2P3O13
_chemical_formula_sum   'Mo8 P12 O52'
_cell_volume   1175.72762045
_cell_formula_units_Z   4
loop_
 _symmetry_equiv_pos_site_id
 _symmetry_equiv_pos_as_xyz
  1  'x, y, z'
loop_
 _atom_site_type_symbol
 _atom_site_label
 _atom_site_symmetry_multiplicity
 _atom_site_fract_x
 _atom_site_fract_y
 _atom_site_fract_z
 _atom_site_occupancy
  Mo  Mo0  1  0.06307512  0.78705714  0.38897457  1
  Mo  Mo1  1  0.37048817  0.81648894  0.93854580  1
  Mo  Mo2  1  0.13152867  0.50150062  0.06820682  1
  Mo  Mo3  1  0.43886084  0.53219048  0.61938885  1
  Mo  Mo4  1  0.56113916  0.03219048  0.38061115  1
  Mo  Mo5  1  0.86847133  0.00150062  0.93179318  1
  Mo  Mo6  1  0.62951183  0.31648894  0.06145420  1
  Mo  Mo7  1  0.93692488  0.28705714  0.61102543  1
  P  P8  1  0.08882160  0.33610427  0.96235225  1
  P  P9  1  0.01599106  0.06892493  0.28839183  1
  P  P10  1  0.23964645  0.69312552  0.69696893  1
  P  P11  1  0.26166820  0.62551465  0.31033725  1
  P  P12  1  0.59033207  0.48305892  0.96785363  1
  P  P13  1  0.48237151  0.24994632  0.70353259  1
  P  P14  1  0.51762849  0.74994632  0.29646741  1
  P  P15  1  0.40966793  0.98305892  0.03214637  1
  P  P16  1  0.73833180  0.12551465  0.68966275  1
  P  P17  1  0.76035355  0.19312552  0.30303107  1
  P  P18  1  0.98400894  0.56892493  0.71160817  1
  P  P19  1  0.91117840  0.83610427  0.03764775  1
  O  O20  1  0.03652086  0.55094453  0.86818884  1
  O  O21  1  0.06942957  0.81390338  0.95342746  1
  O  O22  1  0.07689755  0.41612222  0.94084171  1
  O  O23  1  0.03856425  0.29785504  0.82411129  1
  O  O24  1  0.02748115  0.65202107  0.70597719  1
  O  O25  1  0.17834385  0.00129073  0.93852825  1
  O  O26  1  0.12542268  0.53210368  0.63363984  1
  O  O27  1  0.05802752  0.87206670  0.43183787  1
  O  O28  1  0.16405691  0.75249152  0.59492651  1
  O  O29  1  0.09633385  0.67463613  0.33747350  1
  O  O30  1  0.29845446  0.86440496  0.78853308  1
  O  O31  1  0.32869743  0.72552086  0.84971555  1
  O  O32  1  0.24528283  0.25756497  0.62061074  1
  O  O33  1  0.25279679  0.06111890  0.37170448  1
  O  O34  1  0.20254792  0.45238974  0.21663276  1
  O  O35  1  0.17375105  0.59218606  0.15832921  1
  O  O36  1  0.40457763  0.64430099  0.66849214  1
  O  O37  1  0.53491475  0.26861806  0.85978743  1
  O  O38  1  0.56689827  0.00351818  0.94597332  1
  O  O39  1  0.33715527  0.56634888  0.41314292  1
  O  O40  1  0.57582174  0.40356341  0.93888422  1
  O  O41  1  0.54105701  0.52428691  0.83301375  1
  O  O42  1  0.44519116  0.44673776  0.58003997  1
  O  O43  1  0.37664385  0.78644935  0.37518872  1
  O  O44  1  0.52635123  0.16676976  0.69906096  1
  O  O45  1  0.68042311  0.81608541  0.94561617  1
  O  O46  1  0.31957689  0.31608541  0.05438383  1
  O  O47  1  0.47364877  0.66676976  0.30093904  1
  O  O48  1  0.62335615  0.28644935  0.62481228  1
  O  O49  1  0.55480884  0.94673776  0.41996003  1
  O  O50  1  0.45894299  0.02428691  0.16698625  1
  O  O51  1  0.42417826  0.90356341  0.06111578  1
  O  O52  1  0.66284473  0.06634888  0.58685708  1
  O  O53  1  0.43310173  0.50351818  0.05402668  1
  O  O54  1  0.46508525  0.76861806  0.14021257  1
  O  O55  1  0.59542237  0.14430099  0.33150786  1
  O  O56  1  0.82624895  0.09218606  0.84167079  1
  O  O57  1  0.79745208  0.95238974  0.78336724  1
  O  O58  1  0.74720321  0.56111890  0.62829552  1
  O  O59  1  0.75471717  0.75756497  0.37938926  1
  O  O60  1  0.67130257  0.22552086  0.15028445  1
  O  O61  1  0.70154554  0.36440496  0.21146692  1
  O  O62  1  0.90366615  0.17463613  0.66252650  1
  O  O63  1  0.83594309  0.25249152  0.40507349  1
  O  O64  1  0.94197248  0.37206670  0.56816213  1
  O  O65  1  0.87457732  0.03210368  0.36636016  1
  O  O66  1  0.82165615  0.50128973  0.06147175  1
  O  O67  1  0.97251885  0.15202107  0.29402281  1
  O  O68  1  0.96143575  0.79785504  0.17588871  1
  O  O69  1  0.92310245  0.91612222  0.05915829  1
  O  O70  1  0.93057043  0.31390338  0.04657254  1
  O  O71  1  0.96347914  0.05094453  0.13181116  1
