# generated using pymatgen
data_CeAlRu
_symmetry_space_group_name_H-M   'P 1'
_cell_length_a   4.07118328
_cell_length_b   7.22371262
_cell_length_c   15.87838802
_cell_angle_alpha   90.00000000
_cell_angle_beta   90.00000000
_cell_angle_gamma   90.00000000
_symmetry_Int_Tables_number   1
_chemical_formula_structural   CeAlRu
_chemical_formula_sum   'Ce8 Al8 Ru8'
_cell_volume   466.96843483
_cell_formula_units_Z   8
loop_
 _symmetry_equiv_pos_site_id
 _symmetry_equiv_pos_as_xyz
  1  'x, y, z'
loop_
 _atom_site_type_symbol
 _atom_site_label
 _atom_site_symmetry_multiplicity
 _atom_site_fract_x
 _atom_site_fract_y
 _atom_site_fract_z
 _atom_site_occupancy
  Ce  Ce0  1  0.75000000  0.45593180  0.71888809  1
  Ce  Ce1  1  0.25000000  0.66823065  0.06142841  1
  Ce  Ce2  1  0.75000000  0.33176935  0.93857159  1
  Ce  Ce3  1  0.75000000  0.95593180  0.78111191  1
  Ce  Ce4  1  0.75000000  0.83176935  0.56142841  1
  Ce  Ce5  1  0.25000000  0.16823065  0.43857159  1
  Ce  Ce6  1  0.25000000  0.54406820  0.28111191  1
  Ce  Ce7  1  0.25000000  0.04406820  0.21888809  1
  Al  Al8  1  0.75000000  0.00241899  0.06304269  1
  Al  Al9  1  0.75000000  0.86766173  0.34921344  1
  Al  Al10  1  0.75000000  0.50241899  0.43695731  1
  Al  Al11  1  0.75000000  0.36766173  0.15078656  1
  Al  Al12  1  0.25000000  0.99758101  0.93695731  1
  Al  Al13  1  0.25000000  0.49758101  0.56304269  1
  Al  Al14  1  0.25000000  0.13233827  0.65078656  1
  Al  Al15  1  0.25000000  0.63233827  0.84921344  1
  Ru  Ru16  1  0.75000000  0.24249436  0.31695689  1
  Ru  Ru17  1  0.25000000  0.73597519  0.43430426  1
  Ru  Ru18  1  0.75000000  0.76402481  0.93430426  1
  Ru  Ru19  1  0.25000000  0.25750564  0.81695689  1
  Ru  Ru20  1  0.75000000  0.26402481  0.56569574  1
  Ru  Ru21  1  0.75000000  0.74249436  0.18304311  1
  Ru  Ru22  1  0.25000000  0.75750564  0.68304311  1
  Ru  Ru23  1  0.25000000  0.23597519  0.06569574  1
