# generated using pymatgen
data_Fe11Co5
_symmetry_space_group_name_H-M   'P 1'
_cell_length_a   5.71169324
_cell_length_b   5.71169162
_cell_length_c   5.70587857
_cell_angle_alpha   90.00001154
_cell_angle_beta   90.00003312
_cell_angle_gamma   90.00004153
_symmetry_Int_Tables_number   1
_chemical_formula_structural   Fe11Co5
_chemical_formula_sum   'Fe11 Co5'
_cell_volume   186.14533248
_cell_formula_units_Z   1
loop_
 _symmetry_equiv_pos_site_id
 _symmetry_equiv_pos_as_xyz
  1  'x, y, z'
loop_
 _atom_site_type_symbol
 _atom_site_label
 _atom_site_symmetry_multiplicity
 _atom_site_fract_x
 _atom_site_fract_y
 _atom_site_fract_z
 _atom_site_occupancy
  Fe  Fe0  1  0.24974181  0.24974192  0.24985039  1
  Fe  Fe1  1  0.24974192  0.75025774  0.75014988  1
  Fe  Fe2  1  0.75025799  0.24974210  0.24985024  1
  Fe  Fe3  1  0.75025798  0.24974197  0.75014946  1
  Fe  Fe4  1  0.49999984  0.49999983  0.00000005  1
  Fe  Fe5  1  0.24974217  0.75025815  0.24985067  1
  Fe  Fe6  1  0.24974181  0.24974224  0.75014948  1
  Fe  Fe7  1  0.75025814  0.75025785  0.24985027  1
  Fe  Fe8  1  0.49999963  0.49999995  0.50000007  1
  Fe  Fe9  1  0.00000018  0.99999995  0.49999991  1
  Fe  Fe10  1  0.75025816  0.75025811  0.75014974  1
  Co  Co11  1  0.49999993  0.00000005  -0.00000005  1
  Co  Co12  1  0.00000011  0.49999990  0.50000011  1
  Co  Co13  1  0.00000009  0.49999991  -0.00000010  1
  Co  Co14  1  0.00000020  0.00000021  -0.00000011  1
  Co  Co15  1  0.50000002  0.00000013  0.49999999  1
