# generated using pymatgen
data_EuIO
_symmetry_space_group_name_H-M   'P 1'
_cell_length_a   4.07775200
_cell_length_b   4.07777485
_cell_length_c   9.37533207
_cell_angle_alpha   90.00012685
_cell_angle_beta   90.00022336
_cell_angle_gamma   90.00047745
_symmetry_Int_Tables_number   1
_chemical_formula_structural   EuIO
_chemical_formula_sum   'Eu2 I2 O2'
_cell_volume   155.89447062
_cell_formula_units_Z   2
loop_
 _symmetry_equiv_pos_site_id
 _symmetry_equiv_pos_as_xyz
  1  'x, y, z'
loop_
 _atom_site_type_symbol
 _atom_site_label
 _atom_site_symmetry_multiplicity
 _atom_site_fract_x
 _atom_site_fract_y
 _atom_site_fract_z
 _atom_site_occupancy
  Eu  Eu0  1  0.00000045  0.49999889  0.12169551  1
  Eu  Eu1  1  0.49999894  0.00000061  0.87834110  1
  I  I2  1  0.99999979  0.50000019  0.67373183  1
  I  I3  1  0.50000034  0.00000001  0.32625767  1
  O  O4  1  0.00000012  0.99999982  0.99998691  1
  O  O5  1  0.50000035  0.50000047  0.99998698  1
