# generated using pymatgen
data_K8In11
_symmetry_space_group_name_H-M   'P 1'
_cell_length_a   18.12323614
_cell_length_b   18.12323580
_cell_length_c   18.12323549
_cell_angle_alpha   32.46793757
_cell_angle_beta   32.46793926
_cell_angle_gamma   32.46793953
_symmetry_Int_Tables_number   1
_chemical_formula_structural   K8In11
_chemical_formula_sum   'K16 In22'
_cell_volume   1525.29331095
_cell_formula_units_Z   2
loop_
 _symmetry_equiv_pos_site_id
 _symmetry_equiv_pos_as_xyz
  1  'x, y, z'
loop_
 _atom_site_type_symbol
 _atom_site_label
 _atom_site_symmetry_multiplicity
 _atom_site_fract_x
 _atom_site_fract_y
 _atom_site_fract_z
 _atom_site_occupancy
  K  K0  1  0.57935270  0.57935270  0.57935270  1
  K  K1  1  0.42064730  0.42064730  0.42064730  1
  K  K2  1  0.67859142  0.90775389  0.34888028  1
  K  K3  1  0.59224611  0.82140858  0.15111972  1
  K  K4  1  0.15111972  0.59224611  0.82140858  1
  K  K5  1  0.17859142  0.84888028  0.40775389  1
  K  K6  1  0.32140858  0.09224611  0.65111972  1
  K  K7  1  0.84888028  0.40775389  0.17859142  1
  K  K8  1  0.07935270  0.07935270  0.07935270  1
  K  K9  1  0.34888028  0.67859142  0.90775389  1
  K  K10  1  0.65111972  0.32140858  0.09224611  1
  K  K11  1  0.82140858  0.15111972  0.59224611  1
  K  K12  1  0.90775389  0.34888028  0.67859142  1
  K  K13  1  0.92064730  0.92064730  0.92064730  1
  K  K14  1  0.40775389  0.17859142  0.84888028  1
  K  K15  1  0.09224611  0.65111972  0.32140858  1
  In  In16  1  0.25000000  0.46019192  0.03980808  1
  In  In17  1  0.07468975  0.49566969  0.77139918  1
  In  In18  1  0.53980808  0.96019192  0.75000000  1
  In  In19  1  0.42531025  0.72860082  0.00433031  1
  In  In20  1  0.46019192  0.03980808  0.25000000  1
  In  In21  1  0.70014307  0.70014307  0.70014307  1
  In  In22  1  0.22860082  0.92531025  0.50433031  1
  In  In23  1  0.99566969  0.57468975  0.27139918  1
  In  In24  1  0.75000000  0.53980808  0.96019192  1
  In  In25  1  0.29985693  0.29985693  0.29985693  1
  In  In26  1  0.72860082  0.00433031  0.42531025  1
  In  In27  1  0.92531025  0.50433031  0.22860082  1
  In  In28  1  0.20014307  0.20014307  0.20014307  1
  In  In29  1  0.79985693  0.79985693  0.79985693  1
  In  In30  1  0.03980808  0.25000000  0.46019192  1
  In  In31  1  0.00433031  0.42531025  0.72860082  1
  In  In32  1  0.77139918  0.07468975  0.49566969  1
  In  In33  1  0.27139918  0.99566969  0.57468975  1
  In  In34  1  0.50433031  0.22860082  0.92531025  1
  In  In35  1  0.49566969  0.77139918  0.07468975  1
  In  In36  1  0.96019192  0.75000000  0.53980808  1
  In  In37  1  0.57468975  0.27139918  0.99566969  1
