# generated using pymatgen
data_La3Ge3Cl2
_symmetry_space_group_name_H-M   'P 1'
_cell_length_a   4.33109297
_cell_length_b   9.35579097
_cell_length_c   10.85859859
_cell_angle_alpha   98.07482710
_cell_angle_beta   90.00000000
_cell_angle_gamma   103.38339016
_symmetry_Int_Tables_number   1
_chemical_formula_structural   La3Ge3Cl2
_chemical_formula_sum   'La6 Ge6 Cl4'
_cell_volume   423.56462681
_cell_formula_units_Z   2
loop_
 _symmetry_equiv_pos_site_id
 _symmetry_equiv_pos_as_xyz
  1  'x, y, z'
loop_
 _atom_site_type_symbol
 _atom_site_label
 _atom_site_symmetry_multiplicity
 _atom_site_fract_x
 _atom_site_fract_y
 _atom_site_fract_z
 _atom_site_occupancy
  La  La0  1  0.68373506  0.36747011  0.14805246  1
  La  La1  1  0.53204306  0.06408611  0.83137240  1
  La  La2  1  0.38316040  0.76632080  0.50950119  1
  La  La3  1  0.31626494  0.63252989  0.85194754  1
  La  La4  1  0.46795694  0.93591389  0.16862760  1
  La  La5  1  0.61683960  0.23367920  0.49049881  1
  Ge  Ge6  1  0.97579672  0.95159345  0.38333408  1
  Ge  Ge7  1  0.90400980  0.80801960  0.71839745  1
  Ge  Ge8  1  0.09599020  0.19198040  0.28160255  1
  Ge  Ge9  1  0.92976018  0.85952036  0.95586528  1
  Ge  Ge10  1  0.02420328  0.04840655  0.61666592  1
  Ge  Ge11  1  0.07023982  0.14047964  0.04413472  1
  Cl  Cl12  1  0.77362198  0.54724396  0.39251611  1
  Cl  Cl13  1  0.29874561  0.59749122  0.12641668  1
  Cl  Cl14  1  0.70125439  0.40250878  0.87358332  1
  Cl  Cl15  1  0.22637802  0.45275604  0.60748389  1
