# generated using pymatgen
data_ZnH3CNO3
_symmetry_space_group_name_H-M   'P 1'
_cell_length_a   5.58559186
_cell_length_b   7.72784675
_cell_length_c   9.29066440
_cell_angle_alpha   90.00000000
_cell_angle_beta   90.00000000
_cell_angle_gamma   90.00000000
_symmetry_Int_Tables_number   1
_chemical_formula_structural   ZnH3CNO3
_chemical_formula_sum   'Zn4 H12 C4 N4 O12'
_cell_volume   401.02779307
_cell_formula_units_Z   4
loop_
 _symmetry_equiv_pos_site_id
 _symmetry_equiv_pos_as_xyz
  1  'x, y, z'
loop_
 _atom_site_type_symbol
 _atom_site_label
 _atom_site_symmetry_multiplicity
 _atom_site_fract_x
 _atom_site_fract_y
 _atom_site_fract_z
 _atom_site_occupancy
  Zn  Zn0  1  0.70880243  0.66560109  0.64474234  1
  Zn  Zn1  1  0.70880243  0.83439891  0.14474234  1
  Zn  Zn2  1  0.20880243  0.33439891  0.35525766  1
  Zn  Zn3  1  0.20880243  0.16560109  0.85525766  1
  H  H4  1  0.78618440  0.22646179  0.42056675  1
  H  H5  1  0.44998896  0.55580614  0.12150101  1
  H  H6  1  0.44998896  0.94419386  0.62150101  1
  H  H7  1  0.48410352  0.85247279  0.46228479  1
  H  H8  1  0.98410352  0.35247279  0.03771521  1
  H  H9  1  0.78618440  0.27353821  0.92056675  1
  H  H10  1  0.94998896  0.05580614  0.37849899  1
  H  H11  1  0.28618440  0.72646179  0.07943325  1
  H  H12  1  0.28618440  0.77353821  0.57943325  1
  H  H13  1  0.94998896  0.44419386  0.87849899  1
  H  H14  1  0.98410352  0.14752721  0.53771521  1
  H  H15  1  0.48410352  0.64752721  0.96228479  1
  C  C16  1  0.44353273  0.14176448  0.12354335  1
  C  C17  1  0.44353273  0.35823552  0.62354335  1
  C  C18  1  0.94353273  0.85823552  0.87645665  1
  C  C19  1  0.94353273  0.64176448  0.37645665  1
  N  N20  1  0.95320592  0.32772880  0.93085357  1
  N  N21  1  0.45320592  0.82772880  0.56914643  1
  N  N22  1  0.45320592  0.67227120  0.06914643  1
  N  N23  1  0.95320592  0.17227120  0.43085357  1
  O  O24  1  0.46918476  0.10114527  0.98797954  1
  O  O25  1  0.96918476  0.60114527  0.51202046  1
  O  O26  1  0.82262111  0.77870990  0.34177494  1
  O  O27  1  0.32262111  0.22129010  0.65822506  1
  O  O28  1  0.54246617  0.45297331  0.72111653  1
  O  O29  1  0.04246617  0.54702669  0.27888347  1
  O  O30  1  0.32262111  0.27870990  0.15822506  1
  O  O31  1  0.46918476  0.39885473  0.48797954  1
  O  O32  1  0.82262111  0.72129010  0.84177494  1
  O  O33  1  0.54246617  0.04702669  0.22111653  1
  O  O34  1  0.96918476  0.89885473  0.01202046  1
  O  O35  1  0.04246617  0.95297331  0.77888347  1
