# generated using pymatgen
data_La3FeW(SO2)3
_symmetry_space_group_name_H-M   'P 1'
_cell_length_a   5.60771489
_cell_length_b   9.53027108
_cell_length_c   9.53012583
_cell_angle_alpha   120.00034499
_cell_angle_beta   90.00000000
_cell_angle_gamma   90.00000000
_symmetry_Int_Tables_number   1
_chemical_formula_structural   La3FeW(SO2)3
_chemical_formula_sum   'La6 Fe2 W2 S6 O12'
_cell_volume   441.08159421
_cell_formula_units_Z   2
loop_
 _symmetry_equiv_pos_site_id
 _symmetry_equiv_pos_as_xyz
  1  'x, y, z'
loop_
 _atom_site_type_symbol
 _atom_site_label
 _atom_site_symmetry_multiplicity
 _atom_site_fract_x
 _atom_site_fract_y
 _atom_site_fract_z
 _atom_site_occupancy
  La  La0  1  0.25000000  0.91014138  0.59120143  1
  La  La1  1  0.25000000  0.40879611  0.31893331  1
  La  La2  1  0.25000000  0.68106791  0.08986249  1
  La  La3  1  0.75000000  0.08985862  0.40879857  1
  La  La4  1  0.75000000  0.59120389  0.68106669  1
  La  La5  1  0.75000000  0.31893209  0.91013751  1
  Fe  Fe6  1  0.50000000  0.00000000  -0.00000000  1
  Fe  Fe7  1  -0.00000000  0.00000000  -0.00000000  1
  W  W8  1  0.75000000  0.66666358  0.33333006  1
  W  W9  1  0.25000000  0.33333642  0.66666994  1
  S  S10  1  0.75000000  0.81623934  0.04665429  1
  S  S11  1  0.75000000  0.95334541  0.76958064  1
  S  S12  1  0.75000000  0.23041547  0.18376644  1
  S  S13  1  0.25000000  0.18376066  0.95334571  1
  S  S14  1  0.25000000  0.04665459  0.23041936  1
  S  S15  1  0.25000000  0.76958453  0.81623356  1
  O  O16  1  0.52350500  0.83856913  0.36522059  1
  O  O17  1  0.52350693  0.63477806  0.47334615  1
  O  O18  1  0.52350597  0.52664866  0.16142736  1
  O  O19  1  0.02350500  0.16143087  0.63477941  1
  O  O20  1  0.02350693  0.36522194  0.52665385  1
  O  O21  1  0.02350597  0.47335134  0.83857264  1
  O  O22  1  0.47649500  0.16143087  0.63477941  1
  O  O23  1  0.47649307  0.36522194  0.52665385  1
  O  O24  1  0.47649403  0.47335134  0.83857264  1
  O  O25  1  0.97649500  0.83856913  0.36522059  1
  O  O26  1  0.97649307  0.63477806  0.47334615  1
  O  O27  1  0.97649403  0.52664866  0.16142736  1
