# generated using pymatgen
data_GdRuC2
_symmetry_space_group_name_H-M   'P 1'
_cell_length_a   4.37658603
_cell_length_b   5.14161155
_cell_length_c   5.25034931
_cell_angle_alpha   90.00000000
_cell_angle_beta   90.00000000
_cell_angle_gamma   115.18893225
_symmetry_Int_Tables_number   1
_chemical_formula_structural   GdRuC2
_chemical_formula_sum   'Gd2 Ru2 C4'
_cell_volume   106.91237417
_cell_formula_units_Z   2
loop_
 _symmetry_equiv_pos_site_id
 _symmetry_equiv_pos_as_xyz
  1  'x, y, z'
loop_
 _atom_site_type_symbol
 _atom_site_label
 _atom_site_symmetry_multiplicity
 _atom_site_fract_x
 _atom_site_fract_y
 _atom_site_fract_z
 _atom_site_occupancy
  Gd  Gd0  1  0.81696805  0.63393611  0.25000000  1
  Gd  Gd1  1  0.18303195  0.36606389  0.75000000  1
  Ru  Ru2  1  0.50000000  0.00000000  0.00000000  1
  Ru  Ru3  1  0.50000000  0.00000000  0.50000000  1
  C  C4  1  0.75814189  0.83075711  0.75000000  1
  C  C5  1  0.92738478  0.16924289  0.25000000  1
  C  C6  1  0.24185811  0.16924289  0.25000000  1
  C  C7  1  0.07261522  0.83075711  0.75000000  1
