# generated using pymatgen
data_EuZr6(PO4)9
_symmetry_space_group_name_H-M   'P 1'
_cell_length_a   8.97278190
_cell_length_b   8.97278182
_cell_length_c   23.12320076
_cell_angle_alpha   90.00000000
_cell_angle_beta   90.00000000
_cell_angle_gamma   120.00000028
_symmetry_Int_Tables_number   1
_chemical_formula_structural   EuZr6(PO4)9
_chemical_formula_sum   'Eu2 Zr12 P18 O72'
_cell_volume   1612.25153727
_cell_formula_units_Z   2
loop_
 _symmetry_equiv_pos_site_id
 _symmetry_equiv_pos_as_xyz
  1  'x, y, z'
loop_
 _atom_site_type_symbol
 _atom_site_label
 _atom_site_symmetry_multiplicity
 _atom_site_fract_x
 _atom_site_fract_y
 _atom_site_fract_z
 _atom_site_occupancy
  Eu  Eu0  1  0.00000000  0.00000000  0.50000000  1
  Eu  Eu1  1  0.00000000  0.00000000  0.00000000  1
  Zr  Zr2  1  0.66666700  0.33333300  0.97145864  1
  Zr  Zr3  1  0.00000000  0.00000000  0.14928186  1
  Zr  Zr4  1  0.33333300  0.66666700  0.31130503  1
  Zr  Zr5  1  0.66666700  0.33333300  0.47145864  1
  Zr  Zr6  1  0.66666700  0.33333300  0.68869497  1
  Zr  Zr7  1  0.66666700  0.33333300  0.18869497  1
  Zr  Zr8  1  0.33333300  0.66666700  0.52854136  1
  Zr  Zr9  1  0.33333300  0.66666700  0.81130503  1
  Zr  Zr10  1  0.00000000  0.00000000  0.64928186  1
  Zr  Zr11  1  0.00000000  0.00000000  0.85071814  1
  Zr  Zr12  1  0.33333300  0.66666700  0.02854136  1
  Zr  Zr13  1  0.00000000  0.00000000  0.35071814  1
  P  P14  1  0.70960645  0.70960645  0.25000000  1
  P  P15  1  0.05360003  0.37624419  0.91995941  1
  P  P16  1  0.94639997  0.62375581  0.08004059  1
  P  P17  1  0.70960645  0.00000000  0.75000000  1
  P  P18  1  0.67735584  0.62375581  0.58004059  1
  P  P19  1  0.32264416  0.94639997  0.91995941  1
  P  P20  1  0.29039355  0.00000000  0.25000000  1
  P  P21  1  0.67735584  0.05360003  0.08004059  1
  P  P22  1  0.37624419  0.05360003  0.58004059  1
  P  P23  1  0.62375581  0.94639997  0.41995941  1
  P  P24  1  0.32264416  0.37624419  0.41995941  1
  P  P25  1  0.05360003  0.67735584  0.41995941  1
  P  P26  1  0.94639997  0.32264416  0.58004059  1
  P  P27  1  0.37624419  0.32264416  0.08004059  1
  P  P28  1  0.29039355  0.29039355  0.75000000  1
  P  P29  1  0.62375581  0.67735584  0.91995941  1
  P  P30  1  1.00000000  0.29039355  0.25000000  1
  P  P31  1  0.00000000  0.70960645  0.75000000  1
  O  O32  1  0.32842194  0.85435400  0.86511315  1
  O  O33  1  0.84111144  0.30771199  0.24037866  1
  O  O34  1  0.46028360  0.29967196  0.02534929  1
  O  O35  1  0.16061164  0.46028360  0.97465071  1
  O  O36  1  0.96999349  0.79621165  0.80359777  1
  O  O37  1  0.16169046  0.18839331  0.41764226  1
  O  O38  1  0.81160669  0.83830954  0.91764226  1
  O  O39  1  0.15888856  0.69228801  0.75962134  1
  O  O40  1  0.85435400  0.32842194  0.63488685  1
  O  O41  1  0.53971640  0.70032804  0.97465071  1
  O  O42  1  0.79621165  0.82621817  0.19640223  1
  O  O43  1  0.83830954  0.02670286  0.08235774  1
  O  O44  1  0.29967196  0.83938836  0.97465071  1
  O  O45  1  0.36114486  0.87531812  0.57609397  1
  O  O46  1  0.85435400  0.52593207  0.13488685  1
  O  O47  1  0.20378835  0.17378183  0.80359777  1
  O  O48  1  0.36114486  0.48582674  0.07609397  1
  O  O49  1  0.32842194  0.47406793  0.36511315  1
  O  O50  1  0.30771199  0.46660055  0.75962134  1
  O  O51  1  0.46660055  0.15888856  0.24037866  1
  O  O52  1  0.52593207  0.85435400  0.36511315  1
  O  O53  1  0.51417326  0.87531812  0.07609397  1
  O  O54  1  0.46660055  0.30771199  0.74037866  1
  O  O55  1  0.52593207  0.67157806  0.86511315  1
  O  O56  1  0.70032804  0.53971640  0.52534929  1
  O  O57  1  0.16169046  0.97329714  0.91764226  1
  O  O58  1  0.14564600  0.67157806  0.36511315  1
  O  O59  1  0.51417326  0.63885514  0.57609397  1
  O  O60  1  0.20378835  0.03000651  0.30359777  1
  O  O61  1  0.87531812  0.36114486  0.92390603  1
  O  O62  1  0.70032804  0.16061164  0.02534929  1
  O  O63  1  0.63885514  0.51417326  0.92390603  1
  O  O64  1  0.82621817  0.79621165  0.30359777  1
  O  O65  1  0.63885514  0.12468188  0.42390603  1
  O  O66  1  0.53339945  0.69228801  0.25962134  1
  O  O67  1  0.84111144  0.53339945  0.74037866  1
  O  O68  1  0.18839331  0.16169046  0.08235774  1
  O  O69  1  0.97329714  0.16169046  0.58235774  1
  O  O70  1  0.79621165  0.96999349  0.69640223  1
  O  O71  1  0.02670286  0.18839331  0.91764226  1
  O  O72  1  0.48582674  0.36114486  0.42390603  1
  O  O73  1  0.47406793  0.14564600  0.63488685  1
  O  O74  1  0.12468188  0.63885514  0.07609397  1
  O  O75  1  0.81160669  0.97329714  0.41764226  1
  O  O76  1  0.18839331  0.02670286  0.58235774  1
  O  O77  1  0.47406793  0.32842194  0.13488685  1
  O  O78  1  0.48582674  0.12468188  0.92390603  1
  O  O79  1  0.17378183  0.96999349  0.19640223  1
  O  O80  1  0.53339945  0.84111144  0.75962134  1
  O  O81  1  0.69228801  0.53339945  0.24037866  1
  O  O82  1  0.97329714  0.81160669  0.08235774  1
  O  O83  1  0.03000651  0.20378835  0.19640223  1
  O  O84  1  0.16061164  0.70032804  0.47465071  1
  O  O85  1  0.12468188  0.48582674  0.57609397  1
  O  O86  1  0.14564600  0.47406793  0.86511315  1
  O  O87  1  0.69228801  0.15888856  0.74037866  1
  O  O88  1  0.96999349  0.17378183  0.30359777  1
  O  O89  1  0.67157806  0.14564600  0.13488685  1
  O  O90  1  0.83938836  0.29967196  0.52534929  1
  O  O91  1  0.83938836  0.53971640  0.02534929  1
  O  O92  1  0.17378183  0.20378835  0.69640223  1
  O  O93  1  0.87531812  0.51417326  0.42390603  1
  O  O94  1  0.82621817  0.03000651  0.80359777  1
  O  O95  1  0.03000651  0.82621817  0.69640223  1
  O  O96  1  0.30771199  0.84111144  0.25962134  1
  O  O97  1  0.29967196  0.46028360  0.47465071  1
  O  O98  1  0.02670286  0.83830954  0.41764226  1
  O  O99  1  0.53971640  0.83938836  0.47465071  1
  O  O100  1  0.67157806  0.52593207  0.63488685  1
  O  O101  1  0.15888856  0.46660055  0.25962134  1
  O  O102  1  0.83830954  0.81160669  0.58235774  1
  O  O103  1  0.46028360  0.16061164  0.52534929  1
