# generated using pymatgen
data_Ce(Al4Fe)2
_symmetry_space_group_name_H-M   'P 1'
_cell_length_a   4.00695408
_cell_length_b   12.43431638
_cell_length_c   14.38663655
_cell_angle_alpha   90.00000000
_cell_angle_beta   90.00000000
_cell_angle_gamma   90.00000000
_symmetry_Int_Tables_number   1
_chemical_formula_structural   Ce(Al4Fe)2
_chemical_formula_sum   'Ce4 Al32 Fe8'
_cell_volume   716.79596342
_cell_formula_units_Z   4
loop_
 _symmetry_equiv_pos_site_id
 _symmetry_equiv_pos_as_xyz
  1  'x, y, z'
loop_
 _atom_site_type_symbol
 _atom_site_label
 _atom_site_symmetry_multiplicity
 _atom_site_fract_x
 _atom_site_fract_y
 _atom_site_fract_z
 _atom_site_occupancy
  Ce  Ce0  1  0.00000000  0.34090004  0.31909980  1
  Ce  Ce1  1  0.00000000  0.84090004  0.18090020  1
  Ce  Ce2  1  0.00000000  0.15909996  0.81909980  1
  Ce  Ce3  1  0.00000000  0.65909996  0.68090020  1
  Al  Al4  1  0.50000000  0.76466850  0.82610944  1
  Al  Al5  1  0.50000000  0.34004307  0.87890808  1
  Al  Al6  1  0.50000000  0.00000000  0.50000000  1
  Al  Al7  1  0.50000000  0.52545176  0.36840582  1
  Al  Al8  1  0.50000000  0.23533150  0.17389056  1
  Al  Al9  1  0.50000000  0.95259210  0.31984834  1
  Al  Al10  1  0.00000000  0.33866866  0.04632385  1
  Al  Al11  1  0.50000000  0.04740790  0.68015166  1
  Al  Al12  1  0.50000000  0.97454824  0.86840582  1
  Al  Al13  1  0.50000000  0.47454824  0.63159418  1
  Al  Al14  1  0.50000000  0.50000000  0.00000000  1
  Al  Al15  1  0.50000000  0.45259210  0.18015166  1
  Al  Al16  1  0.50000000  0.26466850  0.67389056  1
  Al  Al17  1  0.50000000  0.65995693  0.12109192  1
  Al  Al18  1  0.00000000  0.90508270  0.74685098  1
  Al  Al19  1  0.50000000  0.02545176  0.13159418  1
  Al  Al20  1  0.50000000  0.84004307  0.62109192  1
  Al  Al21  1  0.50000000  0.16825487  0.99246613  1
  Al  Al22  1  0.50000000  0.54740790  0.81984834  1
  Al  Al23  1  0.00000000  0.00000000  0.00000000  1
  Al  Al24  1  0.50000000  0.66825487  0.50753387  1
  Al  Al25  1  0.50000000  0.15995693  0.37890808  1
  Al  Al26  1  0.00000000  0.16133134  0.54632385  1
  Al  Al27  1  0.00000000  0.59491730  0.24685098  1
  Al  Al28  1  0.00000000  0.09491730  0.25314902  1
  Al  Al29  1  0.50000000  0.73533150  0.32610944  1
  Al  Al30  1  0.00000000  0.50000000  0.50000000  1
  Al  Al31  1  0.50000000  0.83174513  0.00753387  1
  Al  Al32  1  0.50000000  0.33174513  0.49246613  1
  Al  Al33  1  0.00000000  0.66133134  0.95367615  1
  Al  Al34  1  0.00000000  0.83866866  0.45367615  1
  Al  Al35  1  0.00000000  0.40508270  0.75314902  1
  Fe  Fe36  1  0.00000000  0.15041789  0.09782283  1
  Fe  Fe37  1  0.00000000  0.96506565  0.59337548  1
  Fe  Fe38  1  0.00000000  0.84958211  0.90217717  1
  Fe  Fe39  1  0.00000000  0.65041789  0.40217717  1
  Fe  Fe40  1  0.00000000  0.03493435  0.40662452  1
  Fe  Fe41  1  0.00000000  0.34958211  0.59782283  1
  Fe  Fe42  1  0.00000000  0.53493435  0.09337548  1
  Fe  Fe43  1  0.00000000  0.46506565  0.90662452  1
