# generated using pymatgen
data_TiAs2
_symmetry_space_group_name_H-M   'P 1'
_cell_length_a   3.51597700
_cell_length_b   8.97778255
_cell_length_c   13.31409698
_cell_angle_alpha   90.00000000
_cell_angle_beta   90.00000000
_cell_angle_gamma   90.00000000
_symmetry_Int_Tables_number   1
_chemical_formula_structural   TiAs2
_chemical_formula_sum   'Ti8 As16'
_cell_volume   420.26848424
_cell_formula_units_Z   8
loop_
 _symmetry_equiv_pos_site_id
 _symmetry_equiv_pos_as_xyz
  1  'x, y, z'
loop_
 _atom_site_type_symbol
 _atom_site_label
 _atom_site_symmetry_multiplicity
 _atom_site_fract_x
 _atom_site_fract_y
 _atom_site_fract_z
 _atom_site_occupancy
  Ti  Ti0  1  0.00000000  0.67247520  0.99278864  1
  Ti  Ti1  1  0.00000000  0.51810658  0.24650514  1
  Ti  Ti2  1  0.00000000  0.48189342  0.75349486  1
  Ti  Ti3  1  0.50000000  0.82752480  0.49278864  1
  Ti  Ti4  1  0.50000000  0.98189342  0.74650514  1
  Ti  Ti5  1  0.50000000  0.17247520  0.50721136  1
  Ti  Ti6  1  0.50000000  0.01810658  0.25349486  1
  Ti  Ti7  1  0.00000000  0.32752480  0.00721136  1
  As  As8  1  0.50000000  0.48853425  0.90021997  1
  As  As9  1  0.50000000  0.72500524  0.30137348  1
  As  As10  1  0.00000000  0.01146575  0.40021997  1
  As  As11  1  0.00000000  0.77499476  0.80137348  1
  As  As12  1  0.50000000  0.11423710  0.05897625  1
  As  As13  1  0.50000000  0.33509484  0.33849606  1
  As  As14  1  0.50000000  0.66490516  0.66150394  1
  As  As15  1  0.00000000  0.16490516  0.83849606  1
  As  As16  1  0.00000000  0.61423710  0.44102375  1
  As  As17  1  0.00000000  0.38576290  0.55897625  1
  As  As18  1  0.00000000  0.22500524  0.19862652  1
  As  As19  1  0.00000000  0.98853425  0.59978003  1
  As  As20  1  0.50000000  0.27499476  0.69862652  1
  As  As21  1  0.50000000  0.51146575  0.09978003  1
  As  As22  1  0.00000000  0.83509484  0.16150394  1
  As  As23  1  0.50000000  0.88576290  0.94102375  1
