# generated using pymatgen
data_Fe2(TeO3)3
_symmetry_space_group_name_H-M   'P 1'
_cell_length_a   5.35301205
_cell_length_b   7.93573552
_cell_length_c   18.02204976
_cell_angle_alpha   90.00000000
_cell_angle_beta   90.00000000
_cell_angle_gamma   90.00000000
_symmetry_Int_Tables_number   1
_chemical_formula_structural   Fe2(TeO3)3
_chemical_formula_sum   'Fe8 Te12 O36'
_cell_volume   765.57825730
_cell_formula_units_Z   4
loop_
 _symmetry_equiv_pos_site_id
 _symmetry_equiv_pos_as_xyz
  1  'x, y, z'
loop_
 _atom_site_type_symbol
 _atom_site_label
 _atom_site_symmetry_multiplicity
 _atom_site_fract_x
 _atom_site_fract_y
 _atom_site_fract_z
 _atom_site_occupancy
  Fe  Fe0  1  0.70802498  0.80090426  0.56475284  1
  Fe  Fe1  1  0.79197502  0.30090426  0.93524716  1
  Fe  Fe2  1  0.29197502  0.19909574  0.43524716  1
  Fe  Fe3  1  0.29197502  0.19909574  0.06475284  1
  Fe  Fe4  1  0.20802498  0.69909574  0.43524716  1
  Fe  Fe5  1  0.79197502  0.30090426  0.56475284  1
  Fe  Fe6  1  0.70802498  0.80090426  0.93524716  1
  Fe  Fe7  1  0.20802498  0.69909574  0.06475284  1
  Te  Te8  1  0.18795719  0.61836086  0.87368005  1
  Te  Te9  1  0.31204281  0.11836086  0.62631995  1
  Te  Te10  1  0.22394103  0.16215394  0.25000000  1
  Te  Te11  1  0.81204281  0.38163914  0.37368005  1
  Te  Te12  1  0.68795719  0.88163914  0.37368005  1
  Te  Te13  1  0.27605897  0.66215394  0.25000000  1
  Te  Te14  1  0.77605897  0.83784606  0.75000000  1
  Te  Te15  1  0.72394103  0.33784606  0.75000000  1
  Te  Te16  1  0.31204281  0.11836086  0.87368005  1
  Te  Te17  1  0.18795719  0.61836086  0.62631995  1
  Te  Te18  1  0.68795719  0.88163914  0.12631995  1
  Te  Te19  1  0.81204281  0.38163914  0.12631995  1
  O  O20  1  0.52431596  0.66310523  0.12327833  1
  O  O21  1  0.45903154  0.87341336  0.25000000  1
  O  O22  1  0.87710737  0.81594604  0.46398289  1
  O  O23  1  0.97568404  0.16310523  0.12327833  1
  O  O24  1  0.97568404  0.16310523  0.37672167  1
  O  O25  1  0.10975888  0.45357256  0.42881063  1
  O  O26  1  0.04096846  0.37341336  0.25000000  1
  O  O27  1  0.02431596  0.83689477  0.62327833  1
  O  O28  1  0.47568404  0.33689477  0.87672167  1
  O  O29  1  0.12289263  0.18405396  0.53601711  1
  O  O30  1  0.37710737  0.68405396  0.53601711  1
  O  O31  1  0.45202864  0.22310566  0.32940597  1
  O  O32  1  0.39024112  0.95357256  0.07118937  1
  O  O33  1  0.45202864  0.22310566  0.17059403  1
  O  O34  1  0.95202864  0.27689434  0.82940597  1
  O  O35  1  0.89024112  0.54642744  0.57118937  1
  O  O36  1  0.87710737  0.81594604  0.03601711  1
  O  O37  1  0.60975888  0.04642744  0.57118937  1
  O  O38  1  0.54096846  0.12658664  0.75000000  1
  O  O39  1  0.54797136  0.77689434  0.67059403  1
  O  O40  1  0.62289263  0.31594604  0.46398289  1
  O  O41  1  0.54797136  0.77689434  0.82940597  1
  O  O42  1  0.60975888  0.04642744  0.92881063  1
  O  O43  1  0.62289263  0.31594604  0.03601711  1
  O  O44  1  0.89024112  0.54642744  0.92881063  1
  O  O45  1  0.95202864  0.27689434  0.67059403  1
  O  O46  1  0.37710737  0.68405396  0.96398289  1
  O  O47  1  0.12289263  0.18405396  0.96398289  1
  O  O48  1  0.47568404  0.33689477  0.62327833  1
  O  O49  1  0.95903154  0.62658664  0.75000000  1
  O  O50  1  0.04797136  0.72310566  0.32940597  1
  O  O51  1  0.04797136  0.72310566  0.17059403  1
  O  O52  1  0.02431596  0.83689477  0.87672167  1
  O  O53  1  0.39024112  0.95357256  0.42881063  1
  O  O54  1  0.10975888  0.45357256  0.07118937  1
  O  O55  1  0.52431596  0.66310523  0.37672167  1
