# generated using pymatgen
data_Ce3In3Ru2
_symmetry_space_group_name_H-M   'P 1'
_cell_length_a   4.90520212
_cell_length_b   4.94891990
_cell_length_c   8.55711591
_cell_angle_alpha   98.09095791
_cell_angle_beta   106.65543702
_cell_angle_gamma   89.99999500
_symmetry_Int_Tables_number   1
_chemical_formula_structural   Ce3In3Ru2
_chemical_formula_sum   'Ce3 In3 Ru2'
_cell_volume   196.85351538
_cell_formula_units_Z   1
loop_
 _symmetry_equiv_pos_site_id
 _symmetry_equiv_pos_as_xyz
  1  'x, y, z'
loop_
 _atom_site_type_symbol
 _atom_site_label
 _atom_site_symmetry_multiplicity
 _atom_site_fract_x
 _atom_site_fract_y
 _atom_site_fract_z
 _atom_site_occupancy
  Ce  Ce0  1  0.82907659  0.42478414  0.65815318  1
  Ce  Ce1  1  0.17092341  0.57521586  0.34184682  1
  Ce  Ce2  1  0.00000000  0.00000000  0.00000000  1
  In  In3  1  0.36931855  0.94259056  0.73863711  1
  In  In4  1  0.50000000  0.50000000  0.00000000  1
  In  In5  1  0.63068145  0.05740944  0.26136289  1
  Ru  Ru6  1  0.79087009  0.88998124  0.58174018  1
  Ru  Ru7  1  0.20912991  0.11001876  0.41825982  1
