# generated using pymatgen
data_Yb3O4
_symmetry_space_group_name_H-M   'P 1'
_cell_length_a   3.40785903
_cell_length_b   8.99614522
_cell_length_c   11.82841264
_cell_angle_alpha   90.00000000
_cell_angle_beta   90.00000000
_cell_angle_gamma   90.00000000
_symmetry_Int_Tables_number   1
_chemical_formula_structural   Yb3O4
_chemical_formula_sum   'Yb12 O16'
_cell_volume   362.63068094
_cell_formula_units_Z   4
loop_
 _symmetry_equiv_pos_site_id
 _symmetry_equiv_pos_as_xyz
  1  'x, y, z'
loop_
 _atom_site_type_symbol
 _atom_site_label
 _atom_site_symmetry_multiplicity
 _atom_site_fract_x
 _atom_site_fract_y
 _atom_site_fract_z
 _atom_site_occupancy
  Yb  Yb0  1  0.75000000  0.75541029  0.16040279  1
  Yb  Yb1  1  0.75000000  0.25541029  0.33959721  1
  Yb  Yb2  1  0.25000000  0.24458971  0.83959721  1
  Yb  Yb3  1  0.25000000  0.74458971  0.66040279  1
  Yb  Yb4  1  0.75000000  0.09645536  0.10451214  1
  Yb  Yb5  1  0.75000000  0.59645536  0.39548786  1
  Yb  Yb6  1  0.25000000  0.90354464  0.89548786  1
  Yb  Yb7  1  0.25000000  0.40354464  0.60451214  1
  Yb  Yb8  1  0.75000000  0.07106729  0.61124276  1
  Yb  Yb9  1  0.75000000  0.57106729  0.88875724  1
  Yb  Yb10  1  0.25000000  0.92893271  0.38875724  1
  Yb  Yb11  1  0.25000000  0.42893271  0.11124276  1
  O  O12  1  0.75000000  0.28848405  0.70199059  1
  O  O13  1  0.75000000  0.78848405  0.79800941  1
  O  O14  1  0.25000000  0.71151595  0.29800941  1
  O  O15  1  0.25000000  0.21151595  0.20199059  1
  O  O16  1  0.75000000  0.33928944  0.98542407  1
  O  O17  1  0.75000000  0.83928944  0.51457593  1
  O  O18  1  0.25000000  0.66071056  0.01457593  1
  O  O19  1  0.25000000  0.16071056  0.48542407  1
  O  O20  1  0.75000000  0.49468988  0.21971903  1
  O  O21  1  0.75000000  0.99468988  0.28028097  1
  O  O22  1  0.25000000  0.50531012  0.78028097  1
  O  O23  1  0.25000000  0.00531012  0.71971903  1
  O  O24  1  0.75000000  0.08782401  0.91105693  1
  O  O25  1  0.75000000  0.58782401  0.58894307  1
  O  O26  1  0.25000000  0.91217599  0.08894307  1
  O  O27  1  0.25000000  0.41217599  0.41105693  1
