# generated using pymatgen
data_KU2P3O14
_symmetry_space_group_name_H-M   'P 1'
_cell_length_a   10.44577246
_cell_length_b   10.79138919
_cell_length_c   11.30047761
_cell_angle_alpha   90.00000000
_cell_angle_beta   90.00000000
_cell_angle_gamma   90.00000000
_symmetry_Int_Tables_number   1
_chemical_formula_structural   KU2P3O14
_chemical_formula_sum   'K4 U8 P12 O56'
_cell_volume   1273.83951317
_cell_formula_units_Z   4
loop_
 _symmetry_equiv_pos_site_id
 _symmetry_equiv_pos_as_xyz
  1  'x, y, z'
loop_
 _atom_site_type_symbol
 _atom_site_label
 _atom_site_symmetry_multiplicity
 _atom_site_fract_x
 _atom_site_fract_y
 _atom_site_fract_z
 _atom_site_occupancy
  K  K0  1  0.38999248  0.00000000  0.25000000  1
  K  K1  1  0.11000752  0.50000000  0.75000000  1
  K  K2  1  0.88999248  0.50000000  0.25000000  1
  K  K3  1  0.61000752  0.00000000  0.75000000  1
  U  U4  1  0.67611494  0.80613484  0.09518854  1
  U  U5  1  0.17611494  0.30613484  0.40481146  1
  U  U6  1  0.82388506  0.69386516  0.59518854  1
  U  U7  1  0.17611494  0.69386516  0.09518854  1
  U  U8  1  0.32388506  0.19386516  0.90481146  1
  U  U9  1  0.32388506  0.80613484  0.59518854  1
  U  U10  1  0.82388506  0.30613484  0.90481146  1
  U  U11  1  0.67611494  0.19386516  0.40481146  1
  P  P12  1  0.58038346  0.50000000  0.75000000  1
  P  P13  1  0.42750847  0.68595321  0.88183056  1
  P  P14  1  0.57249153  0.68595321  0.38183056  1
  P  P15  1  0.07249153  0.18595321  0.11816944  1
  P  P16  1  0.92750847  0.81404679  0.88183056  1
  P  P17  1  0.91961654  0.00000000  0.25000000  1
  P  P18  1  0.07249153  0.81404679  0.38183056  1
  P  P19  1  0.57249153  0.31404679  0.11816944  1
  P  P20  1  0.41961654  0.50000000  0.25000000  1
  P  P21  1  0.08038346  0.00000000  0.75000000  1
  P  P22  1  0.92750847  0.18595321  0.61816944  1
  P  P23  1  0.42750847  0.31404679  0.61816944  1
  O  O24  1  0.43176264  0.76762882  0.77093420  1
  O  O25  1  0.74944033  0.65430596  0.10672689  1
  O  O26  1  0.98535752  0.95055878  0.84912676  1
  O  O27  1  0.10216383  0.54196592  0.09117058  1
  O  O28  1  0.20869634  0.15549060  0.07696263  1
  O  O29  1  0.56823736  0.23237118  0.22906580  1
  O  O30  1  0.75055967  0.15430596  0.89327311  1
  O  O31  1  0.84574744  0.89270889  0.19791884  1
  O  O32  1  0.74944033  0.34569404  0.39327311  1
  O  O33  1  0.70869634  0.65549060  0.42303737  1
  O  O34  1  0.48535752  0.54944122  0.84912676  1
  O  O35  1  0.39783617  0.04196592  0.90882942  1
  O  O36  1  0.51376114  0.26521597  0.52011044  1
  O  O37  1  0.93176264  0.73237118  0.77093420  1
  O  O38  1  0.79130366  0.15549060  0.57696263  1
  O  O39  1  0.01464248  0.95055878  0.34912676  1
  O  O40  1  0.43176264  0.23237118  0.72906580  1
  O  O41  1  0.98623886  0.23478403  0.02011044  1
  O  O42  1  0.34574744  0.39270889  0.30208116  1
  O  O43  1  0.84574744  0.10729111  0.30208116  1
  O  O44  1  0.60216383  0.04196592  0.40882942  1
  O  O45  1  0.48535752  0.45055878  0.65087324  1
  O  O46  1  0.01376114  0.76521597  0.97988956  1
  O  O47  1  0.25055967  0.34569404  0.89327311  1
  O  O48  1  0.10216383  0.45803408  0.40882942  1
  O  O49  1  0.25055967  0.65430596  0.60672689  1
  O  O50  1  0.06823736  0.73237118  0.27093420  1
  O  O51  1  0.98623886  0.76521597  0.47988956  1
  O  O52  1  0.15425256  0.89270889  0.69791884  1
  O  O53  1  0.93176264  0.26762882  0.72906580  1
  O  O54  1  0.29130366  0.65549060  0.92303737  1
  O  O55  1  0.24944033  0.15430596  0.39327311  1
  O  O56  1  0.51464248  0.45055878  0.15087324  1
  O  O57  1  0.89783617  0.54196592  0.59117058  1
  O  O58  1  0.56823736  0.76762882  0.27093420  1
  O  O59  1  0.39783617  0.95803408  0.59117058  1
  O  O60  1  0.29130366  0.34450940  0.57696263  1
  O  O61  1  0.51376114  0.73478403  0.97988956  1
  O  O62  1  0.34574744  0.60729111  0.19791884  1
  O  O63  1  0.65425256  0.60729111  0.69791884  1
  O  O64  1  0.01464248  0.04944122  0.15087324  1
  O  O65  1  0.48623886  0.73478403  0.47988956  1
  O  O66  1  0.79130366  0.84450940  0.92303737  1
  O  O67  1  0.89783617  0.45803408  0.90882942  1
  O  O68  1  0.01376114  0.23478403  0.52011044  1
  O  O69  1  0.48623886  0.26521597  0.02011044  1
  O  O70  1  0.65425256  0.39270889  0.80208116  1
  O  O71  1  0.15425256  0.10729111  0.80208116  1
  O  O72  1  0.06823736  0.26762882  0.22906580  1
  O  O73  1  0.24944033  0.84569404  0.10672689  1
  O  O74  1  0.70869634  0.34450940  0.07696263  1
  O  O75  1  0.51464248  0.54944122  0.34912676  1
  O  O76  1  0.60216383  0.95803408  0.09117058  1
  O  O77  1  0.75055967  0.84569404  0.60672689  1
  O  O78  1  0.98535752  0.04944122  0.65087324  1
  O  O79  1  0.20869634  0.84450940  0.42303737  1
