# generated using pymatgen
data_Te2Pd3Pb2
_symmetry_space_group_name_H-M   'P 1'
_cell_length_a   6.05517543
_cell_length_b   6.52232452
_cell_length_c   8.78493325
_cell_angle_alpha   90.00000000
_cell_angle_beta   90.00000000
_cell_angle_gamma   90.00000000
_symmetry_Int_Tables_number   1
_chemical_formula_structural   Te2Pd3Pb2
_chemical_formula_sum   'Te4 Pd6 Pb4'
_cell_volume   346.95056528
_cell_formula_units_Z   2
loop_
 _symmetry_equiv_pos_site_id
 _symmetry_equiv_pos_as_xyz
  1  'x, y, z'
loop_
 _atom_site_type_symbol
 _atom_site_label
 _atom_site_symmetry_multiplicity
 _atom_site_fract_x
 _atom_site_fract_y
 _atom_site_fract_z
 _atom_site_occupancy
  Te  Te0  1  0.25000000  0.67328068  0.54103572  1
  Te  Te1  1  0.75000000  0.32671932  0.04103572  1
  Te  Te2  1  0.25000000  0.67328068  0.95896428  1
  Te  Te3  1  0.75000000  0.32671932  0.45896428  1
  Pd  Pd4  1  0.00000000  0.00000000  0.50000000  1
  Pd  Pd5  1  0.75000000  0.21561292  0.75000000  1
  Pd  Pd6  1  0.00000000  0.00000000  0.00000000  1
  Pd  Pd7  1  0.50000000  0.00000000  0.50000000  1
  Pd  Pd8  1  0.50000000  0.00000000  0.00000000  1
  Pd  Pd9  1  0.25000000  0.78438708  0.25000000  1
  Pb  Pb10  1  0.25000000  0.25611717  0.25000000  1
  Pb  Pb11  1  0.75000000  0.74388283  0.75000000  1
  Pb  Pb12  1  0.25000000  0.19543377  0.75000000  1
  Pb  Pb13  1  0.75000000  0.80456623  0.25000000  1
