# generated using pymatgen
data_Sc5Bi3
_symmetry_space_group_name_H-M   'P 1'
_cell_length_a   7.84781460
_cell_length_b   8.98799703
_cell_length_c   11.34043146
_cell_angle_alpha   90.00000000
_cell_angle_beta   90.00000000
_cell_angle_gamma   90.00000000
_symmetry_Int_Tables_number   1
_chemical_formula_structural   Sc5Bi3
_chemical_formula_sum   'Sc20 Bi12'
_cell_volume   799.91019667
_cell_formula_units_Z   4
loop_
 _symmetry_equiv_pos_site_id
 _symmetry_equiv_pos_as_xyz
  1  'x, y, z'
loop_
 _atom_site_type_symbol
 _atom_site_label
 _atom_site_symmetry_multiplicity
 _atom_site_fract_x
 _atom_site_fract_y
 _atom_site_fract_z
 _atom_site_occupancy
  Sc  Sc0  1  0.19379787  0.06394863  0.06428725  1
  Sc  Sc1  1  0.30620213  0.06394863  0.56428725  1
  Sc  Sc2  1  0.30620213  0.43605137  0.56428725  1
  Sc  Sc3  1  0.32261000  0.75000000  0.26887418  1
  Sc  Sc4  1  0.47914246  0.75000000  0.99373287  1
  Sc  Sc5  1  0.15930842  0.25000000  0.78733821  1
  Sc  Sc6  1  0.80620213  0.93605137  0.93571275  1
  Sc  Sc7  1  0.65930842  0.75000000  0.71266179  1
  Sc  Sc8  1  0.02085754  0.75000000  0.49373287  1
  Sc  Sc9  1  0.69379787  0.93605137  0.43571275  1
  Sc  Sc10  1  0.19379787  0.43605137  0.06428725  1
  Sc  Sc11  1  0.34069158  0.25000000  0.28733821  1
  Sc  Sc12  1  0.17739000  0.75000000  0.76887418  1
  Sc  Sc13  1  0.97914246  0.25000000  0.50626713  1
  Sc  Sc14  1  0.69379787  0.56394863  0.43571275  1
  Sc  Sc15  1  0.67739000  0.25000000  0.73112582  1
  Sc  Sc16  1  0.80620213  0.56394863  0.93571275  1
  Sc  Sc17  1  0.52085754  0.25000000  0.00626713  1
  Sc  Sc18  1  0.82261000  0.25000000  0.23112582  1
  Sc  Sc19  1  0.84069158  0.75000000  0.21266179  1
  Bi  Bi20  1  0.06419880  0.48997894  0.32446093  1
  Bi  Bi21  1  0.56419880  0.51002106  0.17553907  1
  Bi  Bi22  1  0.40162506  0.75000000  0.52498408  1
  Bi  Bi23  1  0.93580120  0.98997894  0.67553907  1
  Bi  Bi24  1  0.43580120  0.01002106  0.82446093  1
  Bi  Bi25  1  0.56419880  0.98997894  0.17553907  1
  Bi  Bi26  1  0.09837494  0.75000000  0.02498408  1
  Bi  Bi27  1  0.43580120  0.48997894  0.82446093  1
  Bi  Bi28  1  0.06419880  0.01002106  0.32446093  1
  Bi  Bi29  1  0.93580120  0.51002106  0.67553907  1
  Bi  Bi30  1  0.59837494  0.25000000  0.47501592  1
  Bi  Bi31  1  0.90162506  0.25000000  0.97501592  1
