# generated using pymatgen
data_Ho3Se3N
_symmetry_space_group_name_H-M   'P 1'
_cell_length_a   7.69787094
_cell_length_b   7.69787037
_cell_length_c   12.56107540
_cell_angle_alpha   73.08814657
_cell_angle_beta   73.08814788
_cell_angle_gamma   82.32505260
_symmetry_Int_Tables_number   1
_chemical_formula_structural   Ho3Se3N
_chemical_formula_sum   'Ho12 Se12 N4'
_cell_volume   680.37251247
_cell_formula_units_Z   4
loop_
 _symmetry_equiv_pos_site_id
 _symmetry_equiv_pos_as_xyz
  1  'x, y, z'
loop_
 _atom_site_type_symbol
 _atom_site_label
 _atom_site_symmetry_multiplicity
 _atom_site_fract_x
 _atom_site_fract_y
 _atom_site_fract_z
 _atom_site_occupancy
  Ho  Ho0  1  0.60826957  0.75177590  0.61287363  1
  Ho  Ho1  1  0.78802705  0.06282823  0.12262519  1
  Ho  Ho2  1  0.93717177  0.21197295  0.37737481  1
  Ho  Ho3  1  0.97869873  0.66024489  0.38269498  1
  Ho  Ho4  1  0.21197295  0.93717177  0.87737481  1
  Ho  Ho5  1  0.24822410  0.39173043  0.88712637  1
  Ho  Ho6  1  0.06282823  0.78802705  0.62262519  1
  Ho  Ho7  1  0.75177590  0.60826957  0.11287363  1
  Ho  Ho8  1  0.33975511  0.02130127  0.11730502  1
  Ho  Ho9  1  0.39173043  0.24822410  0.38712637  1
  Ho  Ho10  1  0.66024489  0.97869873  0.88269498  1
  Ho  Ho11  1  0.02130127  0.33975511  0.61730502  1
  Se  Se12  1  0.21947742  0.92591334  0.37323976  1
  Se  Se13  1  0.50375385  0.33477499  0.14026149  1
  Se  Se14  1  0.33477499  0.50375385  0.64026149  1
  Se  Se15  1  0.95900189  0.69274492  0.87187529  1
  Se  Se16  1  0.92591334  0.21947742  0.87323976  1
  Se  Se17  1  0.78052258  0.07408666  0.62676024  1
  Se  Se18  1  0.30725508  0.04099811  0.62812471  1
  Se  Se19  1  0.07408666  0.78052258  0.12676024  1
  Se  Se20  1  0.04099811  0.30725508  0.12812471  1
  Se  Se21  1  0.49624615  0.66522501  0.85973851  1
  Se  Se22  1  0.69274492  0.95900189  0.37187529  1
  Se  Se23  1  0.66522501  0.49624615  0.35973851  1
  N  N24  1  0.37516514  0.10968814  0.92400456  1
  N  N25  1  0.89031186  0.62483486  0.57599544  1
  N  N26  1  0.10968814  0.37516514  0.42400456  1
  N  N27  1  0.62483486  0.89031186  0.07599544  1
