# generated using pymatgen
data_CsLiCrO4
_symmetry_space_group_name_H-M   'P 1'
_cell_length_a   5.72978357
_cell_length_b   9.13901848
_cell_length_c   9.91217061
_cell_angle_alpha   90.00000000
_cell_angle_beta   90.62669342
_cell_angle_gamma   90.00000000
_symmetry_Int_Tables_number   1
_chemical_formula_structural   CsLiCrO4
_chemical_formula_sum   'Cs4 Li4 Cr4 O16'
_cell_volume   519.01578091
_cell_formula_units_Z   4
loop_
 _symmetry_equiv_pos_site_id
 _symmetry_equiv_pos_as_xyz
  1  'x, y, z'
loop_
 _atom_site_type_symbol
 _atom_site_label
 _atom_site_symmetry_multiplicity
 _atom_site_fract_x
 _atom_site_fract_y
 _atom_site_fract_z
 _atom_site_occupancy
  Cs  Cs0  1  0.76698513  0.99775477  0.21972150  1
  Cs  Cs1  1  0.26698513  0.50224523  0.71972150  1
  Cs  Cs2  1  0.23301487  0.00224523  0.78027850  1
  Cs  Cs3  1  0.73301487  0.49775477  0.28027850  1
  Li  Li4  1  0.23825088  0.31292313  0.08712382  1
  Li  Li5  1  0.76174912  0.68707687  0.91287618  1
  Li  Li6  1  0.26174912  0.81292313  0.41287618  1
  Li  Li7  1  0.73825088  0.18707687  0.58712382  1
  Cr  Cr8  1  0.73841333  0.29051057  0.92585652  1
  Cr  Cr9  1  0.26158667  0.70948943  0.07414348  1
  Cr  Cr10  1  0.23841333  0.20948943  0.42585652  1
  Cr  Cr11  1  0.76158667  0.79051057  0.57414348  1
  O  O12  1  0.34644272  0.76962967  0.22573749  1
  O  O13  1  0.45276781  0.76541182  0.95886080  1
  O  O14  1  0.74861389  0.47172590  0.92459019  1
  O  O15  1  0.95276781  0.73458818  0.45886080  1
  O  O16  1  0.15355728  0.26962967  0.27426251  1
  O  O17  1  0.75138611  0.97172590  0.57540981  1
  O  O18  1  0.65355728  0.23037033  0.77426251  1
  O  O19  1  0.24861389  0.02827410  0.42459019  1
  O  O20  1  0.00168308  0.22370284  0.96566722  1
  O  O21  1  0.54723219  0.23458818  0.04113920  1
  O  O22  1  0.84644272  0.73037033  0.72573749  1
  O  O23  1  0.04723219  0.26541182  0.54113920  1
  O  O24  1  0.49831692  0.72370284  0.53433278  1
  O  O25  1  0.25138611  0.52827410  0.07540981  1
  O  O26  1  0.99831692  0.77629716  0.03433278  1
  O  O27  1  0.50168308  0.27629716  0.46566722  1
