# generated using pymatgen
data_CsGaCl4
_symmetry_space_group_name_H-M   'P 1'
_cell_length_a   7.33287362
_cell_length_b   9.67561393
_cell_length_c   11.96778971
_cell_angle_alpha   90.00000000
_cell_angle_beta   90.00000000
_cell_angle_gamma   90.00000000
_symmetry_Int_Tables_number   1
_chemical_formula_structural   CsGaCl4
_chemical_formula_sum   'Cs4 Ga4 Cl16'
_cell_volume   849.11532792
_cell_formula_units_Z   4
loop_
 _symmetry_equiv_pos_site_id
 _symmetry_equiv_pos_as_xyz
  1  'x, y, z'
loop_
 _atom_site_type_symbol
 _atom_site_label
 _atom_site_symmetry_multiplicity
 _atom_site_fract_x
 _atom_site_fract_y
 _atom_site_fract_z
 _atom_site_occupancy
  Cs  Cs0  1  0.75000000  0.66721822  0.31958149  1
  Cs  Cs1  1  0.75000000  0.83278178  0.81958149  1
  Cs  Cs2  1  0.25000000  0.16721822  0.18041851  1
  Cs  Cs3  1  0.25000000  0.33278178  0.68041851  1
  Ga  Ga4  1  0.75000000  0.30739956  0.93022488  1
  Ga  Ga5  1  0.25000000  0.80739956  0.56977512  1
  Ga  Ga6  1  0.25000000  0.69260044  0.06977512  1
  Ga  Ga7  1  0.75000000  0.19260044  0.43022488  1
  Cl  Cl8  1  0.25000000  0.55166619  0.21416015  1
  Cl  Cl9  1  0.75000000  0.05166619  0.28583985  1
  Cl  Cl10  1  0.25000000  0.91552328  0.40897018  1
  Cl  Cl11  1  0.50667669  0.32777622  0.41872443  1
  Cl  Cl12  1  0.75000000  0.08447672  0.59102982  1
  Cl  Cl13  1  0.75000000  0.41552328  0.09102982  1
  Cl  Cl14  1  0.25000000  0.58447672  0.90897018  1
  Cl  Cl15  1  0.49332331  0.82777622  0.08127557  1
  Cl  Cl16  1  0.99332331  0.32777622  0.41872443  1
  Cl  Cl17  1  0.49332331  0.67222378  0.58127557  1
  Cl  Cl18  1  0.99332331  0.17222378  0.91872443  1
  Cl  Cl19  1  0.50667669  0.17222378  0.91872443  1
  Cl  Cl20  1  0.75000000  0.44833381  0.78583985  1
  Cl  Cl21  1  0.00667669  0.82777622  0.08127557  1
  Cl  Cl22  1  0.00667669  0.67222378  0.58127557  1
  Cl  Cl23  1  0.25000000  0.94833381  0.71416015  1
