# generated using pymatgen
data_BaMo2(PO6)2
_symmetry_space_group_name_H-M   'P 1'
_cell_length_a   6.47283617
_cell_length_b   7.33288273
_cell_length_c   10.17176866
_cell_angle_alpha   90.00000000
_cell_angle_beta   95.09259565
_cell_angle_gamma   90.00000000
_symmetry_Int_Tables_number   1
_chemical_formula_structural   BaMo2(PO6)2
_chemical_formula_sum   'Ba2 Mo4 P4 O24'
_cell_volume   480.89258292
_cell_formula_units_Z   2
loop_
 _symmetry_equiv_pos_site_id
 _symmetry_equiv_pos_as_xyz
  1  'x, y, z'
loop_
 _atom_site_type_symbol
 _atom_site_label
 _atom_site_symmetry_multiplicity
 _atom_site_fract_x
 _atom_site_fract_y
 _atom_site_fract_z
 _atom_site_occupancy
  Ba  Ba0  1  0.00000000  0.00000000  0.00000000  1
  Ba  Ba1  1  0.00000000  0.50000000  0.50000000  1
  Mo  Mo2  1  0.27251071  0.03387521  0.67415161  1
  Mo  Mo3  1  0.72748929  0.53387521  0.82584839  1
  Mo  Mo4  1  0.72748929  0.96612479  0.32584839  1
  Mo  Mo5  1  0.27251071  0.46612479  0.17415161  1
  P  P6  1  0.23498411  0.44329494  0.84371074  1
  P  P7  1  0.23498411  0.05670506  0.34371074  1
  P  P8  1  0.76501589  0.94329494  0.65628926  1
  P  P9  1  0.76501589  0.55670506  0.15628926  1
  O  O10  1  0.78019970  0.66385788  0.02727745  1
  O  O11  1  0.75301279  0.82174316  0.77971540  1
  O  O12  1  0.43115287  0.56889523  0.85587889  1
  O  O13  1  0.21980030  0.16385788  0.47272255  1
  O  O14  1  0.56884713  0.06889523  0.64412111  1
  O  O15  1  0.23286790  0.81985108  0.60281971  1
  O  O16  1  0.56884713  0.43110477  0.14412111  1
  O  O17  1  0.23286790  0.68014892  0.10281971  1
  O  O18  1  0.21980030  0.33614212  0.97272255  1
  O  O19  1  0.68462045  0.48118448  0.65918608  1
  O  O20  1  0.76713210  0.31985108  0.89718029  1
  O  O21  1  0.76713210  0.18014892  0.39718029  1
  O  O22  1  0.31537955  0.51881552  0.34081392  1
  O  O23  1  0.04418892  0.57241953  0.81558067  1
  O  O24  1  0.95581108  0.07241953  0.68441933  1
  O  O25  1  0.43115287  0.93110477  0.35587889  1
  O  O26  1  0.24698721  0.17825684  0.22028460  1
  O  O27  1  0.95581108  0.42758047  0.18441933  1
  O  O28  1  0.68462045  0.01881552  0.15918608  1
  O  O29  1  0.04418892  0.92758047  0.31558067  1
  O  O30  1  0.31537955  0.98118448  0.84081392  1
  O  O31  1  0.75301279  0.67825684  0.27971540  1
  O  O32  1  0.78019970  0.83614212  0.52727745  1
  O  O33  1  0.24698721  0.32174316  0.72028460  1
