# generated using pymatgen
data_KICl2
_symmetry_space_group_name_H-M   'P 1'
_cell_length_a   8.52179424
_cell_length_b   11.93634424
_cell_length_c   12.81938052
_cell_angle_alpha   90.00000000
_cell_angle_beta   110.61865211
_cell_angle_gamma   90.00000000
_symmetry_Int_Tables_number   1
_chemical_formula_structural   KICl2
_chemical_formula_sum   'K8 I8 Cl16'
_cell_volume   1220.44924284
_cell_formula_units_Z   8
loop_
 _symmetry_equiv_pos_site_id
 _symmetry_equiv_pos_as_xyz
  1  'x, y, z'
loop_
 _atom_site_type_symbol
 _atom_site_label
 _atom_site_symmetry_multiplicity
 _atom_site_fract_x
 _atom_site_fract_y
 _atom_site_fract_z
 _atom_site_occupancy
  K  K0  1  0.10789112  0.32951980  0.42447499  1
  K  K1  1  0.53320057  0.96093575  0.31377802  1
  K  K2  1  0.89210888  0.82951980  0.07552501  1
  K  K3  1  0.53320057  0.53906425  0.81377802  1
  K  K4  1  0.89210888  0.67048020  0.57552501  1
  K  K5  1  0.46679943  0.03906425  0.68622198  1
  K  K6  1  0.10789112  0.17048020  0.92447499  1
  K  K7  1  0.46679943  0.46093575  0.18622198  1
  I  I8  1  0.30452157  0.87488182  0.92110142  1
  I  I9  1  0.89875035  0.47161163  0.12224910  1
  I  I10  1  0.89875035  0.02838837  0.62224910  1
  I  I11  1  0.69547843  0.37488182  0.57889858  1
  I  I12  1  0.10124965  0.52838837  0.87775090  1
  I  I13  1  0.30452157  0.62511818  0.42110142  1
  I  I14  1  0.69547843  0.12511818  0.07889858  1
  I  I15  1  0.10124965  0.97161163  0.37775090  1
  Cl  Cl16  1  0.36753851  0.79751269  0.75778233  1
  Cl  Cl17  1  0.13549289  0.32484500  0.17439596  1
  Cl  Cl18  1  0.63246149  0.20248731  0.24221767  1
  Cl  Cl19  1  0.65971058  0.61976934  0.06960890  1
  Cl  Cl20  1  0.65971058  0.88023066  0.56960890  1
  Cl  Cl21  1  0.77132096  0.46141491  0.41565097  1
  Cl  Cl22  1  0.34028942  0.11976934  0.43039110  1
  Cl  Cl23  1  0.63246149  0.29751269  0.74221767  1
  Cl  Cl24  1  0.22867904  0.53858509  0.58434903  1
  Cl  Cl25  1  0.36753851  0.70248731  0.25778233  1
  Cl  Cl26  1  0.77132096  0.03858509  0.91565097  1
  Cl  Cl27  1  0.22867904  0.96141491  0.08434903  1
  Cl  Cl28  1  0.34028942  0.38023066  0.93039110  1
  Cl  Cl29  1  0.86450711  0.67515500  0.82560404  1
  Cl  Cl30  1  0.86450711  0.82484500  0.32560404  1
  Cl  Cl31  1  0.13549289  0.17515500  0.67439596  1
