# generated using pymatgen
data_NaMnH3(CO2)3
_symmetry_space_group_name_H-M   'P 1'
_cell_length_a   9.42779989
_cell_length_b   9.42779989
_cell_length_c   9.42779989
_cell_angle_alpha   90.00000000
_cell_angle_beta   90.00000000
_cell_angle_gamma   90.00000000
_symmetry_Int_Tables_number   1
_chemical_formula_structural   NaMnH3(CO2)3
_chemical_formula_sum   'Na4 Mn4 H12 C12 O24'
_cell_volume   837.97501024
_cell_formula_units_Z   4
loop_
 _symmetry_equiv_pos_site_id
 _symmetry_equiv_pos_as_xyz
  1  'x, y, z'
loop_
 _atom_site_type_symbol
 _atom_site_label
 _atom_site_symmetry_multiplicity
 _atom_site_fract_x
 _atom_site_fract_y
 _atom_site_fract_z
 _atom_site_occupancy
  Na  Na0  1  0.81413993  0.68586007  0.31413993  1
  Na  Na1  1  0.68586007  0.31413993  0.81413993  1
  Na  Na2  1  0.18586007  0.18586007  0.18586007  1
  Na  Na3  1  0.31413993  0.81413993  0.68586007  1
  Mn  Mn4  1  0.13636334  0.86363666  0.36363666  1
  Mn  Mn5  1  0.63636334  0.63636334  0.63636334  1
  Mn  Mn6  1  0.36363666  0.13636334  0.86363666  1
  Mn  Mn7  1  0.86363666  0.36363666  0.13636334  1
  H  H8  1  0.24282747  0.53178550  0.29540412  1
  H  H9  1  0.70459588  0.74282747  0.96821450  1
  H  H10  1  0.03178550  0.20459588  0.75717253  1
  H  H11  1  0.74282747  0.96821450  0.70459588  1
  H  H12  1  0.20459588  0.75717253  0.03178550  1
  H  H13  1  0.53178550  0.29540412  0.24282747  1
  H  H14  1  0.75717253  0.03178550  0.20459588  1
  H  H15  1  0.29540412  0.24282747  0.53178550  1
  H  H16  1  0.96821450  0.70459588  0.74282747  1
  H  H17  1  0.25717253  0.46821450  0.79540412  1
  H  H18  1  0.79540412  0.25717253  0.46821450  1
  H  H19  1  0.46821450  0.79540412  0.25717253  1
  C  C20  1  0.12982250  0.53681741  0.26256533  1
  C  C21  1  0.73743467  0.62982250  0.96318259  1
  C  C22  1  0.03681741  0.23743467  0.87017750  1
  C  C23  1  0.62982250  0.96318259  0.73743467  1
  C  C24  1  0.23743467  0.87017750  0.03681741  1
  C  C25  1  0.53681741  0.26256533  0.12982250  1
  C  C26  1  0.87017750  0.03681741  0.23743467  1
  C  C27  1  0.26256533  0.12982250  0.53681741  1
  C  C28  1  0.96318259  0.73743467  0.62982250  1
  C  C29  1  0.37017750  0.46318259  0.76256533  1
  C  C30  1  0.76256533  0.37017750  0.46318259  1
  C  C31  1  0.46318259  0.76256533  0.37017750  1
  O  O32  1  0.07901051  0.42521100  0.20763501  1
  O  O33  1  0.79236499  0.57901051  0.07478900  1
  O  O34  1  0.92521100  0.29236499  0.92098949  1
  O  O35  1  0.57901051  0.07478900  0.79236499  1
  O  O36  1  0.29236499  0.92098949  0.92521100  1
  O  O37  1  0.42521100  0.20763501  0.07901051  1
  O  O38  1  0.92098949  0.92521100  0.29236499  1
  O  O39  1  0.20763501  0.07901051  0.42521100  1
  O  O40  1  0.07478900  0.79236499  0.57901051  1
  O  O41  1  0.42098949  0.57478900  0.70763501  1
  O  O42  1  0.70763501  0.42098949  0.57478900  1
  O  O43  1  0.57478900  0.70763501  0.42098949  1
  O  O44  1  0.06478713  0.65273585  0.28356253  1
  O  O45  1  0.71643747  0.56478713  0.84726415  1
  O  O46  1  0.15273585  0.21643747  0.93521287  1
  O  O47  1  0.56478713  0.84726415  0.71643747  1
  O  O48  1  0.21643747  0.93521287  0.15273585  1
  O  O49  1  0.65273585  0.28356253  0.06478713  1
  O  O50  1  0.93521287  0.15273585  0.21643747  1
  O  O51  1  0.28356253  0.06478713  0.65273585  1
  O  O52  1  0.84726415  0.71643747  0.56478713  1
  O  O53  1  0.43521287  0.34726415  0.78356253  1
  O  O54  1  0.78356253  0.43521287  0.34726415  1
  O  O55  1  0.34726415  0.78356253  0.43521287  1
