# generated using pymatgen
data_Na4CoAuO5
_symmetry_space_group_name_H-M   'P 1'
_cell_length_a   5.62518835
_cell_length_b   5.62432999
_cell_length_c   10.62063283
_cell_angle_alpha   90.00000000
_cell_angle_beta   90.00000000
_cell_angle_gamma   117.22117423
_symmetry_Int_Tables_number   1
_chemical_formula_structural   Na4CoAuO5
_chemical_formula_sum   'Na8 Co2 Au2 O10'
_cell_volume   298.80018017
_cell_formula_units_Z   2
loop_
 _symmetry_equiv_pos_site_id
 _symmetry_equiv_pos_as_xyz
  1  'x, y, z'
loop_
 _atom_site_type_symbol
 _atom_site_label
 _atom_site_symmetry_multiplicity
 _atom_site_fract_x
 _atom_site_fract_y
 _atom_site_fract_z
 _atom_site_occupancy
  Na  Na0  1  0.99174765  0.35981153  0.25000000  1
  Na  Na1  1  0.36027128  0.99117398  0.25000000  1
  Na  Na2  1  0.32937428  0.67076999  0.99989308  1
  Na  Na3  1  0.32937428  0.67076999  0.50010692  1
  Na  Na4  1  0.67062572  0.32923001  0.00010692  1
  Na  Na5  1  0.00825235  0.64018847  0.75000000  1
  Na  Na6  1  0.67062572  0.32923001  0.49989308  1
  Na  Na7  1  0.63972872  0.00882602  0.75000000  1
  Co  Co8  1  0.73057071  0.73013808  0.25000000  1
  Co  Co9  1  0.26942929  0.26986192  0.75000000  1
  Au  Au10  1  0.00000000  0.00000000  0.00000000  1
  Au  Au11  1  0.00000000  0.00000000  0.50000000  1
  O  O12  1  0.29178618  0.01351206  0.61764617  1
  O  O13  1  0.01299699  0.29175735  0.88239817  1
  O  O14  1  0.98700301  0.70824265  0.38239817  1
  O  O15  1  0.98700301  0.70824265  0.11760183  1
  O  O16  1  0.43055545  0.42983674  0.25000000  1
  O  O17  1  0.56944455  0.57016326  0.75000000  1
  O  O18  1  0.70821382  0.98648794  0.38235383  1
  O  O19  1  0.01299699  0.29175735  0.61760183  1
  O  O20  1  0.70821382  0.98648794  0.11764617  1
  O  O21  1  0.29178618  0.01351206  0.88235383  1
