# generated using pymatgen
data_Sr3InP3
_symmetry_space_group_name_H-M   'P 1'
_cell_length_a   4.35851317
_cell_length_b   12.94484041
_cell_length_c   13.97890759
_cell_angle_alpha   89.99988975
_cell_angle_beta   90.00016029
_cell_angle_gamma   89.99983868
_symmetry_Int_Tables_number   1
_chemical_formula_structural   Sr3InP3
_chemical_formula_sum   'Sr12 In4 P12'
_cell_volume   788.69356454
_cell_formula_units_Z   4
loop_
 _symmetry_equiv_pos_site_id
 _symmetry_equiv_pos_as_xyz
  1  'x, y, z'
loop_
 _atom_site_type_symbol
 _atom_site_label
 _atom_site_symmetry_multiplicity
 _atom_site_fract_x
 _atom_site_fract_y
 _atom_site_fract_z
 _atom_site_occupancy
  Sr  Sr0  1  0.74999975  0.64393677  0.99651837  1
  Sr  Sr1  1  0.24999750  0.77403883  0.20700275  1
  Sr  Sr2  1  0.24999713  0.85606231  0.49651978  1
  Sr  Sr3  1  0.75000115  0.14393745  0.50348151  1
  Sr  Sr4  1  0.74999706  0.92758382  0.89516874  1
  Sr  Sr5  1  0.25000069  0.35606411  0.00348307  1
  Sr  Sr6  1  0.74999855  0.72595925  0.70700112  1
  Sr  Sr7  1  0.75000199  0.42758329  0.60483041  1
  Sr  Sr8  1  0.24999846  0.57241728  0.39516729  1
  Sr  Sr9  1  0.25000389  0.07241735  0.10483176  1
  Sr  Sr10  1  0.24999713  0.27404151  0.29299686  1
  Sr  Sr11  1  0.75000103  0.22596003  0.79299710  1
  In  In12  1  0.75000121  0.44739838  0.20193344  1
  In  In13  1  0.75000194  0.94739766  0.29806665  1
  In  In14  1  0.24999989  0.05260164  0.70193295  1
  In  In15  1  0.24999986  0.55260160  0.79806644  1
  P  P16  1  0.75000082  0.25861001  0.12767803  1
  P  P17  1  0.25000085  0.59586186  0.61488845  1
  P  P18  1  0.25000303  0.09586204  0.88511173  1
  P  P19  1  0.74999839  0.40413850  0.38511150  1
  P  P20  1  0.24999832  0.24139016  0.62767820  1
  P  P21  1  0.24999944  0.54703036  0.14439604  1
  P  P22  1  0.74999979  0.45296956  0.85560425  1
  P  P23  1  0.75000024  0.95296924  0.64439604  1
  P  P24  1  0.24999928  0.04702983  0.35560393  1
  P  P25  1  0.75000117  0.75860930  0.37232250  1
  P  P26  1  0.75000050  0.90413769  0.11488847  1
  P  P27  1  0.25000092  0.74139015  0.87232264  1
