# generated using pymatgen
data_Ba2(CuO2)3
_symmetry_space_group_name_H-M   'P 1'
_cell_length_a   7.59311172
_cell_length_b   8.27177839
_cell_length_c   12.17324142
_cell_angle_alpha   109.55803268
_cell_angle_beta   90.00000000
_cell_angle_gamma   90.00000000
_symmetry_Int_Tables_number   1
_chemical_formula_structural   Ba2(CuO2)3
_chemical_formula_sum   'Ba8 Cu12 O24'
_cell_volume   720.46924501
_cell_formula_units_Z   4
loop_
 _symmetry_equiv_pos_site_id
 _symmetry_equiv_pos_as_xyz
  1  'x, y, z'
loop_
 _atom_site_type_symbol
 _atom_site_label
 _atom_site_symmetry_multiplicity
 _atom_site_fract_x
 _atom_site_fract_y
 _atom_site_fract_z
 _atom_site_occupancy
  Ba  Ba0  1  0.50000000  0.56461129  0.75767909  1
  Ba  Ba1  1  0.50000000  0.90812527  0.25833782  1
  Ba  Ba2  1  0.00000000  0.17527959  0.25123594  1
  Ba  Ba3  1  0.00000000  0.68163062  0.24781651  1
  Ba  Ba4  1  0.00000000  0.82472041  0.74876406  1
  Ba  Ba5  1  0.50000000  0.09187473  0.74166218  1
  Ba  Ba6  1  0.00000000  0.31836938  0.75218349  1
  Ba  Ba7  1  0.50000000  0.43538871  0.24232091  1
  Cu  Cu8  1  0.24926425  0.33449718  0.50027728  1
  Cu  Cu9  1  0.74710068  0.33201978  0.99852877  1
  Cu  Cu10  1  0.24926425  0.66550282  0.49972272  1
  Cu  Cu11  1  0.25289932  0.66798022  0.00147123  1
  Cu  Cu12  1  0.75073575  0.66550282  0.49972272  1
  Cu  Cu13  1  0.24701609  0.00000000  0.00000000  1
  Cu  Cu14  1  0.25289932  0.33201978  0.99852877  1
  Cu  Cu15  1  0.75298391  0.00000000  0.00000000  1
  Cu  Cu16  1  0.75073575  0.33449718  0.50027728  1
  Cu  Cu17  1  0.74710068  0.66798022  0.00147123  1
  Cu  Cu18  1  0.74600211  0.00000000  0.50000000  1
  Cu  Cu19  1  0.25399789  0.00000000  0.50000000  1
  O  O20  1  0.76667164  0.88891546  0.11248866  1
  O  O21  1  0.74789235  0.22125753  0.10950913  1
  O  O22  1  0.23434173  0.44486073  0.38840745  1
  O  O23  1  0.74900654  0.11269069  0.38977984  1
  O  O24  1  0.76565827  0.55513927  0.61159255  1
  O  O25  1  0.74789235  0.77874247  0.89049087  1
  O  O26  1  0.25210765  0.22125753  0.10950913  1
  O  O27  1  0.23332836  0.11108454  0.88751134  1
  O  O28  1  0.26822243  0.55316508  0.11068763  1
  O  O29  1  0.23332836  0.88891546  0.11248866  1
  O  O30  1  0.26924523  0.22184484  0.61089785  1
  O  O31  1  0.73075477  0.22184484  0.61089785  1
  O  O32  1  0.76667164  0.11108454  0.88751134  1
  O  O33  1  0.26924523  0.77815516  0.38910215  1
  O  O34  1  0.73177757  0.55316508  0.11068763  1
  O  O35  1  0.74900654  0.88730931  0.61022016  1
  O  O36  1  0.26822243  0.44683492  0.88931237  1
  O  O37  1  0.73177757  0.44683492  0.88931237  1
  O  O38  1  0.25099346  0.88730931  0.61022016  1
  O  O39  1  0.25210765  0.77874247  0.89049087  1
  O  O40  1  0.73075477  0.77815516  0.38910215  1
  O  O41  1  0.76565827  0.44486073  0.38840745  1
  O  O42  1  0.25099346  0.11269069  0.38977984  1
  O  O43  1  0.23434173  0.55513927  0.61159255  1
