# generated using pymatgen
data_PaCl2O
_symmetry_space_group_name_H-M   'P 1'
_cell_length_a   3.99785619
_cell_length_b   15.55283721
_cell_length_c   18.17456067
_cell_angle_alpha   90.00000000
_cell_angle_beta   90.00000000
_cell_angle_gamma   90.00000000
_symmetry_Int_Tables_number   1
_chemical_formula_structural   PaCl2O
_chemical_formula_sum   'Pa12 Cl24 O12'
_cell_volume   1130.05795169
_cell_formula_units_Z   12
loop_
 _symmetry_equiv_pos_site_id
 _symmetry_equiv_pos_as_xyz
  1  'x, y, z'
loop_
 _atom_site_type_symbol
 _atom_site_label
 _atom_site_symmetry_multiplicity
 _atom_site_fract_x
 _atom_site_fract_y
 _atom_site_fract_z
 _atom_site_occupancy
  Pa  Pa0  1  0.50000000  0.22232202  0.52708429  1
  Pa  Pa1  1  0.50000000  0.77767798  0.47291571  1
  Pa  Pa2  1  0.50000000  0.72232202  0.97291571  1
  Pa  Pa3  1  0.50000000  0.27767798  0.02708429  1
  Pa  Pa4  1  0.00000000  0.34464513  0.66504954  1
  Pa  Pa5  1  0.00000000  0.65535487  0.33495046  1
  Pa  Pa6  1  0.00000000  0.84464513  0.83495046  1
  Pa  Pa7  1  -0.00000000  0.15535487  0.16504954  1
  Pa  Pa8  1  0.50000000  0.16540926  0.74647492  1
  Pa  Pa9  1  0.50000000  0.83459074  0.25352508  1
  Pa  Pa10  1  0.50000000  0.66540926  0.75352508  1
  Pa  Pa11  1  0.50000000  0.33459074  0.24647492  1
  Cl  Cl12  1  0.00000000  0.12605073  0.45654257  1
  Cl  Cl13  1  -0.00000000  0.87394927  0.54345743  1
  Cl  Cl14  1  0.00000000  0.62605073  0.04345743  1
  Cl  Cl15  1  0.00000000  0.37394927  0.95654257  1
  Cl  Cl16  1  -0.00000000  0.46903183  0.28152616  1
  Cl  Cl17  1  0.00000000  0.53096817  0.71847384  1
  Cl  Cl18  1  -0.00000000  0.96903183  0.21847384  1
  Cl  Cl19  1  0.00000000  0.03096817  0.78152616  1
  Cl  Cl20  1  0.50000000  0.06775984  0.08317720  1
  Cl  Cl21  1  0.50000000  0.93224016  0.91682280  1
  Cl  Cl22  1  0.50000000  0.56775984  0.41682280  1
  Cl  Cl23  1  0.50000000  0.43224016  0.58317720  1
  Cl  Cl24  1  0.50000000  0.14069222  0.28120256  1
  Cl  Cl25  1  0.50000000  0.85930778  0.71879744  1
  Cl  Cl26  1  0.50000000  0.64069222  0.21879744  1
  Cl  Cl27  1  0.50000000  0.35930778  0.78120256  1
  Cl  Cl28  1  0.50000000  0.32483872  0.40083561  1
  Cl  Cl29  1  0.50000000  0.67516128  0.59916439  1
  Cl  Cl30  1  0.50000000  0.82483872  0.09916439  1
  Cl  Cl31  1  0.50000000  0.17516128  0.90083561  1
  Cl  Cl32  1  0.50000000  0.42516397  0.11441365  1
  Cl  Cl33  1  0.50000000  0.57483603  0.88558635  1
  Cl  Cl34  1  0.50000000  0.92516397  0.38558635  1
  Cl  Cl35  1  0.50000000  0.07483603  0.61441365  1
  O  O36  1  0.50000000  0.26107780  0.64707818  1
  O  O37  1  0.50000000  0.73892220  0.35292182  1
  O  O38  1  0.50000000  0.76107780  0.85292182  1
  O  O39  1  0.50000000  0.23892220  0.14707818  1
  O  O40  1  0.00000000  0.27730454  0.55329122  1
  O  O41  1  -0.00000000  0.72269546  0.44670878  1
  O  O42  1  0.00000000  0.77730454  0.94670878  1
  O  O43  1  -0.00000000  0.22269546  0.05329122  1
  O  O44  1  0.00000000  0.21724949  0.73528252  1
  O  O45  1  -0.00000000  0.78275051  0.26471748  1
  O  O46  1  -0.00000000  0.71724949  0.76471748  1
  O  O47  1  0.00000000  0.28275051  0.23528252  1
