# generated using pymatgen
data_Rb3(Cu4Se3)2
_symmetry_space_group_name_H-M   'P 1'
_cell_length_a   4.01767766
_cell_length_b   9.53038434
_cell_length_c   10.29469769
_cell_angle_alpha   105.59375075
_cell_angle_beta   90.00000000
_cell_angle_gamma   102.16821632
_symmetry_Int_Tables_number   1
_chemical_formula_structural   Rb3(Cu4Se3)2
_chemical_formula_sum   'Rb3 Cu8 Se6'
_cell_volume   370.47210472
_cell_formula_units_Z   1
loop_
 _symmetry_equiv_pos_site_id
 _symmetry_equiv_pos_as_xyz
  1  'x, y, z'
loop_
 _atom_site_type_symbol
 _atom_site_label
 _atom_site_symmetry_multiplicity
 _atom_site_fract_x
 _atom_site_fract_y
 _atom_site_fract_z
 _atom_site_occupancy
  Rb  Rb0  1  0.68787581  0.37575163  0.30550448  1
  Rb  Rb1  1  0.31212419  0.62424837  0.69449552  1
  Rb  Rb2  1  0.50000000  0.00000000  0.00000000  1
  Cu  Cu3  1  0.92042230  0.84084460  0.46980574  1
  Cu  Cu4  1  0.70195787  0.40391575  0.92221387  1
  Cu  Cu5  1  0.52300419  0.04600837  0.64112823  1
  Cu  Cu6  1  0.88900149  0.77800299  0.21887019  1
  Cu  Cu7  1  0.47699581  0.95399163  0.35887177  1
  Cu  Cu8  1  0.07957770  0.15915540  0.53019426  1
  Cu  Cu9  1  0.29804213  0.59608425  0.07778613  1
  Cu  Cu10  1  0.11099851  0.22199701  0.78112981  1
  Se  Se11  1  0.84038782  0.68077564  0.97954831  1
  Se  Se12  1  0.15961218  0.31922436  0.02045169  1
  Se  Se13  1  0.03220285  0.06440569  0.29190932  1
  Se  Se14  1  0.65570444  0.31140888  0.64888643  1
  Se  Se15  1  0.34429556  0.68859112  0.35111357  1
  Se  Se16  1  0.96779715  0.93559431  0.70809068  1
