# generated using pymatgen
data_CsFeSiO4
_symmetry_space_group_name_H-M   'P 1'
_cell_length_a   9.88582700
_cell_length_b   5.64056689
_cell_length_c   9.16655095
_cell_angle_alpha   90.00000000
_cell_angle_beta   90.00000000
_cell_angle_gamma   90.00000000
_symmetry_Int_Tables_number   1
_chemical_formula_structural   CsFeSiO4
_chemical_formula_sum   'Cs4 Fe4 Si4 O16'
_cell_volume   511.14217496
_cell_formula_units_Z   4
loop_
 _symmetry_equiv_pos_site_id
 _symmetry_equiv_pos_as_xyz
  1  'x, y, z'
loop_
 _atom_site_type_symbol
 _atom_site_label
 _atom_site_symmetry_multiplicity
 _atom_site_fract_x
 _atom_site_fract_y
 _atom_site_fract_z
 _atom_site_occupancy
  Cs  Cs0  1  0.30018789  0.49471591  0.00062358  1
  Cs  Cs1  1  0.69981211  0.99471591  0.99937642  1
  Cs  Cs2  1  0.80018789  0.99471591  0.49937642  1
  Cs  Cs3  1  0.19981211  0.49471591  0.50062358  1
  Fe  Fe4  1  0.08521118  0.97818327  0.81950457  1
  Fe  Fe5  1  0.91478882  0.47818327  0.18049543  1
  Fe  Fe6  1  0.58521118  0.47818327  0.68049543  1
  Fe  Fe7  1  0.41478882  0.97818327  0.31950457  1
  Si  Si8  1  0.41831124  0.98062736  0.70075274  1
  Si  Si9  1  0.58168876  0.48062736  0.29924726  1
  Si  Si10  1  0.91831124  0.48062736  0.79924726  1
  Si  Si11  1  0.08168876  0.98062736  0.20075274  1
  O  O12  1  0.41286484  0.99090788  0.52237879  1
  O  O13  1  0.58713516  0.49090788  0.47762121  1
  O  O14  1  0.91286484  0.49090788  0.97762121  1
  O  O15  1  0.08713516  0.99090788  0.02237879  1
  O  O16  1  0.51728990  0.76467242  0.75819644  1
  O  O17  1  0.48271010  0.26467242  0.24180356  1
  O  O18  1  0.01728990  0.26467242  0.74180356  1
  O  O19  1  0.98271010  0.76467242  0.25819644  1
  O  O20  1  0.47837745  0.23251611  0.76505888  1
  O  O21  1  0.52162255  0.73251611  0.23494112  1
  O  O22  1  0.97837745  0.73251611  0.73494112  1
  O  O23  1  0.02162255  0.23251611  0.26505888  1
  O  O24  1  0.26588531  0.93037705  0.76384397  1
  O  O25  1  0.73411469  0.43037705  0.23615603  1
  O  O26  1  0.76588531  0.43037705  0.73615603  1
  O  O27  1  0.23411469  0.93037705  0.26384397  1
