# generated using pymatgen
data_Sm2NiSn4
_symmetry_space_group_name_H-M   'P 1'
_cell_length_a   4.51281111
_cell_length_b   9.01278180
_cell_length_c   17.09435737
_cell_angle_alpha   90.00000000
_cell_angle_beta   90.00000000
_cell_angle_gamma   90.00000000
_symmetry_Int_Tables_number   1
_chemical_formula_structural   Sm2NiSn4
_chemical_formula_sum   'Sm8 Ni4 Sn16'
_cell_volume   695.27848686
_cell_formula_units_Z   4
loop_
 _symmetry_equiv_pos_site_id
 _symmetry_equiv_pos_as_xyz
  1  'x, y, z'
loop_
 _atom_site_type_symbol
 _atom_site_label
 _atom_site_symmetry_multiplicity
 _atom_site_fract_x
 _atom_site_fract_y
 _atom_site_fract_z
 _atom_site_occupancy
  Sm  Sm0  1  0.25000000  0.60959354  0.64704343  1
  Sm  Sm1  1  0.25000000  0.36589180  0.14811916  1
  Sm  Sm2  1  0.25000000  0.89040646  0.14704343  1
  Sm  Sm3  1  0.75000000  0.10959354  0.85295657  1
  Sm  Sm4  1  0.75000000  0.63410820  0.85188084  1
  Sm  Sm5  1  0.25000000  0.13410820  0.64811916  1
  Sm  Sm6  1  0.75000000  0.86589180  0.35188084  1
  Sm  Sm7  1  0.75000000  0.39040646  0.35295657  1
  Ni  Ni8  1  0.75000000  0.35618127  0.56202162  1
  Ni  Ni9  1  0.25000000  0.64381873  0.43797838  1
  Ni  Ni10  1  0.75000000  0.14381873  0.06202162  1
  Ni  Ni11  1  0.25000000  0.85618127  0.93797838  1
  Sn  Sn12  1  0.25000000  0.60947546  0.00832116  1
  Sn  Sn13  1  0.75000000  0.87022715  0.00847634  1
  Sn  Sn14  1  0.75000000  0.62724132  0.17561056  1
  Sn  Sn15  1  0.25000000  0.12724132  0.32438944  1
  Sn  Sn16  1  0.75000000  0.39052454  0.99167884  1
  Sn  Sn17  1  0.75000000  0.37083787  0.70963394  1
  Sn  Sn18  1  0.75000000  0.62977285  0.50847634  1
  Sn  Sn19  1  0.25000000  0.87083787  0.79036606  1
  Sn  Sn20  1  0.75000000  0.10947546  0.49167884  1
  Sn  Sn21  1  0.25000000  0.37275868  0.82438944  1
  Sn  Sn22  1  0.75000000  0.12916213  0.20963394  1
  Sn  Sn23  1  0.25000000  0.37022715  0.49152366  1
  Sn  Sn24  1  0.25000000  0.62916213  0.29036606  1
  Sn  Sn25  1  0.75000000  0.87275868  0.67561056  1
  Sn  Sn26  1  0.25000000  0.89052454  0.50832116  1
  Sn  Sn27  1  0.25000000  0.12977285  0.99152366  1
