# generated using pymatgen
data_Tb2MnNiO6
_symmetry_space_group_name_H-M   'P 1'
_cell_length_a   5.29363264
_cell_length_b   5.60573290
_cell_length_c   7.59787661
_cell_angle_alpha   90.00000000
_cell_angle_beta   90.36516355
_cell_angle_gamma   90.00000000
_symmetry_Int_Tables_number   1
_chemical_formula_structural   Tb2MnNiO6
_chemical_formula_sum   'Tb4 Mn2 Ni2 O12'
_cell_volume   225.46005892
_cell_formula_units_Z   2
loop_
 _symmetry_equiv_pos_site_id
 _symmetry_equiv_pos_as_xyz
  1  'x, y, z'
loop_
 _atom_site_type_symbol
 _atom_site_label
 _atom_site_symmetry_multiplicity
 _atom_site_fract_x
 _atom_site_fract_y
 _atom_site_fract_z
 _atom_site_occupancy
  Tb  Tb0  1  0.48129808  0.57000269  0.25105651  1
  Tb  Tb1  1  0.98129808  0.92999731  0.75105651  1
  Tb  Tb2  1  0.01870192  0.07000269  0.24894349  1
  Tb  Tb3  1  0.51870192  0.42999731  0.74894349  1
  Mn  Mn4  1  0.00000000  0.50000000  0.50000000  1
  Mn  Mn5  1  0.50000000  0.00000000  0.00000000  1
  Ni  Ni6  1  0.50000000  0.00000000  0.50000000  1
  Ni  Ni7  1  0.00000000  0.50000000  0.00000000  1
  O  O8  1  0.68487959  0.70750191  0.94396113  1
  O  O9  1  0.60560396  0.96558074  0.24257033  1
  O  O10  1  0.18487959  0.79249809  0.44396113  1
  O  O11  1  0.10560396  0.53441926  0.74257033  1
  O  O12  1  0.31512041  0.29249809  0.05603887  1
  O  O13  1  0.89439604  0.46558074  0.25742967  1
  O  O14  1  0.29717368  0.31104621  0.44815486  1
  O  O15  1  0.81512041  0.20750191  0.55603887  1
  O  O16  1  0.79717368  0.18895379  0.94815486  1
  O  O17  1  0.39439604  0.03441926  0.75742967  1
  O  O18  1  0.70282632  0.68895379  0.55184514  1
  O  O19  1  0.20282632  0.81104621  0.05184514  1
