# generated using pymatgen
data_Ca(H2N)2
_symmetry_space_group_name_H-M   'P 1'
_cell_length_a   7.32149179
_cell_length_b   7.32860544
_cell_length_c   6.30853203
_cell_angle_alpha   90.00000000
_cell_angle_beta   124.97210909
_cell_angle_gamma   90.00000000
_symmetry_Int_Tables_number   1
_chemical_formula_structural   Ca(H2N)2
_chemical_formula_sum   'Ca4 H16 N8'
_cell_volume   277.37141793
_cell_formula_units_Z   4
loop_
 _symmetry_equiv_pos_site_id
 _symmetry_equiv_pos_as_xyz
  1  'x, y, z'
loop_
 _atom_site_type_symbol
 _atom_site_label
 _atom_site_symmetry_multiplicity
 _atom_site_fract_x
 _atom_site_fract_y
 _atom_site_fract_z
 _atom_site_occupancy
  Ca  Ca0  1  0.24904793  0.37913311  0.25335987  1
  Ca  Ca1  1  0.75095207  0.87913311  0.24664013  1
  Ca  Ca2  1  0.75095207  0.62086689  0.74664013  1
  Ca  Ca3  1  0.24904793  0.12086689  0.75335987  1
  H  H4  1  0.06608702  0.02827725  0.18954802  1
  H  H5  1  0.93391298  0.52827725  0.31045198  1
  H  H6  1  0.93391298  0.97172275  0.81045198  1
  H  H7  1  0.06608702  0.47172275  0.68954802  1
  H  H8  1  0.88218146  0.18131947  0.13030294  1
  H  H9  1  0.11781854  0.68131947  0.36969706  1
  H  H10  1  0.11781854  0.81868053  0.86969706  1
  H  H11  1  0.88218146  0.31868053  0.63030294  1
  H  H12  1  0.62761351  0.22964544  0.29314877  1
  H  H13  1  0.37238649  0.72964544  0.20685123  1
  H  H14  1  0.37238649  0.77035456  0.70685123  1
  H  H15  1  0.62761351  0.27035456  0.79314877  1
  H  H16  1  0.53271381  0.08818835  0.40430755  1
  H  H17  1  0.46728619  0.58818835  0.09569245  1
  H  H18  1  0.46728619  0.91181165  0.59569245  1
  H  H19  1  0.53271381  0.41181165  0.90430755  1
  N  N20  1  0.02447034  0.11905624  0.27981683  1
  N  N21  1  0.97552966  0.61905624  0.22018317  1
  N  N22  1  0.97552966  0.88094376  0.72018317  1
  N  N23  1  0.02447034  0.38094376  0.77981683  1
  N  N24  1  0.50140768  0.13703165  0.23317539  1
  N  N25  1  0.49859232  0.63703165  0.26682461  1
  N  N26  1  0.49859232  0.86296835  0.76682461  1
  N  N27  1  0.50140768  0.36296835  0.73317539  1
