# generated using pymatgen
data_LaCO3F
_symmetry_space_group_name_H-M   'P 1'
_cell_length_a   7.29338270
_cell_length_b   7.29338255
_cell_length_c   4.97384198
_cell_angle_alpha   90.00000000
_cell_angle_beta   90.00000000
_cell_angle_gamma   120.00000070
_symmetry_Int_Tables_number   1
_chemical_formula_structural   LaCO3F
_chemical_formula_sum   'La3 C3 O9 F3'
_cell_volume   229.12928934
_cell_formula_units_Z   3
loop_
 _symmetry_equiv_pos_site_id
 _symmetry_equiv_pos_as_xyz
  1  'x, y, z'
loop_
 _atom_site_type_symbol
 _atom_site_label
 _atom_site_symmetry_multiplicity
 _atom_site_fract_x
 _atom_site_fract_y
 _atom_site_fract_z
 _atom_site_occupancy
  La  La0  1  0.67179590  0.67179590  0.00000000  1
  La  La1  1  0.32820410  0.00000000  0.00000000  1
  La  La2  1  0.00000000  0.32820410  0.00000000  1
  C  C3  1  0.59974599  0.00000000  0.50000000  1
  C  C4  1  0.00000000  0.59974599  0.50000000  1
  C  C5  1  0.40025401  0.40025401  0.50000000  1
  O  O6  1  1.00000000  0.68384926  0.27141640  1
  O  O7  1  0.31615074  0.31615074  0.72858360  1
  O  O8  1  0.68384926  0.00000000  0.27141640  1
  O  O9  1  0.42043041  0.00000000  0.50000000  1
  O  O10  1  1.00000000  0.68384926  0.72858360  1
  O  O11  1  0.68384926  0.00000000  0.72858360  1
  O  O12  1  0.31615074  0.31615074  0.27141640  1
  O  O13  1  0.57956959  0.57956959  0.50000000  1
  O  O14  1  0.00000000  0.42043041  0.50000000  1
  F  F15  1  0.00000000  0.00000000  0.00000000  1
  F  F16  1  0.66666700  0.33333300  0.00000000  1
  F  F17  1  0.33333300  0.66666700  0.00000000  1
