# generated using pymatgen
data_NaCrS2
_symmetry_space_group_name_H-M   'P 1'
_cell_length_a   33.67352309
_cell_length_b   14.03809445
_cell_length_c   16.93096776
_cell_angle_alpha   172.17537744
_cell_angle_beta   173.95306502
_cell_angle_gamma   4.97506565
_symmetry_Int_Tables_number   1
_chemical_formula_structural   NaCrS2
_chemical_formula_sum   'Na1 Cr1 S2'
_cell_volume   73.11642423
_cell_formula_units_Z   1
loop_
 _symmetry_equiv_pos_site_id
 _symmetry_equiv_pos_as_xyz
  1  'x, y, z'
loop_
 _atom_site_type_symbol
 _atom_site_label
 _atom_site_symmetry_multiplicity
 _atom_site_fract_x
 _atom_site_fract_y
 _atom_site_fract_z
 _atom_site_occupancy
  Na  Na0  1  0.00000000  0.50000000  0.00000000  1
  Cr  Cr1  1  0.00000000  0.00000000  0.00000000  1
  S  S2  1  0.72305949  0.35825211  0.99999988  1
  S  S3  1  0.27694051  -0.35825211  0.00000012  1
