# generated using pymatgen
data_TmH9C5(NO4)2
_symmetry_space_group_name_H-M   'P 1'
_cell_length_a   6.71505756
_cell_length_b   8.53143026
_cell_length_c   9.72906524
_cell_angle_alpha   90.00000000
_cell_angle_beta   110.18807824
_cell_angle_gamma   90.00000000
_symmetry_Int_Tables_number   1
_chemical_formula_structural   TmH9C5(NO4)2
_chemical_formula_sum   'Tm2 H18 C10 N4 O16'
_cell_volume   523.12681960
_cell_formula_units_Z   2
loop_
 _symmetry_equiv_pos_site_id
 _symmetry_equiv_pos_as_xyz
  1  'x, y, z'
loop_
 _atom_site_type_symbol
 _atom_site_label
 _atom_site_symmetry_multiplicity
 _atom_site_fract_x
 _atom_site_fract_y
 _atom_site_fract_z
 _atom_site_occupancy
  Tm  Tm0  1  0.85782827  0.75000000  0.71565654  1
  Tm  Tm1  1  0.14217173  0.25000000  0.28434346  1
  H  H2  1  0.31316681  0.75000000  0.62633362  1
  H  H3  1  0.68683319  0.25000000  0.37366638  1
  H  H4  1  0.07642653  0.44051083  0.57960307  1
  H  H5  1  0.49682346  0.55948917  0.42039693  1
  H  H6  1  0.92357347  0.94051083  0.42039693  1
  H  H7  1  0.50317654  0.05948917  0.57960307  1
  H  H8  1  0.76566434  0.00000000  -0.00000000  1
  H  H9  1  0.23433566  0.50000000  -0.00000000  1
  H  H10  1  0.65522058  0.75000000  0.31044116  1
  H  H11  1  0.34477942  0.25000000  0.68955884  1
  H  H12  1  0.65852234  0.67061900  0.01143889  1
  H  H13  1  0.64708344  0.32938100  0.98856111  1
  H  H14  1  0.34147766  0.17061900  0.98856111  1
  H  H15  1  0.35291656  0.82938100  0.01143889  1
  H  H16  1  0.82867763  0.60193195  0.18562928  1
  H  H17  1  0.64304835  0.39806805  0.81437072  1
  H  H18  1  0.17132237  0.10193195  0.81437072  1
  H  H19  1  0.35695165  0.89806805  0.18562928  1
  C  C20  1  0.37380702  0.75000000  0.74761403  1
  C  C21  1  0.62619298  0.25000000  0.25238597  1
  C  C22  1  0.00613494  0.52433782  0.48855046  1
  C  C23  1  0.51758448  0.47566218  0.51144954  1
  C  C24  1  0.99386506  0.02433782  0.51144954  1
  C  C25  1  0.48241552  0.97566218  0.48855046  1
  C  C26  1  0.93039800  -0.00000000  -0.00000000  1
  C  C27  1  0.06960200  0.50000000  -0.00000000  1
  C  C28  1  0.59529621  0.75000000  0.19059243  1
  C  C29  1  0.40470379  0.25000000  0.80940757  1
  N  N30  1  0.69909998  0.66612561  0.12344795  1
  N  N31  1  0.57565203  0.33387439  0.87655205  1
  N  N32  1  0.30090002  0.16612561  0.87655205  1
  N  N33  1  0.42434797  0.83387439  0.12344795  1
  O  O34  1  0.97042822  0.92526658  0.90032648  1
  O  O35  1  0.07010174  0.07473342  0.09967352  1
  O  O36  1  0.02957178  0.42526658  0.09967352  1
  O  O37  1  0.92989826  0.57473342  0.90032648  1
  O  O38  1  0.24005155  0.73483596  0.81262336  1
  O  O39  1  0.42742819  0.26516404  0.18737664  1
  O  O40  1  0.75994845  0.23483596  0.18737664  1
  O  O41  1  0.57257181  0.76516404  0.81262336  1
  O  O42  1  0.93169875  0.65227187  0.51701563  1
  O  O43  1  0.41468312  0.34772813  0.48298437  1
  O  O44  1  0.06830125  0.15227187  0.48298437  1
  O  O45  1  0.58531688  0.84772813  0.51701563  1
  O  O46  1  0.99494875  0.98457791  0.63727067  1
  O  O47  1  0.35767809  0.01542209  0.36272933  1
  O  O48  1  0.00505125  0.48457791  0.36272933  1
  O  O49  1  0.64232191  0.51542209  0.63727067  1
