# generated using pymatgen
data_In4SnS4
_symmetry_space_group_name_H-M   'P 1'
_cell_length_a   12.64147889
_cell_length_b   12.64147889
_cell_length_c   12.64147889
_cell_angle_alpha   90.00000000
_cell_angle_beta   90.00000000
_cell_angle_gamma   90.00000000
_symmetry_Int_Tables_number   1
_chemical_formula_structural   In4SnS4
_chemical_formula_sum   'In32 Sn8 S32'
_cell_volume   2020.19667193
_cell_formula_units_Z   8
loop_
 _symmetry_equiv_pos_site_id
 _symmetry_equiv_pos_as_xyz
  1  'x, y, z'
loop_
 _atom_site_type_symbol
 _atom_site_label
 _atom_site_symmetry_multiplicity
 _atom_site_fract_x
 _atom_site_fract_y
 _atom_site_fract_z
 _atom_site_occupancy
  In  In0  1  0.76879278  0.02589659  0.43266780  1
  In  In1  1  0.52589659  0.43266780  0.73120722  1
  In  In2  1  0.23120722  0.97410341  0.56733220  1
  In  In3  1  0.22983903  0.72983903  0.77016097  1
  In  In4  1  0.56733220  0.26879278  0.47410341  1
  In  In5  1  0.76879278  0.47410341  0.93266780  1
  In  In6  1  0.22983903  0.77016097  0.27016097  1
  In  In7  1  0.43266780  0.76879278  0.02589659  1
  In  In8  1  0.93266780  0.76879278  0.47410341  1
  In  In9  1  0.47410341  0.56733220  0.26879278  1
  In  In10  1  0.26879278  0.02589659  0.06733220  1
  In  In11  1  0.93266780  0.73120722  0.97410341  1
  In  In12  1  0.77016097  0.27016097  0.22983903  1
  In  In13  1  0.02589659  0.43266780  0.76879278  1
  In  In14  1  0.56733220  0.23120722  0.97410341  1
  In  In15  1  0.26879278  0.47410341  0.56733220  1
  In  In16  1  0.73120722  0.52589659  0.43266780  1
  In  In17  1  0.72983903  0.72983903  0.72983903  1
  In  In18  1  0.23120722  0.52589659  0.06733220  1
  In  In19  1  0.02589659  0.06733220  0.26879278  1
  In  In20  1  0.52589659  0.06733220  0.23120722  1
  In  In21  1  0.97410341  0.93266780  0.73120722  1
  In  In22  1  0.27016097  0.22983903  0.77016097  1
  In  In23  1  0.43266780  0.73120722  0.52589659  1
  In  In24  1  0.72983903  0.77016097  0.22983903  1
  In  In25  1  0.47410341  0.93266780  0.76879278  1
  In  In26  1  0.73120722  0.97410341  0.93266780  1
  In  In27  1  0.77016097  0.22983903  0.72983903  1
  In  In28  1  0.06733220  0.23120722  0.52589659  1
  In  In29  1  0.97410341  0.56733220  0.23120722  1
  In  In30  1  0.06733220  0.26879278  0.02589659  1
  In  In31  1  0.27016097  0.27016097  0.27016097  1
  Sn  Sn32  1  0.60039953  0.89960047  0.10039953  1
  Sn  Sn33  1  0.60039953  0.60039953  0.60039953  1
  Sn  Sn34  1  0.39960047  0.10039953  0.89960047  1
  Sn  Sn35  1  0.89960047  0.10039953  0.60039953  1
  Sn  Sn36  1  0.89960047  0.39960047  0.10039953  1
  Sn  Sn37  1  0.10039953  0.89960047  0.39960047  1
  Sn  Sn38  1  0.10039953  0.60039953  0.89960047  1
  Sn  Sn39  1  0.39960047  0.39960047  0.39960047  1
  S  S40  1  0.07421372  0.25599973  0.32435605  1
  S  S41  1  0.42578628  0.75599973  0.32435605  1
  S  S42  1  0.75599973  0.17564395  0.92578628  1
  S  S43  1  0.25599973  0.32435605  0.07421372  1
  S  S44  1  0.92578628  0.75599973  0.17564395  1
  S  S45  1  0.57509068  0.42490932  0.92490932  1
  S  S46  1  0.74400027  0.82435605  0.42578628  1
  S  S47  1  0.92578628  0.74400027  0.67564395  1
  S  S48  1  0.67564395  0.92578628  0.74400027  1
  S  S49  1  0.42578628  0.74400027  0.82435605  1
  S  S50  1  0.17564395  0.92578628  0.75599973  1
  S  S51  1  0.57421372  0.25599973  0.17564395  1
  S  S52  1  0.07421372  0.24400027  0.82435605  1
  S  S53  1  0.75599973  0.32435605  0.42578628  1
  S  S54  1  0.82435605  0.07421372  0.24400027  1
  S  S55  1  0.07509068  0.42490932  0.57509068  1
  S  S56  1  0.17564395  0.57421372  0.25599973  1
  S  S57  1  0.82435605  0.42578628  0.74400027  1
  S  S58  1  0.57509068  0.07509068  0.42490932  1
  S  S59  1  0.07509068  0.07509068  0.07509068  1
  S  S60  1  0.25599973  0.17564395  0.57421372  1
  S  S61  1  0.67564395  0.57421372  0.24400027  1
  S  S62  1  0.42490932  0.57509068  0.07509068  1
  S  S63  1  0.24400027  0.67564395  0.57421372  1
  S  S64  1  0.74400027  0.67564395  0.92578628  1
  S  S65  1  0.32435605  0.42578628  0.75599973  1
  S  S66  1  0.32435605  0.07421372  0.25599973  1
  S  S67  1  0.24400027  0.82435605  0.07421372  1
  S  S68  1  0.42490932  0.92490932  0.57509068  1
  S  S69  1  0.92490932  0.92490932  0.92490932  1
  S  S70  1  0.57421372  0.24400027  0.67564395  1
  S  S71  1  0.92490932  0.57509068  0.42490932  1
