# generated using pymatgen
data_Er17(TeRu2)3
_symmetry_space_group_name_H-M   'P 1'
_cell_length_a   3.92701077
_cell_length_b   16.25962146
_cell_length_c   20.60712464
_cell_angle_alpha   95.58149862
_cell_angle_beta   95.46297317
_cell_angle_gamma   90.02738177
_symmetry_Int_Tables_number   1
_chemical_formula_structural   Er17(TeRu2)3
_chemical_formula_sum   'Er34 Te6 Ru12'
_cell_volume   1303.55063706
_cell_formula_units_Z   2
loop_
 _symmetry_equiv_pos_site_id
 _symmetry_equiv_pos_as_xyz
  1  'x, y, z'
loop_
 _atom_site_type_symbol
 _atom_site_label
 _atom_site_symmetry_multiplicity
 _atom_site_fract_x
 _atom_site_fract_y
 _atom_site_fract_z
 _atom_site_occupancy
  Er  Er0  1  0.73278671  0.92799378  0.45921281  1
  Er  Er1  1  0.35951107  0.07984384  0.71136788  1
  Er  Er2  1  0.73192565  0.41598592  0.46202402  1
  Er  Er3  1  0.86817946  0.90567185  0.73311505  1
  Er  Er4  1  0.81811383  0.22064884  0.63012968  1
  Er  Er5  1  0.86861169  0.40250198  0.73799776  1
  Er  Er6  1  0.18300596  0.77931268  0.36972671  1
  Er  Er7  1  0.47209902  0.16196757  0.94459907  1
  Er  Er8  1  0.55735066  0.10841728  0.11693365  1
  Er  Er9  1  0.13263180  0.59839741  0.26088390  1
  Er  Er10  1  0.56193321  0.60915487  0.11601262  1
  Er  Er11  1  0.90737215  0.22878630  0.81237161  1
  Er  Er12  1  0.52460283  0.83770918  0.05392587  1
  Er  Er13  1  0.09198827  0.26759541  0.18091542  1
  Er  Er14  1  0.36192163  0.57931124  0.72310646  1
  Er  Er15  1  0.64473384  0.42166972  0.27738909  1
  Er  Er16  1  0.64330721  0.92063590  0.28810637  1
  Er  Er17  1  0.47863916  0.66392930  0.94866401  1
  Er  Er18  1  0.69565844  0.60174831  0.39123945  1
  Er  Er19  1  0.43947641  0.89199928  0.88289582  1
  Er  Er20  1  0.70473058  0.12389220  0.40367909  1
  Er  Er21  1  0.29947062  0.87514459  0.59627355  1
  Er  Er22  1  0.18254438  0.29167851  0.35297331  1
  Er  Er23  1  0.52614145  0.33431629  0.05056985  1
  Er  Er24  1  0.99786691  0.00013586  -0.00001245  1
  Er  Er25  1  0.09509385  0.77171207  0.18667864  1
  Er  Er26  1  0.82245488  0.70911552  0.64762135  1
  Er  Er27  1  0.13666369  0.09583250  0.26665324  1
  Er  Er28  1  0.90811584  0.73325491  0.81855057  1
  Er  Er29  1  0.44195556  0.39030930  0.88277541  1
  Er  Er30  1  0.27435286  0.07009408  0.54012594  1
  Er  Er31  1  0.30192188  0.39913617  0.60774025  1
  Er  Er32  1  0.00330392  0.49882336  0.99976523  1
  Er  Er33  1  0.26872286  0.58556750  0.53822973  1
  Te  Te34  1  0.74744857  0.74726559  0.50024305  1
  Te  Te35  1  0.07692888  0.45279860  0.14861341  1
  Te  Te36  1  0.25344487  0.25123493  0.50005499  1
  Te  Te37  1  0.07181181  0.95444865  0.15128323  1
  Te  Te38  1  0.93313267  0.54698857  0.85126152  1
  Te  Te39  1  0.92448481  0.04616262  0.84839215  1
  Ru  Ru40  1  0.97397735  0.80976630  0.95154719  1
  Ru  Ru41  1  0.36324132  0.27516887  0.72372468  1
  Ru  Ru42  1  0.03066434  0.69171856  0.05118080  1
  Ru  Ru43  1  0.63822015  0.72572055  0.27608722  1
  Ru  Ru44  1  0.19311020  0.99411684  0.38096114  1
  Ru  Ru45  1  0.81380320  0.00534091  0.61883815  1
  Ru  Ru46  1  0.63858568  0.22119677  0.26797497  1
  Ru  Ru47  1  0.19171110  0.47653557  0.37629878  1
  Ru  Ru48  1  0.02125146  0.18977995  0.04792346  1
  Ru  Ru49  1  0.80895814  0.52429251  0.62427068  1
  Ru  Ru50  1  0.36486548  0.78076599  0.73166507  1
  Ru  Ru51  1  0.97209768  0.30762475  0.94803258  1
