# generated using pymatgen
data_RbCrF5
_symmetry_space_group_name_H-M   'P 1'
_cell_length_a   5.65944274
_cell_length_b   7.85281867
_cell_length_c   10.50151849
_cell_angle_alpha   90.00000000
_cell_angle_beta   90.00000000
_cell_angle_gamma   90.00000000
_symmetry_Int_Tables_number   1
_chemical_formula_structural   RbCrF5
_chemical_formula_sum   'Rb4 Cr4 F20'
_cell_volume   466.71455052
_cell_formula_units_Z   4
loop_
 _symmetry_equiv_pos_site_id
 _symmetry_equiv_pos_as_xyz
  1  'x, y, z'
loop_
 _atom_site_type_symbol
 _atom_site_label
 _atom_site_symmetry_multiplicity
 _atom_site_fract_x
 _atom_site_fract_y
 _atom_site_fract_z
 _atom_site_occupancy
  Rb  Rb0  1  0.50000000  0.88706022  0.98160656  1
  Rb  Rb1  1  0.50000000  0.11293978  0.48160656  1
  Rb  Rb2  1  0.00000000  0.37357336  0.12616718  1
  Rb  Rb3  1  0.00000000  0.62642664  0.62616718  1
  Cr  Cr4  1  0.00000000  0.88162663  0.24222027  1
  Cr  Cr5  1  0.50000000  0.57620940  0.33842294  1
  Cr  Cr6  1  0.50000000  0.42379060  0.83842294  1
  Cr  Cr7  1  0.00000000  0.11837337  0.74222027  1
  F  F8  1  0.27197143  0.54746419  0.91760451  1
  F  F9  1  0.74911731  0.70294105  0.24306750  1
  F  F10  1  0.22738098  0.04507133  0.23293240  1
  F  F11  1  0.74911731  0.29705895  0.74306750  1
  F  F12  1  0.50000000  0.25057142  0.95160428  1
  F  F13  1  0.77261902  0.95492867  0.73293240  1
  F  F14  1  0.50000000  0.56042253  0.69855670  1
  F  F15  1  0.22738098  0.95492867  0.73293240  1
  F  F16  1  0.00000000  0.83936605  0.07214599  1
  F  F17  1  0.77261902  0.04507133  0.23293240  1
  F  F18  1  0.50000000  0.43957747  0.19855670  1
  F  F19  1  0.72802857  0.45253581  0.41760451  1
  F  F20  1  0.25088269  0.70294105  0.24306750  1
  F  F21  1  0.00000000  0.86491261  0.41357727  1
  F  F22  1  0.00000000  0.16063395  0.57214599  1
  F  F23  1  0.25088269  0.29705895  0.74306750  1
  F  F24  1  0.00000000  0.13508739  0.91357727  1
  F  F25  1  0.27197143  0.45253581  0.41760451  1
  F  F26  1  0.50000000  0.74942858  0.45160428  1
  F  F27  1  0.72802857  0.54746419  0.91760451  1
