# generated using pymatgen
data_CdH7C3NO6
_symmetry_space_group_name_H-M   'P 1'
_cell_length_a   7.12442794
_cell_length_b   9.73125418
_cell_length_c   11.13210368
_cell_angle_alpha   90.00000000
_cell_angle_beta   90.00000000
_cell_angle_gamma   90.00000000
_symmetry_Int_Tables_number   1
_chemical_formula_structural   CdH7C3NO6
_chemical_formula_sum   'Cd4 H28 C12 N4 O24'
_cell_volume   771.78450871
_cell_formula_units_Z   4
loop_
 _symmetry_equiv_pos_site_id
 _symmetry_equiv_pos_as_xyz
  1  'x, y, z'
loop_
 _atom_site_type_symbol
 _atom_site_label
 _atom_site_symmetry_multiplicity
 _atom_site_fract_x
 _atom_site_fract_y
 _atom_site_fract_z
 _atom_site_occupancy
  Cd  Cd0  1  0.60113616  0.00461193  0.96805469  1
  Cd  Cd1  1  0.39886384  0.99538807  0.46805469  1
  Cd  Cd2  1  0.89886384  0.50461193  0.46805469  1
  Cd  Cd3  1  0.10113616  0.49538807  0.96805469  1
  H  H4  1  0.54193690  0.25993491  0.81454778  1
  H  H5  1  0.45806310  0.74006509  0.31454778  1
  H  H6  1  0.95806310  0.75993491  0.31454778  1
  H  H7  1  0.04193690  0.24006509  0.81454778  1
  H  H8  1  0.62700723  0.72755307  0.09075729  1
  H  H9  1  0.37299277  0.27244693  0.59075729  1
  H  H10  1  0.87299277  0.22755307  0.59075729  1
  H  H11  1  0.12700723  0.77244693  0.09075729  1
  H  H12  1  0.26335006  0.53993837  0.66762815  1
  H  H13  1  0.73664994  0.46006163  0.16762815  1
  H  H14  1  0.23664994  0.03993837  0.16762815  1
  H  H15  1  0.76335006  0.96006163  0.66762815  1
  H  H16  1  0.31113121  0.69659176  0.61614543  1
  H  H17  1  0.68886879  0.30340824  0.11614543  1
  H  H18  1  0.18886879  0.19659176  0.11614543  1
  H  H19  1  0.81113121  0.80340824  0.61614543  1
  H  H20  1  0.77992602  0.01661147  0.32834481  1
  H  H21  1  0.22007398  0.98338853  0.82834481  1
  H  H22  1  0.72007398  0.51661147  0.82834481  1
  H  H23  1  0.27992602  0.48338853  0.32834481  1
  H  H24  1  0.49141947  0.59267324  0.66261387  1
  H  H25  1  0.50858053  0.40732676  0.16261387  1
  H  H26  1  0.00858053  0.09267324  0.16261387  1
  H  H27  1  0.99141947  0.90732676  0.66261387  1
  H  H28  1  0.33921623  0.66287503  0.76353348  1
  H  H29  1  0.66078377  0.33712497  0.26353348  1
  H  H30  1  0.16078377  0.16287503  0.26353348  1
  H  H31  1  0.83921623  0.83712497  0.76353348  1
  C  C32  1  0.68460836  0.03106640  0.25077011  1
  C  C33  1  0.31539164  0.96893360  0.75077011  1
  C  C34  1  0.81539164  0.53106640  0.75077011  1
  C  C35  1  0.18460836  0.46893360  0.25077011  1
  C  C36  1  0.74348568  0.70702305  0.02674256  1
  C  C37  1  0.25651432  0.29297695  0.52674256  1
  C  C38  1  0.75651432  0.20702305  0.52674256  1
  C  C39  1  0.24348568  0.79297695  0.02674256  1
  C  C40  1  0.43918748  0.29057900  0.88474712  1
  C  C41  1  0.56081252  0.70942100  0.38474712  1
  C  C42  1  0.06081252  0.79057900  0.38474712  1
  C  C43  1  0.93918748  0.20942100  0.88474712  1
  N  N44  1  0.35224302  0.62363771  0.67780449  1
  N  N45  1  0.64775698  0.37636229  0.17780449  1
  N  N46  1  0.14775698  0.12363771  0.17780449  1
  N  N47  1  0.85224302  0.87636229  0.67780449  1
  O  O48  1  0.42361763  0.21226880  0.97591459  1
  O  O49  1  0.57638237  0.78773120  0.47591459  1
  O  O50  1  0.07638237  0.71226880  0.47591459  1
  O  O51  1  0.92361763  0.28773120  0.97591459  1
  O  O52  1  0.77292139  0.79459335  0.94455508  1
  O  O53  1  0.22707861  0.20540665  0.44455508  1
  O  O54  1  0.72707861  0.29459335  0.44455508  1
  O  O55  1  0.27292139  0.70540665  0.94455508  1
  O  O56  1  0.76455445  0.04460426  0.14827589  1
  O  O57  1  0.23544555  0.95539574  0.64827589  1
  O  O58  1  0.73544555  0.54460426  0.64827589  1
  O  O59  1  0.26455445  0.45539574  0.14827589  1
  O  O60  1  0.34879963  0.40003107  0.86433531  1
  O  O61  1  0.65120037  0.59996893  0.36433531  1
  O  O62  1  0.15120037  0.90003107  0.36433531  1
  O  O63  1  0.84879963  0.09996893  0.86433531  1
  O  O64  1  0.48984491  0.96675891  0.76930736  1
  O  O65  1  0.51015509  0.03324109  0.26930736  1
  O  O66  1  0.01015509  0.46675891  0.26930736  1
  O  O67  1  0.98984491  0.53324109  0.76930736  1
  O  O68  1  0.33275294  0.90388239  0.04582199  1
  O  O69  1  0.66724706  0.09611761  0.54582199  1
  O  O70  1  0.16724706  0.40388239  0.54582199  1
  O  O71  1  0.83275294  0.59611761  0.04582199  1
