# generated using pymatgen
data_Na5Gd(MoO4)4
_symmetry_space_group_name_H-M   'P 1'
_cell_length_a   10.05847849
_cell_length_b   10.05847826
_cell_length_c   10.05847825
_cell_angle_alpha   109.54104975
_cell_angle_beta   109.43631688
_cell_angle_gamma   109.43632046
_symmetry_Int_Tables_number   1
_chemical_formula_structural   Na5Gd(MoO4)4
_chemical_formula_sum   'Na10 Gd2 Mo8 O32'
_cell_volume   783.38358256
_cell_formula_units_Z   2
loop_
 _symmetry_equiv_pos_site_id
 _symmetry_equiv_pos_as_xyz
  1  'x, y, z'
loop_
 _atom_site_type_symbol
 _atom_site_label
 _atom_site_symmetry_multiplicity
 _atom_site_fract_x
 _atom_site_fract_y
 _atom_site_fract_z
 _atom_site_occupancy
  Na  Na0  1  0.66725478  0.70328002  0.27897608  1
  Na  Na1  1  0.33274522  0.29671998  0.72102392  1
  Na  Na2  1  0.25000000  0.37500000  0.12500000  1
  Na  Na3  1  0.42430394  0.22102392  0.38827871  1
  Na  Na4  1  0.57569606  0.77897608  0.61172129  1
  Na  Na5  1  0.83274522  0.11172129  0.03602523  1
  Na  Na6  1  0.92430394  0.53602523  0.20328002  1
  Na  Na7  1  0.16725478  0.88827871  0.96397477  1
  Na  Na8  1  0.07569606  0.46397477  0.79671998  1
  Na  Na9  1  0.75000000  0.62500000  0.87500000  1
  Gd  Gd10  1  0.75000000  0.12500000  0.37500000  1
  Gd  Gd11  1  0.25000000  0.87500000  0.62500000  1
  Mo  Mo12  1  0.02446072  0.95501317  0.29153528  1
  Mo  Mo13  1  0.83652212  0.56944755  0.54498683  1
  Mo  Mo14  1  0.97553928  0.04498683  0.70846472  1
  Mo  Mo15  1  0.66347788  0.20846472  0.73292543  1
  Mo  Mo16  1  0.52446072  0.23292543  0.06944755  1
  Mo  Mo17  1  0.47553928  0.76707457  0.93055245  1
  Mo  Mo18  1  0.33652212  0.79153528  0.26707457  1
  Mo  Mo19  1  0.16347788  0.43055245  0.45501317  1
  O  O20  1  0.14249487  0.98501165  0.19555656  1
  O  O21  1  0.42223429  0.15139899  0.85108616  1
  O  O22  1  0.13170014  0.25577343  0.82785920  1
  O  O23  1  0.65350068  0.14869659  0.13337425  1
  O  O24  1  0.07208577  0.37592671  0.24422657  1
  O  O25  1  0.86829986  0.74422657  0.17214080  1
  O  O26  1  0.01532234  0.36662575  0.52012643  1
  O  O27  1  0.85750513  0.01498835  0.80444344  1
  O  O28  1  0.57776571  0.84860101  0.14891384  1
  O  O29  1  0.84649932  0.97987357  0.49519591  1
  O  O30  1  0.48467766  0.00480409  0.35130341  1
  O  O31  1  0.51532234  0.99519591  0.64869659  1
  O  O32  1  0.34649932  0.85130341  0.86662575  1
  O  O33  1  0.15350068  0.02012643  0.50480409  1
  O  O34  1  0.30031284  0.64891384  0.57114814  1
  O  O35  1  0.57208577  0.32785920  0.69615906  1
  O  O36  1  0.28945509  0.34251678  0.48501165  1
  O  O37  1  0.19968716  0.77083530  0.34860101  1
  O  O38  1  0.80031284  0.22916470  0.65139899  1
  O  O39  1  0.92223429  0.07114814  0.27083530  1
  O  O40  1  0.42791423  0.67214080  0.30384094  1
  O  O41  1  0.21054491  0.69555656  0.05306169  1
  O  O42  1  0.92791423  0.62407329  0.75577343  1
  O  O43  1  0.69968716  0.35108616  0.42885186  1
  O  O44  1  0.63170014  0.80384094  0.87592671  1
  O  O45  1  0.78945509  0.30444344  0.94693831  1
  O  O46  1  0.98467766  0.63337425  0.47987357  1
  O  O47  1  0.64249487  0.44693831  0.15748322  1
  O  O48  1  0.35750513  0.55306169  0.84251678  1
  O  O49  1  0.71054491  0.65748322  0.51498835  1
  O  O50  1  0.36829986  0.19615906  0.12407329  1
  O  O51  1  0.07776571  0.92885186  0.72916470  1
