# generated using pymatgen
data_Sm6InCo2
_symmetry_space_group_name_H-M   'P 1'
_cell_length_a   8.54934420
_cell_length_b   8.54934431
_cell_length_c   8.54934368
_cell_angle_alpha   107.18630201
_cell_angle_beta   108.85596382
_cell_angle_gamma   112.41609960
_symmetry_Int_Tables_number   1
_chemical_formula_structural   Sm6InCo2
_chemical_formula_sum   'Sm12 In2 Co4'
_cell_volume   479.97979069
_cell_formula_units_Z   2
loop_
 _symmetry_equiv_pos_site_id
 _symmetry_equiv_pos_as_xyz
  1  'x, y, z'
loop_
 _atom_site_type_symbol
 _atom_site_label
 _atom_site_symmetry_multiplicity
 _atom_site_fract_x
 _atom_site_fract_y
 _atom_site_fract_z
 _atom_site_occupancy
  Sm  Sm0  1  0.18832422  0.50917715  0.32085292  1
  Sm  Sm1  1  0.02816566  0.21276583  0.81539983  1
  Sm  Sm2  1  0.70784365  0.73206797  0.43991163  1
  Sm  Sm3  1  0.81167578  0.49082285  0.67914708  1
  Sm  Sm4  1  0.81167578  0.13252870  0.32085292  1
  Sm  Sm5  1  0.60263400  0.78723417  0.81539983  1
  Sm  Sm6  1  0.29215635  0.26793203  0.56008837  1
  Sm  Sm7  1  0.97183434  0.78723417  0.18460017  1
  Sm  Sm8  1  0.29215635  0.73206797  0.02422432  1
  Sm  Sm9  1  0.39736600  0.21276583  0.18460017  1
  Sm  Sm10  1  0.70784365  0.26793203  0.97577568  1
  Sm  Sm11  1  0.18832422  0.86747130  0.67914708  1
  In  In12  1  0.50000000  0.00000000  0.50000000  1
  In  In13  1  0.50000000  0.50000000  0.00000000  1
  Co  Co14  1  0.85369731  0.50000000  0.35369731  1
  Co  Co15  1  1.00000000  0.10996811  0.10996811  1
  Co  Co16  1  0.00000000  0.89003189  0.89003189  1
  Co  Co17  1  0.14630269  0.50000000  0.64630269  1
