# generated using pymatgen
data_K2CoP2WO10
_symmetry_space_group_name_H-M   'P 1'
_cell_length_a   9.34917038
_cell_length_b   9.34917038
_cell_length_c   10.85535813
_cell_angle_alpha   90.00000000
_cell_angle_beta   90.00000000
_cell_angle_gamma   90.00000000
_symmetry_Int_Tables_number   1
_chemical_formula_structural   K2CoP2WO10
_chemical_formula_sum   'K8 Co4 P8 W4 O40'
_cell_volume   948.83414472
_cell_formula_units_Z   4
loop_
 _symmetry_equiv_pos_site_id
 _symmetry_equiv_pos_as_xyz
  1  'x, y, z'
loop_
 _atom_site_type_symbol
 _atom_site_label
 _atom_site_symmetry_multiplicity
 _atom_site_fract_x
 _atom_site_fract_y
 _atom_site_fract_z
 _atom_site_occupancy
  K  K0  1  0.70246162  0.00290569  0.92868536  1
  K  K1  1  0.29753838  0.99709431  0.42868536  1
  K  K2  1  0.79753838  0.50290569  0.32131464  1
  K  K3  1  0.20246162  0.49709431  0.82131464  1
  K  K4  1  0.99709431  0.29753838  0.57131464  1
  K  K5  1  0.49709431  0.20246162  0.17868536  1
  K  K6  1  0.00290569  0.70246162  0.07131464  1
  K  K7  1  0.50290569  0.79753838  0.67868536  1
  Co  Co8  1  0.86270110  0.13729890  0.25000000  1
  Co  Co9  1  0.63729890  0.63729890  0.00000000  1
  Co  Co10  1  0.36270110  0.36270110  0.50000000  1
  Co  Co11  1  0.13729890  0.86270110  0.75000000  1
  P  P12  1  0.67658084  0.83002677  0.25206062  1
  P  P13  1  0.66997323  0.17658084  0.50206062  1
  P  P14  1  0.82341916  0.33002677  0.99793938  1
  P  P15  1  0.32341916  0.16997323  0.75206062  1
  P  P16  1  0.83002677  0.67658084  0.74793938  1
  P  P17  1  0.16997323  0.32341916  0.24793938  1
  P  P18  1  0.33002677  0.82341916  0.00206062  1
  P  P19  1  0.17658084  0.66997323  0.49793938  1
  W  W20  1  0.38837606  0.61162394  0.25000000  1
  W  W21  1  0.61162394  0.38837606  0.75000000  1
  W  W22  1  0.88837606  0.88837606  0.50000000  1
  W  W23  1  0.11162394  0.11162394  0.00000000  1
  O  O24  1  0.78278609  0.75918345  0.62829954  1
  O  O25  1  0.00475141  0.95618139  0.61963725  1
  O  O26  1  0.25918345  0.71721391  0.37829954  1
  O  O27  1  0.95618139  0.00475141  0.38036275  1
  O  O28  1  0.21714615  0.48456808  0.22119044  1
  O  O29  1  0.74081655  0.28278609  0.87829954  1
  O  O30  1  0.54381861  0.50475141  0.86963725  1
  O  O31  1  0.23827436  0.75666334  0.60587072  1
  O  O32  1  0.98456808  0.28285385  0.97119044  1
  O  O33  1  0.78285385  0.51543192  0.72119044  1
  O  O34  1  0.31883944  0.00893367  0.73191620  1
  O  O35  1  0.26172564  0.25666334  0.64412928  1
  O  O36  1  0.28285385  0.98456808  0.02880956  1
  O  O37  1  0.49524859  0.45618139  0.63036275  1
  O  O38  1  0.71721391  0.25918345  0.62170046  1
  O  O39  1  0.51543192  0.78285385  0.27880956  1
  O  O40  1  0.49106633  0.81883944  0.98191620  1
  O  O41  1  0.24081655  0.21721391  0.87170046  1
  O  O42  1  0.21721391  0.24081655  0.12829954  1
  O  O43  1  0.45618139  0.49524859  0.36963725  1
  O  O44  1  0.04381861  0.99524859  0.88036275  1
  O  O45  1  0.75666334  0.23827436  0.39412928  1
  O  O46  1  0.18116056  0.50893367  0.51808380  1
  O  O47  1  0.01543192  0.71714615  0.47119044  1
  O  O48  1  0.25666334  0.26172564  0.35587072  1
  O  O49  1  0.00893367  0.31883944  0.26808380  1
  O  O50  1  0.71714615  0.01543192  0.52880956  1
  O  O51  1  0.81883944  0.49106633  0.01808380  1
  O  O52  1  0.68116056  0.99106633  0.23191620  1
  O  O53  1  0.76172564  0.24333666  0.10587072  1
  O  O54  1  0.75918345  0.78278609  0.37170046  1
  O  O55  1  0.28278609  0.74081655  0.12170046  1
  O  O56  1  0.99106633  0.68116056  0.76808380  1
  O  O57  1  0.99524859  0.04381861  0.11963725  1
  O  O58  1  0.24333666  0.76172564  0.89412928  1
  O  O59  1  0.50475141  0.54381861  0.13036275  1
  O  O60  1  0.74333666  0.73827436  0.85587072  1
  O  O61  1  0.73827436  0.74333666  0.14412928  1
  O  O62  1  0.50893367  0.18116056  0.48191620  1
  O  O63  1  0.48456808  0.21714615  0.77880956  1
