# generated using pymatgen
data_CsMo4(PO4)7
_symmetry_space_group_name_H-M   'P 1'
_cell_length_a   9.66643909
_cell_length_b   10.97551289
_cell_length_c   12.75508220
_cell_angle_alpha   94.28753640
_cell_angle_beta   102.54585400
_cell_angle_gamma   104.10624800
_symmetry_Int_Tables_number   1
_chemical_formula_structural   CsMo4(PO4)7
_chemical_formula_sum   'Cs2 Mo8 P14 O56'
_cell_volume   1269.38606509
_cell_formula_units_Z   2
loop_
 _symmetry_equiv_pos_site_id
 _symmetry_equiv_pos_as_xyz
  1  'x, y, z'
loop_
 _atom_site_type_symbol
 _atom_site_label
 _atom_site_symmetry_multiplicity
 _atom_site_fract_x
 _atom_site_fract_y
 _atom_site_fract_z
 _atom_site_occupancy
  Cs  Cs0  1  0.98088839  0.78427762  0.23556736  1
  Cs  Cs1  1  0.01911161  0.21572238  0.76443264  1
  Mo  Mo2  1  0.73053710  0.51853590  0.39700501  1
  Mo  Mo3  1  0.72602171  0.97877444  0.90755532  1
  Mo  Mo4  1  0.26946290  0.48146410  0.60299499  1
  Mo  Mo5  1  0.72381895  0.99186392  0.40385614  1
  Mo  Mo6  1  0.74758612  0.51604997  0.87791767  1
  Mo  Mo7  1  0.27397829  0.02122556  0.09244468  1
  Mo  Mo8  1  0.27618105  0.00813608  0.59614386  1
  Mo  Mo9  1  0.25241388  0.48395003  0.12208233  1
  P  P10  1  0.37254330  0.05587795  0.35808525  1
  P  P11  1  0.09177048  0.69973062  0.97598155  1
  P  P12  1  0.04544389  0.58645258  0.75475209  1
  P  P13  1  0.58141127  0.71520464  0.74240757  1
  P  P14  1  0.41858873  0.28479536  0.25759243  1
  P  P15  1  0.39030027  0.07233981  0.86169574  1
  P  P16  1  0.06062028  0.68879521  0.54680266  1
  P  P17  1  0.95455611  0.41354742  0.24524791  1
  P  P18  1  0.93937972  0.31120479  0.45319734  1
  P  P19  1  0.90822952  0.30026938  0.02401845  1
  P  P20  1  0.62745670  0.94412205  0.64191475  1
  P  P21  1  0.54568015  0.71560606  0.26581609  1
  P  P22  1  0.60969973  0.92766019  0.13830426  1
  P  P23  1  0.45431985  0.28439394  0.73418391  1
  O  O24  1  0.99361533  0.33315499  0.34226609  1
  O  O25  1  0.15386365  0.51596132  0.73253222  1
  O  O26  1  0.90701449  0.50487244  0.77633544  1
  O  O27  1  0.07507796  0.33637654  0.03593363  1
  O  O28  1  0.69313474  0.01625998  0.24417569  1
  O  O29  1  0.30686526  0.98374002  0.75582431  1
  O  O30  1  0.14989874  0.59565764  0.52833046  1
  O  O31  1  0.87822632  0.30222576  0.14479545  1
  O  O32  1  0.34735700  0.36699038  0.70930009  1
  O  O33  1  0.61512756  0.36029116  0.77161521  1
  O  O34  1  0.72428320  0.99028272  0.56512545  1
  O  O35  1  0.45920655  0.94469719  0.09277024  1
  O  O36  1  0.12177368  0.69777424  0.85520455  1
  O  O37  1  0.13445977  0.07648666  0.59384558  1
  O  O38  1  0.15029116  0.82449188  0.55797388  1
  O  O39  1  0.34938112  0.45333163  0.50139054  1
  O  O40  1  0.84970884  0.17550812  0.44202612  1
  O  O41  1  0.16306532  0.60439391  0.03080959  1
  O  O42  1  0.31093643  0.36575672  0.23261975  1
  O  O43  1  0.09298551  0.49512756  0.22366456  1
  O  O44  1  0.40693423  0.21749193  0.83441849  1
  O  O45  1  0.41893719  0.19427233  0.15919488  1
  O  O46  1  0.70087077  0.02800936  0.75256215  1
  O  O47  1  0.54079345  0.05530281  0.90722976  1
  O  O48  1  0.63264153  0.54191362  0.95504929  1
  O  O49  1  0.00638467  0.66684501  0.65773391  1
  O  O50  1  0.29912923  0.97199064  0.24743785  1
  O  O51  1  0.68906357  0.63424328  0.76738025  1
  O  O52  1  0.46585166  0.93552140  0.60177296  1
  O  O53  1  0.83693468  0.39560609  0.96919041  1
  O  O54  1  0.57573772  0.36049963  0.31152171  1
  O  O55  1  0.58106281  0.80572767  0.84080512  1
  O  O56  1  0.11824390  0.06741688  0.09374939  1
  O  O57  1  0.27571680  0.00971728  0.43487455  1
  O  O58  1  0.64285879  0.80192929  0.65676900  1
  O  O59  1  0.86554023  0.92351334  0.40615442  1
  O  O60  1  0.84112481  0.16654637  0.96742658  1
  O  O61  1  0.36735847  0.45808638  0.04495071  1
  O  O62  1  0.65061888  0.54666837  0.49860946  1
  O  O63  1  0.15887519  0.83345363  0.03257342  1
  O  O64  1  0.35714121  0.19807071  0.34323100  1
  O  O65  1  0.92079267  0.66660580  0.45585967  1
  O  O66  1  0.59306577  0.78250807  0.16558151  1
  O  O67  1  0.70883911  0.93728057  0.05943286  1
  O  O68  1  0.56379002  0.81937047  0.35894704  1
  O  O69  1  0.88175610  0.93258312  0.90625061  1
  O  O70  1  0.29116089  0.06271943  0.94056714  1
  O  O71  1  0.84613635  0.48403868  0.26746778  1
  O  O72  1  0.92492204  0.66362346  0.96406637  1
  O  O73  1  0.42426228  0.63950037  0.68847829  1
  O  O74  1  0.85010126  0.40434236  0.47166954  1
  O  O75  1  0.07920733  0.33339420  0.54414033  1
  O  O76  1  0.65264300  0.63300962  0.29069991  1
  O  O77  1  0.53414834  0.06447860  0.39822704  1
  O  O78  1  0.43620998  0.18062953  0.64105296  1
  O  O79  1  0.38487244  0.63970884  0.22838479  1
