# generated using pymatgen
data_Ca4In3Au10
_symmetry_space_group_name_H-M   'P 1'
_cell_length_a   8.66779849
_cell_length_b   8.66779818
_cell_length_c   10.32359008
_cell_angle_alpha   90.00000000
_cell_angle_beta   90.00000000
_cell_angle_gamma   107.70589814
_symmetry_Int_Tables_number   1
_chemical_formula_structural   Ca4In3Au10
_chemical_formula_sum   'Ca8 In6 Au20'
_cell_volume   738.87791270
_cell_formula_units_Z   2
loop_
 _symmetry_equiv_pos_site_id
 _symmetry_equiv_pos_as_xyz
  1  'x, y, z'
loop_
 _atom_site_type_symbol
 _atom_site_label
 _atom_site_symmetry_multiplicity
 _atom_site_fract_x
 _atom_site_fract_y
 _atom_site_fract_z
 _atom_site_occupancy
  Ca  Ca0  1  0.30252355  0.69747645  0.00000000  1
  Ca  Ca1  1  0.80252355  0.19747645  0.50000000  1
  Ca  Ca2  1  0.80289307  0.80289307  0.29788161  1
  Ca  Ca3  1  0.30289307  0.30289307  0.20211839  1
  Ca  Ca4  1  0.19747645  0.80252355  0.50000000  1
  Ca  Ca5  1  0.69747645  0.30252355  0.00000000  1
  Ca  Ca6  1  0.69710693  0.69710693  0.79788161  1
  Ca  Ca7  1  0.19710693  0.19710693  0.70211839  1
  In  In8  1  0.01933521  0.51933521  0.25000000  1
  In  In9  1  0.48066479  0.98066479  0.75000000  1
  In  In10  1  0.00000000  0.00000000  0.00000000  1
  In  In11  1  0.51933521  0.01933521  0.25000000  1
  In  In12  1  0.98066479  0.48066479  0.75000000  1
  In  In13  1  0.50000000  0.50000000  0.50000000  1
  Au  Au14  1  0.43403561  0.15179411  0.48191785  1
  Au  Au15  1  0.90181704  0.90181704  0.59580420  1
  Au  Au16  1  0.84820589  0.56596439  0.51808215  1
  Au  Au17  1  0.16862777  0.88587953  0.20748239  1
  Au  Au18  1  0.66862777  0.38587953  0.29251761  1
  Au  Au19  1  0.38587953  0.66862777  0.29251761  1
  Au  Au20  1  0.40181704  0.40181704  0.90419580  1
  Au  Au21  1  0.65179411  0.93403561  0.01808215  1
  Au  Au22  1  0.61412047  0.33137223  0.70748239  1
  Au  Au23  1  0.06596439  0.34820589  0.98191785  1
  Au  Au24  1  0.59818296  0.59818296  0.09580420  1
  Au  Au25  1  0.93403561  0.65179411  0.01808215  1
  Au  Au26  1  0.09818296  0.09818296  0.40419580  1
  Au  Au27  1  0.33137223  0.61412047  0.70748239  1
  Au  Au28  1  0.83137223  0.11412047  0.79251761  1
  Au  Au29  1  0.34820589  0.06596439  0.98191785  1
  Au  Au30  1  0.56596439  0.84820589  0.51808215  1
  Au  Au31  1  0.88587953  0.16862777  0.20748239  1
  Au  Au32  1  0.15179411  0.43403561  0.48191785  1
  Au  Au33  1  0.11412047  0.83137223  0.79251761  1
