# generated using pymatgen
data_NaCrF6
_symmetry_space_group_name_H-M   'P 1'
_cell_length_a   5.93040020
_cell_length_b   7.86573865
_cell_length_c   9.56554190
_cell_angle_alpha   90.00000000
_cell_angle_beta   90.00000000
_cell_angle_gamma   90.00000000
_symmetry_Int_Tables_number   1
_chemical_formula_structural   NaCrF6
_chemical_formula_sum   'Na4 Cr4 F24'
_cell_volume   446.20362317
_cell_formula_units_Z   4
loop_
 _symmetry_equiv_pos_site_id
 _symmetry_equiv_pos_as_xyz
  1  'x, y, z'
loop_
 _atom_site_type_symbol
 _atom_site_label
 _atom_site_symmetry_multiplicity
 _atom_site_fract_x
 _atom_site_fract_y
 _atom_site_fract_z
 _atom_site_occupancy
  Na  Na0  1  0.25000000  0.16591393  0.50385669  1
  Na  Na1  1  0.75000000  0.66591393  0.99614331  1
  Na  Na2  1  0.75000000  0.83408607  0.49614331  1
  Na  Na3  1  0.25000000  0.33408607  0.00385669  1
  Cr  Cr4  1  0.75000000  0.11570730  0.77149279  1
  Cr  Cr5  1  0.75000000  0.38429270  0.27149279  1
  Cr  Cr6  1  0.25000000  0.61570730  0.72850721  1
  Cr  Cr7  1  0.25000000  0.88429270  0.22850721  1
  F  F8  1  0.03595797  0.94917928  0.35717727  1
  F  F9  1  0.75000000  0.18101756  0.19767144  1
  F  F10  1  0.03595797  0.55082072  0.85717727  1
  F  F11  1  0.46671063  0.82741174  0.10519579  1
  F  F12  1  0.25000000  0.81898244  0.80232856  1
  F  F13  1  0.96404203  0.05082072  0.64282273  1
  F  F14  1  0.03328937  0.82741174  0.10519579  1
  F  F15  1  0.75000000  0.90176475  0.83503732  1
  F  F16  1  0.75000000  0.59823525  0.33503732  1
  F  F17  1  0.53328937  0.32741174  0.39480421  1
  F  F18  1  0.46404203  0.55082072  0.85717727  1
  F  F19  1  0.25000000  0.40176475  0.66496268  1
  F  F20  1  0.96404203  0.44917928  0.14282273  1
  F  F21  1  0.53328937  0.17258826  0.89480421  1
  F  F22  1  0.53595797  0.44917928  0.14282273  1
  F  F23  1  0.53595797  0.05082072  0.64282273  1
  F  F24  1  0.25000000  0.68101756  0.30232856  1
  F  F25  1  0.46671063  0.67258826  0.60519579  1
  F  F26  1  0.46404203  0.94917928  0.35717727  1
  F  F27  1  0.03328937  0.67258826  0.60519579  1
  F  F28  1  0.96671063  0.17258826  0.89480421  1
  F  F29  1  0.75000000  0.31898244  0.69767144  1
  F  F30  1  0.25000000  0.09823525  0.16496268  1
  F  F31  1  0.96671063  0.32741174  0.39480421  1
