# generated using pymatgen
data_NaMg2V3O10
_symmetry_space_group_name_H-M   'P 1'
_cell_length_a   6.86077899
_cell_length_b   6.87140654
_cell_length_c   9.76443200
_cell_angle_alpha   104.82666466
_cell_angle_beta   100.24318017
_cell_angle_gamma   101.66223971
_symmetry_Int_Tables_number   1
_chemical_formula_structural   NaMg2V3O10
_chemical_formula_sum   'Na2 Mg4 V6 O20'
_cell_volume   422.80862404
_cell_formula_units_Z   2
loop_
 _symmetry_equiv_pos_site_id
 _symmetry_equiv_pos_as_xyz
  1  'x, y, z'
loop_
 _atom_site_type_symbol
 _atom_site_label
 _atom_site_symmetry_multiplicity
 _atom_site_fract_x
 _atom_site_fract_y
 _atom_site_fract_z
 _atom_site_occupancy
  Na  Na0  1  0.64084417  0.02133974  0.36462601  1
  Na  Na1  1  0.35915583  0.97866026  0.63537399  1
  Mg  Mg2  1  0.75587563  0.43175060  0.70638654  1
  Mg  Mg3  1  0.24412437  0.56824940  0.29361346  1
  Mg  Mg4  1  0.20811694  0.18347570  0.01753534  1
  Mg  Mg5  1  0.79188306  0.81652430  0.98246466  1
  V  V6  1  0.11367777  0.04810016  0.30804494  1
  V  V7  1  0.88632223  0.95189984  0.69195506  1
  V  V8  1  0.22806545  0.42742967  0.61341274  1
  V  V9  1  0.77193455  0.57257033  0.38658726  1
  V  V10  1  0.76724162  0.33747615  0.04618798  1
  V  V11  1  0.23275838  0.66252385  0.95381202  1
  O  O12  1  0.06892367  0.19273789  0.48058785  1
  O  O13  1  0.72701778  0.10800644  0.65540171  1
  O  O14  1  0.52042417  0.23924396  0.04136217  1
  O  O15  1  0.22649195  0.24296317  0.24241700  1
  O  O16  1  0.87121501  0.91239865  0.20870326  1
  O  O17  1  0.87143021  0.13158612  0.98800296  1
  O  O18  1  0.09735294  0.51957947  0.75689749  1
  O  O19  1  0.90264706  0.48042053  0.24310251  1
  O  O20  1  0.72347193  0.39635333  0.47820255  1
  O  O21  1  0.27652807  0.60364667  0.52179745  1
  O  O22  1  0.12878499  0.08760135  0.79129674  1
  O  O23  1  0.78575931  0.49709775  0.93361243  1
  O  O24  1  0.47957583  0.76075604  0.95863783  1
  O  O25  1  0.93107633  0.80726211  0.51941215  1
  O  O26  1  0.77350805  0.75703683  0.75758300  1
  O  O27  1  0.27298222  0.89199356  0.34459829  1
  O  O28  1  0.55647312  0.63427787  0.32205601  1
  O  O29  1  0.12856979  0.86841388  0.01199704  1
  O  O30  1  0.44352688  0.36572213  0.67794399  1
  O  O31  1  0.21424069  0.50290225  0.06638757  1
