# generated using pymatgen
data_Sr5(InSb3)2
_symmetry_space_group_name_H-M   'P 1'
_cell_length_a   4.73505364
_cell_length_b   12.85669264
_cell_length_c   14.99102602
_cell_angle_alpha   90.00000000
_cell_angle_beta   90.00000000
_cell_angle_gamma   90.00000000
_symmetry_Int_Tables_number   1
_chemical_formula_structural   Sr5(InSb3)2
_chemical_formula_sum   'Sr10 In4 Sb12'
_cell_volume   912.61062911
_cell_formula_units_Z   2
loop_
 _symmetry_equiv_pos_site_id
 _symmetry_equiv_pos_as_xyz
  1  'x, y, z'
loop_
 _atom_site_type_symbol
 _atom_site_label
 _atom_site_symmetry_multiplicity
 _atom_site_fract_x
 _atom_site_fract_y
 _atom_site_fract_z
 _atom_site_occupancy
  Sr  Sr0  1  0.50000000  0.08842002  0.75013506  1
  Sr  Sr1  1  0.50000000  0.17413120  0.01736658  1
  Sr  Sr2  1  0.50000000  0.41157998  0.25013506  1
  Sr  Sr3  1  0.50000000  0.82586880  0.98263342  1
  Sr  Sr4  1  0.50000000  0.32586880  0.51736658  1
  Sr  Sr5  1  0.50000000  0.00000000  0.50000000  1
  Sr  Sr6  1  0.50000000  0.58842002  0.74986494  1
  Sr  Sr7  1  0.50000000  0.91157998  0.24986494  1
  Sr  Sr8  1  0.50000000  0.50000000  0.00000000  1
  Sr  Sr9  1  0.50000000  0.67413120  0.48263342  1
  In  In10  1  0.00000000  0.32967082  0.71352205  1
  In  In11  1  0.00000000  0.17032918  0.21352205  1
  In  In12  1  0.00000000  0.67032918  0.28647795  1
  In  In13  1  0.00000000  0.82967082  0.78647795  1
  Sb  Sb14  1  0.00000000  0.65315451  0.90529038  1
  Sb  Sb15  1  0.50000000  0.66286423  0.17537483  1
  Sb  Sb16  1  0.00000000  0.02373757  0.90524954  1
  Sb  Sb17  1  0.00000000  0.47626243  0.40524954  1
  Sb  Sb18  1  0.50000000  0.33713577  0.82462517  1
  Sb  Sb19  1  0.50000000  0.16286423  0.32462517  1
  Sb  Sb20  1  0.00000000  0.34684549  0.09470962  1
  Sb  Sb21  1  0.00000000  0.15315451  0.59470962  1
  Sb  Sb22  1  0.00000000  0.97626243  0.09475046  1
  Sb  Sb23  1  0.50000000  0.83713577  0.67537483  1
  Sb  Sb24  1  0.00000000  0.52373757  0.59475046  1
  Sb  Sb25  1  0.00000000  0.84684549  0.40529038  1
