# generated using pymatgen
data_Re2P2O11
_symmetry_space_group_name_H-M   'P 1'
_cell_length_a   6.40049351
_cell_length_b   7.92530742
_cell_length_c   15.49332392
_cell_angle_alpha   90.00000000
_cell_angle_beta   90.00000000
_cell_angle_gamma   90.00000000
_symmetry_Int_Tables_number   1
_chemical_formula_structural   Re2P2O11
_chemical_formula_sum   'Re8 P8 O44'
_cell_volume   785.91246993
_cell_formula_units_Z   4
loop_
 _symmetry_equiv_pos_site_id
 _symmetry_equiv_pos_as_xyz
  1  'x, y, z'
loop_
 _atom_site_type_symbol
 _atom_site_label
 _atom_site_symmetry_multiplicity
 _atom_site_fract_x
 _atom_site_fract_y
 _atom_site_fract_z
 _atom_site_occupancy
  Re  Re0  1  0.25000000  0.25775775  0.47026258  1
  Re  Re1  1  0.75000000  0.05155390  0.21355266  1
  Re  Re2  1  0.25000000  0.24224225  0.97026258  1
  Re  Re3  1  0.75000000  0.75775775  0.02973742  1
  Re  Re4  1  0.25000000  0.94844610  0.78644734  1
  Re  Re5  1  0.25000000  0.55155390  0.28644734  1
  Re  Re6  1  0.75000000  0.44844610  0.71355266  1
  Re  Re7  1  0.75000000  0.74224225  0.52973742  1
  P  P8  1  0.75000000  0.87689019  0.73894056  1
  P  P9  1  0.75000000  0.14106250  0.43337720  1
  P  P10  1  0.25000000  0.37689019  0.76105944  1
  P  P11  1  0.75000000  0.35893750  0.93337720  1
  P  P12  1  0.75000000  0.62310981  0.23894056  1
  P  P13  1  0.25000000  0.64106250  0.06662280  1
  P  P14  1  0.25000000  0.12310981  0.26105944  1
  P  P15  1  0.25000000  0.85893750  0.56662280  1
  O  O16  1  0.75000000  0.54227577  0.96523062  1
  O  O17  1  0.75000000  0.93394935  0.10942668  1
  O  O18  1  0.25000000  0.38538903  0.55931843  1
  O  O19  1  0.25000000  0.43394935  0.39057332  1
  O  O20  1  0.75000000  0.95772423  0.46523062  1
  O  O21  1  0.93934946  0.24006088  0.46750427  1
  O  O22  1  0.93934946  0.25993912  0.96750427  1
  O  O23  1  0.25000000  0.86125883  0.66594018  1
  O  O24  1  0.75000000  0.88538903  0.94068157  1
  O  O25  1  0.25000000  0.39247443  0.86057677  1
  O  O26  1  0.55911527  0.52765133  0.27755551  1
  O  O27  1  0.75000000  0.69118802  0.76832226  1
  O  O28  1  0.75000000  0.25301287  0.66696546  1
  O  O29  1  0.25000000  0.30881198  0.23167774  1
  O  O30  1  0.05911527  0.47234867  0.72244449  1
  O  O31  1  0.94088473  0.97234867  0.77755551  1
  O  O32  1  0.06065054  0.75993912  0.53249573  1
  O  O33  1  0.75000000  0.36125883  0.83405982  1
  O  O34  1  0.75000000  0.61461097  0.44068157  1
  O  O35  1  0.44088473  0.02765133  0.22244449  1
  O  O36  1  0.44088473  0.47234867  0.72244449  1
  O  O37  1  0.05911527  0.02765133  0.22244449  1
  O  O38  1  0.25000000  0.11461097  0.05931843  1
  O  O39  1  0.75000000  0.80881198  0.26832226  1
  O  O40  1  0.25000000  0.74698713  0.33303454  1
  O  O41  1  0.56065054  0.25993912  0.96750427  1
  O  O42  1  0.75000000  0.89247443  0.63942323  1
  O  O43  1  0.25000000  0.04227577  0.53476938  1
  O  O44  1  0.94088473  0.52765133  0.27755551  1
  O  O45  1  0.75000000  0.60752557  0.13942323  1
  O  O46  1  0.43934946  0.74006088  0.03249573  1
  O  O47  1  0.25000000  0.63874117  0.16594018  1
  O  O48  1  0.25000000  0.10752557  0.36057677  1
  O  O49  1  0.06065054  0.74006088  0.03249573  1
  O  O50  1  0.75000000  0.13874117  0.33405982  1
  O  O51  1  0.25000000  0.45772423  0.03476938  1
  O  O52  1  0.25000000  0.06605065  0.89057332  1
  O  O53  1  0.25000000  0.75301287  0.83303454  1
  O  O54  1  0.56065054  0.24006088  0.46750427  1
  O  O55  1  0.75000000  0.56605065  0.60942668  1
  O  O56  1  0.75000000  0.24698713  0.16696546  1
  O  O57  1  0.43934946  0.75993912  0.53249573  1
  O  O58  1  0.25000000  0.19118802  0.73167774  1
  O  O59  1  0.55911527  0.97234867  0.77755551  1
