# generated using pymatgen
data_Gd3S3N
_symmetry_space_group_name_H-M   'P 1'
_cell_length_a   3.89129971
_cell_length_b   12.01583835
_cell_length_c   12.90900007
_cell_angle_alpha   89.99908232
_cell_angle_beta   89.99998551
_cell_angle_gamma   89.99982416
_symmetry_Int_Tables_number   1
_chemical_formula_structural   Gd3S3N
_chemical_formula_sum   'Gd12 S12 N4'
_cell_volume   603.58906319
_cell_formula_units_Z   4
loop_
 _symmetry_equiv_pos_site_id
 _symmetry_equiv_pos_as_xyz
  1  'x, y, z'
loop_
 _atom_site_type_symbol
 _atom_site_label
 _atom_site_symmetry_multiplicity
 _atom_site_fract_x
 _atom_site_fract_y
 _atom_site_fract_z
 _atom_site_occupancy
  Gd  Gd0  1  0.25000204  0.71687857  0.63786574  1
  Gd  Gd1  1  0.75000437  0.45491774  0.64450834  1
  Gd  Gd2  1  0.74999645  0.95491176  0.85550017  1
  Gd  Gd3  1  0.25000051  0.07316746  0.62967283  1
  Gd  Gd4  1  0.75000620  0.28310082  0.36214857  1
  Gd  Gd5  1  0.74999830  0.78308795  0.13784520  1
  Gd  Gd6  1  0.24999705  0.54509370  0.35549992  1
  Gd  Gd7  1  0.24999992  0.21690065  0.86215087  1
  Gd  Gd8  1  0.24999955  0.04506993  0.14449216  1
  Gd  Gd9  1  0.74999872  0.42682910  0.12963512  1
  Gd  Gd10  1  0.24999646  0.57318307  0.87034801  1
  Gd  Gd11  1  0.75000218  0.92681125  0.37033510  1
  S  S12  1  0.74999975  0.13533029  0.99344912  1
  S  S13  1  0.75000021  0.22708412  0.69401462  1
  S  S14  1  0.24999944  0.36468734  0.49351300  1
  S  S15  1  0.75000056  0.72707053  0.80593651  1
  S  S16  1  0.75000030  0.41047656  0.89860868  1
  S  S17  1  0.24999852  0.27288742  0.19401229  1
  S  S18  1  0.74999890  0.63538255  0.50660651  1
  S  S19  1  0.24999920  0.77290153  0.30599196  1
  S  S20  1  0.25000027  0.86464913  0.00651076  1
  S  S21  1  0.25000072  0.08952324  0.39866180  1
  S  S22  1  0.24999999  0.58956439  0.10133096  1
  S  S23  1  0.75000115  0.91040348  0.60137486  1
  N  N24  1  0.74999821  0.95993099  0.20221477  1
  N  N25  1  0.74999928  0.45996234  0.29781430  1
  N  N26  1  0.25000113  0.04004530  0.79776915  1
  N  N27  1  0.25000064  0.54014880  0.70218871  1
