# generated using pymatgen
data_UBi4(AsO8)2
_symmetry_space_group_name_H-M   'P 1'
_cell_length_a   5.69453050
_cell_length_b   12.65447035
_cell_length_c   21.69085807
_cell_angle_alpha   90.00000000
_cell_angle_beta   90.00000000
_cell_angle_gamma   90.00000000
_symmetry_Int_Tables_number   1
_chemical_formula_structural   UBi4(AsO8)2
_chemical_formula_sum   'U4 Bi16 As8 O64'
_cell_volume   1563.07072285
_cell_formula_units_Z   4
loop_
 _symmetry_equiv_pos_site_id
 _symmetry_equiv_pos_as_xyz
  1  'x, y, z'
loop_
 _atom_site_type_symbol
 _atom_site_label
 _atom_site_symmetry_multiplicity
 _atom_site_fract_x
 _atom_site_fract_y
 _atom_site_fract_z
 _atom_site_occupancy
  U  U0  1  0.74942388  0.52800227  0.75000000  1
  U  U1  1  0.25057612  0.47199773  0.25000000  1
  U  U2  1  0.74942388  0.97199773  0.25000000  1
  U  U3  1  0.25057612  0.02800227  0.75000000  1
  Bi  Bi4  1  0.64343836  0.39138848  0.52298549  1
  Bi  Bi5  1  0.35656164  0.60861152  0.02298549  1
  Bi  Bi6  1  0.64343836  0.10861152  0.47701451  1
  Bi  Bi7  1  0.35656164  0.89138848  0.97701451  1
  Bi  Bi8  1  0.35656164  0.60861152  0.47701451  1
  Bi  Bi9  1  0.64343836  0.39138848  0.97701451  1
  Bi  Bi10  1  0.35656164  0.89138848  0.52298549  1
  Bi  Bi11  1  0.64343836  0.10861152  0.02298549  1
  Bi  Bi12  1  0.11668486  0.23239548  0.58894435  1
  Bi  Bi13  1  0.88331514  0.76760452  0.08894435  1
  Bi  Bi14  1  0.11668486  0.26760452  0.41105565  1
  Bi  Bi15  1  0.88331514  0.73239548  0.91105565  1
  Bi  Bi16  1  0.88331514  0.76760452  0.41105565  1
  Bi  Bi17  1  0.11668486  0.23239548  0.91105565  1
  Bi  Bi18  1  0.88331514  0.73239548  0.58894435  1
  Bi  Bi19  1  0.11668486  0.26760452  0.08894435  1
  As  As20  1  0.27180290  0.51174176  0.63316805  1
  As  As21  1  0.72819710  0.48825824  0.13316805  1
  As  As22  1  0.27180290  0.98825824  0.36683195  1
  As  As23  1  0.72819710  0.01174176  0.86683195  1
  As  As24  1  0.72819710  0.48825824  0.36683195  1
  As  As25  1  0.27180290  0.51174176  0.86683195  1
  As  As26  1  0.72819710  0.01174176  0.63316805  1
  As  As27  1  0.27180290  0.98825824  0.13316805  1
  O  O28  1  0.84040547  0.66607369  0.75000000  1
  O  O29  1  0.15959453  0.33392631  0.25000000  1
  O  O30  1  0.84040547  0.83392631  0.25000000  1
  O  O31  1  0.15959453  0.16607369  0.75000000  1
  O  O32  1  0.63314677  0.39520881  0.75000000  1
  O  O33  1  0.36685323  0.60479119  0.25000000  1
  O  O34  1  0.63314677  0.10479119  0.25000000  1
  O  O35  1  0.36685323  0.89520881  0.75000000  1
  O  O36  1  0.33865187  0.05765977  0.53376753  1
  O  O37  1  0.66134813  0.94234023  0.03376753  1
  O  O38  1  0.33865187  0.44234023  0.46623247  1
  O  O39  1  0.66134813  0.55765977  0.96623247  1
  O  O40  1  0.66134813  0.94234023  0.46623247  1
  O  O41  1  0.33865187  0.05765977  0.96623247  1
  O  O42  1  0.66134813  0.55765977  0.53376753  1
  O  O43  1  0.33865187  0.44234023  0.03376753  1
  O  O44  1  0.44828603  0.25000000  0.50000000  1
  O  O45  1  0.55171397  0.75000000  -0.00000000  1
  O  O46  1  0.55171397  0.75000000  0.50000000  1
  O  O47  1  0.44828603  0.25000000  -0.00000000  1
  O  O48  1  0.95928925  0.25000000  0.50000000  1
  O  O49  1  0.04071075  0.75000000  -0.00000000  1
  O  O50  1  0.04071075  0.75000000  0.50000000  1
  O  O51  1  0.95928925  0.25000000  -0.00000000  1
  O  O52  1  0.35107324  0.39271234  0.59793891  1
  O  O53  1  0.64892676  0.60728766  0.09793891  1
  O  O54  1  0.35107324  0.10728766  0.40206109  1
  O  O55  1  0.64892676  0.89271234  0.90206109  1
  O  O56  1  0.64892676  0.60728766  0.40206109  1
  O  O57  1  0.35107324  0.39271234  0.90206109  1
  O  O58  1  0.64892676  0.89271234  0.59793891  1
  O  O59  1  0.35107324  0.10728766  0.09793891  1
  O  O60  1  0.49951723  0.57228732  0.83030909  1
  O  O61  1  0.50048277  0.42771268  0.33030909  1
  O  O62  1  0.49951723  0.92771268  0.16969091  1
  O  O63  1  0.50048277  0.07228732  0.66969091  1
  O  O64  1  0.50048277  0.42771268  0.16969091  1
  O  O65  1  0.49951723  0.57228732  0.66969091  1
  O  O66  1  0.50048277  0.07228732  0.83030909  1
  O  O67  1  0.49951723  0.92771268  0.33030909  1
  O  O68  1  0.17368392  0.59532337  0.57293807  1
  O  O69  1  0.82631608  0.40467663  0.07293807  1
  O  O70  1  0.17368392  0.90467663  0.42706193  1
  O  O71  1  0.82631608  0.09532337  0.92706193  1
  O  O72  1  0.82631608  0.40467663  0.42706193  1
  O  O73  1  0.17368392  0.59532337  0.92706193  1
  O  O74  1  0.82631608  0.09532337  0.57293807  1
  O  O75  1  0.17368392  0.90467663  0.07293807  1
  O  O76  1  0.03786551  0.49230628  0.67971151  1
  O  O77  1  0.96213449  0.50769372  0.17971151  1
  O  O78  1  0.03786551  0.00769372  0.32028849  1
  O  O79  1  0.96213449  0.99230628  0.82028849  1
  O  O80  1  0.96213449  0.50769372  0.32028849  1
  O  O81  1  0.03786551  0.49230628  0.82028849  1
  O  O82  1  0.96213449  0.99230628  0.67971151  1
  O  O83  1  0.03786551  0.00769372  0.17971151  1
  O  O84  1  0.83137379  0.34586297  0.60086934  1
  O  O85  1  0.16862621  0.65413703  0.10086934  1
  O  O86  1  0.83137379  0.15413703  0.39913066  1
  O  O87  1  0.16862621  0.84586297  0.89913066  1
  O  O88  1  0.16862621  0.65413703  0.39913066  1
  O  O89  1  0.83137379  0.34586297  0.89913066  1
  O  O90  1  0.16862621  0.84586297  0.60086934  1
  O  O91  1  0.83137379  0.15413703  0.10086934  1
