# generated using pymatgen
data_Co(IO3)2
_symmetry_space_group_name_H-M   'P 1'
_cell_length_a   5.31261308
_cell_length_b   10.92601311
_cell_length_c   10.97867237
_cell_angle_alpha   119.22239820
_cell_angle_beta   90.00000000
_cell_angle_gamma   90.00000000
_symmetry_Int_Tables_number   1
_chemical_formula_structural   Co(IO3)2
_chemical_formula_sum   'Co4 I8 O24'
_cell_volume   556.16067683
_cell_formula_units_Z   4
loop_
 _symmetry_equiv_pos_site_id
 _symmetry_equiv_pos_as_xyz
  1  'x, y, z'
loop_
 _atom_site_type_symbol
 _atom_site_label
 _atom_site_symmetry_multiplicity
 _atom_site_fract_x
 _atom_site_fract_y
 _atom_site_fract_z
 _atom_site_occupancy
  Co  Co0  1  0.02506199  0.26015333  0.00669246  1
  Co  Co1  1  0.52506199  0.73984667  0.99330754  1
  Co  Co2  1  0.52855180  0.23979317  0.49349434  1
  Co  Co3  1  0.02855180  0.76020683  0.50650566  1
  I  I4  1  0.60036016  0.08535323  0.15244633  1
  I  I5  1  0.10067061  0.41437538  0.34783904  1
  I  I6  1  0.12636447  0.91516737  0.31496328  1
  I  I7  1  0.62604578  0.58578666  0.18563257  1
  I  I8  1  0.62636447  0.08483263  0.68503672  1
  I  I9  1  0.60067061  0.58562462  0.65216096  1
  I  I10  1  0.10036016  0.91464677  0.84755367  1
  I  I11  1  0.12604578  0.41421334  0.81436743  1
  O  O12  1  0.31231311  0.56834854  0.84064125  1
  O  O13  1  0.24311383  0.58172861  0.38032983  1
  O  O14  1  0.25835571  0.80018164  0.67968754  1
  O  O15  1  0.31509936  0.06859667  0.34132800  1
  O  O16  1  0.25515366  0.29934255  0.17914990  1
  O  O17  1  0.81157307  0.11475707  0.03524342  1
  O  O18  1  0.31437106  0.38420424  0.46352445  1
  O  O19  1  0.74311383  0.41827139  0.61967017  1
  O  O20  1  0.23747659  0.39484945  0.96257137  1
  O  O21  1  0.80767427  0.22689888  0.82755585  1
  O  O22  1  0.75835571  0.19981836  0.32031246  1
  O  O23  1  0.75515366  0.70065745  0.82085010  1
  O  O24  1  0.30767427  0.77310112  0.17244415  1
  O  O25  1  0.24054166  0.89438849  0.46194337  1
  O  O26  1  0.81437106  0.61579576  0.53647555  1
  O  O27  1  0.81509936  0.93140333  0.65867200  1
  O  O28  1  0.81231311  0.43165146  0.15935875  1
  O  O29  1  0.31064636  0.27264007  0.67301871  1
  O  O30  1  0.73747659  0.60515055  0.03742863  1
  O  O31  1  0.74172652  0.91770476  0.11949130  1
  O  O32  1  0.81064636  0.72735993  0.32698129  1
  O  O33  1  0.31157307  0.88524293  0.96475658  1
  O  O34  1  0.24172652  0.08229524  0.88050870  1
  O  O35  1  0.74054166  0.10561151  0.53805663  1
