# generated using pymatgen
data_TlAs3PbS6
_symmetry_space_group_name_H-M   'P 1'
_cell_length_a   6.02121341
_cell_length_b   8.40439961
_cell_length_c   24.36509788
_cell_angle_alpha   87.46313415
_cell_angle_beta   82.90226782
_cell_angle_gamma   69.00920621
_symmetry_Int_Tables_number   1
_chemical_formula_structural   TlAs3PbS6
_chemical_formula_sum   'Tl4 As12 Pb4 S24'
_cell_volume   1142.34294105
_cell_formula_units_Z   4
loop_
 _symmetry_equiv_pos_site_id
 _symmetry_equiv_pos_as_xyz
  1  'x, y, z'
loop_
 _atom_site_type_symbol
 _atom_site_label
 _atom_site_symmetry_multiplicity
 _atom_site_fract_x
 _atom_site_fract_y
 _atom_site_fract_z
 _atom_site_occupancy
  Tl  Tl0  1  0.48202659  0.59179049  0.06177987  1
  Tl  Tl1  1  0.13559695  0.40820951  0.93822013  1
  Tl  Tl2  1  0.79380646  0.09179049  0.43822013  1
  Tl  Tl3  1  0.32381708  0.90820951  0.56177987  1
  As  As4  1  0.15307707  0.52287130  0.43220627  1
  As  As5  1  0.85131978  0.60594198  0.16603142  1
  As  As6  1  0.62328423  0.80574968  0.84765209  1
  As  As7  1  0.83528333  0.02287130  0.06779373  1
  As  As8  1  0.26735120  0.10594198  0.33396858  1
  As  As9  1  0.92594836  0.97712870  0.93220627  1
  As  As10  1  0.27668600  0.19425032  0.15234791  1
  As  As11  1  0.62329318  0.39405802  0.83396858  1
  As  As12  1  0.10815463  0.47712870  0.56779373  1
  As  As13  1  0.67903391  0.69425032  0.34765209  1
  As  As14  1  0.70726176  0.89405802  0.66603142  1
  As  As15  1  0.72093632  0.30574968  0.65234791  1
  Pb  Pb16  1  0.84762162  0.04861984  0.24454668  1
  Pb  Pb17  1  0.14624146  0.45138016  0.74454668  1
  Pb  Pb18  1  0.34216830  0.54861984  0.25545332  1
  Pb  Pb19  1  0.14078813  0.95138016  0.75545332  1
  S  S20  1  0.58310879  0.58655586  0.90540001  1
  S  S21  1  0.07906450  0.76970002  0.16359810  1
  S  S22  1  0.99330214  0.78265133  0.33821807  1
  S  S23  1  0.73850880  0.08655586  0.59459999  1
  S  S24  1  0.09876452  0.73029998  0.66359810  1
  S  S25  1  0.78581625  0.21098376  0.99120759  1
  S  S26  1  0.07506466  0.41344414  0.09459999  1
  S  S27  1  0.01236263  0.23029998  0.83640190  1
  S  S28  1  0.46937291  0.99611739  0.08111391  1
  S  S29  1  0.64995984  0.05873904  0.74181787  1
  S  S30  1  0.54660422  0.00388261  0.91888609  1
  S  S31  1  0.95869888  0.44126096  0.24181787  1
  S  S32  1  0.80048682  0.49611739  0.41888609  1
  S  S33  1  0.02702384  0.71098376  0.50879241  1
  S  S34  1  0.71549031  0.50388261  0.58111391  1
  S  S35  1  0.45051675  0.94126096  0.25818213  1
  S  S36  1  0.98800760  0.78901624  0.00879241  1
  S  S37  1  0.41966465  0.91344414  0.40540001  1
  S  S38  1  0.64177771  0.55873904  0.75818213  1
  S  S39  1  0.02595347  0.71734867  0.83821807  1
  S  S40  1  0.24680000  0.28901624  0.49120759  1
  S  S41  1  0.49266260  0.26970002  0.33640190  1
  S  S42  1  0.11417154  0.21734867  0.66178193  1
  S  S43  1  0.58152020  0.28265133  0.16178193  1
