# generated using pymatgen
data_KVS2O9
_symmetry_space_group_name_H-M   'P 1'
_cell_length_a   5.06732176
_cell_length_b   9.04729247
_cell_length_c   16.62315721
_cell_angle_alpha   90.00000000
_cell_angle_beta   90.00000000
_cell_angle_gamma   90.00000000
_symmetry_Int_Tables_number   1
_chemical_formula_structural   KVS2O9
_chemical_formula_sum   'K4 V4 S8 O36'
_cell_volume   762.09765208
_cell_formula_units_Z   4
loop_
 _symmetry_equiv_pos_site_id
 _symmetry_equiv_pos_as_xyz
  1  'x, y, z'
loop_
 _atom_site_type_symbol
 _atom_site_label
 _atom_site_symmetry_multiplicity
 _atom_site_fract_x
 _atom_site_fract_y
 _atom_site_fract_z
 _atom_site_occupancy
  K  K0  1  0.24741753  0.07373556  0.05500078  1
  K  K1  1  0.75258247  0.57373556  0.44499922  1
  K  K2  1  0.25258247  0.92626444  0.55500078  1
  K  K3  1  0.74741753  0.42626444  0.94499922  1
  V  V4  1  0.76251433  0.34914440  0.69808153  1
  V  V5  1  0.73748567  0.65085560  0.19808153  1
  V  V6  1  0.26251433  0.15085560  0.30191847  1
  V  V7  1  0.23748567  0.84914440  0.80191847  1
  S  S8  1  0.26191586  0.37820327  0.57549710  1
  S  S9  1  0.74249880  0.74942397  0.68968844  1
  S  S10  1  0.73808414  0.87820327  0.92450290  1
  S  S11  1  0.75750120  0.25057603  0.18968844  1
  S  S12  1  0.25750120  0.24942397  0.81031156  1
  S  S13  1  0.23808414  0.62179673  0.07549710  1
  S  S14  1  0.76191586  0.12179673  0.42450290  1
  S  S15  1  0.24249880  0.75057603  0.31031156  1
  O  O16  1  0.74805400  0.97418096  0.99431612  1
  O  O17  1  0.25384516  0.11004419  0.76639981  1
  O  O18  1  0.74394107  0.72091630  0.93770416  1
  O  O19  1  0.25194600  0.47418096  0.50568388  1
  O  O20  1  0.03518068  0.42702506  0.63155870  1
  O  O21  1  0.50667780  0.42432998  0.62369731  1
  O  O22  1  0.23233952  0.75830198  0.39765056  1
  O  O23  1  0.99332220  0.57567002  0.12369731  1
  O  O24  1  0.25605893  0.22091630  0.56229584  1
  O  O25  1  0.26766048  0.24169802  0.89765056  1
  O  O26  1  0.73233952  0.74169802  0.60234944  1
  O  O27  1  0.73353771  0.82008253  0.17166077  1
  O  O28  1  0.24615484  0.88995581  0.26639981  1
  O  O29  1  0.99233410  0.15619298  0.21715595  1
  O  O30  1  0.24805400  0.52581904  0.00568388  1
  O  O31  1  0.98598937  0.84209724  0.71145856  1
  O  O32  1  0.51401063  0.15790276  0.21145856  1
  O  O33  1  0.75194600  0.02581904  0.49431612  1
  O  O34  1  0.24394107  0.77908370  0.06229584  1
  O  O35  1  0.01401063  0.34209724  0.78854144  1
  O  O36  1  0.23353771  0.67991747  0.82833923  1
  O  O37  1  0.49332220  0.92432998  0.87630269  1
  O  O38  1  0.00766590  0.65619298  0.28284405  1
  O  O39  1  0.53518068  0.07297494  0.36844130  1
  O  O40  1  0.50766590  0.84380702  0.71715595  1
  O  O41  1  0.46481932  0.57297494  0.13155870  1
  O  O42  1  0.75384516  0.38995581  0.23360019  1
  O  O43  1  0.74615484  0.61004419  0.73360019  1
  O  O44  1  0.26646229  0.32008253  0.32833923  1
  O  O45  1  0.48598937  0.65790276  0.28854144  1
  O  O46  1  0.76766048  0.25830198  0.10234944  1
  O  O47  1  0.96481932  0.92702506  0.86844130  1
  O  O48  1  0.00667780  0.07567002  0.37630269  1
  O  O49  1  0.49233410  0.34380702  0.78284405  1
  O  O50  1  0.75605893  0.27908370  0.43770416  1
  O  O51  1  0.76646229  0.17991747  0.67166077  1
