# generated using pymatgen
data_CsK2SbF6
_symmetry_space_group_name_H-M   'P 1'
_cell_length_a   7.06288673
_cell_length_b   7.06288694
_cell_length_c   7.06288693
_cell_angle_alpha   59.99999923
_cell_angle_beta   59.99999888
_cell_angle_gamma   59.99999891
_symmetry_Int_Tables_number   1
_chemical_formula_structural   CsK2SbF6
_chemical_formula_sum   'Cs1 K2 Sb1 F6'
_cell_volume   249.13327743
_cell_formula_units_Z   1
loop_
 _symmetry_equiv_pos_site_id
 _symmetry_equiv_pos_as_xyz
  1  'x, y, z'
loop_
 _atom_site_type_symbol
 _atom_site_label
 _atom_site_symmetry_multiplicity
 _atom_site_fract_x
 _atom_site_fract_y
 _atom_site_fract_z
 _atom_site_occupancy
  Cs  Cs0  1  0.50000000  0.50000000  0.50000000  1
  K  K1  1  0.25000000  0.25000000  0.25000000  1
  K  K2  1  0.75000000  0.75000000  0.75000000  1
  Sb  Sb3  1  -0.00000000  0.00000000  0.00000000  1
  F  F4  1  0.22010967  0.77989033  0.22010967  1
  F  F5  1  0.77989033  0.77989033  0.22010967  1
  F  F6  1  0.77989033  0.22010967  0.77989033  1
  F  F7  1  0.77989033  0.22010967  0.22010967  1
  F  F8  1  0.22010967  0.77989033  0.77989033  1
  F  F9  1  0.22010967  0.22010967  0.77989033  1
