# generated using pymatgen
data_Pr2Pd2Pb
_symmetry_space_group_name_H-M   'P 1'
_cell_length_a   3.80427583
_cell_length_b   8.10565616
_cell_length_c   8.10565616
_cell_angle_alpha   90.00000000
_cell_angle_beta   90.00000000
_cell_angle_gamma   90.00000000
_symmetry_Int_Tables_number   1
_chemical_formula_structural   Pr2Pd2Pb
_chemical_formula_sum   'Pr4 Pd4 Pb2'
_cell_volume   249.94724392
_cell_formula_units_Z   2
loop_
 _symmetry_equiv_pos_site_id
 _symmetry_equiv_pos_as_xyz
  1  'x, y, z'
loop_
 _atom_site_type_symbol
 _atom_site_label
 _atom_site_symmetry_multiplicity
 _atom_site_fract_x
 _atom_site_fract_y
 _atom_site_fract_z
 _atom_site_occupancy
  Pr  Pr0  1  0.50000000  0.82370048  0.32370048  1
  Pr  Pr1  1  0.50000000  0.17629952  0.67629952  1
  Pr  Pr2  1  0.50000000  0.67629952  0.82370048  1
  Pr  Pr3  1  0.50000000  0.32370048  0.17629952  1
  Pd  Pd4  1  0.00000000  0.37746242  0.87746242  1
  Pd  Pd5  1  0.00000000  0.87746242  0.62253758  1
  Pd  Pd6  1  0.00000000  0.12253758  0.37746242  1
  Pd  Pd7  1  0.00000000  0.62253758  0.12253758  1
  Pb  Pb8  1  0.00000000  0.50000000  0.50000000  1
  Pb  Pb9  1  0.00000000  0.00000000  0.00000000  1
