# generated using pymatgen
data_Yb(Ga3Te5)2
_symmetry_space_group_name_H-M   'P 1'
_cell_length_a   10.40484611
_cell_length_b   10.43786161
_cell_length_c   10.43786109
_cell_angle_alpha   89.25752583
_cell_angle_beta   89.95171100
_cell_angle_gamma   89.95171391
_symmetry_Int_Tables_number   1
_chemical_formula_structural   Yb(Ga3Te5)2
_chemical_formula_sum   'Yb2 Ga12 Te20'
_cell_volume   1133.50108057
_cell_formula_units_Z   2
loop_
 _symmetry_equiv_pos_site_id
 _symmetry_equiv_pos_as_xyz
  1  'x, y, z'
loop_
 _atom_site_type_symbol
 _atom_site_label
 _atom_site_symmetry_multiplicity
 _atom_site_fract_x
 _atom_site_fract_y
 _atom_site_fract_z
 _atom_site_occupancy
  Yb  Yb0  1  0.25510490  0.74196846  0.99715612  1
  Yb  Yb1  1  0.74489510  0.00284388  0.25803154  1
  Ga  Ga2  1  0.12448802  0.42920668  0.15907758  1
  Ga  Ga3  1  0.16047520  0.12866949  0.43094631  1
  Ga  Ga4  1  0.16959163  0.74732633  0.34475955  1
  Ga  Ga5  1  0.25266326  0.83110193  0.65972564  1
  Ga  Ga6  1  0.33733625  0.17040179  0.74595408  1
  Ga  Ga7  1  0.42689652  0.16293666  0.12681214  1
  Ga  Ga8  1  0.57310348  0.87318786  0.83706334  1
  Ga  Ga9  1  0.66266375  0.25404592  0.82959821  1
  Ga  Ga10  1  0.74733674  0.34027436  0.16889807  1
  Ga  Ga11  1  0.83040837  0.65524045  0.25267367  1
  Ga  Ga12  1  0.83952480  0.56905369  0.87133051  1
  Ga  Ga13  1  0.87551198  0.84092242  0.57079332  1
  Te  Te14  1  1.00000000  0.82968458  0.17031542  1
  Te  Te15  1  0.06873289  0.67019450  0.57039355  1
  Te  Te16  1  0.08314791  0.49996988  0.91742927  1
  Te  Te17  1  0.16881489  0.99651449  0.82906145  1
  Te  Te18  1  0.17100629  0.17201214  0.17267034  1
  Te  Te19  1  0.25242325  0.31879232  0.56287759  1
  Te  Te20  1  0.31848810  0.56830157  0.24789905  1
  Te  Te21  1  0.32758943  0.93118314  0.43119548  1
  Te  Te22  1  0.43127129  0.32665596  0.92945178  1
  Te  Te23  1  0.43413239  0.67926993  0.75264683  1
  Te  Te24  1  0.50000000  0.91814691  0.08185309  1
  Te  Te25  1  0.56586761  0.24735317  0.32073007  1
  Te  Te26  1  0.56872871  0.07054822  0.67334404  1
  Te  Te27  1  0.67241057  0.56880452  0.06881686  1
  Te  Te28  1  0.68151190  0.75210095  0.43169843  1
  Te  Te29  1  0.74757675  0.43712241  0.68120768  1
  Te  Te30  1  0.83118511  0.17093855  0.00348551  1
  Te  Te31  1  0.82899371  0.82732966  0.82798786  1
  Te  Te32  1  0.91685209  0.08257073  0.50003012  1
  Te  Te33  1  0.93126711  0.42960645  0.32980550  1
