# generated using pymatgen
data_Sr2P6Rh7
_symmetry_space_group_name_H-M   'P 1'
_cell_length_a   4.21020012
_cell_length_b   11.12245524
_cell_length_c   11.12245524
_cell_angle_alpha   90.00000000
_cell_angle_beta   90.00000000
_cell_angle_gamma   90.00000000
_symmetry_Int_Tables_number   1
_chemical_formula_structural   Sr2P6Rh7
_chemical_formula_sum   'Sr4 P12 Rh14'
_cell_volume   520.83969113
_cell_formula_units_Z   2
loop_
 _symmetry_equiv_pos_site_id
 _symmetry_equiv_pos_as_xyz
  1  'x, y, z'
loop_
 _atom_site_type_symbol
 _atom_site_label
 _atom_site_symmetry_multiplicity
 _atom_site_fract_x
 _atom_site_fract_y
 _atom_site_fract_z
 _atom_site_occupancy
  Sr  Sr0  1  0.24727275  0.66179555  0.16179555  1
  Sr  Sr1  1  0.75272725  0.16179555  0.33820445  1
  Sr  Sr2  1  0.75272725  0.83820445  0.66179555  1
  Sr  Sr3  1  0.24727275  0.33820445  0.83820445  1
  P  P4  1  0.23233005  0.92726807  0.42726807  1
  P  P5  1  0.27278842  0.14218514  0.10859376  1
  P  P6  1  0.72721158  0.10859376  0.85781486  1
  P  P7  1  0.72721158  0.89140624  0.14218514  1
  P  P8  1  0.76766995  0.42726807  0.07273193  1
  P  P9  1  0.76766995  0.57273193  0.92726807  1
  P  P10  1  0.23233005  0.07273193  0.57273193  1
  P  P11  1  0.27278842  0.60859376  0.64218514  1
  P  P12  1  0.27278842  0.39140624  0.35781486  1
  P  P13  1  0.72721158  0.35781486  0.60859376  1
  P  P14  1  0.72721158  0.64218514  0.39140624  1
  P  P15  1  0.27278842  0.85781486  0.89140624  1
  Rh  Rh16  1  0.00000000  -0.00000000  0.00000000  1
  Rh  Rh17  1  0.00000000  0.50000000  0.50000000  1
  Rh  Rh18  1  0.26423010  0.34812991  0.15187009  1
  Rh  Rh19  1  0.26423010  0.65187009  0.84812991  1
  Rh  Rh20  1  0.73576990  0.15187009  0.65187009  1
  Rh  Rh21  1  0.25339119  0.72380910  0.46174794  1
  Rh  Rh22  1  0.25339119  0.27619090  0.53825206  1
  Rh  Rh23  1  0.74660881  0.53825206  0.72380910  1
  Rh  Rh24  1  0.74660881  0.46174794  0.27619090  1
  Rh  Rh25  1  0.25339119  0.03825206  0.77619090  1
  Rh  Rh26  1  0.74660881  0.77619090  0.96174794  1
  Rh  Rh27  1  0.74660881  0.22380910  0.03825206  1
  Rh  Rh28  1  0.25339119  0.96174794  0.22380910  1
  Rh  Rh29  1  0.73576990  0.84812991  0.34812991  1
