# generated using pymatgen
data_Ba4Yb3F17
_symmetry_space_group_name_H-M   'P 1'
_cell_length_a   9.37321842
_cell_length_b   9.46629648
_cell_length_c   9.39747326
_cell_angle_alpha   72.27817206
_cell_angle_beta   72.81139761
_cell_angle_gamma   72.61896878
_symmetry_Int_Tables_number   1
_chemical_formula_structural   Ba4Yb3F17
_chemical_formula_sum   'Ba8 Yb6 F34'
_cell_volume   738.55298012
_cell_formula_units_Z   2
loop_
 _symmetry_equiv_pos_site_id
 _symmetry_equiv_pos_as_xyz
  1  'x, y, z'
loop_
 _atom_site_type_symbol
 _atom_site_label
 _atom_site_symmetry_multiplicity
 _atom_site_fract_x
 _atom_site_fract_y
 _atom_site_fract_z
 _atom_site_occupancy
  Yb  Yb0  1  0.15775576  0.60854613  0.46932571  1
  Yb  Yb1  1  0.46486337  0.16015452  0.60894008  1
  Yb  Yb2  1  0.38912383  0.53146169  0.84236487  1
  Yb  Yb3  1  0.59980026  0.47021901  0.15927618  1
  Yb  Yb4  1  0.53051902  0.84181711  0.39039251  1
  Yb  Yb5  1  0.83902541  0.39393354  0.53923986  1
  Ba  Ba6  1  0.07141485  0.32199679  0.87011169  1
  Ba  Ba7  1  0.27190732  0.27418414  0.27422686  1
  Ba  Ba8  1  0.32156615  0.87182913  0.06875453  1
  Ba  Ba9  1  0.12865998  0.93043737  0.67765129  1
  Ba  Ba10  1  0.87346413  0.06245052  0.32092687  1
  Ba  Ba11  1  0.67694873  0.12933890  0.93296402  1
  Ba  Ba12  1  0.72647104  0.72641965  0.72893899  1
  Ba  Ba13  1  0.93487535  0.68402077  0.12409399  1
  F  F14  1  -0.00019919  0.99872392  0.00164147  1
  F  F15  1  0.01760932  0.17788125  0.45423021  1
  F  F16  1  0.13621191  0.13804985  0.13757772  1
  F  F17  1  0.03719605  0.49030565  0.36042173  1
  F  F18  1  0.17439499  0.45600620  0.02150730  1
  F  F19  1  0.07416721  0.79463093  0.26433530  1
  F  F20  1  0.45418842  0.02119958  0.17723823  1
  F  F21  1  0.36052049  0.04125103  0.49127409  1
  F  F22  1  0.26379782  0.07425809  0.79389569  1
  F  F23  1  0.26512675  0.35057479  0.54479935  1
  F  F24  1  0.20763083  0.58836814  0.69860585  1
  F  F25  1  0.34628086  0.54578253  0.26337285  1
  F  F26  1  0.48872197  0.36095858  0.04264034  1
  F  F27  1  0.29980112  0.79243780  0.41353108  1
  F  F28  1  0.20585076  0.73662674  0.92493331  1
  F  F29  1  0.54631449  0.25473288  0.34459930  1
  F  F30  1  0.41015124  0.30070202  0.79206934  1
  F  F31  1  0.59553095  0.45949166  0.44863250  1
  F  F32  1  0.58681223  0.70290510  0.20284093  1
  F  F33  1  0.45498530  0.73320728  0.64850458  1
  F  F34  1  0.79400652  0.26622670  0.07649346  1
  F  F35  1  0.70464999  0.19808715  0.59321434  1
  F  F36  1  0.50766110  0.63976439  0.95901180  1
  F  F37  1  0.65110995  0.45421372  0.74135054  1
  F  F38  1  0.79407516  0.40856373  0.29894245  1
  F  F39  1  0.74116619  0.65446543  0.45332088  1
  F  F40  1  0.73535856  0.92610105  0.20496315  1
  F  F41  1  0.63865749  0.95748239  0.51057934  1
  F  F42  1  0.54383975  0.98062254  0.82423582  1
  F  F43  1  0.92527529  0.20683159  0.73732427  1
  F  F44  1  0.82249877  0.54289052  0.98515508  1
  F  F45  1  0.95725337  0.51011670  0.64041172  1
  F  F46  1  0.86252976  0.86350628  0.86197615  1
  F  F47  1  0.97842940  0.82322453  0.54516236  1
