# generated using pymatgen
data_SrLiAlF6
_symmetry_space_group_name_H-M   'P 1'
_cell_length_a   5.16532585
_cell_length_b   5.16532586
_cell_length_c   10.35333082
_cell_angle_alpha   90.00000000
_cell_angle_beta   90.00000000
_cell_angle_gamma   120.00000002
_symmetry_Int_Tables_number   1
_chemical_formula_structural   SrLiAlF6
_chemical_formula_sum   'Sr2 Li2 Al2 F12'
_cell_volume   239.22478395
_cell_formula_units_Z   2
loop_
 _symmetry_equiv_pos_site_id
 _symmetry_equiv_pos_as_xyz
  1  'x, y, z'
loop_
 _atom_site_type_symbol
 _atom_site_label
 _atom_site_symmetry_multiplicity
 _atom_site_fract_x
 _atom_site_fract_y
 _atom_site_fract_z
 _atom_site_occupancy
  Li  Li0  1  0.33333333  0.66666667  0.25000000  1
  Li  Li1  1  0.66666667  0.33333333  0.75000000  1
  F  F2  1  0.38648788  0.03213165  0.14858956  1
  F  F3  1  0.61351212  0.64564377  0.64858956  1
  F  F4  1  0.35435623  0.96786835  0.64858956  1
  F  F5  1  0.03213165  0.38648788  0.64858956  1
  F  F6  1  0.96786835  0.61351212  0.35141044  1
  F  F7  1  0.96786835  0.35435623  0.14858956  1
  F  F8  1  0.64564377  0.61351212  0.14858956  1
  F  F9  1  0.64564377  0.03213165  0.35141044  1
  F  F10  1  0.03213165  0.64564377  0.85141044  1
  F  F11  1  0.38648788  0.35435623  0.35141044  1
  F  F12  1  0.61351212  0.96786835  0.85141044  1
  F  F13  1  0.35435623  0.38648788  0.85141044  1
  Al  Al14  1  0.66666667  0.33333333  0.25000000  1
  Al  Al15  1  0.33333333  0.66666667  0.75000000  1
  Sr  Sr16  1  0.00000000  0.00000000  0.00000000  1
  Sr  Sr17  1  0.00000000  0.00000000  0.50000000  1
