# generated using pymatgen
data_MnCu2P2O9
_symmetry_space_group_name_H-M   'P 1'
_cell_length_a   5.46102140
_cell_length_b   6.11542199
_cell_length_c   20.32896626
_cell_angle_alpha   90.00000000
_cell_angle_beta   93.90115363
_cell_angle_gamma   90.00000000
_symmetry_Int_Tables_number   1
_chemical_formula_structural   MnCu2P2O9
_chemical_formula_sum   'Mn4 Cu8 P8 O36'
_cell_volume   677.34220416
_cell_formula_units_Z   4
loop_
 _symmetry_equiv_pos_site_id
 _symmetry_equiv_pos_as_xyz
  1  'x, y, z'
loop_
 _atom_site_type_symbol
 _atom_site_label
 _atom_site_symmetry_multiplicity
 _atom_site_fract_x
 _atom_site_fract_y
 _atom_site_fract_z
 _atom_site_occupancy
  Mn  Mn0  1  0.99645716  0.56889283  0.35590700  1
  Mn  Mn1  1  0.49645716  0.93110717  0.85590700  1
  Mn  Mn2  1  0.00354284  0.43110717  0.64409300  1
  Mn  Mn3  1  0.50354284  0.06889283  0.14409300  1
  Cu  Cu4  1  0.70644247  0.24410981  0.42875870  1
  Cu  Cu5  1  0.20644247  0.25589019  0.92875870  1
  Cu  Cu6  1  0.29355753  0.75589019  0.57124130  1
  Cu  Cu7  1  0.79355753  0.74410981  0.07124130  1
  Cu  Cu8  1  0.54099088  0.92424222  0.30810876  1
  Cu  Cu9  1  0.04099088  0.57575778  0.80810876  1
  Cu  Cu10  1  0.45900912  0.07575778  0.69189124  1
  Cu  Cu11  1  0.95900912  0.42424222  0.19189124  1
  P  P12  1  0.04741792  0.91285352  0.23034862  1
  P  P13  1  0.54741792  0.58714648  0.73034862  1
  P  P14  1  0.95258208  0.08714648  0.76965138  1
  P  P15  1  0.45258208  0.41285352  0.26965138  1
  P  P16  1  0.54534542  0.73697012  0.44568264  1
  P  P17  1  0.04534542  0.76302988  0.94568264  1
  P  P18  1  0.45465458  0.26302988  0.55431736  1
  P  P19  1  0.95465458  0.23697012  0.05431736  1
  O  O20  1  0.00626801  0.86429550  0.30311894  1
  O  O21  1  0.50626801  0.63570450  0.80311894  1
  O  O22  1  0.99373199  0.13570450  0.69688106  1
  O  O23  1  0.49373199  0.36429550  0.19688106  1
  O  O24  1  0.89568030  0.11359686  0.20396110  1
  O  O25  1  0.39568030  0.38640314  0.70396110  1
  O  O26  1  0.10431970  0.88640314  0.79603890  1
  O  O27  1  0.60431970  0.61359686  0.29603890  1
  O  O28  1  0.96778270  0.73000268  0.18112911  1
  O  O29  1  0.46778270  0.76999732  0.68112911  1
  O  O30  1  0.03221730  0.26999732  0.81887089  1
  O  O31  1  0.53221730  0.23000268  0.31887089  1
  O  O32  1  0.33091020  0.95529251  0.22511796  1
  O  O33  1  0.83091020  0.54470749  0.72511796  1
  O  O34  1  0.66908980  0.04470749  0.77488204  1
  O  O35  1  0.16908980  0.45529251  0.27488204  1
  O  O36  1  0.56626110  0.78050084  0.52056368  1
  O  O37  1  0.06626110  0.71949916  0.02056368  1
  O  O38  1  0.43373890  0.21949916  0.47943632  1
  O  O39  1  0.93373890  0.28050084  0.97943632  1
  O  O40  1  0.66512505  0.93122372  0.40652797  1
  O  O41  1  0.16512505  0.56877628  0.90652797  1
  O  O42  1  0.33487495  0.06877628  0.59347203  1
  O  O43  1  0.83487495  0.43122372  0.09347203  1
  O  O44  1  0.28869862  0.68296035  0.41841840  1
  O  O45  1  0.78869862  0.81703965  0.91841840  1
  O  O46  1  0.71130138  0.31703965  0.58158160  1
  O  O47  1  0.21130138  0.18296035  0.08158160  1
  O  O48  1  0.74537941  0.55464677  0.43288000  1
  O  O49  1  0.24537941  0.94535323  0.93288000  1
  O  O50  1  0.25462059  0.44535323  0.56712000  1
  O  O51  1  0.75462059  0.05464677  0.06712000  1
  O  O52  1  0.51655155  0.78085324  0.11460149  1
  O  O53  1  0.01655155  0.71914676  0.61460149  1
  O  O54  1  0.48344845  0.21914676  0.88539851  1
  O  O55  1  0.98344845  0.28085324  0.38539851  1
