# generated using pymatgen
data_Zr6Co16Si7
_symmetry_space_group_name_H-M   'P 1'
_cell_length_a   8.09310002
_cell_length_b   8.09303995
_cell_length_c   8.09336799
_cell_angle_alpha   60.00312911
_cell_angle_beta   60.00356563
_cell_angle_gamma   60.00278146
_symmetry_Int_Tables_number   1
_chemical_formula_structural   Zr6Co16Si7
_chemical_formula_sum   'Zr6 Co16 Si7'
_cell_volume   374.86248755
_cell_formula_units_Z   1
loop_
 _symmetry_equiv_pos_site_id
 _symmetry_equiv_pos_as_xyz
  1  'x, y, z'
loop_
 _atom_site_type_symbol
 _atom_site_label
 _atom_site_symmetry_multiplicity
 _atom_site_fract_x
 _atom_site_fract_y
 _atom_site_fract_z
 _atom_site_occupancy
  Zr  Zr0  1  0.79339022  0.79342457  0.20661288  1
  Zr  Zr1  1  0.79348846  0.20661467  0.79343923  1
  Zr  Zr2  1  0.20649863  0.20651595  0.79349507  1
  Zr  Zr3  1  0.20661400  0.79348060  0.20651558  1
  Zr  Zr4  1  0.20663183  0.79348045  0.79339627  1
  Zr  Zr5  1  0.79348880  0.20659701  0.20648057  1
  Co  Co6  1  0.62010150  0.13967300  0.62009838  1
  Co  Co7  1  0.48713839  0.17092922  0.17096568  1
  Co  Co8  1  0.37989115  0.37990236  0.86032856  1
  Co  Co9  1  0.82904519  0.82904414  0.51281262  1
  Co  Co10  1  0.17093599  0.17092172  0.48718316  1
  Co  Co11  1  0.82901727  0.51285567  0.82905727  1
  Co  Co12  1  0.17093119  0.48716189  0.17095341  1
  Co  Co13  1  0.62005726  0.62007758  0.13978226  1
  Co  Co14  1  0.17094498  0.17092979  0.17096773  1
  Co  Co15  1  0.37991713  0.86027771  0.37990294  1
  Co  Co16  1  0.62008655  0.62010739  0.62008331  1
  Co  Co17  1  0.86032395  0.37990840  0.37988364  1
  Co  Co18  1  0.37988619  0.37989642  0.37987183  1
  Co  Co19  1  0.82902268  0.82902230  0.82906246  1
  Co  Co20  1  0.13970640  0.62010417  0.62008058  1
  Co  Co21  1  0.51284426  0.82901991  0.82906145  1
  Si  Si22  1  0.99995379  0.49999391  0.50003090  1
  Si  Si23  1  0.49998934  -0.00006790  0.50002919  1
  Si  Si24  1  0.50003551  0.50013591  0.49990819  1
  Si  Si25  1  -0.00000627  0.49992623  0.00005941  1
  Si  Si26  1  0.49992116  -0.00002807  0.00008761  1
  Si  Si27  1  0.50005122  0.50005258  -0.00005355  1
  Si  Si28  1  0.00009323  0.00004245  0.49990333  1
