# generated using pymatgen
data_Y2Be2SiO7
_symmetry_space_group_name_H-M   'P 1'
_cell_length_a   4.80136399
_cell_length_b   7.34937811
_cell_length_c   7.34937811
_cell_angle_alpha   90.00000000
_cell_angle_beta   90.00000000
_cell_angle_gamma   90.00000000
_symmetry_Int_Tables_number   1
_chemical_formula_structural   Y2Be2SiO7
_chemical_formula_sum   'Y4 Be4 Si2 O14'
_cell_volume   259.33779498
_cell_formula_units_Z   2
loop_
 _symmetry_equiv_pos_site_id
 _symmetry_equiv_pos_as_xyz
  1  'x, y, z'
loop_
 _atom_site_type_symbol
 _atom_site_label
 _atom_site_symmetry_multiplicity
 _atom_site_fract_x
 _atom_site_fract_y
 _atom_site_fract_z
 _atom_site_occupancy
  Be  Be0  1  0.04015458  0.13666697  0.36333303  1
  Be  Be1  1  0.95984542  0.63666697  0.13666697  1
  Be  Be2  1  0.95984542  0.36333303  0.86333303  1
  Be  Be3  1  0.04015458  0.86333303  0.63666697  1
  O  O4  1  0.19880374  0.91831432  0.83708795  1
  O  O5  1  0.80119626  0.83708795  0.08168568  1
  O  O6  1  0.80119626  0.16291205  0.91831432  1
  O  O7  1  0.19880374  0.08168568  0.16291205  1
  O  O8  1  0.80119626  0.41831432  0.66291205  1
  O  O9  1  0.80119626  0.58168568  0.33708795  1
  O  O10  1  0.19880374  0.66291205  0.58168568  1
  O  O11  1  0.19880374  0.33708795  0.41831432  1
  O  O12  1  0.29110142  0.64131365  0.14131365  1
  O  O13  1  0.70889858  0.14131365  0.35868635  1
  O  O14  1  0.70889858  0.85868635  0.64131365  1
  O  O15  1  0.29110142  0.35868635  0.85868635  1
  O  O16  1  0.81855933  0.50000000  0.00000000  1
  O  O17  1  0.18144067  0.00000000  0.50000000  1
  Si  Si18  1  0.00000000  0.50000000  0.50000000  1
  Si  Si19  1  0.00000000  0.00000000  0.00000000  1
  Y  Y20  1  0.50750911  0.15900748  0.65900748  1
  Y  Y21  1  0.49249089  0.65900748  0.84099252  1
  Y  Y22  1  0.49249089  0.34099252  0.15900748  1
  Y  Y23  1  0.50750911  0.84099252  0.34099252  1
