# generated using pymatgen
data_CsVP2O7
_symmetry_space_group_name_H-M   'P 1'
_cell_length_a   7.84044207
_cell_length_b   8.48798950
_cell_length_c   10.20264762
_cell_angle_alpha   90.00000000
_cell_angle_beta   90.00000000
_cell_angle_gamma   104.94525948
_symmetry_Int_Tables_number   1
_chemical_formula_structural   CsVP2O7
_chemical_formula_sum   'Cs4 V4 P8 O28'
_cell_volume   656.01386099
_cell_formula_units_Z   4
loop_
 _symmetry_equiv_pos_site_id
 _symmetry_equiv_pos_as_xyz
  1  'x, y, z'
loop_
 _atom_site_type_symbol
 _atom_site_label
 _atom_site_symmetry_multiplicity
 _atom_site_fract_x
 _atom_site_fract_y
 _atom_site_fract_z
 _atom_site_occupancy
  Cs  Cs0  1  0.80203649  0.45969294  0.29702068  1
  Cs  Cs1  1  0.80203649  0.95969294  0.20297932  1
  Cs  Cs2  1  0.19796351  0.54030706  0.70297932  1
  Cs  Cs3  1  0.19796351  0.04030706  0.79702068  1
  V  V4  1  0.75917872  0.74107550  0.60177625  1
  V  V5  1  0.75917872  0.24107550  0.89822375  1
  V  V6  1  0.24082128  0.75892450  0.10177625  1
  V  V7  1  0.24082128  0.25892450  0.39822375  1
  P  P8  1  0.57467082  0.81731429  0.87295219  1
  P  P9  1  0.13190519  0.83262285  0.40447221  1
  P  P10  1  0.42532918  0.18268571  0.12704781  1
  P  P11  1  0.13190519  0.33262285  0.09552779  1
  P  P12  1  0.86809481  0.66737715  0.90447221  1
  P  P13  1  0.42532918  0.68268571  0.37295219  1
  P  P14  1  0.86809481  0.16737715  0.59552779  1
  P  P15  1  0.57467082  0.31731429  0.62704781  1
  O  O16  1  0.83978346  0.98428528  0.58403883  1
  O  O17  1  0.16021654  0.51571472  0.08403883  1
  O  O18  1  0.98874676  0.73458614  0.49536695  1
  O  O19  1  0.31614808  0.29494156  0.04926339  1
  O  O20  1  0.68385192  0.70505844  0.95073661  1
  O  O21  1  0.68385192  0.20505844  0.54926339  1
  O  O22  1  0.01125324  0.26541386  0.50463305  1
  O  O23  1  0.61011761  0.72899266  0.43310576  1
  O  O24  1  0.31614808  0.79494156  0.45073661  1
  O  O25  1  0.56321761  0.26638338  0.77164857  1
  O  O26  1  0.38988239  0.27100734  0.56689424  1
  O  O27  1  0.38988239  0.77100734  0.93310576  1
  O  O28  1  0.32317873  0.50670688  0.39903790  1
  O  O29  1  0.90588477  0.73015603  0.76267042  1
  O  O30  1  0.61011761  0.22899266  0.06689424  1
  O  O31  1  0.67682127  0.49329312  0.60096210  1
  O  O32  1  0.43678239  0.73361662  0.22835143  1
  O  O33  1  0.67682127  0.99329312  0.89903790  1
  O  O34  1  0.83978346  0.48428528  0.91596117  1
  O  O35  1  0.43678239  0.23361662  0.27164857  1
  O  O36  1  0.32317873  0.00670688  0.10096210  1
  O  O37  1  0.90588477  0.23015603  0.73732958  1
  O  O38  1  0.01125324  0.76541386  0.99536695  1
  O  O39  1  0.56321761  0.76638338  0.72835143  1
  O  O40  1  0.09411523  0.26984397  0.23732958  1
  O  O41  1  0.09411523  0.76984397  0.26267042  1
  O  O42  1  0.16021654  0.01571472  0.41596117  1
  O  O43  1  0.98874676  0.23458614  0.00463305  1
