# generated using pymatgen
data_In7Te10
_symmetry_space_group_name_H-M   'P 1'
_cell_length_a   10.91747705
_cell_length_b   10.91747636
_cell_length_c   10.91747651
_cell_angle_alpha   88.70152189
_cell_angle_beta   88.70152196
_cell_angle_gamma   88.70151982
_symmetry_Int_Tables_number   1
_chemical_formula_structural   In7Te10
_chemical_formula_sum   'In14 Te20'
_cell_volume   1300.28063546
_cell_formula_units_Z   2
loop_
 _symmetry_equiv_pos_site_id
 _symmetry_equiv_pos_as_xyz
  1  'x, y, z'
loop_
 _atom_site_type_symbol
 _atom_site_label
 _atom_site_symmetry_multiplicity
 _atom_site_fract_x
 _atom_site_fract_y
 _atom_site_fract_z
 _atom_site_occupancy
  In  In0  1  0.75104191  0.33026674  0.17257733  1
  In  In1  1  0.14556472  0.11937122  0.42536069  1
  In  In2  1  0.57463931  0.88062878  0.85443528  1
  In  In3  1  0.17257733  0.75104191  0.33026674  1
  In  In4  1  0.82742267  0.66973326  0.24895809  1
  In  In5  1  0.85443528  0.57463931  0.88062878  1
  In  In6  1  0.42536069  0.14556472  0.11937122  1
  In  In7  1  0.42668538  0.42668538  0.42668538  1
  In  In8  1  0.57331462  0.57331462  0.57331462  1
  In  In9  1  0.24895809  0.82742267  0.66973326  1
  In  In10  1  0.11937122  0.42536069  0.14556472  1
  In  In11  1  0.88062878  0.85443528  0.57463931  1
  In  In12  1  0.66973326  0.24895809  0.82742267  1
  In  In13  1  0.33026674  0.17257733  0.75104191  1
  Te  Te14  1  0.07178966  0.66923231  0.56594577  1
  Te  Te15  1  0.33076769  0.92821034  0.43405423  1
  Te  Te16  1  0.56594577  0.07178966  0.66923231  1
  Te  Te17  1  0.83621395  0.16378605  1.00000000  1
  Te  Te18  1  0.56366891  0.22161671  0.32499733  1
  Te  Te19  1  0.77838329  0.43633109  0.67500267  1
  Te  Te20  1  0.16378605  1.00000000  0.83621395  1
  Te  Te21  1  0.90161291  0.09838709  0.50000000  1
  Te  Te22  1  0.16446650  0.16446650  0.16446650  1
  Te  Te23  1  0.00000000  0.83621395  0.16378605  1
  Te  Te24  1  0.22161671  0.32499733  0.56366891  1
  Te  Te25  1  0.43405423  0.33076769  0.92821034  1
  Te  Te26  1  0.43633109  0.67500267  0.77838329  1
  Te  Te27  1  0.83553350  0.83553350  0.83553350  1
  Te  Te28  1  0.50000000  0.90161291  0.09838709  1
  Te  Te29  1  0.66923231  0.56594577  0.07178966  1
  Te  Te30  1  0.67500267  0.77838329  0.43633109  1
  Te  Te31  1  0.92821034  0.43405423  0.33076769  1
  Te  Te32  1  0.09838709  0.50000000  0.90161291  1
  Te  Te33  1  0.32499733  0.56366891  0.22161671  1
