# generated using pymatgen
data_K2Ru(NO2)5
_symmetry_space_group_name_H-M   'P 1'
_cell_length_a   7.20091194
_cell_length_b   12.69883620
_cell_length_c   12.77167790
_cell_angle_alpha   90.00000000
_cell_angle_beta   92.94078581
_cell_angle_gamma   90.00000000
_symmetry_Int_Tables_number   1
_chemical_formula_structural   K2Ru(NO2)5
_chemical_formula_sum   'K8 Ru4 N20 O40'
_cell_volume   1166.34511499
_cell_formula_units_Z   4
loop_
 _symmetry_equiv_pos_site_id
 _symmetry_equiv_pos_as_xyz
  1  'x, y, z'
loop_
 _atom_site_type_symbol
 _atom_site_label
 _atom_site_symmetry_multiplicity
 _atom_site_fract_x
 _atom_site_fract_y
 _atom_site_fract_z
 _atom_site_occupancy
  K  K0  1  0.72685300  0.36152235  0.28047244  1
  K  K1  1  0.27314700  0.86152235  0.21952756  1
  K  K2  1  0.27314700  0.63847765  0.71952756  1
  K  K3  1  0.72685300  0.13847765  0.78047244  1
  K  K4  1  0.75657927  0.03587952  0.37499262  1
  K  K5  1  0.24342073  0.53587952  0.12500738  1
  K  K6  1  0.24342073  0.96412048  0.62500738  1
  K  K7  1  0.75657927  0.46412048  0.87499262  1
  Ru  Ru8  1  0.74487529  0.71211346  0.39992829  1
  Ru  Ru9  1  0.25512471  0.21211346  0.10007171  1
  Ru  Ru10  1  0.25512471  0.28788654  0.60007171  1
  Ru  Ru11  1  0.74487529  0.78788654  0.89992829  1
  N  N12  1  0.78762107  0.59742276  0.48598357  1
  N  N13  1  0.21237893  0.09742276  0.01401643  1
  N  N14  1  0.21237893  0.40257724  0.51401643  1
  N  N15  1  0.78762107  0.90257724  0.98598357  1
  N  N16  1  0.90242594  0.64251801  0.27966951  1
  N  N17  1  0.09757406  0.14251801  0.22033049  1
  N  N18  1  0.09757406  0.35748199  0.72033049  1
  N  N19  1  0.90242594  0.85748199  0.77966951  1
  N  N20  1  0.59280010  0.78927986  0.52027067  1
  N  N21  1  0.40719990  0.28927986  0.97972933  1
  N  N22  1  0.40719990  0.21072014  0.47972933  1
  N  N23  1  0.59280010  0.71072014  0.02027067  1
  N  N24  1  0.99596292  0.78759089  0.45774060  1
  N  N25  1  0.00403708  0.28759089  0.04225940  1
  N  N26  1  0.00403708  0.21240911  0.54225940  1
  N  N27  1  0.99596292  0.71240911  0.95774060  1
  N  N28  1  0.49896664  0.63136903  0.33771827  1
  N  N29  1  0.50103336  0.13136903  0.16228173  1
  N  N30  1  0.50103336  0.36863097  0.66228173  1
  N  N31  1  0.49896664  0.86863097  0.83771827  1
  O  O32  1  0.67591257  0.82174269  0.31685638  1
  O  O33  1  0.32408743  0.32174269  0.18314362  1
  O  O34  1  0.32408743  0.17825731  0.68314362  1
  O  O35  1  0.67591257  0.67825731  0.81685638  1
  O  O36  1  0.93097198  0.54553008  0.27776066  1
  O  O37  1  0.06902802  0.04553008  0.22223934  1
  O  O38  1  0.06902802  0.45446992  0.72223934  1
  O  O39  1  0.93097198  0.95446992  0.77776066  1
  O  O40  1  0.96900871  0.70106748  0.21307872  1
  O  O41  1  0.03099129  0.20106748  0.28692128  1
  O  O42  1  0.03099129  0.29893252  0.78692128  1
  O  O43  1  0.96900871  0.79893252  0.71307872  1
  O  O44  1  0.50870865  0.53443660  0.31904911  1
  O  O45  1  0.49129135  0.03443660  0.18095089  1
  O  O46  1  0.49129135  0.46556340  0.68095089  1
  O  O47  1  0.50870865  0.96556340  0.81904911  1
  O  O48  1  0.35025129  0.67925510  0.31740976  1
  O  O49  1  0.64974871  0.17925510  0.18259024  1
  O  O50  1  0.64974871  0.32074490  0.68259024  1
  O  O51  1  0.35025129  0.82074490  0.81740976  1
  O  O52  1  0.52616772  0.73649977  0.59109210  1
  O  O53  1  0.47383228  0.23649977  0.90890790  1
  O  O54  1  0.47383228  0.26350023  0.40890790  1
  O  O55  1  0.52616772  0.76350023  0.09109210  1
  O  O56  1  0.57252496  0.88719070  0.51659247  1
  O  O57  1  0.42747504  0.38719070  0.98340753  1
  O  O58  1  0.42747504  0.11280930  0.48340753  1
  O  O59  1  0.57252496  0.61280930  0.01659247  1
  O  O60  1  0.10900538  0.73589044  0.51395669  1
  O  O61  1  0.89099462  0.23589044  0.98604331  1
  O  O62  1  0.89099462  0.26410956  0.48604331  1
  O  O63  1  0.10900538  0.76410956  0.01395669  1
  O  O64  1  0.03013296  0.88166645  0.43514059  1
  O  O65  1  0.96986704  0.38166645  0.06485941  1
  O  O66  1  0.96986704  0.11833355  0.56485941  1
  O  O67  1  0.03013296  0.61833355  0.93514059  1
  O  O68  1  0.79850262  0.52176546  0.53811612  1
  O  O69  1  0.20149738  0.02176546  0.96188388  1
  O  O70  1  0.20149738  0.47823454  0.46188388  1
  O  O71  1  0.79850262  0.97823454  0.03811612  1
