# generated using pymatgen
data_Re3(SeCl)7
_symmetry_space_group_name_H-M   'P 1'
_cell_length_a   10.49171596
_cell_length_b   12.25600304
_cell_length_c   14.64555213
_cell_angle_alpha   90.00000000
_cell_angle_beta   90.00000000
_cell_angle_gamma   90.00000000
_symmetry_Int_Tables_number   1
_chemical_formula_structural   Re3(SeCl)7
_chemical_formula_sum   'Re12 Se28 Cl28'
_cell_volume   1883.22032852
_cell_formula_units_Z   4
loop_
 _symmetry_equiv_pos_site_id
 _symmetry_equiv_pos_as_xyz
  1  'x, y, z'
loop_
 _atom_site_type_symbol
 _atom_site_label
 _atom_site_symmetry_multiplicity
 _atom_site_fract_x
 _atom_site_fract_y
 _atom_site_fract_z
 _atom_site_occupancy
  Re  Re0  1  0.11764938  0.72311122  0.55888299  1
  Re  Re1  1  0.75000000  0.26654981  0.60645191  1
  Re  Re2  1  0.75000000  0.73345019  0.10645191  1
  Re  Re3  1  0.88235062  0.27688878  0.44111701  1
  Re  Re4  1  0.88235062  0.72311122  0.94111701  1
  Re  Re5  1  0.11764938  0.27688878  0.05888299  1
  Re  Re6  1  0.38235062  0.72311122  0.55888299  1
  Re  Re7  1  0.61764938  0.72311122  0.94111701  1
  Re  Re8  1  0.25000000  0.73345019  0.39354809  1
  Re  Re9  1  0.61764938  0.27688878  0.44111701  1
  Re  Re10  1  0.25000000  0.26654981  0.89354809  1
  Re  Re11  1  0.38235062  0.27688878  0.05888299  1
  Se  Se12  1  0.90608059  0.12296338  0.55456467  1
  Se  Se13  1  0.00294562  0.29000776  0.90071680  1
  Se  Se14  1  0.75000000  0.57237998  0.00357489  1
  Se  Se15  1  0.75000000  0.86486492  0.85875926  1
  Se  Se16  1  0.25000000  0.68879764  0.70587415  1
  Se  Se17  1  0.50294562  0.29000776  0.59928320  1
  Se  Se18  1  0.00294562  0.70999224  0.40071680  1
  Se  Se19  1  0.75000000  0.68879764  0.79412585  1
  Se  Se20  1  0.40608059  0.87703662  0.44543533  1
  Se  Se21  1  0.09391941  0.87703662  0.44543533  1
  Se  Se22  1  0.09391941  0.12296338  0.94543533  1
  Se  Se23  1  0.90608059  0.87703662  0.05456467  1
  Se  Se24  1  0.75000000  0.42762002  0.50357489  1
  Se  Se25  1  0.59391941  0.12296338  0.55456467  1
  Se  Se26  1  0.25000000  0.57237998  0.49642511  1
  Se  Se27  1  0.75000000  0.13513508  0.35875926  1
  Se  Se28  1  0.25000000  0.42762002  0.99642511  1
  Se  Se29  1  0.40608059  0.12296338  0.94543533  1
  Se  Se30  1  0.25000000  0.31120236  0.20587415  1
  Se  Se31  1  0.99705438  0.70999224  0.09928320  1
  Se  Se32  1  0.49705438  0.70999224  0.40071680  1
  Se  Se33  1  0.25000000  0.86486492  0.64124074  1
  Se  Se34  1  0.49705438  0.29000776  0.90071680  1
  Se  Se35  1  0.25000000  0.13513508  0.14124074  1
  Se  Se36  1  0.59391941  0.87703662  0.05456467  1
  Se  Se37  1  0.50294562  0.70999224  0.09928320  1
  Se  Se38  1  0.99705438  0.29000776  0.59928320  1
  Se  Se39  1  0.75000000  0.31120236  0.29412585  1
  Cl  Cl40  1  0.75000000  0.84569382  0.24473597  1
  Cl  Cl41  1  0.05699707  0.81809493  0.86795523  1
  Cl  Cl42  1  0.98893621  0.42948095  0.11132312  1
  Cl  Cl43  1  0.44300293  0.81809493  0.86795523  1
  Cl  Cl44  1  0.94300293  0.18190507  0.13204477  1
  Cl  Cl45  1  0.25000000  0.03794181  0.52801185  1
  Cl  Cl46  1  0.01106379  0.42948095  0.38867688  1
  Cl  Cl47  1  0.55699707  0.18190507  0.13204477  1
  Cl  Cl48  1  0.75000000  0.59515446  0.22394362  1
  Cl  Cl49  1  0.55699707  0.81809493  0.63204477  1
  Cl  Cl50  1  0.48893621  0.42948095  0.38867688  1
  Cl  Cl51  1  0.75000000  0.40484554  0.72394362  1
  Cl  Cl52  1  0.48893621  0.57051905  0.88867688  1
  Cl  Cl53  1  0.25000000  0.59515446  0.27605638  1
  Cl  Cl54  1  0.05699707  0.18190507  0.36795523  1
  Cl  Cl55  1  0.98893621  0.57051905  0.61132312  1
  Cl  Cl56  1  0.25000000  0.15430618  0.75526403  1
  Cl  Cl57  1  0.25000000  0.40484554  0.77605638  1
  Cl  Cl58  1  0.01106379  0.57051905  0.88867688  1
  Cl  Cl59  1  0.51106379  0.57051905  0.61132312  1
  Cl  Cl60  1  0.44300293  0.18190507  0.36795523  1
  Cl  Cl61  1  0.75000000  0.03794181  0.97198815  1
  Cl  Cl62  1  0.75000000  0.96205819  0.47198815  1
  Cl  Cl63  1  0.94300293  0.81809493  0.63204477  1
  Cl  Cl64  1  0.25000000  0.96205819  0.02801185  1
  Cl  Cl65  1  0.51106379  0.42948095  0.11132312  1
  Cl  Cl66  1  0.75000000  0.15430618  0.74473597  1
  Cl  Cl67  1  0.25000000  0.84569382  0.25526403  1
