# generated using pymatgen
data_Na3Sm17Si12(O25F)2
_symmetry_space_group_name_H-M   'P 1'
_cell_length_a   9.56910769
_cell_length_b   9.56910757
_cell_length_c   14.01834496
_cell_angle_alpha   90.00000000
_cell_angle_beta   90.00000000
_cell_angle_gamma   119.99999699
_symmetry_Int_Tables_number   1
_chemical_formula_structural   Na3Sm17Si12(O25F)2
_chemical_formula_sum   'Na3 Sm17 Si12 O50 F2'
_cell_volume   1111.65561649
_cell_formula_units_Z   1
loop_
 _symmetry_equiv_pos_site_id
 _symmetry_equiv_pos_as_xyz
  1  'x, y, z'
loop_
 _atom_site_type_symbol
 _atom_site_label
 _atom_site_symmetry_multiplicity
 _atom_site_fract_x
 _atom_site_fract_y
 _atom_site_fract_z
 _atom_site_occupancy
  Na  Na0  1  0.33333300  0.66666700  0.74695269  1
  Na  Na1  1  0.66666700  0.33333300  0.99812221  1
  Na  Na2  1  0.66666700  0.33333300  0.49571124  1
  Sm  Sm3  1  0.23318436  0.99301310  0.12445153  1
  Sm  Sm4  1  0.24999146  0.99175733  0.62491762  1
  Sm  Sm5  1  0.00698690  0.24017126  0.12445153  1
  Sm  Sm6  1  0.00824267  0.25823414  0.62491762  1
  Sm  Sm7  1  0.33333300  0.66666700  0.50512238  1
  Sm  Sm8  1  0.33333300  0.66666700  0.99450741  1
  Sm  Sm9  1  0.33333300  0.66666700  0.24954959  1
  Sm  Sm10  1  0.24341316  0.23326224  0.37558395  1
  Sm  Sm11  1  0.25894537  0.25020278  0.87567284  1
  Sm  Sm12  1  0.75982874  0.76681564  0.12445153  1
  Sm  Sm13  1  0.74176586  0.75000854  0.62491762  1
  Sm  Sm14  1  0.66666700  0.33333300  0.24872459  1
  Sm  Sm15  1  0.66666700  0.33333300  0.75029298  1
  Sm  Sm16  1  0.98985007  0.75658684  0.37558395  1
  Sm  Sm17  1  0.99125841  0.74105463  0.87567284  1
  Sm  Sm18  1  0.76673776  0.01014993  0.37558395  1
  Sm  Sm19  1  0.74979722  0.00874159  0.87567284  1
  Si  Si20  1  0.02852064  0.39860617  0.37315048  1
  Si  Si21  1  0.02627463  0.39157104  0.87379392  1
  Si  Si22  1  0.37008653  0.97147936  0.37315048  1
  Si  Si23  1  0.36529641  0.97372537  0.87379392  1
  Si  Si24  1  0.39938113  0.37080806  0.12504830  1
  Si  Si25  1  0.39227061  0.36554088  0.62366048  1
  Si  Si26  1  0.60139383  0.62991347  0.37315048  1
  Si  Si27  1  0.60842896  0.63470359  0.87379392  1
  Si  Si28  1  0.62919194  0.02857307  0.12504830  1
  Si  Si29  1  0.63445912  0.02672973  0.62366048  1
  Si  Si30  1  0.97327027  0.60772939  0.62366048  1
  Si  Si31  1  0.97142693  0.60061887  0.12504830  1
  O  O32  1  0.00000000  0.00000000  0.12722153  1
  O  O33  1  0.25166485  0.90633680  0.46769238  1
  O  O34  1  0.24609989  0.90501906  0.96845864  1
  O  O35  1  0.24655470  0.89813838  0.28066682  1
  O  O36  1  0.23449848  0.91291940  0.78516326  1
  O  O37  1  0.12622686  0.59811149  0.37512799  1
  O  O38  1  0.11849104  0.59006972  0.87786189  1
  O  O39  1  0.16981354  0.68142194  0.12422877  1
  O  O40  1  0.16952807  0.69156923  0.62033658  1
  O  O41  1  0.10186162  0.34841632  0.28066682  1
  O  O42  1  0.08708060  0.32157908  0.78516326  1
  O  O43  1  0.09366320  0.34532906  0.46769238  1
  O  O44  1  0.09498094  0.34108083  0.96845864  1
  O  O45  1  0.00000000  0.00000000  0.37673446  1
  O  O46  1  0.47157968  0.88150896  0.87786189  1
  O  O47  1  0.47188363  0.87377314  0.37512799  1
  O  O48  1  0.31857806  0.48839160  0.12422877  1
  O  O49  1  0.30843077  0.47795883  0.62033658  1
  O  O50  1  0.51160840  0.83018646  0.12422877  1
  O  O51  1  0.52204117  0.83047193  0.62033658  1
  O  O52  1  0.40188851  0.52811637  0.37512799  1
  O  O53  1  0.40993028  0.52842032  0.87786189  1
  O  O54  1  0.32560347  0.24464362  0.03479396  1
  O  O55  1  0.32108409  0.23478946  0.53519061  1
  O  O56  1  0.34128244  0.24979303  0.21894433  1
  O  O57  1  0.33994330  0.24635135  0.71814738  1
  O  O58  1  0.65158368  0.75344530  0.28066682  1
  O  O59  1  0.65467094  0.74833515  0.46769238  1
  O  O60  1  0.67842092  0.76550152  0.78516326  1
  O  O61  1  0.65891917  0.75390011  0.96845864  1
  O  O62  1  0.59616188  0.47622151  0.12927105  1
  O  O63  1  0.59027098  0.47291615  0.62866435  1
  O  O64  1  0.47747307  0.16670689  0.36917522  1
  O  O65  1  0.47806001  0.16961251  0.86966500  1
  O  O66  1  0.68923282  0.52252693  0.36917522  1
  O  O67  1  0.69155349  0.52193999  0.86966500  1
  O  O68  1  0.52377849  0.11994037  0.12927105  1
  O  O69  1  0.52708385  0.11735483  0.62866435  1
  O  O70  1  0.91904014  0.67439653  0.03479396  1
  O  O71  1  0.90851058  0.65871756  0.21894433  1
  O  O72  1  0.91370636  0.67891591  0.53519061  1
  O  O73  1  0.90640805  0.66005670  0.71814738  1
  O  O74  1  0.83329311  0.31076718  0.36917522  1
  O  O75  1  0.83038749  0.30844651  0.86966500  1
  O  O76  1  0.88005963  0.40383812  0.12927105  1
  O  O77  1  0.88264517  0.40972902  0.62866435  1
  O  O78  1  0.75020697  0.09148942  0.21894433  1
  O  O79  1  0.75364865  0.09359095  0.71814738  1
  O  O80  1  0.75535638  0.08095986  0.03479396  1
  O  O81  1  0.76521054  0.08629364  0.53519061  1
  F  F82  1  0.00000000  0.00000000  0.63039794  1
  F  F83  1  0.00000000  0.00000000  0.87766594  1
