# generated using pymatgen
data_Hf5ZrTe8
_symmetry_space_group_name_H-M   'P 1'
_cell_length_a   10.98042772
_cell_length_b   11.01525157
_cell_length_c   15.77775301
_cell_angle_alpha   90.00959212
_cell_angle_beta   89.98827483
_cell_angle_gamma   119.90940878
_symmetry_Int_Tables_number   1
_chemical_formula_structural   Hf5ZrTe8
_chemical_formula_sum   'Hf20 Zr4 Te32'
_cell_volume   1654.18918750
_cell_formula_units_Z   4
loop_
 _symmetry_equiv_pos_site_id
 _symmetry_equiv_pos_as_xyz
  1  'x, y, z'
loop_
 _atom_site_type_symbol
 _atom_site_label
 _atom_site_symmetry_multiplicity
 _atom_site_fract_x
 _atom_site_fract_y
 _atom_site_fract_z
 _atom_site_occupancy
  Hf  Hf0  1  0.12287907  0.63293214  0.06263798  1
  Hf  Hf1  1  0.12496777  0.63416744  0.56206574  1
  Hf  Hf2  1  0.12317448  0.63295269  0.81269763  1
  Hf  Hf3  1  0.51152957  0.87846496  0.31223800  1
  Hf  Hf4  1  0.51146793  0.87872843  0.06236707  1
  Hf  Hf5  1  0.51061294  0.87779425  0.81192425  1
  Hf  Hf6  1  0.36812871  0.49142941  0.06207036  1
  Hf  Hf7  1  0.36707245  0.49031463  0.31239018  1
  Hf  Hf8  1  0.36798824  0.48994797  0.56236672  1
  Hf  Hf9  1  0.36798088  0.49029638  0.81311310  1
  Hf  Hf10  1  0.63251818  0.51001519  0.18775192  1
  Hf  Hf11  1  0.63234763  0.50886396  0.68709001  1
  Hf  Hf12  1  0.63197277  0.50982981  0.93705083  1
  Hf  Hf13  1  0.48871839  0.12293536  0.43716639  1
  Hf  Hf14  1  0.48856269  0.12124818  0.68737534  1
  Hf  Hf15  1  0.48899299  0.12211837  0.93832919  1
  Hf  Hf16  1  0.87736033  0.36710345  0.43691175  1
  Hf  Hf17  1  0.87673211  0.36621881  0.18723596  1
  Hf  Hf18  1  0.87690100  0.36701391  0.68834267  1
  Hf  Hf19  1  0.87653232  0.36757117  0.93734859  1
  Zr  Zr20  1  0.12374294  0.63215768  0.31275246  1
  Zr  Zr21  1  0.51033768  0.87815306  0.56345515  1
  Zr  Zr22  1  0.63157944  0.50866857  0.43816868  1
  Zr  Zr23  1  0.49032409  0.12268375  0.18707371  1
  Te  Te24  1  0.28653414  0.94360532  0.06165148  1
  Te  Te25  1  0.28828576  0.94563103  0.31344052  1
  Te  Te26  1  0.28593864  0.94751093  0.56230324  1
  Te  Te27  1  0.28771837  0.94575116  0.81268750  1
  Te  Te28  1  0.05441722  0.34323597  0.06202748  1
  Te  Te29  1  0.05275824  0.33944140  0.31191870  1
  Te  Te30  1  0.05429212  0.34348452  0.56273965  1
  Te  Te31  1  0.05458309  0.34331133  0.81296186  1
  Te  Te32  1  0.33548265  0.66806346  0.18679784  1
  Te  Te33  1  0.33568981  0.66714561  0.43762748  1
  Te  Te34  1  0.33339926  0.66589804  0.68820549  1
  Te  Te35  1  0.33453931  0.66797449  0.93736735  1
  Te  Te36  1  0.34143377  0.29031851  0.18712794  1
  Te  Te37  1  0.33783246  0.28670613  0.43698919  1
  Te  Te38  1  0.34138652  0.28836606  0.68781163  1
  Te  Te39  1  0.34141853  0.28825889  0.93790327  1
  Te  Te40  1  0.65884230  0.71170970  0.06210210  1
  Te  Te41  1  0.65758674  0.71230002  0.31193085  1
  Te  Te42  1  0.65809492  0.71122723  0.56407742  1
  Te  Te43  1  0.65854925  0.71145922  0.81208901  1
  Te  Te44  1  0.66648580  0.33407257  0.06191180  1
  Te  Te45  1  0.66677069  0.33309746  0.31229142  1
  Te  Te46  1  0.66490099  0.33211083  0.81266814  1
  Te  Te47  1  0.66605110  0.33112628  0.56308781  1
  Te  Te48  1  0.94399103  0.65574306  0.18675316  1
  Te  Te49  1  0.94588563  0.65638787  0.43895053  1
  Te  Te50  1  0.94626881  0.65678672  0.68738644  1
  Te  Te51  1  0.94567433  0.65729107  0.93733907  1
  Te  Te52  1  0.71435684  0.05295748  0.18696391  1
  Te  Te53  1  0.71267292  0.05621251  0.43669985  1
  Te  Te54  1  0.71355022  0.05656310  0.68902212  1
  Te  Te55  1  0.71218392  0.05464243  0.93724206  1
