# generated using pymatgen
data_NaEu2Cl6
_symmetry_space_group_name_H-M   'P 1'
_cell_length_a   22.87220899
_cell_length_b   13.20527624
_cell_length_c   4.46962826
_cell_angle_alpha   90.00000000
_cell_angle_beta   90.00000000
_cell_angle_gamma   29.99999640
_symmetry_Int_Tables_number   1
_chemical_formula_structural   NaEu2Cl6
_chemical_formula_sum   'Na3 Eu6 Cl18'
_cell_volume   674.98941514
_cell_formula_units_Z   3
loop_
 _symmetry_equiv_pos_site_id
 _symmetry_equiv_pos_as_xyz
  1  'x, y, z'
loop_
 _atom_site_type_symbol
 _atom_site_label
 _atom_site_symmetry_multiplicity
 _atom_site_fract_x
 _atom_site_fract_y
 _atom_site_fract_z
 _atom_site_occupancy
  Na  Na0  1  0.33333300  0.00000000  -0.00003859  1
  Na  Na1  1  0.66666700  0.00000000  0.49838365  1
  Na  Na2  1  -0.00000000  0.00000000  0.75234462  1
  Eu  Eu3  1  0.00034711  0.33286882  0.75022938  1
  Eu  Eu4  1  0.33321593  0.33322003  0.75022938  1
  Eu  Eu5  1  0.33213617  0.66808251  0.25001337  1
  Eu  Eu6  1  0.66643696  0.33391015  0.75022938  1
  Eu  Eu7  1  0.66764515  0.66449202  0.25001337  1
  Eu  Eu8  1  0.00021868  0.66742747  0.25001337  1
  Cl  Cl9  1  0.17626834  0.08647392  0.25285646  1
  Cl  Cl10  1  0.10385677  0.38629115  0.74978092  1
  Cl  Cl11  1  0.26274326  0.29824615  0.25285646  1
  Cl  Cl12  1  0.07413376  0.69040881  0.74819510  1
  Cl  Cl13  1  0.22210354  0.62510014  0.24687469  1
  Cl  Cl14  1  0.50787999  0.08591313  0.24998246  1
  Cl  Cl15  1  0.16132468  0.91280908  0.74819510  1
  Cl  Cl16  1  0.43630348  0.38676095  0.75183739  1
  Cl  Cl17  1  0.59379311  0.30453379  0.24998246  1
  Cl  Cl18  1  0.40599530  0.69786147  0.74978092  1
  Cl  Cl19  1  0.56098941  0.61527893  0.25285646  1
  Cl  Cl20  1  0.84720368  0.08348810  0.24687469  1
  Cl  Cl21  1  0.49014792  0.91584738  0.74978092  1
  Cl  Cl22  1  0.76454257  0.39678111  0.74819510  1
  Cl  Cl23  1  0.93069178  0.29141176  0.24687469  1
  Cl  Cl24  1  0.74063109  0.69567239  0.75183739  1
  Cl  Cl25  1  0.89832690  0.60955309  0.24998246  1
  Cl  Cl26  1  0.82306443  0.91756666  0.75183739  1
