# generated using pymatgen
data_K10Th3(P5S18)2
_symmetry_space_group_name_H-M   'P 1'
_cell_length_a   9.16855498
_cell_length_b   17.25483622
_cell_length_c   22.90234589
_cell_angle_alpha   85.49261743
_cell_angle_beta   78.45331361
_cell_angle_gamma   74.59259525
_symmetry_Int_Tables_number   1
_chemical_formula_structural   K10Th3(P5S18)2
_chemical_formula_sum   'K20 Th6 P20 S72'
_cell_volume   3421.05172487
_cell_formula_units_Z   2
loop_
 _symmetry_equiv_pos_site_id
 _symmetry_equiv_pos_as_xyz
  1  'x, y, z'
loop_
 _atom_site_type_symbol
 _atom_site_label
 _atom_site_symmetry_multiplicity
 _atom_site_fract_x
 _atom_site_fract_y
 _atom_site_fract_z
 _atom_site_occupancy
  K  K0  1  0.23010748  0.05920229  0.57332877  1
  K  K1  1  0.64183061  0.81786874  0.12692582  1
  K  K2  1  0.13736146  0.55920229  0.07332877  1
  K  K3  1  0.59394794  0.54126707  0.16347744  1
  K  K4  1  0.40605206  0.45873293  0.83652256  1
  K  K5  1  0.35816939  0.18213126  0.87307418  1
  K  K6  1  0.76989252  0.94079771  0.42667123  1
  K  K7  1  0.58662517  0.68213126  0.37307418  1
  K  K8  1  0.29869246  0.95873293  0.33652256  1
  K  K9  1  0.84246455  0.68964659  0.76365767  1
  K  K10  1  0.84880700  0.95665004  0.89935054  1
  K  K11  1  0.15753545  0.31035341  0.23634233  1
  K  K12  1  0.41337483  0.31786874  0.62692582  1
  K  K13  1  0.70423119  0.18964659  0.26365767  1
  K  K14  1  0.86263854  0.44079771  0.92667123  1
  K  K15  1  0.29576881  0.81035341  0.73634233  1
  K  K16  1  0.70130754  0.04126707  0.66347744  1
  K  K17  1  0.29519243  0.45665004  0.39935054  1
  K  K18  1  0.15119300  0.04334996  0.10064946  1
  K  K19  1  0.70480757  0.54334996  0.60064946  1
  Th  Th20  1  0.16735711  0.71773617  0.55543247  1
  Th  Th21  1  0.44052574  0.78226383  0.94456753  1
  Th  Th22  1  0.96540881  0.25000000  0.75000000  1
  Th  Th23  1  0.55947426  0.21773617  0.05543247  1
  Th  Th24  1  0.03459119  0.75000000  0.25000000  1
  Th  Th25  1  0.83264289  0.28226383  0.44456753  1
  P  P26  1  0.12265313  0.74383969  0.39980447  1
  P  P27  1  0.12143008  0.74172590  0.89111805  1
  P  P28  1  0.52653472  0.04402590  0.15175395  1
  P  P29  1  0.26629728  0.75616031  0.10019553  1
  P  P30  1  0.27768543  0.54402590  0.65175395  1
  P  P31  1  0.87856992  0.25827410  0.10888195  1
  P  P32  1  0.24078195  0.05254471  0.74641882  1
  P  P33  1  0.47346528  0.95597410  0.84824605  1
  P  P34  1  0.75921805  0.94745529  0.25358118  1
  P  P35  1  0.55867658  0.16473148  0.47040635  1
  P  P36  1  0.75427404  0.75827410  0.60888195  1
  P  P37  1  0.87734687  0.25616031  0.60019553  1
  P  P38  1  0.72231457  0.45597410  0.34824605  1
  P  P39  1  0.80618560  0.66473148  0.97040635  1
  P  P40  1  0.96025453  0.55254471  0.24641882  1
  P  P41  1  0.73370272  0.24383969  0.89980447  1
  P  P42  1  0.19381440  0.33526852  0.02959365  1
  P  P43  1  0.44132342  0.83526852  0.52959365  1
  P  P44  1  0.24572596  0.24172590  0.39111805  1
  P  P45  1  0.03974547  0.44745529  0.75358118  1
  S  S46  1  0.08558089  0.48986182  0.66234772  1
  S  S47  1  0.51021814  0.28410394  0.48655712  1
  S  S48  1  0.28924594  0.16236866  0.73906465  1
  S  S49  1  0.26230830  0.76215932  0.32030268  1
  S  S50  1  0.00169675  0.20830800  0.17088527  1
  S  S51  1  0.98916787  0.92468576  0.25560771  1
  S  S52  1  0.48978186  0.71589606  0.51344288  1
  S  S53  1  0.68818998  0.64069819  0.90916521  1
  S  S54  1  0.44465038  0.47691583  0.69117343  1
  S  S55  1  0.61273964  0.02308417  0.80882657  1
  S  S56  1  0.69467307  0.13991433  0.94213041  1
  S  S57  1  0.23779043  0.01013818  0.83765228  1
  S  S58  1  0.16946133  0.57531424  0.24439229  1
  S  S59  1  0.76194662  0.14069819  0.40916521  1
  S  S60  1  0.71912080  0.78410394  0.98655712  1
  S  S61  1  0.08130442  0.25748783  0.62352753  1
  S  S62  1  0.88544674  0.17740740  0.04719376  1
  S  S63  1  0.23805338  0.85930181  0.59083479  1
  S  S64  1  0.88995210  0.67740740  0.54719376  1
  S  S65  1  0.80725010  0.33929687  0.32316972  1
  S  S66  1  0.43258463  0.91439746  0.46131298  1
  S  S67  1  0.71075406  0.83763134  0.26093535  1
  S  S68  1  0.38434823  0.97390455  0.68887126  1
  S  S69  1  0.38089002  0.29169200  0.32911473  1
  S  S70  1  0.19067925  0.33763134  0.76093535  1
  S  S71  1  0.37380766  0.13938306  0.43622338  1
  S  S72  1  0.43912022  0.95352538  0.93920304  1
  S  S73  1  0.31181002  0.35930181  0.09083479  1
  S  S74  1  0.38726036  0.97691583  0.19117343  1
  S  S75  1  0.34477029  0.73784068  0.17969732  1
  S  S76  1  0.03768023  0.75748783  0.12352753  1
  S  S77  1  0.94941410  0.36061694  0.06377662  1
  S  S78  1  0.80829506  0.58560254  0.03868702  1
  S  S79  1  0.10518887  0.18267203  0.36398532  1
  S  S80  1  0.73769170  0.23784068  0.67969732  1
  S  S81  1  0.61910998  0.70830800  0.67088527  1
  S  S82  1  0.11004790  0.32259260  0.45280624  1
  S  S83  1  0.61565177  0.02609545  0.31112874  1
  S  S84  1  0.96231977  0.24251217  0.87647247  1
  S  S85  1  0.05058590  0.63938306  0.93622338  1
  S  S86  1  0.28087920  0.21589606  0.01344288  1
  S  S87  1  0.55534962  0.52308417  0.30882657  1
  S  S88  1  0.53028331  0.83929687  0.82316972  1
  S  S89  1  0.34815379  0.68267203  0.86398532  1
  S  S90  1  0.65522971  0.26215932  0.82030268  1
  S  S91  1  0.95287596  0.47390455  0.18887126  1
  S  S92  1  0.11455326  0.82259260  0.95280624  1
  S  S93  1  0.99830325  0.79169200  0.82911473  1
  S  S94  1  0.33184864  0.54647462  0.56079696  1
  S  S95  1  0.04712404  0.52609545  0.81112874  1
  S  S96  1  0.89481113  0.81732797  0.63601468  1
  S  S97  1  0.19170494  0.41439746  0.96131298  1
  S  S98  1  0.01083213  0.07531424  0.74439229  1
  S  S99  1  0.83053867  0.42468576  0.75560771  1
  S  S100  1  0.61319100  0.33281212  0.95842175  1
  S  S101  1  0.77671781  0.36008567  0.55786959  1
  S  S102  1  0.80932075  0.66236866  0.23906465  1
  S  S103  1  0.90442487  0.16718788  0.54157825  1
  S  S104  1  0.19274990  0.66070313  0.67683028  1
  S  S105  1  0.66815136  0.45352538  0.43920304  1
  S  S106  1  0.76220957  0.98986182  0.16234772  1
  S  S107  1  0.46971669  0.16070313  0.17683028  1
  S  S108  1  0.09557513  0.83281212  0.45842175  1
  S  S109  1  0.22328219  0.63991433  0.44213041  1
  S  S110  1  0.56087978  0.04647462  0.06079696  1
  S  S111  1  0.65184621  0.31732797  0.13601468  1
  S  S112  1  0.62619234  0.86061694  0.56377662  1
  S  S113  1  0.91869558  0.74251217  0.37647247  1
  S  S114  1  0.38680900  0.66718788  0.04157825  1
  S  S115  1  0.56741537  0.08560254  0.53868702  1
  S  S116  1  0.91441911  0.51013818  0.33765228  1
  S  S117  1  0.30532693  0.86008567  0.05786959  1
