# generated using pymatgen
data_Cs4Ru2Cl10O
_symmetry_space_group_name_H-M   'P 1'
_cell_length_a   11.99702471
_cell_length_b   12.69454199
_cell_length_c   14.18961950
_cell_angle_alpha   90.00000000
_cell_angle_beta   90.00000000
_cell_angle_gamma   90.00000000
_symmetry_Int_Tables_number   1
_chemical_formula_structural   Cs4Ru2Cl10O
_chemical_formula_sum   'Cs16 Ru8 Cl40 O4'
_cell_volume   2161.03270565
_cell_formula_units_Z   4
loop_
 _symmetry_equiv_pos_site_id
 _symmetry_equiv_pos_as_xyz
  1  'x, y, z'
loop_
 _atom_site_type_symbol
 _atom_site_label
 _atom_site_symmetry_multiplicity
 _atom_site_fract_x
 _atom_site_fract_y
 _atom_site_fract_z
 _atom_site_occupancy
  Cs  Cs0  1  0.28952763  0.89392806  0.36409348  1
  Cs  Cs1  1  0.47795568  0.78455528  0.63862083  1
  Cs  Cs2  1  0.21047237  0.89392806  0.86409348  1
  Cs  Cs3  1  0.02204432  0.28455528  0.36137917  1
  Cs  Cs4  1  0.78952763  0.60607194  0.36409348  1
  Cs  Cs5  1  0.02204432  0.78455528  0.13862083  1
  Cs  Cs6  1  0.71047237  0.10607194  0.63590652  1
  Cs  Cs7  1  0.21047237  0.39392806  0.63590652  1
  Cs  Cs8  1  0.71047237  0.60607194  0.86409348  1
  Cs  Cs9  1  0.28952763  0.39392806  0.13590652  1
  Cs  Cs10  1  0.47795568  0.28455528  0.86137917  1
  Cs  Cs11  1  0.52204432  0.71544472  0.13862083  1
  Cs  Cs12  1  0.52204432  0.21544472  0.36137917  1
  Cs  Cs13  1  0.78952763  0.10607194  0.13590652  1
  Cs  Cs14  1  0.97795568  0.71544472  0.63862083  1
  Cs  Cs15  1  0.97795568  0.21544472  0.86137917  1
  Ru  Ru16  1  0.41466442  0.55299960  0.40595792  1
  Ru  Ru17  1  0.91466442  0.94700040  0.40595792  1
  Ru  Ru18  1  0.58533558  0.44700040  0.59404208  1
  Ru  Ru19  1  0.58533558  0.94700040  0.90595792  1
  Ru  Ru20  1  0.91466442  0.44700040  0.09404208  1
  Ru  Ru21  1  0.08533558  0.55299960  0.90595792  1
  Ru  Ru22  1  0.41466442  0.05299960  0.09404208  1
  Ru  Ru23  1  0.08533558  0.05299960  0.59404208  1
  Cl  Cl24  1  0.96886853  0.98229897  0.71621622  1
  Cl  Cl25  1  0.51911150  0.71442685  0.39824029  1
  Cl  Cl26  1  0.78339481  0.36729694  0.98878913  1
  Cl  Cl27  1  0.51911150  0.21442685  0.10175971  1
  Cl  Cl28  1  0.28339481  0.13270306  0.98878913  1
  Cl  Cl29  1  0.48088850  0.28557315  0.60175971  1
  Cl  Cl30  1  0.29950560  0.89885199  0.10414120  1
  Cl  Cl31  1  0.71660519  0.86729694  0.01121087  1
  Cl  Cl32  1  0.19627448  0.62381963  0.78341408  1
  Cl  Cl33  1  0.70049440  0.10114801  0.89585880  1
  Cl  Cl34  1  0.19627448  0.12381963  0.71658592  1
  Cl  Cl35  1  0.30372552  0.62381963  0.28341408  1
  Cl  Cl36  1  0.01911150  0.28557315  0.10175971  1
  Cl  Cl37  1  0.80372552  0.87618037  0.28341408  1
  Cl  Cl38  1  0.28339481  0.63270306  0.51121087  1
  Cl  Cl39  1  0.03113147  0.01770103  0.28378378  1
  Cl  Cl40  1  0.20049440  0.89885199  0.60414120  1
  Cl  Cl41  1  0.80372552  0.37618037  0.21658592  1
  Cl  Cl42  1  0.29950560  0.39885199  0.39585880  1
  Cl  Cl43  1  0.79950560  0.60114801  0.10414120  1
  Cl  Cl44  1  0.69627448  0.37618037  0.71658592  1
  Cl  Cl45  1  0.96886853  0.48229897  0.78378378  1
  Cl  Cl46  1  0.48088850  0.78557315  0.89824029  1
  Cl  Cl47  1  0.98088850  0.21442685  0.60175971  1
  Cl  Cl48  1  0.46886853  0.51770103  0.71621622  1
  Cl  Cl49  1  0.78339481  0.86729694  0.51121087  1
  Cl  Cl50  1  0.03113147  0.51770103  0.21621622  1
  Cl  Cl51  1  0.30372552  0.12381963  0.21658592  1
  Cl  Cl52  1  0.21660519  0.13270306  0.48878913  1
  Cl  Cl53  1  0.71660519  0.36729694  0.48878913  1
  Cl  Cl54  1  0.79950560  0.10114801  0.39585880  1
  Cl  Cl55  1  0.21660519  0.63270306  0.01121087  1
  Cl  Cl56  1  0.01911150  0.78557315  0.39824029  1
  Cl  Cl57  1  0.46886853  0.01770103  0.78378378  1
  Cl  Cl58  1  0.53113147  0.98229897  0.21621622  1
  Cl  Cl59  1  0.20049440  0.39885199  0.89585880  1
  Cl  Cl60  1  0.69627448  0.87618037  0.78341408  1
  Cl  Cl61  1  0.53113147  0.48229897  0.28378378  1
  Cl  Cl62  1  0.98088850  0.71442685  0.89824029  1
  Cl  Cl63  1  0.70049440  0.60114801  0.60414120  1
  O  O64  1  0.50000000  0.00000000  0.00000000  1
  O  O65  1  0.50000000  0.50000000  0.50000000  1
  O  O66  1  0.00000000  0.50000000  0.00000000  1
  O  O67  1  0.00000000  0.00000000  0.50000000  1
