# generated using pymatgen
data_TlAgAs2PbS5
_symmetry_space_group_name_H-M   'P 1'
_cell_length_a   8.09988199
_cell_length_b   8.22027204
_cell_length_c   9.43649157
_cell_angle_alpha   62.98369086
_cell_angle_beta   83.37298172
_cell_angle_gamma   65.53519999
_symmetry_Int_Tables_number   1
_chemical_formula_structural   TlAgAs2PbS5
_chemical_formula_sum   'Tl2 Ag2 As4 Pb2 S10'
_cell_volume   507.43993856
_cell_formula_units_Z   2
loop_
 _symmetry_equiv_pos_site_id
 _symmetry_equiv_pos_as_xyz
  1  'x, y, z'
loop_
 _atom_site_type_symbol
 _atom_site_label
 _atom_site_symmetry_multiplicity
 _atom_site_fract_x
 _atom_site_fract_y
 _atom_site_fract_z
 _atom_site_occupancy
  Tl  Tl0  1  0.30412759  0.28193778  0.86423222  1
  Tl  Tl1  1  0.69587241  0.71806222  0.13576778  1
  Ag  Ag2  1  0.10974687  0.84324363  0.91274417  1
  Ag  Ag3  1  0.89025313  0.15675637  0.08725583  1
  As  As4  1  0.11068345  0.67256365  0.37288530  1
  As  As5  1  0.44928483  0.42511882  0.19151852  1
  As  As6  1  0.55071517  0.57488118  0.80848148  1
  As  As7  1  0.88931655  0.32743635  0.62711470  1
  Pb  Pb8  1  0.24863684  0.05220793  0.40725200  1
  Pb  Pb9  1  0.75136316  0.94779207  0.59274800  1
  S  S10  1  0.18339870  0.47358762  0.09170914  1
  S  S11  1  0.13087522  0.71894150  0.58947768  1
  S  S12  1  0.21219888  0.89704730  0.18323303  1
  S  S13  1  0.36810489  0.37114657  0.45097896  1
  S  S14  1  0.62185251  0.10150152  0.24738355  1
  S  S15  1  0.37814749  0.89849848  0.75261645  1
  S  S16  1  0.63189511  0.62885343  0.54902104  1
  S  S17  1  0.78780112  0.10295270  0.81676697  1
  S  S18  1  0.86912478  0.28105850  0.41052232  1
  S  S19  1  0.81660130  0.52641238  0.90829086  1
