# generated using pymatgen
data_Cs4Re6C4S9N4
_symmetry_space_group_name_H-M   'P 1'
_cell_length_a   10.04539515
_cell_length_b   10.07995587
_cell_length_c   15.28835266
_cell_angle_alpha   102.17997607
_cell_angle_beta   107.67929332
_cell_angle_gamma   101.84807845
_symmetry_Int_Tables_number   1
_chemical_formula_structural   Cs4Re6C4S9N4
_chemical_formula_sum   'Cs8 Re12 C8 S18 N8'
_cell_volume   1380.10920410
_cell_formula_units_Z   2
loop_
 _symmetry_equiv_pos_site_id
 _symmetry_equiv_pos_as_xyz
  1  'x, y, z'
loop_
 _atom_site_type_symbol
 _atom_site_label
 _atom_site_symmetry_multiplicity
 _atom_site_fract_x
 _atom_site_fract_y
 _atom_site_fract_z
 _atom_site_occupancy
  Cs  Cs0  1  0.27603223  0.35017859  0.76834425  1
  Cs  Cs1  1  0.90131467  0.20933562  0.39930587  1
  Cs  Cs2  1  0.26520017  0.89628203  0.30432420  1
  Cs  Cs3  1  0.72396707  0.64982093  0.23165723  1
  Cs  Cs4  1  0.73480247  0.10371622  0.69567610  1
  Cs  Cs5  1  0.89818970  0.68342591  0.90703585  1
  Cs  Cs6  1  0.10181063  0.31657554  0.09296453  1
  Cs  Cs7  1  0.09868417  0.79064258  0.60070335  1
  Re  Re8  1  0.61086505  0.67187608  0.49868973  1
  Re  Re9  1  0.49180260  0.41448818  0.37589114  1
  Re  Re10  1  0.50847035  0.85939626  0.90081251  1
  Re  Re11  1  0.67062638  0.98465658  0.08395672  1
  Re  Re12  1  0.67015110  0.45276205  0.55344203  1
  Re  Re13  1  0.50821173  0.58551329  0.62411389  1
  Re  Re14  1  0.32937404  0.01534407  0.91604421  1
  Re  Re15  1  0.49152951  0.14059587  0.09918093  1
  Re  Re16  1  0.38937574  0.86047748  0.03346610  1
  Re  Re17  1  0.38912402  0.32812318  0.50131439  1
  Re  Re18  1  0.61062223  0.13952427  0.96652711  1
  Re  Re19  1  0.32984545  0.54723088  0.44655505  1
  C  C20  1  0.13852976  0.03702065  0.82278387  1
  C  C21  1  0.26550035  0.13685893  0.50832967  1
  C  C22  1  0.86146722  0.96299069  0.17722376  1
  C  C23  1  0.73448486  0.86313780  0.49166636  1
  C  C24  1  0.25830941  0.70867917  0.07164129  1
  C  C25  1  0.86025296  0.39851348  0.61763241  1
  C  C26  1  0.74169013  0.29132124  0.92835958  1
  C  C27  1  0.13974345  0.60147928  0.38235808  1
  S  S28  1  0.47054788  0.34025911  0.20896785  1
  S  S29  1  0.43792298  0.27018351  0.98218787  1
  S  S30  1  0.45164896  0.77928984  0.56365107  1
  S  S31  1  0.23311511  0.30628736  0.33995919  1
  S  S32  1  0.52945328  0.65974123  0.79103349  1
  S  S33  1  0.43840001  0.62410173  0.33779015  1
  S  S34  1  0.45185218  0.01309485  0.80089041  1
  S  S35  1  0.56207642  0.72981764  0.01781219  1
  S  S36  1  0.76731448  0.98825358  0.95658897  1
  S  S37  1  0.54816000  0.98691489  0.19911785  1
  S  S38  1  0.23268534  0.01174557  0.04341074  1
  S  S39  1  0.75259791  0.24195185  0.13756849  1
  S  S40  1  0.24668666  0.46469373  0.56342091  1
  S  S41  1  0.54836193  0.22070951  0.43634772  1
  S  S42  1  0.75329617  0.53528250  0.43656924  1
  S  S43  1  0.24740356  0.75804689  0.86243574  1
  S  S44  1  0.56159706  0.37589935  0.66220906  1
  S  S45  1  0.76687125  0.69370783  0.66004319  1
  N  N46  1  0.82152599  0.36853249  0.90572015  1
  N  N47  1  0.03411718  0.63008492  0.34190200  1
  N  N48  1  0.96563825  0.94468718  0.22898921  1
  N  N49  1  0.17847466  0.63146839  0.09428049  1
  N  N50  1  0.96588873  0.36990753  0.65809279  1
  N  N51  1  0.80547036  0.96496742  0.48363719  1
  N  N52  1  0.03436794  0.05532244  0.77102454  1
  N  N53  1  0.19454827  0.03508180  0.51634930  1
