# generated using pymatgen
data_K3As7
_symmetry_space_group_name_H-M   'P 1'
_cell_length_a   13.11793264
_cell_length_b   15.65126367
_cell_length_c   25.90901087
_cell_angle_alpha   90.00000000
_cell_angle_beta   90.00000000
_cell_angle_gamma   90.00000000
_symmetry_Int_Tables_number   1
_chemical_formula_structural   K3As7
_chemical_formula_sum   'K48 As112'
_cell_volume   5319.43660589
_cell_formula_units_Z   16
loop_
 _symmetry_equiv_pos_site_id
 _symmetry_equiv_pos_as_xyz
  1  'x, y, z'
loop_
 _atom_site_type_symbol
 _atom_site_label
 _atom_site_symmetry_multiplicity
 _atom_site_fract_x
 _atom_site_fract_y
 _atom_site_fract_z
 _atom_site_occupancy
  K  K0  1  0.54241930  0.53949984  0.82069343  1
  K  K1  1  0.95432082  0.64275373  0.55945698  1
  K  K2  1  0.38435951  0.91391722  0.92300103  1
  K  K3  1  0.13015802  0.39486447  0.87080077  1
  K  K4  1  0.88435951  0.58608278  0.92300103  1
  K  K5  1  0.13015802  0.89486447  0.62919923  1
  K  K6  1  0.61564049  0.58608278  0.42300103  1
  K  K7  1  0.27920065  0.66596970  0.72041253  1
  K  K8  1  0.95758070  0.03949984  0.17930657  1
  K  K9  1  0.13271467  0.75399276  0.91963494  1
  K  K10  1  0.04567918  0.85724627  0.05945698  1
  K  K11  1  0.13271467  0.25399276  0.58036506  1
  K  K12  1  0.86728533  0.24600724  0.08036506  1
  K  K13  1  0.61564049  0.08608278  0.07699897  1
  K  K14  1  0.95758070  0.53949984  0.32069343  1
  K  K15  1  0.45432082  0.85724627  0.55945698  1
  K  K16  1  0.36728533  0.75399276  0.41963494  1
  K  K17  1  0.86728533  0.74600724  0.41963494  1
  K  K18  1  0.36984198  0.39486447  0.37080077  1
  K  K19  1  0.36984198  0.89486447  0.12919923  1
  K  K20  1  0.45758070  0.46050016  0.17930657  1
  K  K21  1  0.77920065  0.83403030  0.72041253  1
  K  K22  1  0.04241930  0.46050016  0.67930657  1
  K  K23  1  0.88435951  0.08608278  0.57699897  1
  K  K24  1  0.72079935  0.83403030  0.22041253  1
  K  K25  1  0.04241930  0.96050016  0.82069343  1
  K  K26  1  0.54567918  0.64275373  0.05945698  1
  K  K27  1  0.22079935  0.66596970  0.22041253  1
  K  K28  1  0.86984198  0.60513553  0.12919923  1
  K  K29  1  0.95432082  0.14275373  0.94054302  1
  K  K30  1  0.63015802  0.10513553  0.87080077  1
  K  K31  1  0.45758070  0.96050016  0.32069343  1
  K  K32  1  0.36728533  0.25399276  0.08036506  1
  K  K33  1  0.54241930  0.03949984  0.67930657  1
  K  K34  1  0.04567918  0.35724627  0.44054302  1
  K  K35  1  0.63271467  0.74600724  0.91963494  1
  K  K36  1  0.11564049  0.91391722  0.42300103  1
  K  K37  1  0.45432082  0.35724627  0.94054302  1
  K  K38  1  0.63015802  0.60513553  0.62919923  1
  K  K39  1  0.86984198  0.10513553  0.37080077  1
  K  K40  1  0.11564049  0.41391722  0.07699897  1
  K  K41  1  0.38435951  0.41391722  0.57699897  1
  K  K42  1  0.27920065  0.16596970  0.77958747  1
  K  K43  1  0.72079935  0.33403030  0.27958747  1
  K  K44  1  0.54567918  0.14275373  0.44054302  1
  K  K45  1  0.77920065  0.33403030  0.77958747  1
  K  K46  1  0.22079935  0.16596970  0.27958747  1
  K  K47  1  0.63271467  0.24600724  0.58036506  1
  As  As48  1  0.62210073  0.86044527  0.04783171  1
  As  As49  1  0.12417314  0.86823009  0.18476346  1
  As  As50  1  0.87582686  0.63176991  0.68476346  1
  As  As51  1  0.20165926  0.93495614  0.26091045  1
  As  As52  1  0.21414668  0.23156683  0.95542556  1
  As  As53  1  0.12210073  0.13955473  0.45216829  1
  As  As54  1  0.06367333  0.61554545  0.80155814  1
  As  As55  1  0.79834074  0.06504386  0.73908955  1
  As  As56  1  0.31618189  0.54512080  0.96007561  1
  As  As57  1  0.94660265  0.24521209  0.68497851  1
  As  As58  1  0.36917365  0.69475730  0.96612449  1
  As  As59  1  0.62210073  0.36044527  0.45216829  1
  As  As60  1  0.56367333  0.38445455  0.69844186  1
  As  As61  1  0.20165926  0.43495614  0.23908955  1
  As  As62  1  0.72175068  0.18963252  0.18344350  1
  As  As63  1  0.55061364  0.99820118  0.19986537  1
  As  As64  1  0.81618189  0.45487920  0.53992439  1
  As  As65  1  0.21414668  0.73156683  0.54457444  1
  As  As66  1  0.43632667  0.61554545  0.30155814  1
  As  As67  1  0.28585332  0.73156683  0.04457444  1
  As  As68  1  0.01133858  0.70946000  0.72402721  1
  As  As69  1  0.77824932  0.18963252  0.68344350  1
  As  As70  1  0.71936020  0.40536273  0.90150426  1
  As  As71  1  0.13744503  0.99004377  0.95312779  1
  As  As72  1  0.05339735  0.25478791  0.18497851  1
  As  As73  1  0.27824932  0.31036748  0.68344350  1
  As  As74  1  0.86917365  0.80524270  0.96612449  1
  As  As75  1  0.05339735  0.75478791  0.31502149  1
  As  As76  1  0.13082635  0.69475730  0.46612449  1
  As  As77  1  0.68381811  0.45487920  0.03992439  1
  As  As78  1  0.70165926  0.06504386  0.23908955  1
  As  As79  1  0.87789927  0.86044527  0.54783171  1
  As  As80  1  0.71936020  0.90536273  0.59849574  1
  As  As81  1  0.48866142  0.70946000  0.22402721  1
  As  As82  1  0.21936020  0.09463727  0.90150426  1
  As  As83  1  0.36839803  0.55425203  0.47187084  1
  As  As84  1  0.13160197  0.05425203  0.52812916  1
  As  As85  1  0.98866142  0.29054000  0.27597279  1
  As  As86  1  0.28063980  0.09463727  0.40150426  1
  As  As87  1  0.63744503  0.50995623  0.95312779  1
  As  As88  1  0.44938636  0.50179882  0.69986537  1
  As  As89  1  0.06367333  0.11554545  0.69844186  1
  As  As90  1  0.44660265  0.75478791  0.81502149  1
  As  As91  1  0.48866142  0.20946000  0.27597279  1
  As  As92  1  0.79834074  0.56504386  0.76091045  1
  As  As93  1  0.43632667  0.11554545  0.19844186  1
  As  As94  1  0.37582686  0.36823009  0.81523654  1
  As  As95  1  0.36255497  0.99004377  0.45312779  1
  As  As96  1  0.29834074  0.43495614  0.73908955  1
  As  As97  1  0.13160197  0.55425203  0.97187084  1
  As  As98  1  0.28063980  0.59463727  0.09849574  1
  As  As99  1  0.55339735  0.24521209  0.18497851  1
  As  As100  1  0.44660265  0.25478791  0.68497851  1
  As  As101  1  0.51133858  0.29054000  0.77597279  1
  As  As102  1  0.37789927  0.13955473  0.95216829  1
  As  As103  1  0.87789927  0.36044527  0.95216829  1
  As  As104  1  0.22175068  0.81036748  0.31655650  1
  As  As105  1  0.51133858  0.79054000  0.72402721  1
  As  As106  1  0.63744503  0.00995623  0.54687221  1
  As  As107  1  0.37582686  0.86823009  0.68476346  1
  As  As108  1  0.63082635  0.80524270  0.46612449  1
  As  As109  1  0.87582686  0.13176991  0.81523654  1
  As  As110  1  0.63160197  0.94574797  0.97187084  1
  As  As111  1  0.05061364  0.00179882  0.30013463  1
  As  As112  1  0.36917365  0.19475730  0.53387551  1
  As  As113  1  0.28585332  0.23156683  0.45542556  1
  As  As114  1  0.27824932  0.81036748  0.81655650  1
  As  As115  1  0.13082635  0.19475730  0.03387551  1
  As  As116  1  0.86839803  0.94574797  0.47187084  1
  As  As117  1  0.86839803  0.44574797  0.02812916  1
  As  As118  1  0.18381811  0.04512080  0.03992439  1
  As  As119  1  0.70165926  0.56504386  0.26091045  1
  As  As120  1  0.94660265  0.74521209  0.81502149  1
  As  As121  1  0.55339735  0.74521209  0.31502149  1
  As  As122  1  0.78063980  0.40536273  0.40150426  1
  As  As123  1  0.71414668  0.76843317  0.54457444  1
  As  As124  1  0.12417314  0.36823009  0.31523654  1
  As  As125  1  0.31618189  0.04512080  0.53992439  1
  As  As126  1  0.78585332  0.26843317  0.45542556  1
  As  As127  1  0.12210073  0.63955473  0.04783171  1
  As  As128  1  0.13744503  0.49004377  0.54687221  1
  As  As129  1  0.93632667  0.38445455  0.19844186  1
  As  As130  1  0.62417314  0.63176991  0.18476346  1
  As  As131  1  0.21936020  0.59463727  0.59849574  1
  As  As132  1  0.81618189  0.95487920  0.96007561  1
  As  As133  1  0.01133858  0.20946000  0.77597279  1
  As  As134  1  0.86917365  0.30524270  0.53387551  1
  As  As135  1  0.94938636  0.99820118  0.69986537  1
  As  As136  1  0.93632667  0.88445455  0.30155814  1
  As  As137  1  0.22175068  0.31036748  0.18344350  1
  As  As138  1  0.62417314  0.13176991  0.31523654  1
  As  As139  1  0.86255497  0.50995623  0.45312779  1
  As  As140  1  0.71414668  0.26843317  0.95542556  1
  As  As141  1  0.68381811  0.95487920  0.46007561  1
  As  As142  1  0.29834074  0.93495614  0.76091045  1
  As  As143  1  0.36255497  0.49004377  0.04687221  1
  As  As144  1  0.98866142  0.79054000  0.22402721  1
  As  As145  1  0.18381811  0.54512080  0.46007561  1
  As  As146  1  0.63082635  0.30524270  0.03387551  1
  As  As147  1  0.56367333  0.88445455  0.80155814  1
  As  As148  1  0.05061364  0.50179882  0.19986537  1
  As  As149  1  0.78063980  0.90536273  0.09849574  1
  As  As150  1  0.63160197  0.44574797  0.52812916  1
  As  As151  1  0.55061364  0.49820118  0.30013463  1
  As  As152  1  0.86255497  0.00995623  0.04687221  1
  As  As153  1  0.94938636  0.49820118  0.80013463  1
  As  As154  1  0.37789927  0.63955473  0.54783171  1
  As  As155  1  0.72175068  0.68963252  0.31655650  1
  As  As156  1  0.78585332  0.76843317  0.04457444  1
  As  As157  1  0.77824932  0.68963252  0.81655650  1
  As  As158  1  0.44938636  0.00179882  0.80013463  1
  As  As159  1  0.36839803  0.05425203  0.02812916  1
