# generated using pymatgen
data_Ni13Sn8P3
_symmetry_space_group_name_H-M   'P 1'
_cell_length_a   6.46390679
_cell_length_b   11.42586041
_cell_length_c   20.24160786
_cell_angle_alpha   94.65811308
_cell_angle_beta   93.67947933
_cell_angle_gamma   91.02112210
_symmetry_Int_Tables_number   1
_chemical_formula_structural   Ni13Sn8P3
_chemical_formula_sum   'Ni52 Sn32 P12'
_cell_volume   1486.55008153
_cell_formula_units_Z   4
loop_
 _symmetry_equiv_pos_site_id
 _symmetry_equiv_pos_as_xyz
  1  'x, y, z'
loop_
 _atom_site_type_symbol
 _atom_site_label
 _atom_site_symmetry_multiplicity
 _atom_site_fract_x
 _atom_site_fract_y
 _atom_site_fract_z
 _atom_site_occupancy
  Ni  Ni0  1  0.95247511  0.96531937  0.09230604  1
  Ni  Ni1  1  0.83054596  0.89526842  0.28441105  1
  Ni  Ni2  1  0.88516080  0.32355482  0.79143215  1
  Ni  Ni3  1  0.16945404  0.10473158  0.71558895  1
  Ni  Ni4  1  0.57093151  0.86567700  0.05247188  1
  Ni  Ni5  1  0.65479057  0.22103756  0.61232738  1
  Ni  Ni6  1  0.46315724  0.78487153  0.25261882  1
  Ni  Ni7  1  0.40448248  0.71500882  0.12614254  1
  Ni  Ni8  1  0.47883827  0.15949382  0.36005815  1
  Ni  Ni9  1  0.29177365  0.07290314  0.13658733  1
  Ni  Ni10  1  0.97676302  0.68519692  0.33853461  1
  Ni  Ni11  1  0.93725574  0.33673019  0.22924746  1
  Ni  Ni12  1  0.58409957  0.51374359  0.89901881  1
  Ni  Ni13  1  0.41590043  0.48625641  0.10098119  1
  Ni  Ni14  1  0.34520943  0.77896244  0.38767262  1
  Ni  Ni15  1  0.84924130  0.09879349  0.79921080  1
  Ni  Ni16  1  0.53684276  0.21512847  0.74738118  1
  Ni  Ni17  1  0.32412389  0.12206743  0.55480743  1
  Ni  Ni18  1  0.61167479  0.20212122  0.18342526  1
  Ni  Ni19  1  0.70822635  0.92709686  0.86341267  1
  Ni  Ni20  1  0.73804547  0.53432196  0.73805892  1
  Ni  Ni21  1  0.84539066  0.97487559  0.68351421  1
  Ni  Ni22  1  0.25439966  0.41638935  0.83970359  1
  Ni  Ni23  1  0.50000000  0.50000000  0.50000000  1
  Ni  Ni24  1  0.04752489  0.03468063  0.90769396  1
  Ni  Ni25  1  0.59551752  0.28499118  0.87385746  1
  Ni  Ni26  1  0.05902208  0.54157250  0.65341780  1
  Ni  Ni27  1  0.19461485  0.71510396  0.58973906  1
  Ni  Ni28  1  0.38832521  0.79787878  0.81657474  1
  Ni  Ni29  1  0.42906849  0.13432300  0.94752812  1
  Ni  Ni30  1  0.74560034  0.58361065  0.16029641  1
  Ni  Ni31  1  0.06274426  0.66326981  0.77075254  1
  Ni  Ni32  1  0.88068550  0.58762754  0.53467224  1
  Ni  Ni33  1  0.31412929  0.35419984  0.57858206  1
  Ni  Ni34  1  0.76939147  0.24303949  0.99051860  1
  Ni  Ni35  1  0.23060853  0.75696051  0.00948140  1
  Ni  Ni36  1  0.62844629  0.57752614  0.29495240  1
  Ni  Ni37  1  0.80538515  0.28489604  0.41026094  1
  Ni  Ni38  1  0.37155371  0.42247386  0.70504760  1
  Ni  Ni39  1  0.26195453  0.46567804  0.26194108  1
  Ni  Ni40  1  0.11483920  0.67644518  0.20856785  1
  Ni  Ni41  1  0.68587071  0.64580016  0.42141794  1
  Ni  Ni42  1  0.11931450  0.41237246  0.46532776  1
  Ni  Ni43  1  0.15460934  0.02512441  0.31648579  1
  Ni  Ni44  1  0.52116173  0.84050618  0.63994185  1
  Ni  Ni45  1  0.08853285  0.36624455  0.04326526  1
  Ni  Ni46  1  0.00000000  0.00000000  0.50000000  1
  Ni  Ni47  1  0.94097792  0.45842750  0.34658220  1
  Ni  Ni48  1  0.67587611  0.87793257  0.44519257  1
  Ni  Ni49  1  0.15075870  0.90120651  0.20078920  1
  Ni  Ni50  1  0.02323698  0.31480308  0.66146539  1
  Ni  Ni51  1  0.91146715  0.63375545  0.95673474  1
  Sn  Sn52  1  0.77638525  0.81117986  0.16144328  1
  Sn  Sn53  1  0.04402256  0.89745735  0.79214010  1
  Sn  Sn54  1  0.61516473  0.09063259  0.06596339  1
  Sn  Sn55  1  0.31142582  0.55115870  0.38494823  1
  Sn  Sn56  1  0.89016532  0.86227732  0.97451798  1
  Sn  Sn57  1  0.26357051  0.30726779  0.15758495  1
  Sn  Sn58  1  0.52237151  0.73132009  0.52572027  1
  Sn  Sn59  1  0.75706799  0.36198464  0.11031182  1
  Sn  Sn60  1  0.73642949  0.69273221  0.84241505  1
  Sn  Sn61  1  0.10983468  0.13772268  0.02548202  1
  Sn  Sn62  1  0.66716046  0.99863341  0.56492026  1
  Sn  Sn63  1  0.41858687  0.36792180  0.98103280  1
  Sn  Sn64  1  0.22361475  0.18882014  0.83855672  1
  Sn  Sn65  1  0.58141313  0.63207820  0.01896720  1
  Sn  Sn66  1  0.40337260  0.66622566  0.70563684  1
  Sn  Sn67  1  0.47762849  0.26867991  0.47427973  1
  Sn  Sn68  1  0.86411017  0.73936138  0.66006147  1
  Sn  Sn69  1  0.13588983  0.26063862  0.33993853  1
  Sn  Sn70  1  0.96948731  0.22747870  0.52824356  1
  Sn  Sn71  1  0.50429911  0.97295056  0.74984054  1
  Sn  Sn72  1  0.95597744  0.10254265  0.20785990  1
  Sn  Sn73  1  0.05890950  0.59099932  0.07628840  1
  Sn  Sn74  1  0.17338378  0.94560862  0.61344403  1
  Sn  Sn75  1  0.03051269  0.77252130  0.47175644  1
  Sn  Sn76  1  0.38483527  0.90936741  0.93403661  1
  Sn  Sn77  1  0.82661622  0.05439138  0.38655597  1
  Sn  Sn78  1  0.33283954  0.00136659  0.43507974  1
  Sn  Sn79  1  0.94109050  0.40900068  0.92371160  1
  Sn  Sn80  1  0.24293201  0.63801536  0.88968818  1
  Sn  Sn81  1  0.59662740  0.33377434  0.29436316  1
  Sn  Sn82  1  0.49570089  0.02704944  0.25015946  1
  Sn  Sn83  1  0.68857418  0.44884130  0.61505177  1
  P  P84  1  0.73418336  0.11586279  0.90082530  1
  P  P85  1  0.57137696  0.41144596  0.79711141  1
  P  P86  1  0.20451677  0.52873831  0.55582049  1
  P  P87  1  0.66305564  0.77471089  0.34441342  1
  P  P88  1  0.26581664  0.88413721  0.09917470  1
  P  P89  1  0.33694436  0.22528911  0.65558658  1
  P  P90  1  0.93652714  0.53641511  0.24904029  1
  P  P91  1  0.79548323  0.47126169  0.44417951  1
  P  P92  1  0.06347286  0.46358489  0.75095971  1
  P  P93  1  0.15537121  0.82567881  0.29817106  1
  P  P94  1  0.84462879  0.17432119  0.70182894  1
  P  P95  1  0.42862304  0.58855404  0.20288859  1
