# generated using pymatgen
data_RbSb4S7O
_symmetry_space_group_name_H-M   'P 1'
_cell_length_a   7.52052351
_cell_length_b   7.85413152
_cell_length_c   26.82375405
_cell_angle_alpha   90.00000000
_cell_angle_beta   90.00000000
_cell_angle_gamma   98.93480093
_symmetry_Int_Tables_number   1
_chemical_formula_structural   RbSb4S7O
_chemical_formula_sum   'Rb4 Sb16 S28 O4'
_cell_volume   1565.17792372
_cell_formula_units_Z   4
loop_
 _symmetry_equiv_pos_site_id
 _symmetry_equiv_pos_as_xyz
  1  'x, y, z'
loop_
 _atom_site_type_symbol
 _atom_site_label
 _atom_site_symmetry_multiplicity
 _atom_site_fract_x
 _atom_site_fract_y
 _atom_site_fract_z
 _atom_site_occupancy
  Rb  Rb0  1  0.96178757  0.65096247  0.43298882  1
  Rb  Rb1  1  0.46178757  0.15096247  0.06701118  1
  Rb  Rb2  1  0.03821243  0.34903753  0.56701118  1
  Rb  Rb3  1  0.53821243  0.84903753  0.93298882  1
  Sb  Sb4  1  0.40026275  0.59728712  0.32116721  1
  Sb  Sb5  1  0.90026275  0.09728712  0.17883279  1
  Sb  Sb6  1  0.59973725  0.40271288  0.67883279  1
  Sb  Sb7  1  0.09973725  0.90271288  0.82116721  1
  Sb  Sb8  1  0.01153033  0.20345326  0.32294649  1
  Sb  Sb9  1  0.51153033  0.70345326  0.17705351  1
  Sb  Sb10  1  0.98846967  0.79654674  0.67705351  1
  Sb  Sb11  1  0.48846967  0.29654674  0.82294649  1
  Sb  Sb12  1  0.56616660  0.03216691  0.38389881  1
  Sb  Sb13  1  0.06616660  0.53216691  0.11610119  1
  Sb  Sb14  1  0.43383340  0.96783309  0.61610119  1
  Sb  Sb15  1  0.93383340  0.46783309  0.88389881  1
  Sb  Sb16  1  0.95597572  0.61710749  0.25672077  1
  Sb  Sb17  1  0.45597572  0.11710749  0.24327923  1
  Sb  Sb18  1  0.04402428  0.38289251  0.74327923  1
  Sb  Sb19  1  0.54402428  0.88289251  0.75672077  1
  S  S20  1  0.50778909  0.13521736  0.47982628  1
  S  S21  1  0.00778909  0.63521736  0.02017372  1
  S  S22  1  0.49221091  0.86478264  0.52017372  1
  S  S23  1  0.99221091  0.36478264  0.97982628  1
  S  S24  1  0.88590188  0.07947161  0.40479189  1
  S  S25  1  0.38590188  0.57947161  0.09520811  1
  S  S26  1  0.11409812  0.92052839  0.59520811  1
  S  S27  1  0.61409812  0.42052839  0.90479189  1
  S  S28  1  0.16767409  0.42942340  0.23131563  1
  S  S29  1  0.66767409  0.92942340  0.26868437  1
  S  S30  1  0.83232591  0.57057660  0.76868437  1
  S  S31  1  0.33232591  0.07057660  0.73131563  1
  S  S32  1  0.79545224  0.41808293  0.32161053  1
  S  S33  1  0.29545224  0.91808293  0.17838947  1
  S  S34  1  0.20454776  0.58191707  0.67838947  1
  S  S35  1  0.70454776  0.08191707  0.82161053  1
  S  S36  1  0.51230017  0.72522595  0.40363390  1
  S  S37  1  0.01230017  0.22522595  0.09636610  1
  S  S38  1  0.48769983  0.27477405  0.59636610  1
  S  S39  1  0.98769983  0.77477405  0.90363390  1
  S  S40  1  0.16207618  0.78915211  0.31873000  1
  S  S41  1  0.66207618  0.28915211  0.18127000  1
  S  S42  1  0.83792382  0.21084789  0.68127000  1
  S  S43  1  0.33792382  0.71084789  0.81873000  1
  S  S44  1  0.24447953  0.36743900  0.37775691  1
  S  S45  1  0.74447953  0.86743900  0.12224309  1
  S  S46  1  0.75552047  0.63256100  0.62224309  1
  S  S47  1  0.25552047  0.13256100  0.87775691  1
  O  O48  1  0.68514496  0.24652980  0.49304599  1
  O  O49  1  0.18514496  0.74652980  0.00695401  1
  O  O50  1  0.31485504  0.75347020  0.50695401  1
  O  O51  1  0.81485504  0.25347020  0.99304599  1
