# generated using pymatgen
data_CsZn2P2HO8
_symmetry_space_group_name_H-M   'P 1'
_cell_length_a   7.96444636
_cell_length_b   8.76176164
_cell_length_c   8.76176164
_cell_angle_alpha   44.05149097
_cell_angle_beta   90.00000000
_cell_angle_gamma   90.00000000
_symmetry_Int_Tables_number   1
_chemical_formula_structural   CsZn2P2HO8
_chemical_formula_sum   'Cs2 Zn4 P4 H2 O16'
_cell_volume   425.12195314
_cell_formula_units_Z   2
loop_
 _symmetry_equiv_pos_site_id
 _symmetry_equiv_pos_as_xyz
  1  'x, y, z'
loop_
 _atom_site_type_symbol
 _atom_site_label
 _atom_site_symmetry_multiplicity
 _atom_site_fract_x
 _atom_site_fract_y
 _atom_site_fract_z
 _atom_site_occupancy
  Cs  Cs0  1  0.50000000  0.50000000  0.50000000  1
  Cs  Cs1  1  0.00000000  0.00000000  0.00000000  1
  Zn  Zn2  1  0.75000000  0.98297114  0.48297114  1
  Zn  Zn3  1  0.25000000  0.51702886  0.01702886  1
  Zn  Zn4  1  0.25000000  0.01702886  0.51702886  1
  Zn  Zn5  1  0.75000000  0.48297114  0.98297114  1
  P  P6  1  0.46106593  0.14273154  0.14273154  1
  P  P7  1  0.53893407  0.85726846  0.85726846  1
  P  P8  1  0.96106593  0.35726846  0.35726846  1
  P  P9  1  0.03893407  0.64273154  0.64273154  1
  H  H10  1  0.50000000  0.00000000  0.00000000  1
  H  H11  1  0.00000000  0.50000000  0.50000000  1
  O  O12  1  0.30058205  0.20103494  0.20103494  1
  O  O13  1  0.69941795  0.79896506  0.79896506  1
  O  O14  1  0.80058205  0.29896506  0.29896506  1
  O  O15  1  0.19941795  0.70103494  0.70103494  1
  O  O16  1  0.56089284  0.35584857  0.96204113  1
  O  O17  1  0.43910716  0.03795887  0.64415143  1
  O  O18  1  0.06089284  0.53795887  0.14415143  1
  O  O19  1  0.93910716  0.85584857  0.46204113  1
  O  O20  1  0.43910716  0.64415143  0.03795887  1
  O  O21  1  0.56089284  0.96204113  0.35584857  1
  O  O22  1  0.93910716  0.46204113  0.85584857  1
  O  O23  1  0.06089284  0.14415143  0.53795887  1
  O  O24  1  0.39254343  0.05289704  0.05289704  1
  O  O25  1  0.60745657  0.94710296  0.94710296  1
  O  O26  1  0.89254343  0.44710296  0.44710296  1
  O  O27  1  0.10745657  0.55289704  0.55289704  1
