# generated using pymatgen
data_CaFe2Sb2(PO4)6
_symmetry_space_group_name_H-M   'P 1'
_cell_length_a   8.93890403
_cell_length_b   8.93890373
_cell_length_c   8.93890445
_cell_angle_alpha   56.36658628
_cell_angle_beta   56.36658763
_cell_angle_gamma   56.36658725
_symmetry_Int_Tables_number   1
_chemical_formula_structural   CaFe2Sb2(PO4)6
_chemical_formula_sum   'Ca1 Fe2 Sb2 P6 O24'
_cell_volume   462.61239130
_cell_formula_units_Z   1
loop_
 _symmetry_equiv_pos_site_id
 _symmetry_equiv_pos_as_xyz
  1  'x, y, z'
loop_
 _atom_site_type_symbol
 _atom_site_label
 _atom_site_symmetry_multiplicity
 _atom_site_fract_x
 _atom_site_fract_y
 _atom_site_fract_z
 _atom_site_occupancy
  Ca  Ca0  1  0.00000000  0.00000000  0.00000000  1
  Fe  Fe1  1  0.85310945  0.85310945  0.85310945  1
  Fe  Fe2  1  0.14689055  0.14689055  0.14689055  1
  Sb  Sb3  1  0.35215675  0.35215675  0.35215675  1
  Sb  Sb4  1  0.64784325  0.64784325  0.64784325  1
  P  P5  1  0.45921434  0.03841235  0.75332815  1
  P  P6  1  0.75332815  0.45921434  0.03841235  1
  P  P7  1  0.03841235  0.75332815  0.45921434  1
  P  P8  1  0.96158765  0.24667185  0.54078566  1
  P  P9  1  0.24667185  0.54078566  0.96158765  1
  P  P10  1  0.54078566  0.96158765  0.24667185  1
  O  O11  1  0.77516863  0.47423766  0.84251926  1
  O  O12  1  0.45921850  0.51566065  0.81545976  1
  O  O13  1  0.51566065  0.81545976  0.45921850  1
  O  O14  1  0.81545976  0.45921850  0.51566065  1
  O  O15  1  0.01050940  0.79794456  0.61483774  1
  O  O16  1  0.84251926  0.77516863  0.47423766  1
  O  O17  1  0.61483774  0.01050940  0.79794456  1
  O  O18  1  0.47423766  0.84251926  0.77516863  1
  O  O19  1  0.74636086  0.89168242  0.10867334  1
  O  O20  1  0.89168242  0.10867334  0.74636086  1
  O  O21  1  0.10867334  0.74636086  0.89168242  1
  O  O22  1  0.20205544  0.38516226  0.98949060  1
  O  O23  1  0.79794456  0.61483774  0.01050940  1
  O  O24  1  0.89132666  0.25363914  0.10831758  1
  O  O25  1  0.10831758  0.89132666  0.25363914  1
  O  O26  1  0.25363914  0.10831758  0.89132666  1
  O  O27  1  0.52576234  0.15748074  0.22483137  1
  O  O28  1  0.38516226  0.98949060  0.20205544  1
  O  O29  1  0.15748074  0.22483137  0.52576234  1
  O  O30  1  0.98949060  0.20205544  0.38516226  1
  O  O31  1  0.18454024  0.54078150  0.48433935  1
  O  O32  1  0.48433935  0.18454024  0.54078150  1
  O  O33  1  0.54078150  0.48433935  0.18454024  1
  O  O34  1  0.22483137  0.52576234  0.15748074  1
