# generated using pymatgen
data_K6CdPb8
_symmetry_space_group_name_H-M   'P 1'
_cell_length_a   7.01400321
_cell_length_b   15.11849429
_cell_length_c   18.37386695
_cell_angle_alpha   68.38295662
_cell_angle_beta   78.99649835
_cell_angle_gamma   76.58705438
_symmetry_Int_Tables_number   1
_chemical_formula_structural   K6CdPb8
_chemical_formula_sum   'K18 Cd3 Pb24'
_cell_volume   1749.93172643
_cell_formula_units_Z   3
loop_
 _symmetry_equiv_pos_site_id
 _symmetry_equiv_pos_as_xyz
  1  'x, y, z'
loop_
 _atom_site_type_symbol
 _atom_site_label
 _atom_site_symmetry_multiplicity
 _atom_site_fract_x
 _atom_site_fract_y
 _atom_site_fract_z
 _atom_site_occupancy
  K  K0  1  0.57162095  0.30311962  0.55363848  1
  K  K1  1  0.27404694  0.92534282  0.52656330  1
  K  K2  1  0.08622991  0.43568506  0.39185513  1
  K  K3  1  0.91377009  0.56431494  0.60814487  1
  K  K4  1  0.51373073  0.19101558  0.78152295  1
  K  K5  1  0.95545298  0.95797430  0.13111973  1
  K  K6  1  0.04454702  0.04202570  0.86888027  1
  K  K7  1  0.78909742  0.42429754  0.99750762  1
  K  K8  1  0.81226143  0.18762203  0.18785511  1
  K  K9  1  0.92294032  0.34811158  0.80600777  1
  K  K10  1  0.21090258  0.57570246  0.00249238  1
  K  K11  1  0.18773857  0.81237797  0.81214489  1
  K  K12  1  0.07705968  0.65188842  0.19399223  1
  K  K13  1  0.42837905  0.69688038  0.44636152  1
  K  K14  1  0.74975150  0.81151440  0.68898260  1
  K  K15  1  0.48626927  0.80898442  0.21847705  1
  K  K16  1  0.72595306  0.07465718  0.47343670  1
  K  K17  1  0.25024850  0.18848560  0.31101740  1
  Cd  Cd18  1  0.36640029  0.37983974  0.88735968  1
  Cd  Cd19  1  0.50000000  0.00000000  0.00000000  1
  Cd  Cd20  1  0.63359971  0.62016026  0.11264032  1
  Pb  Pb21  1  0.09659476  0.94267347  0.33475562  1
  Pb  Pb22  1  0.95129124  0.75574118  0.34167633  1
  Pb  Pb23  1  0.15361706  0.17850544  0.51426044  1
  Pb  Pb24  1  0.55544459  0.56730831  0.80599400  1
  Pb  Pb25  1  0.16965157  0.18855685  0.98415211  1
  Pb  Pb26  1  0.07125309  0.56730831  0.80599400  1
  Pb  Pb27  1  0.90340524  0.05732653  0.66524438  1
  Pb  Pb28  1  0.61044728  0.92272532  0.85638011  1
  Pb  Pb29  1  0.62597614  0.94267347  0.33475562  1
  Pb  Pb30  1  0.58039357  0.54105921  0.29815364  1
  Pb  Pb31  1  0.38955272  0.07727468  0.14361989  1
  Pb  Pb32  1  0.68877007  0.69928368  0.92317618  1
  Pb  Pb33  1  0.83034843  0.81144315  0.01584789  1
  Pb  Pb34  1  0.33000059  0.67939498  0.66060383  1
  Pb  Pb35  1  0.31122993  0.30071632  0.07682382  1
  Pb  Pb36  1  0.44455541  0.43269169  0.19400600  1
  Pb  Pb37  1  0.92874691  0.43269169  0.19400600  1
  Pb  Pb38  1  0.37402386  0.05732653  0.66524438  1
  Pb  Pb39  1  0.41960643  0.45894079  0.70184636  1
  Pb  Pb40  1  0.84638294  0.82149456  0.48573956  1
  Pb  Pb41  1  0.34236052  0.81144315  0.01584789  1
  Pb  Pb42  1  0.66999941  0.32060502  0.33939617  1
  Pb  Pb43  1  0.65763948  0.18855685  0.98415211  1
  Pb  Pb44  1  0.04870876  0.24425882  0.65832367  1
