# generated using pymatgen
data_Na2CaTi2(GeO4)3
_symmetry_space_group_name_H-M   'P 1'
_cell_length_a   10.73252796
_cell_length_b   10.73252862
_cell_length_c   10.73252822
_cell_angle_alpha   109.67146331
_cell_angle_beta   109.67146448
_cell_angle_gamma   109.07147289
_symmetry_Int_Tables_number   1
_chemical_formula_structural   Na2CaTi2(GeO4)3
_chemical_formula_sum   'Na8 Ca4 Ti8 Ge12 O48'
_cell_volume   951.63057175
_cell_formula_units_Z   4
loop_
 _symmetry_equiv_pos_site_id
 _symmetry_equiv_pos_as_xyz
  1  'x, y, z'
loop_
 _atom_site_type_symbol
 _atom_site_label
 _atom_site_symmetry_multiplicity
 _atom_site_fract_x
 _atom_site_fract_y
 _atom_site_fract_z
 _atom_site_occupancy
  Na  Na0  1  0.25000000  0.87597427  0.62597427  1
  Na  Na1  1  0.12402573  0.25000000  0.37402573  1
  Na  Na2  1  0.25000000  0.37597427  0.12597427  1
  Na  Na3  1  0.37597427  0.75000000  0.12597427  1
  Na  Na4  1  0.62402573  0.25000000  0.87402573  1
  Na  Na5  1  0.75000000  0.62402573  0.87402573  1
  Na  Na6  1  0.87597427  0.75000000  0.62597427  1
  Na  Na7  1  0.75000000  0.12402573  0.37402573  1
  Ca  Ca8  1  0.12500000  0.37500000  0.75000000  1
  Ca  Ca9  1  0.62500000  0.87500000  0.75000000  1
  Ca  Ca10  1  0.37500000  0.12500000  0.25000000  1
  Ca  Ca11  1  0.87500000  0.62500000  0.25000000  1
  Ti  Ti12  1  0.00000000  0.50000000  0.00000000  1
  Ti  Ti13  1  0.00000000  0.00000000  0.00000000  1
  Ti  Ti14  1  0.50000000  0.50000000  0.50000000  1
  Ti  Ti15  1  0.50000000  0.00000000  0.50000000  1
  Ti  Ti16  1  0.50000000  0.50000000  0.00000000  1
  Ti  Ti17  1  0.50000000  0.00000000  0.00000000  1
  Ti  Ti18  1  0.00000000  0.50000000  0.50000000  1
  Ti  Ti19  1  0.00000000  0.00000000  0.50000000  1
  Ge  Ge20  1  0.12497230  0.75000000  0.87497230  1
  Ge  Ge21  1  0.12500000  0.87500000  0.25000000  1
  Ge  Ge22  1  0.25000000  0.62497230  0.37497230  1
  Ge  Ge23  1  0.37500000  0.62500000  0.75000000  1
  Ge  Ge24  1  0.25000000  0.12497230  0.87497230  1
  Ge  Ge25  1  0.37502770  0.25000000  0.62502770  1
  Ge  Ge26  1  0.62497230  0.75000000  0.37497230  1
  Ge  Ge27  1  0.75000000  0.37502770  0.62502770  1
  Ge  Ge28  1  0.62500000  0.37500000  0.25000000  1
  Ge  Ge29  1  0.75000000  0.87502770  0.12502770  1
  Ge  Ge30  1  0.87500000  0.12500000  0.75000000  1
  Ge  Ge31  1  0.87502770  0.25000000  0.12502770  1
  O  O32  1  0.09996633  0.98958461  0.68361770  1
  O  O33  1  0.11281754  0.59890785  0.91498001  1
  O  O34  1  0.01364632  0.31639521  0.89673831  1
  O  O35  1  0.08365137  0.69403309  0.68361770  1
  O  O36  1  0.08034310  0.88309199  0.39673831  1
  O  O37  1  0.09890785  0.61281754  0.41498001  1
  O  O38  1  0.18360479  0.48635368  0.60326169  1
  O  O39  1  0.41965690  0.81639521  0.80274889  1
  O  O40  1  0.30216247  0.31607216  0.91498001  1
  O  O41  1  0.38309199  0.58034310  0.89673831  1
  O  O42  1  0.01041539  0.19403309  0.11038172  1
  O  O43  1  0.31639521  0.91965690  0.30274889  1
  O  O44  1  0.18392784  0.19783753  0.58501999  1
  O  O45  1  0.19403309  0.58365137  0.18361770  1
  O  O46  1  0.40109215  0.81607216  0.51390969  1
  O  O47  1  0.31607216  0.90109215  0.01390969  1
  O  O48  1  0.30596691  0.48958461  0.38961828  1
  O  O49  1  0.11690801  0.01364632  0.19725111  1
  O  O50  1  0.51364632  0.61690801  0.69725111  1
  O  O51  1  0.40003367  0.08365137  0.88961828  1
  O  O52  1  0.51041539  0.40003367  0.81638230  1
  O  O53  1  0.38718246  0.30216247  0.48609031  1
  O  O54  1  0.19783753  0.11281754  0.01390969  1
  O  O55  1  0.58365137  0.90003367  0.38961828  1
  O  O56  1  0.41634863  0.09996633  0.61038172  1
  O  O57  1  0.80216247  0.88718246  0.98609031  1
  O  O58  1  0.61281754  0.69783753  0.51390969  1
  O  O59  1  0.48958461  0.59996633  0.18361770  1
  O  O60  1  0.59996633  0.91634863  0.11038172  1
  O  O61  1  0.48635368  0.38309199  0.30274889  1
  O  O62  1  0.88309199  0.98635368  0.80274889  1
  O  O63  1  0.69403309  0.51041539  0.61038172  1
  O  O64  1  0.68392784  0.09890785  0.98609031  1
  O  O65  1  0.59890785  0.18392784  0.48609031  1
  O  O66  1  0.80596691  0.41634863  0.81638230  1
  O  O67  1  0.81607216  0.80216247  0.41498001  1
  O  O68  1  0.98958461  0.80596691  0.88961828  1
  O  O69  1  0.68360479  0.08034310  0.69725111  1
  O  O70  1  0.61690801  0.41965690  0.10326169  1
  O  O71  1  0.69783753  0.68392784  0.08501999  1
  O  O72  1  0.58034310  0.18360479  0.19725111  1
  O  O73  1  0.81639521  0.51364632  0.39673831  1
  O  O74  1  0.90109215  0.38718246  0.58501999  1
  O  O75  1  0.91965690  0.11690801  0.60326169  1
  O  O76  1  0.91634863  0.30596691  0.31638230  1
  O  O77  1  0.98635368  0.68360479  0.10326169  1
  O  O78  1  0.88718246  0.40109215  0.08501999  1
  O  O79  1  0.90003367  0.01041539  0.31638230  1
