# generated using pymatgen
data_Rb3As7
_symmetry_space_group_name_H-M   'P 1'
_cell_length_a   13.53775491
_cell_length_b   16.28424995
_cell_length_c   26.59433562
_cell_angle_alpha   90.00000000
_cell_angle_beta   90.00000000
_cell_angle_gamma   90.00000000
_symmetry_Int_Tables_number   1
_chemical_formula_structural   Rb3As7
_chemical_formula_sum   'Rb48 As112'
_cell_volume   5862.77938851
_cell_formula_units_Z   16
loop_
 _symmetry_equiv_pos_site_id
 _symmetry_equiv_pos_as_xyz
  1  'x, y, z'
loop_
 _atom_site_type_symbol
 _atom_site_label
 _atom_site_symmetry_multiplicity
 _atom_site_fract_x
 _atom_site_fract_y
 _atom_site_fract_z
 _atom_site_occupancy
  Rb  Rb0  1  0.87204178  0.75285692  0.08289664  1
  Rb  Rb1  1  0.62323191  0.39397076  0.62946165  1
  Rb  Rb2  1  0.77039285  0.16429212  0.71854903  1
  Rb  Rb3  1  0.38325753  0.58745692  0.57562790  1
  Rb  Rb4  1  0.62323191  0.89397076  0.87053835  1
  Rb  Rb5  1  0.12323191  0.10602924  0.62946165  1
  Rb  Rb6  1  0.87676809  0.39397076  0.12946165  1
  Rb  Rb7  1  0.62795822  0.25285692  0.91710336  1
  Rb  Rb8  1  0.04989314  0.64469943  0.44132022  1
  Rb  Rb9  1  0.37204178  0.74714308  0.08289664  1
  Rb  Rb10  1  0.95010686  0.85530057  0.94132022  1
  Rb  Rb11  1  0.12323191  0.60602924  0.87053835  1
  Rb  Rb12  1  0.61674247  0.41254308  0.42437210  1
  Rb  Rb13  1  0.96507299  0.45664159  0.32415837  1
  Rb  Rb14  1  0.22960715  0.83570788  0.28145097  1
  Rb  Rb15  1  0.96507299  0.95664159  0.17584163  1
  Rb  Rb16  1  0.22960715  0.33570788  0.21854903  1
  Rb  Rb17  1  0.37676809  0.10602924  0.12946165  1
  Rb  Rb18  1  0.37676809  0.60602924  0.37053835  1
  Rb  Rb19  1  0.38325753  0.08745692  0.92437210  1
  Rb  Rb20  1  0.37204178  0.24714308  0.41710336  1
  Rb  Rb21  1  0.54989314  0.85530057  0.44132022  1
  Rb  Rb22  1  0.88325753  0.41254308  0.92437210  1
  Rb  Rb23  1  0.77039285  0.66429212  0.78145097  1
  Rb  Rb24  1  0.88325753  0.91254308  0.57562790  1
  Rb  Rb25  1  0.61674247  0.91254308  0.07562790  1
  Rb  Rb26  1  0.27039285  0.83570788  0.78145097  1
  Rb  Rb27  1  0.45010686  0.14469943  0.55867978  1
  Rb  Rb28  1  0.03492701  0.04335841  0.82415837  1
  Rb  Rb29  1  0.62795822  0.75285692  0.58289664  1
  Rb  Rb30  1  0.87204178  0.25285692  0.41710336  1
  Rb  Rb31  1  0.72960715  0.16429212  0.21854903  1
  Rb  Rb32  1  0.53492701  0.45664159  0.82415837  1
  Rb  Rb33  1  0.53492701  0.95664159  0.67584163  1
  Rb  Rb34  1  0.27039285  0.33570788  0.71854903  1
  Rb  Rb35  1  0.12795822  0.24714308  0.91710336  1
  Rb  Rb36  1  0.95010686  0.35530057  0.55867978  1
  Rb  Rb37  1  0.03492701  0.54335841  0.67584163  1
  Rb  Rb38  1  0.45010686  0.64469943  0.94132022  1
  Rb  Rb39  1  0.12795822  0.74714308  0.58289664  1
  Rb  Rb40  1  0.46507299  0.04335841  0.32415837  1
  Rb  Rb41  1  0.04989314  0.14469943  0.05867978  1
  Rb  Rb42  1  0.87676809  0.89397076  0.37053835  1
  Rb  Rb43  1  0.54989314  0.35530057  0.05867978  1
  Rb  Rb44  1  0.11674247  0.08745692  0.42437210  1
  Rb  Rb45  1  0.72960715  0.66429212  0.28145097  1
  Rb  Rb46  1  0.11674247  0.58745692  0.07562790  1
  Rb  Rb47  1  0.46507299  0.54335841  0.17584163  1
  As  As48  1  0.78551997  0.22535758  0.04265601  1
  As  As49  1  0.05080417  0.88258751  0.70008707  1
  As  As50  1  0.12785779  0.36440037  0.04493086  1
  As  As51  1  0.28286458  0.90750072  0.40609108  1
  As  As52  1  0.62785779  0.13559963  0.04493086  1
  As  As53  1  0.87214221  0.13559963  0.54493086  1
  As  As54  1  0.63058626  0.36973948  0.18559560  1
  As  As55  1  0.78286458  0.09249928  0.09390892  1
  As  As56  1  0.21448003  0.27464242  0.54265601  1
  As  As57  1  0.70489223  0.93501115  0.24031171  1
  As  As58  1  0.36319696  0.50640895  0.04238288  1
  As  As59  1  0.21713542  0.40750072  0.59390892  1
  As  As60  1  0.86553011  0.69214055  0.53478088  1
  As  As61  1  0.13787622  0.44538602  0.97013390  1
  As  As62  1  0.22818843  0.68435056  0.18624921  1
  As  As63  1  0.29510777  0.06498885  0.75968829  1
  As  As64  1  0.93473716  0.25962772  0.81278058  1
  As  As65  1  0.99961753  0.29360030  0.72434341  1
  As  As66  1  0.56526284  0.75962772  0.18721942  1
  As  As67  1  0.81682265  0.54725156  0.54144689  1
  As  As68  1  0.72818843  0.31564944  0.31375079  1
  As  As69  1  0.63446989  0.19214055  0.46521912  1
  As  As70  1  0.49961753  0.20639970  0.72434341  1
  As  As71  1  0.13058626  0.13026052  0.18559560  1
  As  As72  1  0.44919583  0.38258751  0.29991293  1
  As  As73  1  0.71448003  0.22535758  0.54265601  1
  As  As74  1  0.18317735  0.95274844  0.04144689  1
  As  As75  1  0.20489223  0.56498885  0.24031171  1
  As  As76  1  0.99961753  0.79360030  0.77565659  1
  As  As77  1  0.79510777  0.93501115  0.74031171  1
  As  As78  1  0.12785779  0.86440037  0.45506914  1
  As  As79  1  0.78286458  0.59249928  0.40609108  1
  As  As80  1  0.71448003  0.72535758  0.95734399  1
  As  As81  1  0.63680304  0.49359105  0.95761712  1
  As  As82  1  0.94919583  0.11741249  0.29991293  1
  As  As83  1  0.86319696  0.49359105  0.45761712  1
  As  As84  1  0.49961753  0.70639970  0.77565659  1
  As  As85  1  0.93473716  0.75962772  0.68721942  1
  As  As86  1  0.43473716  0.24037228  0.81278058  1
  As  As87  1  0.86941374  0.36973948  0.68559560  1
  As  As88  1  0.27181157  0.18435056  0.81375079  1
  As  As89  1  0.86212378  0.55461398  0.02986610  1
  As  As90  1  0.06526284  0.74037228  0.18721942  1
  As  As91  1  0.00038247  0.20639970  0.22434341  1
  As  As92  1  0.86319696  0.99359105  0.04238288  1
  As  As93  1  0.68317735  0.54725156  0.04144689  1
  As  As94  1  0.50038247  0.29360030  0.22434341  1
  As  As95  1  0.21713542  0.90750072  0.90609108  1
  As  As96  1  0.22818843  0.18435056  0.31375079  1
  As  As97  1  0.78551997  0.72535758  0.45734399  1
  As  As98  1  0.56526284  0.25962772  0.31278058  1
  As  As99  1  0.63446989  0.69214055  0.03478088  1
  As  As100  1  0.36941374  0.13026052  0.68559560  1
  As  As101  1  0.05754777  0.00245061  0.29802436  1
  As  As102  1  0.36319696  0.00640895  0.45761712  1
  As  As103  1  0.05080417  0.38258751  0.79991293  1
  As  As104  1  0.68317735  0.04725156  0.45855311  1
  As  As105  1  0.05754777  0.50245061  0.20197564  1
  As  As106  1  0.77181157  0.81564944  0.68624921  1
  As  As107  1  0.44245223  0.50245061  0.70197564  1
  As  As108  1  0.18317735  0.45274844  0.45855311  1
  As  As109  1  0.21448003  0.77464242  0.95734399  1
  As  As110  1  0.37214221  0.36440037  0.54493086  1
  As  As111  1  0.00038247  0.70639970  0.27565659  1
  As  As112  1  0.36212378  0.44538602  0.47013390  1
  As  As113  1  0.55080417  0.11741249  0.79991293  1
  As  As114  1  0.71713542  0.09249928  0.59390892  1
  As  As115  1  0.27181157  0.68435056  0.68624921  1
  As  As116  1  0.63787622  0.05461398  0.97013390  1
  As  As117  1  0.63058626  0.86973948  0.31440440  1
  As  As118  1  0.94245223  0.99754939  0.70197564  1
  As  As119  1  0.28551997  0.77464242  0.45734399  1
  As  As120  1  0.36553011  0.30785945  0.96521912  1
  As  As121  1  0.13680304  0.00640895  0.95761712  1
  As  As122  1  0.06526284  0.24037228  0.31278058  1
  As  As123  1  0.36553011  0.80785945  0.53478088  1
  As  As124  1  0.29510777  0.56498885  0.74031171  1
  As  As125  1  0.70489223  0.43501115  0.25968829  1
  As  As126  1  0.86212378  0.05461398  0.47013390  1
  As  As127  1  0.20489223  0.06498885  0.25968829  1
  As  As128  1  0.13446989  0.30785945  0.46521912  1
  As  As129  1  0.63787622  0.55461398  0.52986610  1
  As  As130  1  0.13680304  0.50640895  0.54238288  1
  As  As131  1  0.50038247  0.79360030  0.27565659  1
  As  As132  1  0.55754777  0.99754939  0.20197564  1
  As  As133  1  0.86553011  0.19214055  0.96521912  1
  As  As134  1  0.86941374  0.86973948  0.81440440  1
  As  As135  1  0.71713542  0.59249928  0.90609108  1
  As  As136  1  0.44245223  0.00245061  0.79802436  1
  As  As137  1  0.63680304  0.99359105  0.54238288  1
  As  As138  1  0.94919583  0.61741249  0.20008707  1
  As  As139  1  0.62785779  0.63559963  0.45506914  1
  As  As140  1  0.55080417  0.61741249  0.70008707  1
  As  As141  1  0.77181157  0.31564944  0.81375079  1
  As  As142  1  0.31682265  0.45274844  0.95855311  1
  As  As143  1  0.13787622  0.94538602  0.52986610  1
  As  As144  1  0.44919583  0.88258751  0.20008707  1
  As  As145  1  0.79510777  0.43501115  0.75968829  1
  As  As146  1  0.94245223  0.49754939  0.79802436  1
  As  As147  1  0.13446989  0.80785945  0.03478088  1
  As  As148  1  0.13058626  0.63026052  0.31440440  1
  As  As149  1  0.31682265  0.95274844  0.54144689  1
  As  As150  1  0.37214221  0.86440037  0.95506914  1
  As  As151  1  0.72818843  0.81564944  0.18624921  1
  As  As152  1  0.43473716  0.74037228  0.68721942  1
  As  As153  1  0.28286458  0.40750072  0.09390892  1
  As  As154  1  0.81682265  0.04725156  0.95855311  1
  As  As155  1  0.55754777  0.49754939  0.29802436  1
  As  As156  1  0.87214221  0.63559963  0.95506914  1
  As  As157  1  0.36212378  0.94538602  0.02986610  1
  As  As158  1  0.28551997  0.27464242  0.04265601  1
  As  As159  1  0.36941374  0.63026052  0.81440440  1
