# generated using pymatgen
data_Cs3B6H12S4Br
_symmetry_space_group_name_H-M   'P 1'
_cell_length_a   10.54090751
_cell_length_b   10.54094829
_cell_length_c   8.82909297
_cell_angle_alpha   90.00000000
_cell_angle_beta   90.00000000
_cell_angle_gamma   119.99987205
_symmetry_Int_Tables_number   1
_chemical_formula_structural   Cs3B6H12S4Br
_chemical_formula_sum   'Cs6 B12 H24 S8 Br2'
_cell_volume   849.58134404
_cell_formula_units_Z   2
loop_
 _symmetry_equiv_pos_site_id
 _symmetry_equiv_pos_as_xyz
  1  'x, y, z'
loop_
 _atom_site_type_symbol
 _atom_site_label
 _atom_site_symmetry_multiplicity
 _atom_site_fract_x
 _atom_site_fract_y
 _atom_site_fract_z
 _atom_site_occupancy
  Cs  Cs0  1  0.68331308  0.84165792  0.74948217  1
  Cs  Cs1  1  0.15834484  0.84165792  0.74948217  1
  Cs  Cs2  1  0.15834309  0.31668617  0.74948150  1
  Cs  Cs3  1  0.31668692  0.15834208  0.24948217  1
  Cs  Cs4  1  0.84165516  0.15834208  0.24948217  1
  Cs  Cs5  1  0.84165691  0.68331383  0.24948150  1
  B  B6  1  0.76490205  0.23511169  0.62133828  1
  B  B7  1  0.76490057  0.52980114  0.62134430  1
  B  B8  1  0.47020964  0.23511169  0.62133828  1
  B  B9  1  0.23509795  0.76488831  0.12133828  1
  B  B10  1  0.23509943  0.47019886  0.12134430  1
  B  B11  1  0.52979036  0.76488831  0.12133828  1
  B  B12  1  0.56970644  0.43029416  0.91213823  1
  B  B13  1  0.56970696  0.13941392  0.91213820  1
  B  B14  1  0.86058772  0.43029416  0.91213823  1
  B  B15  1  0.43029356  0.56970584  0.41213823  1
  B  B16  1  0.43029304  0.86058608  0.41213820  1
  B  B17  1  0.13941228  0.56970584  0.41213823  1
  H  H18  1  0.69829811  0.10913169  0.57755988  1
  H  H19  1  0.89087790  0.58918380  0.57756600  1
  H  H20  1  0.41082579  0.30169783  0.57756342  1
  H  H21  1  0.89087204  0.30169783  0.57756342  1
  H  H22  1  0.41083357  0.10913169  0.57755988  1
  H  H23  1  0.69830591  0.58918380  0.57756600  1
  H  H24  1  0.30170189  0.89086831  0.07755988  1
  H  H25  1  0.10912210  0.41081620  0.07756600  1
  H  H26  1  0.58917421  0.69830217  0.07756342  1
  H  H27  1  0.10912796  0.69830217  0.07756342  1
  H  H28  1  0.58916643  0.89086831  0.07755988  1
  H  H29  1  0.30169409  0.41081620  0.07756600  1
  H  H30  1  0.50572961  0.49426931  0.87230082  1
  H  H31  1  0.50573122  0.01146243  0.87229948  1
  H  H32  1  0.98853970  0.49426931  0.87230082  1
  H  H33  1  0.49427039  0.50573069  0.37230082  1
  H  H34  1  0.49426878  0.98853757  0.37229948  1
  H  H35  1  0.01146030  0.50573069  0.37230082  1
  H  H36  1  0.57580650  0.42419137  0.04954640  1
  H  H37  1  0.57580790  0.15161580  0.04954486  1
  H  H38  1  0.84838487  0.42419137  0.04954640  1
  H  H39  1  0.42419350  0.57580863  0.54954640  1
  H  H40  1  0.42419210  0.84838420  0.54954486  1
  H  H41  1  0.15161513  0.57580863  0.54954640  1
  S  S42  1  0.76872336  0.23127818  0.83993565  1
  S  S43  1  0.76872266  0.53744531  0.83993904  1
  S  S44  1  0.46255482  0.23127818  0.83993565  1
  S  S45  1  0.23127664  0.76872182  0.33993565  1
  S  S46  1  0.23127734  0.46255469  0.33993904  1
  S  S47  1  0.53744518  0.76872182  0.33993565  1
  S  S48  1  0.66666900  0.33333801  0.53989222  1
  S  S49  1  0.33333100  0.66666199  0.03989222  1
  Br  Br50  1  0.00000050  0.00000100  0.50209868  1
  Br  Br51  1  0.99999950  0.99999900  0.00209868  1
