# generated using pymatgen
data_CrF4
_symmetry_space_group_name_H-M   'P 1'
_cell_length_a   7.36946216
_cell_length_b   9.10630540
_cell_length_c   9.10630598
_cell_angle_alpha   67.43261177
_cell_angle_beta   79.48571899
_cell_angle_gamma   79.48571392
_symmetry_Int_Tables_number   1
_chemical_formula_structural   CrF4
_chemical_formula_sum   'Cr8 F32'
_cell_volume   550.57043477
_cell_formula_units_Z   8
loop_
 _symmetry_equiv_pos_site_id
 _symmetry_equiv_pos_as_xyz
  1  'x, y, z'
loop_
 _atom_site_type_symbol
 _atom_site_label
 _atom_site_symmetry_multiplicity
 _atom_site_fract_x
 _atom_site_fract_y
 _atom_site_fract_z
 _atom_site_occupancy
  Cr  Cr0  1  0.49791709  0.74290767  0.25261834  1
  Cr  Cr1  1  0.89455670  0.18226520  0.18573728  1
  Cr  Cr2  1  0.60544330  0.81426272  0.81773480  1
  Cr  Cr3  1  0.39455670  0.18573728  0.18226520  1
  Cr  Cr4  1  0.10544330  0.81773480  0.81426272  1
  Cr  Cr5  1  0.99791709  0.25261834  0.74290767  1
  Cr  Cr6  1  0.50208291  0.25709233  0.74738166  1
  Cr  Cr7  1  0.00208291  0.74738166  0.25709233  1
  F  F8  1  0.99943270  0.75650090  0.04042993  1
  F  F9  1  0.90365887  0.97508764  0.16190595  1
  F  F10  1  0.59634113  0.83809405  0.02491236  1
  F  F11  1  0.64815677  0.23885481  0.11746613  1
  F  F12  1  0.85184323  0.88253387  0.76114519  1
  F  F13  1  0.89698923  0.37690753  0.17519408  1
  F  F14  1  0.90867774  0.45500140  0.68182391  1
  F  F15  1  0.35184323  0.76114519  0.88253387  1
  F  F16  1  0.09132226  0.54499860  0.31817609  1
  F  F17  1  0.49943270  0.04042993  0.75650090  1
  F  F18  1  0.19318052  0.90498750  0.61358484  1
  F  F19  1  0.75000000  0.18843518  0.81156482  1
  F  F20  1  0.98763300  0.77363593  0.43893073  1
  F  F21  1  0.01236700  0.22636407  0.56106927  1
  F  F22  1  0.80681948  0.09501250  0.38641516  1
  F  F23  1  0.25000000  0.30821184  0.69178816  1
  F  F24  1  0.25000000  0.81156482  0.18843518  1
  F  F25  1  0.60301077  0.82480592  0.62309247  1
  F  F26  1  0.50056730  0.95957007  0.24349910  1
  F  F27  1  0.09634113  0.02491236  0.83809405  1
  F  F28  1  0.40365887  0.16190595  0.97508764  1
  F  F29  1  0.51236700  0.56106927  0.22636407  1
  F  F30  1  0.39698923  0.17519408  0.37690753  1
  F  F31  1  0.69318052  0.61358484  0.90498750  1
  F  F32  1  0.10301077  0.62309247  0.82480592  1
  F  F33  1  0.75000000  0.69178816  0.30821184  1
  F  F34  1  0.14815677  0.11746613  0.23885481  1
  F  F35  1  0.00056730  0.24349910  0.95957007  1
  F  F36  1  0.48763300  0.43893073  0.77363593  1
  F  F37  1  0.40867774  0.68182391  0.45500140  1
  F  F38  1  0.30681948  0.38641516  0.09501250  1
  F  F39  1  0.59132226  0.31817609  0.54499860  1
