# generated using pymatgen
data_MnSi6Pb8O21
_symmetry_space_group_name_H-M   'P 1'
_cell_length_a   14.34941109
_cell_length_b   14.34941068
_cell_length_c   14.34941068
_cell_angle_alpha   41.52766565
_cell_angle_beta   41.52766750
_cell_angle_gamma   41.52766638
_symmetry_Int_Tables_number   1
_chemical_formula_structural   MnSi6Pb8O21
_chemical_formula_sum   'Mn2 Si12 Pb16 O42'
_cell_volume   1173.65031374
_cell_formula_units_Z   2
loop_
 _symmetry_equiv_pos_site_id
 _symmetry_equiv_pos_as_xyz
  1  'x, y, z'
loop_
 _atom_site_type_symbol
 _atom_site_label
 _atom_site_symmetry_multiplicity
 _atom_site_fract_x
 _atom_site_fract_y
 _atom_site_fract_z
 _atom_site_occupancy
  Mn  Mn0  1  0.25000000  0.25000000  0.25000000  1
  Mn  Mn1  1  0.75000000  0.75000000  0.75000000  1
  Si  Si2  1  0.43217661  0.66798044  0.03748422  1
  Si  Si3  1  0.56782339  0.33201956  0.96251578  1
  Si  Si4  1  0.83201956  0.06782339  0.46251578  1
  Si  Si5  1  0.66798044  0.03748422  0.43217661  1
  Si  Si6  1  0.46251578  0.83201956  0.06782339  1
  Si  Si7  1  0.96251578  0.56782339  0.33201956  1
  Si  Si8  1  0.53748422  0.16798044  0.93217661  1
  Si  Si9  1  0.06782339  0.46251578  0.83201956  1
  Si  Si10  1  0.03748422  0.43217661  0.66798044  1
  Si  Si11  1  0.93217661  0.53748422  0.16798044  1
  Si  Si12  1  0.16798044  0.93217661  0.53748422  1
  Si  Si13  1  0.33201956  0.96251578  0.56782339  1
  Pb  Pb14  1  0.03141675  0.78113119  0.30576653  1
  Pb  Pb15  1  0.16275636  0.16275636  0.16275636  1
  Pb  Pb16  1  0.21886881  0.69423347  0.96858325  1
  Pb  Pb17  1  0.71886881  0.46858325  0.19423347  1
  Pb  Pb18  1  0.53141675  0.80576653  0.28113119  1
  Pb  Pb19  1  0.83724364  0.83724364  0.83724364  1
  Pb  Pb20  1  0.78113119  0.30576653  0.03141675  1
  Pb  Pb21  1  0.28113119  0.53141675  0.80576653  1
  Pb  Pb22  1  0.69423347  0.96858325  0.21886881  1
  Pb  Pb23  1  0.46858325  0.19423347  0.71886881  1
  Pb  Pb24  1  0.19423347  0.71886881  0.46858325  1
  Pb  Pb25  1  0.33724364  0.33724364  0.33724364  1
  Pb  Pb26  1  0.66275636  0.66275636  0.66275636  1
  Pb  Pb27  1  0.80576653  0.28113119  0.53141675  1
  Pb  Pb28  1  0.96858325  0.21886881  0.69423347  1
  Pb  Pb29  1  0.30576653  0.03141675  0.78113119  1
  O  O30  1  0.75000000  0.12202963  0.37797037  1
  O  O31  1  0.02122310  0.97147493  0.38615001  1
  O  O32  1  0.12202963  0.37797037  0.75000000  1
  O  O33  1  0.75473534  0.84928098  0.53073142  1
  O  O34  1  0.97877690  0.02852507  0.61384999  1
  O  O35  1  0.92451925  0.73546992  0.28681786  1
  O  O36  1  0.26453008  0.71318214  0.07548075  1
  O  O37  1  0.47147493  0.52122310  0.88615001  1
  O  O38  1  0.47877690  0.11384999  0.52852507  1
  O  O39  1  0.84928098  0.53073142  0.75473534  1
  O  O40  1  0.37797037  0.75000000  0.12202963  1
  O  O41  1  0.21318214  0.76453008  0.57548075  1
  O  O42  1  0.65071902  0.74526466  0.96926858  1
  O  O43  1  0.24526466  0.15071902  0.46926858  1
  O  O44  1  0.87797037  0.62202963  0.25000000  1
  O  O45  1  0.52122310  0.88615001  0.47147493  1
  O  O46  1  0.42451925  0.78681786  0.23546992  1
  O  O47  1  0.73546992  0.28681786  0.92451925  1
  O  O48  1  0.25000000  0.87797037  0.62202963  1
  O  O49  1  0.25473534  0.03073142  0.34928098  1
  O  O50  1  0.15071902  0.46926858  0.24526466  1
  O  O51  1  0.07548075  0.26453008  0.71318214  1
  O  O52  1  0.53073142  0.75473534  0.84928098  1
  O  O53  1  0.96926858  0.65071902  0.74526466  1
  O  O54  1  0.28681786  0.92451925  0.73546992  1
  O  O55  1  0.23546992  0.42451925  0.78681786  1
  O  O56  1  0.11384999  0.52852507  0.47877690  1
  O  O57  1  0.52852507  0.47877690  0.11384999  1
  O  O58  1  0.71318214  0.07548075  0.26453008  1
  O  O59  1  0.02852507  0.61384999  0.97877690  1
  O  O60  1  0.78681786  0.23546992  0.42451925  1
  O  O61  1  0.46926858  0.24526466  0.15071902  1
  O  O62  1  0.97147493  0.38615001  0.02122310  1
  O  O63  1  0.74526466  0.96926858  0.65071902  1
  O  O64  1  0.61384999  0.97877690  0.02852507  1
  O  O65  1  0.57548075  0.21318214  0.76453008  1
  O  O66  1  0.34928098  0.25473534  0.03073142  1
  O  O67  1  0.62202963  0.25000000  0.87797037  1
  O  O68  1  0.38615001  0.02122310  0.97147493  1
  O  O69  1  0.88615001  0.47147493  0.52122310  1
  O  O70  1  0.03073142  0.34928098  0.25473534  1
  O  O71  1  0.76453008  0.57548075  0.21318214  1
