# generated using pymatgen
data_SrFe3P3O13
_symmetry_space_group_name_H-M   'P 1'
_cell_length_a   6.43414073
_cell_length_b   7.70245062
_cell_length_c   10.47583671
_cell_angle_alpha   99.55711939
_cell_angle_beta   90.00000000
_cell_angle_gamma   90.00000000
_symmetry_Int_Tables_number   1
_chemical_formula_structural   SrFe3P3O13
_chemical_formula_sum   'Sr2 Fe6 P6 O26'
_cell_volume   511.96257848
_cell_formula_units_Z   2
loop_
 _symmetry_equiv_pos_site_id
 _symmetry_equiv_pos_as_xyz
  1  'x, y, z'
loop_
 _atom_site_type_symbol
 _atom_site_label
 _atom_site_symmetry_multiplicity
 _atom_site_fract_x
 _atom_site_fract_y
 _atom_site_fract_z
 _atom_site_occupancy
  Sr  Sr0  1  0.25000000  0.66370085  0.70122004  1
  Sr  Sr1  1  0.75000000  0.33629915  0.29877996  1
  Fe  Fe2  1  0.25000000  0.21064270  0.05823355  1
  Fe  Fe3  1  0.00000000  0.00000000  0.50000000  1
  Fe  Fe4  1  0.75000000  0.78935730  0.94176645  1
  Fe  Fe5  1  0.25000000  0.64949809  0.30192808  1
  Fe  Fe6  1  0.75000000  0.35050191  0.69807192  1
  Fe  Fe7  1  0.50000000  0.00000000  0.50000000  1
  P  P8  1  0.25000000  0.78374802  0.01908778  1
  P  P9  1  0.75000000  0.21625198  0.98091222  1
  P  P10  1  0.75000000  0.68765041  0.61649599  1
  P  P11  1  0.75000000  0.74683692  0.26296851  1
  P  P12  1  0.25000000  0.25316308  0.73703149  1
  P  P13  1  0.25000000  0.31234959  0.38350401  1
  O  O14  1  0.25000000  0.19960693  0.87143945  1
  O  O15  1  0.75000000  0.92067790  0.36720117  1
  O  O16  1  0.05925302  0.75044182  0.92586980  1
  O  O17  1  0.93839879  0.63258097  0.28768269  1
  O  O18  1  0.55925302  0.24955818  0.07413020  1
  O  O19  1  0.44777523  0.20914404  0.40800619  1
  O  O20  1  0.56160121  0.63258097  0.28768269  1
  O  O21  1  0.25000000  0.87764814  0.41037870  1
  O  O22  1  0.94074698  0.24955818  0.07413020  1
  O  O23  1  0.25000000  0.97583566  0.09243403  1
  O  O24  1  0.94777523  0.79085596  0.59199381  1
  O  O25  1  0.06160121  0.36741903  0.71231731  1
  O  O26  1  0.05222477  0.20914404  0.40800619  1
  O  O27  1  0.75000000  0.65116968  0.75961131  1
  O  O28  1  0.25000000  0.65499934  0.11499521  1
  O  O29  1  0.55222477  0.79085596  0.59199381  1
  O  O30  1  0.43839879  0.36741903  0.71231731  1
  O  O31  1  0.75000000  0.49644281  0.54198375  1
  O  O32  1  0.75000000  0.80039307  0.12856055  1
  O  O33  1  0.25000000  0.07932210  0.63279883  1
  O  O34  1  0.25000000  0.50355719  0.45801625  1
  O  O35  1  0.75000000  0.12235186  0.58962130  1
  O  O36  1  0.44074698  0.75044182  0.92586980  1
  O  O37  1  0.75000000  0.02416434  0.90756597  1
  O  O38  1  0.75000000  0.34500066  0.88500479  1
  O  O39  1  0.25000000  0.34883032  0.24038869  1
