# generated using pymatgen
data_AlH12(NO5)3
_symmetry_space_group_name_H-M   'P 1'
_cell_length_a   12.01494050
_cell_length_b   12.01494050
_cell_length_c   12.01494050
_cell_angle_alpha   109.47122063
_cell_angle_beta   109.47122063
_cell_angle_gamma   109.47122063
_symmetry_Int_Tables_number   1
_chemical_formula_structural   AlH12(NO5)3
_chemical_formula_sum   'Al4 H48 N12 O60'
_cell_volume   1335.18972703
_cell_formula_units_Z   4
loop_
 _symmetry_equiv_pos_site_id
 _symmetry_equiv_pos_as_xyz
  1  'x, y, z'
loop_
 _atom_site_type_symbol
 _atom_site_label
 _atom_site_symmetry_multiplicity
 _atom_site_fract_x
 _atom_site_fract_y
 _atom_site_fract_z
 _atom_site_occupancy
  Al  Al0  1  0.00000000  0.50000000  0.00000000  1
  Al  Al1  1  0.50000000  0.00000000  0.00000000  1
  Al  Al2  1  0.00000000  0.00000000  0.50000000  1
  Al  Al3  1  0.50000000  0.50000000  0.50000000  1
  H  H4  1  0.91913364  0.62162525  0.87262849  1
  H  H5  1  0.25100325  0.87837475  0.79750840  1
  H  H6  1  0.24899675  0.04650515  0.62737151  1
  H  H7  1  0.58086636  0.45349485  0.70249160  1
  H  H8  1  0.87262849  0.91913364  0.62162525  1
  H  H9  1  0.79750840  0.25100325  0.87837475  1
  H  H10  1  0.62737151  0.24899675  0.04650515  1
  H  H11  1  0.70249160  0.58086636  0.45349485  1
  H  H12  1  0.62162525  0.87262849  0.91913364  1
  H  H13  1  0.87837475  0.79750840  0.25100325  1
  H  H14  1  0.04650515  0.62737151  0.24899675  1
  H  H15  1  0.45349485  0.70249160  0.58086636  1
  H  H16  1  0.08086636  0.37837475  0.12737151  1
  H  H17  1  0.74899675  0.12162525  0.20249160  1
  H  H18  1  0.75100325  0.95349485  0.37262849  1
  H  H19  1  0.41913364  0.54650515  0.29750840  1
  H  H20  1  0.12737151  0.08086636  0.37837475  1
  H  H21  1  0.20249160  0.74899675  0.12162525  1
  H  H22  1  0.37262849  0.75100325  0.95349485  1
  H  H23  1  0.29750840  0.41913364  0.54650515  1
  H  H24  1  0.37837475  0.12737151  0.08086636  1
  H  H25  1  0.12162525  0.20249160  0.74899675  1
  H  H26  1  0.95349485  0.37262849  0.75100325  1
  H  H27  1  0.54650515  0.29750840  0.41913364  1
  H  H28  1  0.88306529  0.64764149  0.99414486  1
  H  H29  1  0.34650337  0.85235851  0.73542380  1
  H  H30  1  0.15349663  0.88892043  0.50585514  1
  H  H31  1  0.61693471  0.61107957  0.76457620  1
  H  H32  1  0.99414486  0.88306529  0.64764149  1
  H  H33  1  0.73542380  0.34650337  0.85235851  1
  H  H34  1  0.50585514  0.15349663  0.88892043  1
  H  H35  1  0.76457620  0.61693471  0.61107957  1
  H  H36  1  0.64764149  0.99414486  0.88306529  1
  H  H37  1  0.85235851  0.73542380  0.34650337  1
  H  H38  1  0.88892043  0.50585514  0.15349663  1
  H  H39  1  0.61107957  0.76457620  0.61693471  1
  H  H40  1  0.11693471  0.35235851  0.00585514  1
  H  H41  1  0.65349663  0.14764149  0.26457620  1
  H  H42  1  0.84650337  0.11107957  0.49414486  1
  H  H43  1  0.38306529  0.38892043  0.23542380  1
  H  H44  1  0.00585514  0.11693471  0.35235851  1
  H  H45  1  0.26457620  0.65349663  0.14764149  1
  H  H46  1  0.49414486  0.84650337  0.11107957  1
  H  H47  1  0.23542380  0.38306529  0.38892043  1
  H  H48  1  0.35235851  0.00585514  0.11693471  1
  H  H49  1  0.14764149  0.26457620  0.65349663  1
  H  H50  1  0.11107957  0.49414486  0.84650337  1
  H  H51  1  0.38892043  0.23542380  0.38306529  1
  N  N52  1  0.21533463  0.96533463  0.25000000  1
  N  N53  1  0.28466537  0.53466537  0.75000000  1
  N  N54  1  0.25000000  0.21533463  0.96533463  1
  N  N55  1  0.75000000  0.28466537  0.53466537  1
  N  N56  1  0.96533463  0.25000000  0.21533463  1
  N  N57  1  0.53466537  0.75000000  0.28466537  1
  N  N58  1  0.78466537  0.03466537  0.75000000  1
  N  N59  1  0.71533463  0.46533463  0.25000000  1
  N  N60  1  0.75000000  0.78466537  0.03466537  1
  N  N61  1  0.25000000  0.71533463  0.46533463  1
  N  N62  1  0.03466537  0.75000000  0.78466537  1
  N  N63  1  0.46533463  0.25000000  0.71533463  1
  O  O64  1  0.91935664  0.59838562  0.94463425  1
  O  O65  1  0.34624862  0.90161438  0.82097102  1
  O  O66  1  0.15375138  0.97472239  0.55536575  1
  O  O67  1  0.58064336  0.52527761  0.67902898  1
  O  O68  1  0.94463425  0.91935664  0.59838562  1
  O  O69  1  0.82097102  0.34624862  0.90161438  1
  O  O70  1  0.55536575  0.15375138  0.97472239  1
  O  O71  1  0.67902898  0.58064336  0.52527761  1
  O  O72  1  0.59838562  0.94463425  0.91935664  1
  O  O73  1  0.90161438  0.82097102  0.34624862  1
  O  O74  1  0.97472239  0.55536575  0.15375138  1
  O  O75  1  0.52527761  0.67902898  0.58064336  1
  O  O76  1  0.08064336  0.40161438  0.05536575  1
  O  O77  1  0.65375138  0.09838562  0.17902898  1
  O  O78  1  0.84624862  0.02527761  0.44463425  1
  O  O79  1  0.41935664  0.47472239  0.32097102  1
  O  O80  1  0.05536575  0.08064336  0.40161438  1
  O  O81  1  0.17902898  0.65375138  0.09838562  1
  O  O82  1  0.44463425  0.84624862  0.02527761  1
  O  O83  1  0.32097102  0.41935664  0.47472239  1
  O  O84  1  0.40161438  0.05536575  0.08064336  1
  O  O85  1  0.09838562  0.17902898  0.65375138  1
  O  O86  1  0.02527761  0.44463425  0.84624862  1
  O  O87  1  0.47472239  0.32097102  0.41935664  1
  O  O88  1  0.27977276  0.93321247  0.19022123  1
  O  O89  1  0.25700876  0.56678753  0.84656030  1
  O  O90  1  0.24299124  0.08955154  0.30977877  1
  O  O91  1  0.22022724  0.41044846  0.65343970  1
  O  O92  1  0.19022123  0.27977276  0.93321247  1
  O  O93  1  0.84656030  0.25700876  0.56678753  1
  O  O94  1  0.30977877  0.24299124  0.08955154  1
  O  O95  1  0.65343970  0.22022724  0.41044846  1
  O  O96  1  0.93321247  0.19022123  0.27977276  1
  O  O97  1  0.56678753  0.84656030  0.25700876  1
  O  O98  1  0.08955154  0.30977877  0.24299124  1
  O  O99  1  0.41044846  0.65343970  0.22022724  1
  O  O100  1  0.72022724  0.06678753  0.80977877  1
  O  O101  1  0.74299124  0.43321247  0.15343970  1
  O  O102  1  0.75700876  0.91044846  0.69022123  1
  O  O103  1  0.77977276  0.58955154  0.34656030  1
  O  O104  1  0.80977877  0.72022724  0.06678753  1
  O  O105  1  0.15343970  0.74299124  0.43321247  1
  O  O106  1  0.69022123  0.75700876  0.91044846  1
  O  O107  1  0.34656030  0.77977276  0.58955154  1
  O  O108  1  0.06678753  0.80977877  0.72022724  1
  O  O109  1  0.43321247  0.15343970  0.74299124  1
  O  O110  1  0.91044846  0.69022123  0.75700876  1
  O  O111  1  0.58955154  0.34656030  0.77977276  1
  O  O112  1  0.12598563  0.87598563  0.25000000  1
  O  O113  1  0.37401437  0.62401437  0.75000000  1
  O  O114  1  0.25000000  0.12598563  0.87598563  1
  O  O115  1  0.75000000  0.37401437  0.62401437  1
  O  O116  1  0.87598563  0.25000000  0.12598563  1
  O  O117  1  0.62401437  0.75000000  0.37401437  1
  O  O118  1  0.87401437  0.12401437  0.75000000  1
  O  O119  1  0.62598563  0.37598563  0.25000000  1
  O  O120  1  0.75000000  0.87401437  0.12401437  1
  O  O121  1  0.25000000  0.62598563  0.37598563  1
  O  O122  1  0.12401437  0.75000000  0.87401437  1
  O  O123  1  0.37598563  0.25000000  0.62598563  1
