# generated using pymatgen
data_Nd2Zr3(MoO4)9
_symmetry_space_group_name_H-M   'P 1'
_cell_length_a   20.68522497
_cell_length_b   20.68522453
_cell_length_c   20.68522490
_cell_angle_alpha   27.93523383
_cell_angle_beta   27.93523610
_cell_angle_gamma   27.93523532
_symmetry_Int_Tables_number   1
_chemical_formula_structural   Nd2Zr3(MoO4)9
_chemical_formula_sum   'Nd4 Zr6 Mo18 O72'
_cell_volume   1715.50054072
_cell_formula_units_Z   2
loop_
 _symmetry_equiv_pos_site_id
 _symmetry_equiv_pos_as_xyz
  1  'x, y, z'
loop_
 _atom_site_type_symbol
 _atom_site_label
 _atom_site_symmetry_multiplicity
 _atom_site_fract_x
 _atom_site_fract_y
 _atom_site_fract_z
 _atom_site_occupancy
  Nd  Nd0  1  0.30411464  0.30411464  0.30411464  1
  Nd  Nd1  1  0.19588536  0.19588536  0.19588536  1
  Nd  Nd2  1  0.69588536  0.69588536  0.69588536  1
  Nd  Nd3  1  0.80411464  0.80411464  0.80411464  1
  Zr  Zr4  1  0.40471371  0.40471371  0.40471371  1
  Zr  Zr5  1  0.09528629  0.09528629  0.09528629  1
  Zr  Zr6  1  0.59528629  0.59528629  0.59528629  1
  Zr  Zr7  1  0.00000000  0.00000000  0.00000000  1
  Zr  Zr8  1  0.50000000  0.50000000  0.50000000  1
  Zr  Zr9  1  0.90471371  0.90471371  0.90471371  1
  Mo  Mo10  1  0.80030960  0.15373492  0.62067039  1
  Mo  Mo11  1  0.30030960  0.12067039  0.65373492  1
  Mo  Mo12  1  0.34626508  0.69969040  0.87932961  1
  Mo  Mo13  1  0.97098771  0.52901229  0.25000000  1
  Mo  Mo14  1  0.52901229  0.25000000  0.97098771  1
  Mo  Mo15  1  0.84626508  0.37932961  0.19969040  1
  Mo  Mo16  1  0.47098771  0.75000000  0.02901229  1
  Mo  Mo17  1  0.65373492  0.30030960  0.12067039  1
  Mo  Mo18  1  0.37932961  0.19969040  0.84626508  1
  Mo  Mo19  1  0.62067039  0.80030960  0.15373492  1
  Mo  Mo20  1  0.25000000  0.97098771  0.52901229  1
  Mo  Mo21  1  0.75000000  0.02901229  0.47098771  1
  Mo  Mo22  1  0.02901229  0.47098771  0.75000000  1
  Mo  Mo23  1  0.12067039  0.65373492  0.30030960  1
  Mo  Mo24  1  0.69969040  0.87932961  0.34626508  1
  Mo  Mo25  1  0.19969040  0.84626508  0.37932961  1
  Mo  Mo26  1  0.15373492  0.62067039  0.80030960  1
  Mo  Mo27  1  0.87932961  0.34626508  0.69969040  1
  O  O28  1  0.00438775  0.65828452  0.84229323  1
  O  O29  1  0.25873553  0.57492629  0.31444974  1
  O  O30  1  0.50438775  0.34229323  0.15828452  1
  O  O31  1  0.68555026  0.74126447  0.42507371  1
  O  O32  1  0.27561614  0.56404048  0.07070489  1
  O  O33  1  0.10228518  0.13992525  0.81551628  1
  O  O34  1  0.69614430  0.91826687  0.56520512  1
  O  O35  1  0.57492629  0.31444974  0.25873553  1
  O  O36  1  0.30385570  0.08173313  0.43479488  1
  O  O37  1  0.13992525  0.81551628  0.10228518  1
  O  O38  1  0.27646841  0.91910257  0.03819461  1
  O  O39  1  0.81444974  0.07492629  0.75873553  1
  O  O40  1  0.75873553  0.81444974  0.07492629  1
  O  O41  1  0.19614430  0.06520512  0.41826687  1
  O  O42  1  0.08089743  0.96180539  0.72353159  1
  O  O43  1  0.18555026  0.92507371  0.24126447  1
  O  O44  1  0.03819461  0.27646841  0.91910257  1
  O  O45  1  0.80385570  0.93479488  0.58173313  1
  O  O46  1  0.60228518  0.31551628  0.63992525  1
  O  O47  1  0.81551628  0.10228518  0.13992525  1
  O  O48  1  0.42507371  0.68555026  0.74126447  1
  O  O49  1  0.46180539  0.58089743  0.22353159  1
  O  O50  1  0.07492629  0.75873553  0.81444974  1
  O  O51  1  0.77646841  0.53819461  0.41910257  1
  O  O52  1  0.31551628  0.63992525  0.60228518  1
  O  O53  1  0.77561614  0.57070489  0.06404048  1
  O  O54  1  0.96180539  0.72353159  0.08089743  1
  O  O55  1  0.08173313  0.43479488  0.30385570  1
  O  O56  1  0.15770677  0.99561225  0.34171548  1
  O  O57  1  0.22353159  0.46180539  0.58089743  1
  O  O58  1  0.86007475  0.18448372  0.89771482  1
  O  O59  1  0.18448372  0.89771482  0.86007475  1
  O  O60  1  0.89771482  0.86007475  0.18448372  1
  O  O61  1  0.92507371  0.24126447  0.18555026  1
  O  O62  1  0.91910257  0.03819461  0.27646841  1
  O  O63  1  0.43479488  0.30385570  0.08173313  1
  O  O64  1  0.34171548  0.15770677  0.99561225  1
  O  O65  1  0.58089743  0.22353159  0.46180539  1
  O  O66  1  0.56404048  0.07070489  0.27561614  1
  O  O67  1  0.65828452  0.84229323  0.00438775  1
  O  O68  1  0.58173313  0.80385570  0.93479488  1
  O  O69  1  0.99561225  0.34171548  0.15770677  1
  O  O70  1  0.84229323  0.00438775  0.65828452  1
  O  O71  1  0.56520512  0.69614430  0.91826687  1
  O  O72  1  0.74126447  0.42507371  0.68555026  1
  O  O73  1  0.06520512  0.41826687  0.19614430  1
  O  O74  1  0.36007475  0.39771482  0.68448372  1
  O  O75  1  0.42929511  0.93595952  0.22438386  1
  O  O76  1  0.07070489  0.27561614  0.56404048  1
  O  O77  1  0.41826687  0.19614430  0.06520512  1
  O  O78  1  0.72438386  0.43595952  0.92929511  1
  O  O79  1  0.39771482  0.68448372  0.36007475  1
  O  O80  1  0.06404048  0.77561614  0.57070489  1
  O  O81  1  0.91826687  0.56520512  0.69614430  1
  O  O82  1  0.72353159  0.08089743  0.96180539  1
  O  O83  1  0.63992525  0.60228518  0.31551628  1
  O  O84  1  0.93595952  0.22438386  0.42929511  1
  O  O85  1  0.93479488  0.58173313  0.80385570  1
  O  O86  1  0.41910257  0.77646841  0.53819461  1
  O  O87  1  0.43595952  0.92929511  0.72438386  1
  O  O88  1  0.24126447  0.18555026  0.92507371  1
  O  O89  1  0.15828452  0.50438775  0.34229323  1
  O  O90  1  0.92929511  0.72438386  0.43595952  1
  O  O91  1  0.84171548  0.49561225  0.65770677  1
  O  O92  1  0.57070489  0.06404048  0.77561614  1
  O  O93  1  0.31444974  0.25873553  0.57492629  1
  O  O94  1  0.22438386  0.42929511  0.93595952  1
  O  O95  1  0.49561225  0.65770677  0.84171548  1
  O  O96  1  0.68448372  0.36007475  0.39771482  1
  O  O97  1  0.53819461  0.41910257  0.77646841  1
  O  O98  1  0.34229323  0.15828452  0.50438775  1
  O  O99  1  0.65770677  0.84171548  0.49561225  1
