# generated using pymatgen
data_Cr2P2O7
_symmetry_space_group_name_H-M   'P 1'
_cell_length_a   8.53805377
_cell_length_b   9.42802683
_cell_length_c   11.10417366
_cell_angle_alpha   95.94744670
_cell_angle_beta   112.63923790
_cell_angle_gamma   90.03869754
_symmetry_Int_Tables_number   1
_chemical_formula_structural   Cr2P2O7
_chemical_formula_sum   'Cr12 P12 O42'
_cell_volume   819.73657717
_cell_formula_units_Z   6
loop_
 _symmetry_equiv_pos_site_id
 _symmetry_equiv_pos_as_xyz
  1  'x, y, z'
loop_
 _atom_site_type_symbol
 _atom_site_label
 _atom_site_symmetry_multiplicity
 _atom_site_fract_x
 _atom_site_fract_y
 _atom_site_fract_z
 _atom_site_occupancy
  Cr  Cr0  1  0.98889925  0.69014755  0.35671875  1
  Cr  Cr1  1  0.32144142  0.52371911  0.02041668  1
  Cr  Cr2  1  0.65045094  0.33965989  0.67162568  1
  Cr  Cr3  1  0.36807311  0.19097839  0.35649983  1
  Cr  Cr4  1  0.63171217  0.81099932  0.64300204  1
  Cr  Cr5  1  0.67794831  0.47728824  0.97866109  1
  Cr  Cr6  1  0.69915102  0.02348955  0.02056433  1
  Cr  Cr7  1  0.02147253  0.84053930  0.67184695  1
  Cr  Cr8  1  0.01074931  0.30962374  0.64195114  1
  Cr  Cr9  1  0.34988380  0.66147655  0.32810130  1
  Cr  Cr10  1  0.30102615  0.97742193  0.97945914  1
  Cr  Cr11  1  0.97868419  0.16148097  0.32793103  1
  P  P12  1  0.40685067  0.17746926  0.78789366  1
  P  P13  1  0.59345351  0.82353766  0.21189468  1
  P  P14  1  0.28304373  0.97001208  0.53376291  1
  P  P15  1  0.38106117  0.67798377  0.78797667  1
  P  P16  1  0.25133750  0.46984717  0.53384136  1
  P  P17  1  0.71716571  0.03194818  0.46598428  1
  P  P18  1  0.91870180  0.64794710  0.87396911  1
  P  P19  1  0.08082524  0.35408354  0.12558207  1
  P  P20  1  0.74894482  0.53163545  0.46576137  1
  P  P21  1  0.95479023  0.14775878  0.87393566  1
  P  P22  1  0.61862129  0.32357768  0.21127049  1
  P  P23  1  0.04474964  0.85338530  0.12570669  1
  O  O24  1  0.91558932  0.75087325  0.99967422  1
  O  O25  1  0.22039142  0.07874587  0.43107095  1
  O  O26  1  0.59843277  0.94324597  0.32891778  1
  O  O27  1  0.72988725  0.44409348  0.32798837  1
  O  O28  1  0.09194895  0.58910794  0.90269573  1
  O  O29  1  0.78861896  0.42232182  0.56787849  1
  O  O30  1  0.90820073  0.41396020  0.09768053  1
  O  O31  1  0.13219113  0.89549308  0.54538618  1
  O  O32  1  0.59373053  0.13441126  0.49473903  1
  O  O33  1  0.26881332  0.55836411  0.67075585  1
  O  O34  1  0.77643663  0.53547275  0.84757244  1
  O  O35  1  0.54675514  0.40736736  0.08918549  1
  O  O36  1  0.45188792  0.71507794  0.19633242  1
  O  O37  1  0.78002352  0.92362178  0.56904651  1
  O  O38  1  0.86784812  0.10721500  0.45467115  1
  O  O39  1  0.80986753  0.08879206  0.90216546  1
  O  O40  1  0.25504548  0.78635640  0.80351171  1
  O  O41  1  0.45720975  0.09314686  0.90966288  1
  O  O42  1  0.88809399  0.24198471  0.75868826  1
  O  O43  1  0.07130690  0.03542883  0.84857894  1
  O  O44  1  0.47820885  0.26024194  0.24172103  1
  O  O45  1  0.23502430  0.23906963  0.75674218  1
  O  O46  1  0.74528830  0.21570136  0.19609193  1
  O  O47  1  0.76474247  0.76107866  0.24250960  1
  O  O48  1  0.40304222  0.05811207  0.67091652  1
  O  O49  1  0.90166639  0.63397301  0.49514027  1
  O  O50  1  0.52186995  0.74079736  0.75769397  1
  O  O51  1  0.87092323  0.74296655  0.75931920  1
  O  O52  1  0.92887634  0.96579234  0.15194046  1
  O  O53  1  0.12864388  0.25859567  0.23989017  1
  O  O54  1  0.58732856  0.60716375  0.45490495  1
  O  O55  1  0.40574520  0.86708519  0.50447180  1
  O  O56  1  0.54303222  0.90788736  0.09015494  1
  O  O57  1  0.21123369  0.57831254  0.43090998  1
  O  O58  1  0.22385257  0.46584458  0.15200444  1
  O  O59  1  0.09929620  0.36681833  0.50451820  1
  O  O60  1  0.08284457  0.25160548  0.99931653  1
  O  O61  1  0.45225789  0.59346954  0.90959256  1
  O  O62  1  0.11131189  0.75807293  0.24013158  1
  O  O63  1  0.41372635  0.39533642  0.54547807  1
  O  O64  1  0.54794048  0.28653350  0.80357910  1
  O  O65  1  0.18979260  0.91239664  0.09764225  1
