# generated using pymatgen
data_Sm3MoO7
_symmetry_space_group_name_H-M   'P 1'
_cell_length_a   7.63949090
_cell_length_b   7.58162813
_cell_length_c   21.51555974
_cell_angle_alpha   90.00154138
_cell_angle_beta   90.00598599
_cell_angle_gamma   90.00626763
_symmetry_Int_Tables_number   1
_chemical_formula_structural   Sm3MoO7
_chemical_formula_sum   'Sm24 Mo8 O56'
_cell_volume   1246.17645375
_cell_formula_units_Z   8
loop_
 _symmetry_equiv_pos_site_id
 _symmetry_equiv_pos_as_xyz
  1  'x, y, z'
loop_
 _atom_site_type_symbol
 _atom_site_label
 _atom_site_symmetry_multiplicity
 _atom_site_fract_x
 _atom_site_fract_y
 _atom_site_fract_z
 _atom_site_occupancy
  Sm  Sm0  1  0.04063445  0.51325365  0.87189338  1
  Sm  Sm1  1  0.19854156  0.75296273  0.00895936  1
  Sm  Sm2  1  0.19798349  0.75252413  0.50865874  1
  Sm  Sm3  1  0.21748074  0.74719065  0.23347867  1
  Sm  Sm4  1  0.21738466  0.74679248  0.73349394  1
  Sm  Sm5  1  0.28120842  0.25316072  0.48340082  1
  Sm  Sm6  1  0.28188343  0.25311469  0.98361738  1
  Sm  Sm7  1  0.30071850  0.24645035  0.25891539  1
  Sm  Sm8  1  0.30080204  0.24692287  0.75879971  1
  Sm  Sm9  1  0.45850580  0.48679681  0.12204131  1
  Sm  Sm10  1  0.45886169  0.48683867  0.62175715  1
  Sm  Sm11  1  0.53929821  0.98691165  0.62822166  1
  Sm  Sm12  1  0.54080399  0.98680994  0.12821446  1
  Sm  Sm13  1  0.69793175  0.74697795  0.49138793  1
  Sm  Sm14  1  0.69852009  0.74692780  0.99111416  1
  Sm  Sm15  1  0.71740565  0.75285387  0.26668057  1
  Sm  Sm16  1  0.71751736  0.75303311  0.76649708  1
  Sm  Sm17  1  0.78184484  0.24700398  0.01647742  1
  Sm  Sm18  1  0.78093268  0.24701480  0.51661663  1
  Sm  Sm19  1  0.80099118  0.25288243  0.24145906  1
  Sm  Sm20  1  0.80076279  0.25288788  0.74118327  1
  Sm  Sm21  1  0.95875639  0.01275223  0.37842957  1
  Sm  Sm22  1  0.95909089  0.01318303  0.87816774  1
  Sm  Sm23  1  0.03906738  0.51265133  0.37160607  1
  Mo  Mo24  1  0.00220895  0.00096316  0.12444918  1
  Mo  Mo25  1  0.00233351  0.00073075  0.62435331  1
  Mo  Mo26  1  0.49660909  0.99902587  0.37463042  1
  Mo  Mo27  1  0.49673261  0.99905578  0.87432787  1
  Mo  Mo28  1  0.50292441  0.49894819  0.37584406  1
  Mo  Mo29  1  0.50245177  0.49905464  0.87549130  1
  Mo  Mo30  1  0.99644702  0.50087346  0.12565501  1
  Mo  Mo31  1  0.99652313  0.50080392  0.62560938  1
  O  O32  1  0.99862929  0.26636489  0.44142174  1
  O  O33  1  0.99977885  0.26660513  0.94149144  1
  O  O34  1  0.03721501  0.24699160  0.30821979  1
  O  O35  1  0.03685948  0.24761897  0.80814879  1
  O  O36  1  0.09111610  0.75343854  0.12258657  1
  O  O37  1  0.09096136  0.75322398  0.62240081  1
  O  O38  1  0.12479638  0.04967944  0.05052007  1
  O  O39  1  0.12427134  0.04913081  0.55026139  1
  O  O40  1  0.17813092  0.46289687  0.06138576  1
  O  O41  1  0.17698241  0.46274386  0.56104459  1
  O  O42  1  0.19475902  0.03471647  0.18589023  1
  O  O43  1  0.19610312  0.03425073  0.68552864  1
  O  O44  1  0.21408561  0.46205225  0.18576906  1
  O  O45  1  0.21485617  0.46202537  0.68552017  1
  O  O46  1  0.28365848  0.53759545  0.43522892  1
  O  O47  1  0.28464759  0.53785798  0.93571968  1
  O  O48  1  0.30266085  0.96556541  0.43543750  1
  O  O49  1  0.30413129  0.96545974  0.93586676  1
  O  O50  1  0.32340165  0.53703315  0.31086846  1
  O  O51  1  0.32123056  0.53704289  0.81128344  1
  O  O52  1  0.37449679  0.94994515  0.30022203  1
  O  O53  1  0.37466529  0.95031429  0.80041866  1
  O  O54  1  0.40831777  0.24648009  0.37220795  1
  O  O55  1  0.40794542  0.24651333  0.87244810  1
  O  O56  1  0.46270259  0.75227205  0.05823425  1
  O  O57  1  0.46164550  0.75227067  0.55809882  1
  O  O58  1  0.49960018  0.73352956  0.19144332  1
  O  O59  1  0.49969374  0.73328780  0.69144679  1
  O  O60  1  0.49968487  0.23354028  0.05879825  1
  O  O61  1  0.49848197  0.23311994  0.55864993  1
  O  O62  1  0.53693891  0.25281512  0.19217320  1
  O  O63  1  0.53680951  0.25231907  0.69191919  1
  O  O64  1  0.59107749  0.74656087  0.37768426  1
  O  O65  1  0.59149737  0.74653611  0.87765891  1
  O  O66  1  0.62280922  0.45046459  0.45013510  1
  O  O67  1  0.62494202  0.45019079  0.94973655  1
  O  O68  1  0.67717548  0.03691138  0.43892776  1
  O  O69  1  0.67826529  0.03715688  0.93884679  1
  O  O70  1  0.69991086  0.46588976  0.31552335  1
  O  O71  1  0.69533346  0.46542002  0.81433523  1
  O  O72  1  0.71481221  0.03757041  0.31451647  1
  O  O73  1  0.71486357  0.03779388  0.81448739  1
  O  O74  1  0.78451197  0.96210945  0.06444986  1
  O  O75  1  0.78369848  0.96238214  0.56455327  1
  O  O76  1  0.80449314  0.53459907  0.06406969  1
  O  O77  1  0.80236537  0.53440547  0.56472538  1
  O  O78  1  0.82086475  0.96286459  0.18889997  1
  O  O79  1  0.82151659  0.96275720  0.68891148  1
  O  O80  1  0.87322290  0.54949497  0.19956171  1
  O  O81  1  0.87488262  0.54950336  0.69990697  1
  O  O82  1  0.90742329  0.25338337  0.12766471  1
  O  O83  1  0.90785526  0.25327947  0.62765713  1
  O  O84  1  0.96161941  0.74708138  0.44186099  1
  O  O85  1  0.96270809  0.74777046  0.94198333  1
  O  O86  1  0.00008672  0.76647094  0.30853175  1
  O  O87  1  0.99983795  0.76666902  0.80871165  1
