# generated using pymatgen
data_Hf3Tl10Mo12PbO48
_symmetry_space_group_name_H-M   'P 1'
_cell_length_a   14.60862139
_cell_length_b   14.60862200
_cell_length_c   14.60862162
_cell_angle_alpha   43.94760941
_cell_angle_beta   43.94760701
_cell_angle_gamma   43.94760998
_symmetry_Int_Tables_number   1
_chemical_formula_structural   Hf3Tl10Mo12PbO48
_chemical_formula_sum   'Hf3 Tl10 Mo12 Pb1 O48'
_cell_volume   1363.68924365
_cell_formula_units_Z   1
loop_
 _symmetry_equiv_pos_site_id
 _symmetry_equiv_pos_as_xyz
  1  'x, y, z'
loop_
 _atom_site_type_symbol
 _atom_site_label
 _atom_site_symmetry_multiplicity
 _atom_site_fract_x
 _atom_site_fract_y
 _atom_site_fract_z
 _atom_site_occupancy
  Hf  Hf0  1  0.00000000  0.00000000  0.00000000  1
  Hf  Hf1  1  0.25081291  0.25081291  0.25081291  1
  Hf  Hf2  1  0.74918709  0.74918709  0.74918709  1
  Tl  Tl3  1  0.14675625  0.14675625  0.14675625  1
  Tl  Tl4  1  0.37358224  0.37358224  0.37358224  1
  Tl  Tl5  1  0.14376164  0.36051669  0.75790510  1
  Tl  Tl6  1  0.36051669  0.75790510  0.14376164  1
  Tl  Tl7  1  0.75790510  0.14376164  0.36051669  1
  Tl  Tl8  1  0.24209490  0.85623836  0.63948331  1
  Tl  Tl9  1  0.63948331  0.24209490  0.85623836  1
  Tl  Tl10  1  0.85623836  0.63948331  0.24209490  1
  Tl  Tl11  1  0.62641776  0.62641776  0.62641776  1
  Tl  Tl12  1  0.85324375  0.85324375  0.85324375  1
  Mo  Mo13  1  0.04134174  0.24997149  0.61417485  1
  Mo  Mo14  1  0.24997149  0.61417485  0.04134174  1
  Mo  Mo15  1  0.61417485  0.04134174  0.24997149  1
  Mo  Mo16  1  0.10837157  0.76741007  0.51726486  1
  Mo  Mo17  1  0.51726486  0.10837157  0.76741007  1
  Mo  Mo18  1  0.76741007  0.51726486  0.10837157  1
  Mo  Mo19  1  0.23258993  0.48273514  0.89162843  1
  Mo  Mo20  1  0.48273514  0.89162843  0.23258993  1
  Mo  Mo21  1  0.89162843  0.23258993  0.48273514  1
  Mo  Mo22  1  0.38582515  0.95865826  0.75002851  1
  Mo  Mo23  1  0.75002851  0.38582515  0.95865826  1
  Mo  Mo24  1  0.95865826  0.75002851  0.38582515  1
  Pb  Pb25  1  0.50000000  0.50000000  0.50000000  1
  O  O26  1  0.04391129  0.29074765  0.32681065  1
  O  O27  1  0.29074765  0.32681065  0.04391129  1
  O  O28  1  0.32681065  0.04391129  0.29074765  1
  O  O29  1  0.01645713  0.09619582  0.79578344  1
  O  O30  1  0.18703032  0.19277647  0.46299448  1
  O  O31  1  0.19277647  0.46299448  0.18703032  1
  O  O32  1  0.09619582  0.79578344  0.01645713  1
  O  O33  1  0.46299448  0.18703032  0.19277647  1
  O  O34  1  0.08685431  0.34032201  0.60448182  1
  O  O35  1  0.34032201  0.60448182  0.08685431  1
  O  O36  1  0.12267719  0.62922781  0.40495381  1
  O  O37  1  0.79578344  0.01645713  0.09619582  1
  O  O38  1  0.60448182  0.08685431  0.34032201  1
  O  O39  1  0.40495381  0.12267719  0.62922781  1
  O  O40  1  0.08351097  0.90033171  0.35293370  1
  O  O41  1  0.62922781  0.40495381  0.12267719  1
  O  O42  1  0.35293370  0.08351097  0.90033171  1
  O  O43  1  0.27544822  0.61304147  0.48540964  1
  O  O44  1  0.16301147  0.43585314  0.87551328  1
  O  O45  1  0.48540964  0.27544822  0.61304147  1
  O  O46  1  0.12448672  0.83698853  0.56414686  1
  O  O47  1  0.61304147  0.48540964  0.27544822  1
  O  O48  1  0.43585314  0.87551328  0.16301147  1
  O  O49  1  0.90033171  0.35293370  0.08351097  1
  O  O50  1  0.09966829  0.64706630  0.91648903  1
  O  O51  1  0.56414686  0.12448672  0.83698853  1
  O  O52  1  0.38695853  0.51459036  0.72455178  1
  O  O53  1  0.87551328  0.16301147  0.43585314  1
  O  O54  1  0.51459036  0.72455178  0.38695853  1
  O  O55  1  0.83698853  0.56414686  0.12448672  1
  O  O56  1  0.72455178  0.38695853  0.51459036  1
  O  O57  1  0.64706630  0.91648903  0.09966829  1
  O  O58  1  0.37077219  0.59504619  0.87732281  1
  O  O59  1  0.91648903  0.09966829  0.64706630  1
  O  O60  1  0.59504619  0.87732281  0.37077219  1
  O  O61  1  0.39551818  0.91314569  0.65967799  1
  O  O62  1  0.20421656  0.98354287  0.90380418  1
  O  O63  1  0.87732281  0.37077219  0.59504619  1
  O  O64  1  0.65967799  0.39551818  0.91314569  1
  O  O65  1  0.91314569  0.65967799  0.39551818  1
  O  O66  1  0.53700552  0.81296968  0.80722353  1
  O  O67  1  0.90380418  0.20421656  0.98354287  1
  O  O68  1  0.80722353  0.53700552  0.81296968  1
  O  O69  1  0.81296968  0.80722353  0.53700552  1
  O  O70  1  0.98354287  0.90380418  0.20421656  1
  O  O71  1  0.67318935  0.95608871  0.70925235  1
  O  O72  1  0.70925235  0.67318935  0.95608871  1
  O  O73  1  0.95608871  0.70925235  0.67318935  1
