# generated using pymatgen
data_AsH3C(OF3)2
_symmetry_space_group_name_H-M   'P 1'
_cell_length_a   8.24995542
_cell_length_b   10.30221948
_cell_length_c   15.88693034
_cell_angle_alpha   90.00000000
_cell_angle_beta   90.00000000
_cell_angle_gamma   90.00000000
_symmetry_Int_Tables_number   1
_chemical_formula_structural   AsH3C(OF3)2
_chemical_formula_sum   'As8 H24 C8 O16 F48'
_cell_volume   1350.27551018
_cell_formula_units_Z   8
loop_
 _symmetry_equiv_pos_site_id
 _symmetry_equiv_pos_as_xyz
  1  'x, y, z'
loop_
 _atom_site_type_symbol
 _atom_site_label
 _atom_site_symmetry_multiplicity
 _atom_site_fract_x
 _atom_site_fract_y
 _atom_site_fract_z
 _atom_site_occupancy
  As  As0  1  0.35158578  0.50606015  0.14777318  1
  As  As1  1  0.64841422  0.00606015  0.35222682  1
  As  As2  1  0.14841422  0.49393985  0.64777318  1
  As  As3  1  0.85158578  0.99393985  0.85222682  1
  As  As4  1  0.64841422  0.49393985  0.85222682  1
  As  As5  1  0.35158578  0.99393985  0.64777318  1
  As  As6  1  0.85158578  0.50606015  0.35222682  1
  As  As7  1  0.14841422  0.00606015  0.14777318  1
  H  H8  1  0.25365465  0.82552184  0.50362859  1
  H  H9  1  0.74634535  0.32552184  0.99637141  1
  H  H10  1  0.24634535  0.17447816  0.00362859  1
  H  H11  1  0.75365465  0.67447816  0.49637141  1
  H  H12  1  0.74634535  0.17447816  0.49637141  1
  H  H13  1  0.25365465  0.67447816  0.00362859  1
  H  H14  1  0.75365465  0.82552184  0.99637141  1
  H  H15  1  0.24634535  0.32552184  0.50362859  1
  H  H16  1  0.40996426  0.64202422  0.34725912  1
  H  H17  1  0.59003574  0.14202422  0.15274088  1
  H  H18  1  0.09003574  0.35797578  0.84725912  1
  H  H19  1  0.90996426  0.85797578  0.65274088  1
  H  H20  1  0.59003574  0.35797578  0.65274088  1
  H  H21  1  0.40996426  0.85797578  0.84725912  1
  H  H22  1  0.90996426  0.64202422  0.15274088  1
  H  H23  1  0.09003574  0.14202422  0.34725912  1
  H  H24  1  0.19092398  0.76069887  0.32803177  1
  H  H25  1  0.80907602  0.26069887  0.17196823  1
  H  H26  1  0.30907602  0.23930113  0.82803177  1
  H  H27  1  0.69092398  0.73930113  0.67196823  1
  H  H28  1  0.80907602  0.23930113  0.67196823  1
  H  H29  1  0.19092398  0.73930113  0.82803177  1
  H  H30  1  0.69092398  0.76069887  0.17196823  1
  H  H31  1  0.30907602  0.26069887  0.32803177  1
  C  C32  1  0.25176958  0.75733386  0.38911593  1
  C  C33  1  0.74823042  0.25733386  0.11088407  1
  C  C34  1  0.24823042  0.24266614  0.88911593  1
  C  C35  1  0.75176958  0.74266614  0.61088407  1
  C  C36  1  0.74823042  0.24266614  0.61088407  1
  C  C37  1  0.25176958  0.74266614  0.88911593  1
  C  C38  1  0.75176958  0.75733386  0.11088407  1
  C  C39  1  0.24823042  0.25733386  0.38911593  1
  O  O40  1  0.19117610  0.82537908  0.44796008  1
  O  O41  1  0.80882390  0.32537908  0.05203992  1
  O  O42  1  0.30882390  0.17462092  0.94796008  1
  O  O43  1  0.69117610  0.67462092  0.55203992  1
  O  O44  1  0.80882390  0.17462092  0.55203992  1
  O  O45  1  0.19117610  0.67462092  0.94796008  1
  O  O46  1  0.69117610  0.82537908  0.05203992  1
  O  O47  1  0.30882390  0.32537908  0.44796008  1
  O  O48  1  0.38016295  0.68861635  0.40013555  1
  O  O49  1  0.61983705  0.18861635  0.09986445  1
  O  O50  1  0.11983705  0.31138365  0.90013555  1
  O  O51  1  0.88016295  0.81138365  0.59986445  1
  O  O52  1  0.61983705  0.31138365  0.59986445  1
  O  O53  1  0.38016295  0.81138365  0.90013555  1
  O  O54  1  0.88016295  0.68861635  0.09986445  1
  O  O55  1  0.11983705  0.18861635  0.40013555  1
  F  F56  1  0.34360288  0.65428174  0.08581452  1
  F  F57  1  0.65639712  0.15428174  0.41418548  1
  F  F58  1  0.15639712  0.34571826  0.58581452  1
  F  F59  1  0.84360288  0.84571826  0.91418548  1
  F  F60  1  0.65639712  0.34571826  0.91418548  1
  F  F61  1  0.34360288  0.84571826  0.58581452  1
  F  F62  1  0.84360288  0.65428174  0.41418548  1
  F  F63  1  0.15639712  0.15428174  0.08581452  1
  F  F64  1  0.34242616  0.41332675  0.05498547  1
  F  F65  1  0.65757384  0.91332675  0.44501453  1
  F  F66  1  0.15757384  0.58667325  0.55498547  1
  F  F67  1  0.84242616  0.08667325  0.94501453  1
  F  F68  1  0.65757384  0.58667325  0.94501453  1
  F  F69  1  0.34242616  0.08667325  0.55498547  1
  F  F70  1  0.84242616  0.41332675  0.44501453  1
  F  F71  1  0.15757384  0.91332675  0.05498547  1
  F  F72  1  0.36508025  0.36676758  0.21131191  1
  F  F73  1  0.63491975  0.86676758  0.28868809  1
  F  F74  1  0.13491975  0.63323242  0.71131191  1
  F  F75  1  0.86508025  0.13323242  0.78868809  1
  F  F76  1  0.63491975  0.63323242  0.78868809  1
  F  F77  1  0.36508025  0.13323242  0.71131191  1
  F  F78  1  0.86508025  0.36676758  0.28868809  1
  F  F79  1  0.13491975  0.86676758  0.21131191  1
  F  F80  1  0.36127216  0.60776909  0.23929154  1
  F  F81  1  0.63872784  0.10776909  0.26070846  1
  F  F82  1  0.13872784  0.39223091  0.73929154  1
  F  F83  1  0.86127216  0.89223091  0.76070846  1
  F  F84  1  0.63872784  0.39223091  0.76070846  1
  F  F85  1  0.36127216  0.89223091  0.73929154  1
  F  F86  1  0.86127216  0.60776909  0.26070846  1
  F  F87  1  0.13872784  0.10776909  0.23929154  1
  F  F88  1  0.56515510  0.51271345  0.13967062  1
  F  F89  1  0.43484490  0.01271345  0.36032938  1
  F  F90  1  0.93484490  0.48728655  0.63967062  1
  F  F91  1  0.06515510  0.98728655  0.86032938  1
  F  F92  1  0.43484490  0.48728655  0.86032938  1
  F  F93  1  0.56515510  0.98728655  0.63967062  1
  F  F94  1  0.06515510  0.51271345  0.36032938  1
  F  F95  1  0.93484490  0.01271345  0.13967062  1
  F  F96  1  0.13831796  0.50693058  0.15376798  1
  F  F97  1  0.86168204  0.00693058  0.34623202  1
  F  F98  1  0.36168204  0.49306942  0.65376798  1
  F  F99  1  0.63831796  0.99306942  0.84623202  1
  F  F100  1  0.86168204  0.49306942  0.84623202  1
  F  F101  1  0.13831796  0.99306942  0.65376798  1
  F  F102  1  0.63831796  0.50693058  0.34623202  1
  F  F103  1  0.36168204  0.00693058  0.15376798  1
