# generated using pymatgen
data_ZrH6O3F4
_symmetry_space_group_name_H-M   'P 1'
_cell_length_a   5.99548440
_cell_length_b   7.01622363
_cell_length_c   7.61988763
_cell_angle_alpha   89.72726311
_cell_angle_beta   104.94105118
_cell_angle_gamma   118.63569848
_symmetry_Int_Tables_number   1
_chemical_formula_structural   ZrH6O3F4
_chemical_formula_sum   'Zr2 H12 O6 F8'
_cell_volume   269.13731856
_cell_formula_units_Z   2
loop_
 _symmetry_equiv_pos_site_id
 _symmetry_equiv_pos_as_xyz
  1  'x, y, z'
loop_
 _atom_site_type_symbol
 _atom_site_label
 _atom_site_symmetry_multiplicity
 _atom_site_fract_x
 _atom_site_fract_y
 _atom_site_fract_z
 _atom_site_occupancy
  Zr  Zr0  1  0.73266663  0.85316118  0.78164183  1
  Zr  Zr1  1  0.26733337  0.14683882  0.21835817  1
  H  H2  1  0.98095232  0.78465170  0.52275239  1
  H  H3  1  0.01904768  0.21534830  0.47724761  1
  H  H4  1  0.78114566  0.55073595  0.56555760  1
  H  H5  1  0.21885434  0.44926405  0.43444240  1
  H  H6  1  0.41814177  0.06038884  0.82249476  1
  H  H7  1  0.58185823  0.93961116  0.17750524  1
  H  H8  1  0.55258926  0.16514832  0.66072670  1
  H  H9  1  0.44741074  0.83485168  0.33927330  1
  H  H10  1  0.31323227  0.55630503  0.93479892  1
  H  H11  1  0.68676773  0.44369497  0.06520108  1
  H  H12  1  0.18119751  0.67195602  0.78710767  1
  H  H13  1  0.81880249  0.32804398  0.21289233  1
  O  O14  1  0.91920862  0.70308771  0.62465114  1
  O  O15  1  0.08079138  0.29691229  0.37534886  1
  O  O16  1  0.54412871  0.06869517  0.75729743  1
  O  O17  1  0.45587129  0.93130483  0.24270257  1
  O  O18  1  0.34518515  0.66859010  0.84919817  1
  O  O19  1  0.65481485  0.33140990  0.15080183  1
  F  F20  1  0.72987707  0.59135798  0.89780581  1
  F  F21  1  0.27012293  0.40864202  0.10219419  1
  F  F22  1  0.16583654  0.99684934  0.94033854  1
  F  F23  1  0.83416346  0.00315066  0.05966146  1
  F  F24  1  0.93665036  0.10181649  0.64771555  1
  F  F25  1  0.06334964  0.89818351  0.35228445  1
  F  F26  1  0.45485578  0.70095667  0.52454754  1
  F  F27  1  0.54514422  0.29904333  0.47545246  1
