# generated using pymatgen
data_MgH40C10Br2(N2O)10
_symmetry_space_group_name_H-M   'P 1'
_cell_length_a   9.87148537
_cell_length_b   7.20174201
_cell_length_c   24.05637036
_cell_angle_alpha   90.00000000
_cell_angle_beta   93.90112165
_cell_angle_gamma   90.00000000
_symmetry_Int_Tables_number   1
_chemical_formula_structural   MgH40C10Br2(N2O)10
_chemical_formula_sum   'Mg2 H80 C20 Br4 N40 O20'
_cell_volume   1706.25020387
_cell_formula_units_Z   2
loop_
 _symmetry_equiv_pos_site_id
 _symmetry_equiv_pos_as_xyz
  1  'x, y, z'
loop_
 _atom_site_type_symbol
 _atom_site_label
 _atom_site_symmetry_multiplicity
 _atom_site_fract_x
 _atom_site_fract_y
 _atom_site_fract_z
 _atom_site_occupancy
  Mg  Mg0  1  0.00000000  0.00000000  0.00000000  1
  Mg  Mg1  1  0.00000000  0.50000000  0.50000000  1
  H  H2  1  0.22882998  0.26128736  0.99399645  1
  H  H3  1  0.77117002  0.76128736  0.50600355  1
  H  H4  1  0.77117002  0.73871264  0.00600355  1
  H  H5  1  0.22882998  0.23871264  0.49399645  1
  H  H6  1  0.32034160  0.37934144  0.94465467  1
  H  H7  1  0.67965840  0.87934144  0.55534533  1
  H  H8  1  0.67965840  0.62065856  0.05534533  1
  H  H9  1  0.32034160  0.12065856  0.44465467  1
  H  H10  1  0.26639433  0.30305543  0.84921922  1
  H  H11  1  0.73360567  0.80305543  0.65078078  1
  H  H12  1  0.73360567  0.69694457  0.15078078  1
  H  H13  1  0.26639433  0.19694457  0.34921922  1
  H  H14  1  0.10749607  0.21702095  0.83081193  1
  H  H15  1  0.89250393  0.71702095  0.66918807  1
  H  H16  1  0.89250393  0.78297905  0.16918807  1
  H  H17  1  0.10749607  0.28297905  0.33081193  1
  H  H18  1  0.26220199  0.33072311  0.12811584  1
  H  H19  1  0.73779801  0.83072311  0.37188416  1
  H  H20  1  0.73779801  0.66927689  0.87188416  1
  H  H21  1  0.26220199  0.16927689  0.62811584  1
  H  H22  1  0.13611509  0.42719018  0.16595644  1
  H  H23  1  0.86388491  0.92719018  0.33404356  1
  H  H24  1  0.86388491  0.57280982  0.83404356  1
  H  H25  1  0.13611509  0.07280982  0.66595644  1
  H  H26  1  0.90775603  0.42150985  0.12724754  1
  H  H27  1  0.09224397  0.92150985  0.37275246  1
  H  H28  1  0.09224397  0.57849015  0.87275246  1
  H  H29  1  0.90775603  0.07849015  0.62724754  1
  H  H30  1  0.86999556  0.29124179  0.06688958  1
  H  H31  1  0.13000444  0.79124179  0.43311042  1
  H  H32  1  0.13000444  0.70875821  0.93311042  1
  H  H33  1  0.86999556  0.20875821  0.56688958  1
  H  H34  1  0.39800194  0.66165255  0.00033461  1
  H  H35  1  0.60199806  0.16165255  0.49966539  1
  H  H36  1  0.60199806  0.33834745  0.99966539  1
  H  H37  1  0.39800194  0.83834745  0.50033461  1
  H  H38  1  0.42950997  0.65651004  0.07246641  1
  H  H39  1  0.57049003  0.15651004  0.42753359  1
  H  H40  1  0.57049003  0.34348996  0.92753359  1
  H  H41  1  0.42950997  0.84348996  0.57246641  1
  H  H42  1  0.14763512  0.92291048  0.10386120  1
  H  H43  1  0.85236488  0.42291048  0.39613880  1
  H  H44  1  0.85236488  0.07708952  0.89613880  1
  H  H45  1  0.14763512  0.57708952  0.60386120  1
  H  H46  1  0.31194147  0.85488124  0.12920523  1
  H  H47  1  0.68805853  0.35488124  0.37079477  1
  H  H48  1  0.68805853  0.14511876  0.87079477  1
  H  H49  1  0.31194147  0.64511876  0.62920523  1
  H  H50  1  0.50065191  0.69481481  0.31540873  1
  H  H51  1  0.49934809  0.19481481  0.18459127  1
  H  H52  1  0.49934809  0.30518519  0.68459127  1
  H  H53  1  0.50065191  0.80518519  0.81540873  1
  H  H54  1  0.49950816  0.92866945  0.32990379  1
  H  H55  1  0.50049184  0.42866945  0.17009621  1
  H  H56  1  0.50049184  0.07133055  0.67009621  1
  H  H57  1  0.49950816  0.57133055  0.82990379  1
  H  H58  1  0.36686235  0.56349525  0.44134092  1
  H  H59  1  0.63313765  0.06349525  0.05865908  1
  H  H60  1  0.63313765  0.43650475  0.55865908  1
  H  H61  1  0.36686235  0.93650475  0.94134092  1
  H  H62  1  0.42994091  0.48499847  0.37928420  1
  H  H63  1  0.57005909  0.98499847  0.12071580  1
  H  H64  1  0.57005909  0.51500153  0.62071580  1
  H  H65  1  0.42994091  0.01500153  0.87928420  1
  H  H66  1  0.71872309  0.01015923  0.76005338  1
  H  H67  1  0.28127691  0.51015923  0.73994662  1
  H  H68  1  0.28127691  0.98984077  0.23994662  1
  H  H69  1  0.71872309  0.48984077  0.26005338  1
  H  H70  1  0.87466586  0.89217573  0.76167525  1
  H  H71  1  0.12533414  0.39217573  0.73832475  1
  H  H72  1  0.12533414  0.10782427  0.23832475  1
  H  H73  1  0.87466586  0.60782427  0.26167525  1
  H  H74  1  0.87357609  0.45607411  0.74744128  1
  H  H75  1  0.12642391  0.95607411  0.75255872  1
  H  H76  1  0.12642391  0.54392589  0.25255872  1
  H  H77  1  0.87357609  0.04392589  0.24744128  1
  H  H78  1  0.71877949  0.33954587  0.75777172  1
  H  H79  1  0.28122051  0.83954587  0.74222828  1
  H  H80  1  0.28122051  0.66045413  0.24222828  1
  H  H81  1  0.71877949  0.16045413  0.25777172  1
  C  C82  1  0.15756403  0.22053267  0.91459704  1
  C  C83  1  0.84243597  0.72053267  0.58540296  1
  C  C84  1  0.84243597  0.77946733  0.08540296  1
  C  C85  1  0.15756403  0.27946733  0.41459704  1
  C  C86  1  0.06919148  0.29497516  0.09227316  1
  C  C87  1  0.93080852  0.79497516  0.40772684  1
  C  C88  1  0.93080852  0.70502484  0.90772684  1
  C  C89  1  0.06919148  0.20502484  0.59227316  1
  C  C90  1  0.25781504  0.79944221  0.04595052  1
  C  C91  1  0.74218496  0.29944221  0.45404948  1
  C  C92  1  0.74218496  0.20055779  0.95404948  1
  C  C93  1  0.25781504  0.70055779  0.54595052  1
  C  C94  1  0.44513381  0.76776380  0.39384239  1
  C  C95  1  0.55486619  0.26776380  0.10615761  1
  C  C96  1  0.55486619  0.23223620  0.60615761  1
  C  C97  1  0.44513381  0.73223620  0.89384239  1
  C  C98  1  0.89051987  0.17410313  0.75596240  1
  C  C99  1  0.10948013  0.67410313  0.74403760  1
  C  C100  1  0.10948013  0.82589687  0.24403760  1
  C  C101  1  0.89051987  0.32589687  0.25596240  1
  Br  Br102  1  0.47831464  0.22626704  0.80156347  1
  Br  Br103  1  0.52168536  0.72626704  0.69843653  1
  Br  Br104  1  0.52168536  0.77373296  0.19843653  1
  Br  Br105  1  0.47831464  0.27373296  0.30156347  1
  N  N106  1  0.25468718  0.27540869  0.95374133  1
  N  N107  1  0.74531282  0.77540869  0.54625867  1
  N  N108  1  0.74531282  0.72459131  0.04625867  1
  N  N109  1  0.25468718  0.22459131  0.45374133  1
  N  N110  1  0.17002495  0.27872479  0.86106606  1
  N  N111  1  0.82997505  0.77872479  0.63893394  1
  N  N112  1  0.82997505  0.72127521  0.13893394  1
  N  N113  1  0.17002495  0.22127521  0.36106606  1
  N  N114  1  0.16303649  0.36551634  0.13039216  1
  N  N115  1  0.83696351  0.86551634  0.36960784  1
  N  N116  1  0.83696351  0.63448366  0.86960784  1
  N  N117  1  0.16303649  0.13448366  0.63039216  1
  N  N118  1  0.93655823  0.32340227  0.09998063  1
  N  N119  1  0.06344177  0.82340227  0.40001937  1
  N  N120  1  0.06344177  0.67659773  0.90001937  1
  N  N121  1  0.93655823  0.17659773  0.59998063  1
  N  N122  1  0.37548998  0.70937651  0.03886045  1
  N  N123  1  0.62451002  0.20937651  0.46113955  1
  N  N124  1  0.62451002  0.29062349  0.96113955  1
  N  N125  1  0.37548998  0.79062349  0.53886045  1
  N  N126  1  0.23730936  0.86026116  0.09780989  1
  N  N127  1  0.76269064  0.36026116  0.40219011  1
  N  N128  1  0.76269064  0.13973884  0.90219011  1
  N  N129  1  0.23730936  0.63973884  0.59780989  1
  N  N130  1  0.50697489  0.79597669  0.34502802  1
  N  N131  1  0.49302511  0.29597669  0.15497198  1
  N  N132  1  0.49302511  0.20402331  0.65497198  1
  N  N133  1  0.50697489  0.70402331  0.84502802  1
  N  N134  1  0.41880742  0.58978271  0.40730099  1
  N  N135  1  0.58119258  0.08978271  0.09269901  1
  N  N136  1  0.58119258  0.41021729  0.59269901  1
  N  N137  1  0.41880742  0.91021729  0.90730099  1
  N  N138  1  0.82177915  0.01440323  0.76350124  1
  N  N139  1  0.17822085  0.51440323  0.73649876  1
  N  N140  1  0.17822085  0.98559677  0.23649876  1
  N  N141  1  0.82177915  0.48559677  0.26350124  1
  N  N142  1  0.82049771  0.33560395  0.75314858  1
  N  N143  1  0.17950229  0.83560395  0.74685142  1
  N  N144  1  0.17950229  0.66439605  0.24685142  1
  N  N145  1  0.82049771  0.16439605  0.25314858  1
  O  O146  1  0.05828774  0.12087364  0.92675417  1
  O  O147  1  0.94171226  0.62087364  0.57324583  1
  O  O148  1  0.94171226  0.87912636  0.07324583  1
  O  O149  1  0.05828774  0.37912636  0.42675417  1
  O  O150  1  0.10656283  0.20199564  0.05095362  1
  O  O151  1  0.89343717  0.70199564  0.44904638  1
  O  O152  1  0.89343717  0.79800436  0.94904638  1
  O  O153  1  0.10656283  0.29800436  0.55095362  1
  O  O154  1  0.17211975  0.82836235  0.00472530  1
  O  O155  1  0.82788025  0.32836235  0.49527470  1
  O  O156  1  0.82788025  0.17163765  0.99527470  1
  O  O157  1  0.17211975  0.67163765  0.50472530  1
  O  O158  1  0.42177156  0.90242928  0.42519770  1
  O  O159  1  0.57822844  0.40242928  0.07480230  1
  O  O160  1  0.57822844  0.09757072  0.57480230  1
  O  O161  1  0.42177156  0.59757072  0.92519770  1
  O  O162  1  0.01911152  0.17227149  0.75261466  1
  O  O163  1  0.98088848  0.67227149  0.74738534  1
  O  O164  1  0.98088848  0.82772851  0.24738534  1
  O  O165  1  0.01911152  0.32772851  0.25261466  1
