# generated using pymatgen
data_NaB5(H2O5)2
_symmetry_space_group_name_H-M   'P 1'
_cell_length_a   8.77510814
_cell_length_b   8.18790088
_cell_length_c   13.09771064
_cell_angle_alpha   90.00000000
_cell_angle_beta   106.53479536
_cell_angle_gamma   90.00000000
_symmetry_Int_Tables_number   1
_chemical_formula_structural   NaB5(H2O5)2
_chemical_formula_sum   'Na4 B20 H16 O40'
_cell_volume   902.15092275
_cell_formula_units_Z   4
loop_
 _symmetry_equiv_pos_site_id
 _symmetry_equiv_pos_as_xyz
  1  'x, y, z'
loop_
 _atom_site_type_symbol
 _atom_site_label
 _atom_site_symmetry_multiplicity
 _atom_site_fract_x
 _atom_site_fract_y
 _atom_site_fract_z
 _atom_site_occupancy
  Na  Na0  1  0.07862174  0.73922999  0.73602145  1
  Na  Na1  1  0.92137826  0.23922999  0.76397855  1
  Na  Na2  1  0.92137826  0.26077001  0.26397855  1
  Na  Na3  1  0.07862174  0.76077001  0.23602145  1
  B  B4  1  0.27879271  0.09340813  0.81071882  1
  B  B5  1  0.72120729  0.59340813  0.68928118  1
  B  B6  1  0.72120729  0.90659187  0.18928118  1
  B  B7  1  0.27879271  0.40659187  0.31071882  1
  B  B8  1  0.45133988  0.31411832  0.89489075  1
  B  B9  1  0.54866012  0.81411832  0.60510925  1
  B  B10  1  0.54866012  0.68588168  0.10510925  1
  B  B11  1  0.45133988  0.18588168  0.39489075  1
  B  B12  1  0.23515027  0.22030932  0.97022789  1
  B  B13  1  0.76484973  0.72030932  0.52977211  1
  B  B14  1  0.76484973  0.77969068  0.02977211  1
  B  B15  1  0.23515027  0.27969068  0.47022789  1
  B  B16  1  0.22942936  0.06183130  0.13058600  1
  B  B17  1  0.77057064  0.56183130  0.36941400  1
  B  B18  1  0.77057064  0.93816870  0.86941400  1
  B  B19  1  0.22942936  0.43816870  0.63058600  1
  B  B20  1  0.03838775  0.27704772  0.07082380  1
  B  B21  1  0.96161225  0.77704772  0.42917620  1
  B  B22  1  0.96161225  0.72295228  0.92917620  1
  B  B23  1  0.03838775  0.22295228  0.57082380  1
  H  H24  1  0.38443752  0.89372012  0.20329550  1
  H  H25  1  0.61556248  0.39372012  0.29670450  1
  H  H26  1  0.61556248  0.10627988  0.79670450  1
  H  H27  1  0.38443752  0.60627988  0.70329550  1
  H  H28  1  0.89588413  0.47036696  0.05726334  1
  H  H29  1  0.10411587  0.97036696  0.44273666  1
  H  H30  1  0.10411587  0.52963304  0.94273666  1
  H  H31  1  0.89588413  0.02963304  0.55726334  1
  H  H32  1  0.31678952  0.95290268  0.69441582  1
  H  H33  1  0.68321048  0.45290268  0.80558418  1
  H  H34  1  0.68321048  0.04709732  0.30558418  1
  H  H35  1  0.31678952  0.54709732  0.19441582  1
  H  H36  1  0.59678920  0.50475103  0.94763736  1
  H  H37  1  0.40321080  0.00475103  0.55236264  1
  H  H38  1  0.40321080  0.49524897  0.05236264  1
  H  H39  1  0.59678920  0.99524897  0.44763736  1
  O  O40  1  0.41960610  0.18305120  0.82315692  1
  O  O41  1  0.58039390  0.68305120  0.67684308  1
  O  O42  1  0.58039390  0.81694880  0.17684308  1
  O  O43  1  0.41960610  0.31694880  0.32315692  1
  O  O44  1  0.36091427  0.33932811  0.96333518  1
  O  O45  1  0.63908573  0.83932811  0.53666482  1
  O  O46  1  0.63908573  0.66067189  0.03666482  1
  O  O47  1  0.36091427  0.16067189  0.46333518  1
  O  O48  1  0.17557727  0.13278243  0.86775793  1
  O  O49  1  0.82442273  0.63278243  0.63224207  1
  O  O50  1  0.82442273  0.86721757  0.13224207  1
  O  O51  1  0.17557727  0.36721757  0.36775793  1
  O  O52  1  0.09955109  0.31430656  0.98802958  1
  O  O53  1  0.90044891  0.81430656  0.51197042  1
  O  O54  1  0.90044891  0.68569344  0.01197042  1
  O  O55  1  0.09955109  0.18569344  0.48802958  1
  O  O56  1  0.30125340  0.10232527  0.05538799  1
  O  O57  1  0.69874660  0.60232527  0.44461201  1
  O  O58  1  0.69874660  0.89767473  0.94461201  1
  O  O59  1  0.30125340  0.39767473  0.55538799  1
  O  O60  1  0.09626867  0.14773236  0.14027341  1
  O  O61  1  0.90373133  0.64773236  0.35972659  1
  O  O62  1  0.90373133  0.85226764  0.85972659  1
  O  O63  1  0.09626867  0.35226764  0.64027341  1
  O  O64  1  0.27925705  0.93587555  0.20274488  1
  O  O65  1  0.72074295  0.43587555  0.29725512  1
  O  O66  1  0.72074295  0.06412445  0.79725512  1
  O  O67  1  0.27925705  0.56412445  0.70274488  1
  O  O68  1  0.91848537  0.36371754  0.09351568  1
  O  O69  1  0.08151463  0.86371754  0.40648432  1
  O  O70  1  0.08151463  0.63628246  0.90648432  1
  O  O71  1  0.91848537  0.13628246  0.59351568  1
  O  O72  1  0.24154710  0.96876687  0.73804060  1
  O  O73  1  0.75845290  0.46876687  0.76195940  1
  O  O74  1  0.75845290  0.03123313  0.26195940  1
  O  O75  1  0.24154710  0.53123313  0.23804060  1
  O  O76  1  0.57618108  0.41453441  0.89369574  1
  O  O77  1  0.42381892  0.91453441  0.60630426  1
  O  O78  1  0.42381892  0.58546559  0.10630426  1
  O  O79  1  0.57618108  0.08546559  0.39369574  1
