# generated using pymatgen
data_AlH11SO10
_symmetry_space_group_name_H-M   'P 1'
_cell_length_a   8.40405379
_cell_length_b   12.62794585
_cell_length_c   8.15689909
_cell_angle_alpha   90.00000000
_cell_angle_beta   101.50724181
_cell_angle_gamma   90.00000000
_symmetry_Int_Tables_number   1
_chemical_formula_structural   AlH11SO10
_chemical_formula_sum   'Al4 H44 S4 O40'
_cell_volume   848.25838080
_cell_formula_units_Z   4
loop_
 _symmetry_equiv_pos_site_id
 _symmetry_equiv_pos_as_xyz
  1  'x, y, z'
loop_
 _atom_site_type_symbol
 _atom_site_label
 _atom_site_symmetry_multiplicity
 _atom_site_fract_x
 _atom_site_fract_y
 _atom_site_fract_z
 _atom_site_occupancy
  Al  Al0  1  0.38363287  0.00821600  0.34379652  1
  Al  Al1  1  0.88363287  0.49178400  0.84379652  1
  Al  Al2  1  0.61636713  0.99178400  0.65620348  1
  Al  Al3  1  0.11636713  0.50821600  0.15620348  1
  H  H4  1  0.49074879  0.83355025  0.47376206  1
  H  H5  1  0.99074879  0.66644975  0.97376206  1
  H  H6  1  0.50925121  0.16644975  0.52623794  1
  H  H7  1  0.00925121  0.33355025  0.02623794  1
  H  H8  1  0.25754002  0.89784249  0.08284919  1
  H  H9  1  0.75754002  0.60215751  0.58284919  1
  H  H10  1  0.74245998  0.10215751  0.91715081  1
  H  H11  1  0.24245998  0.39784249  0.41715081  1
  H  H12  1  0.14612189  0.87903439  0.22673482  1
  H  H13  1  0.64612189  0.62096561  0.72673482  1
  H  H14  1  0.85387811  0.12096561  0.77326518  1
  H  H15  1  0.35387811  0.37903439  0.27326518  1
  H  H16  1  0.37675133  0.19264319  0.19879971  1
  H  H17  1  0.87675133  0.30735681  0.69879971  1
  H  H18  1  0.62324867  0.80735681  0.80120029  1
  H  H19  1  0.12324867  0.69264319  0.30120029  1
  H  H20  1  0.19289734  0.14503541  0.16174617  1
  H  H21  1  0.69289734  0.35496459  0.66174617  1
  H  H22  1  0.80710266  0.85496459  0.83825383  1
  H  H23  1  0.30710266  0.64503541  0.33825383  1
  H  H24  1  0.60296714  0.03065232  0.16308998  1
  H  H25  1  0.10296714  0.46934768  0.66308998  1
  H  H26  1  0.39703286  0.96934768  0.83691002  1
  H  H27  1  0.89703286  0.53065232  0.33691002  1
  H  H28  1  0.59473664  0.90610971  0.21351310  1
  H  H29  1  0.09473664  0.59389029  0.71351310  1
  H  H30  1  0.40526336  0.09389029  0.78648690  1
  H  H31  1  0.90526336  0.40610971  0.28648690  1
  H  H32  1  0.10290743  0.06531210  0.41260093  1
  H  H33  1  0.60290743  0.43468790  0.91260093  1
  H  H34  1  0.89709257  0.93468790  0.58739907  1
  H  H35  1  0.39709257  0.56531210  0.08739907  1
  H  H36  1  0.18591289  0.97549887  0.54130899  1
  H  H37  1  0.68591289  0.52450113  0.04130899  1
  H  H38  1  0.81408711  0.02450113  0.45869101  1
  H  H39  1  0.31408711  0.47549887  0.95869101  1
  H  H40  1  0.59543799  0.29695943  0.22122529  1
  H  H41  1  0.09543799  0.20304057  0.72122529  1
  H  H42  1  0.40456201  0.70304057  0.77877471  1
  H  H43  1  0.90456201  0.79695943  0.27877471  1
  H  H44  1  0.45563348  0.32167344  0.06457029  1
  H  H45  1  0.95563348  0.17832656  0.56457029  1
  H  H46  1  0.54436652  0.67832656  0.93542971  1
  H  H47  1  0.04436652  0.82167344  0.43542971  1
  S  S48  1  0.36075044  0.31544717  0.71136275  1
  S  S49  1  0.86075044  0.18455283  0.21136275  1
  S  S50  1  0.63924956  0.68455283  0.28863725  1
  S  S51  1  0.13924956  0.81544717  0.78863725  1
  O  O52  1  0.46931920  0.90694477  0.50549478  1
  O  O53  1  0.96931920  0.59305523  0.00549478  1
  O  O54  1  0.53068080  0.09305523  0.49450522  1
  O  O55  1  0.03068080  0.40694477  0.99450522  1
  O  O56  1  0.23942478  0.91836310  0.19667961  1
  O  O57  1  0.73942478  0.58163690  0.69667961  1
  O  O58  1  0.76057522  0.08163690  0.80332039  1
  O  O59  1  0.26057522  0.41836310  0.30332039  1
  O  O60  1  0.30927903  0.12666713  0.20090936  1
  O  O61  1  0.80927903  0.37333287  0.70090936  1
  O  O62  1  0.69072097  0.87333287  0.79909064  1
  O  O63  1  0.19072097  0.62666713  0.29909064  1
  O  O64  1  0.53484015  0.97476402  0.20077380  1
  O  O65  1  0.03484015  0.52523598  0.70077380  1
  O  O66  1  0.46515985  0.02523598  0.79922620  1
  O  O67  1  0.96515985  0.47476402  0.29922620  1
  O  O68  1  0.20853429  0.03052145  0.46241873  1
  O  O69  1  0.70853429  0.46947855  0.96241873  1
  O  O70  1  0.79146571  0.96947855  0.53758127  1
  O  O71  1  0.29146571  0.53052145  0.03758127  1
  O  O72  1  0.30399492  0.21252615  0.76818295  1
  O  O73  1  0.80399492  0.28747385  0.26818295  1
  O  O74  1  0.69600508  0.78747385  0.23181705  1
  O  O75  1  0.19600508  0.71252615  0.73181705  1
  O  O76  1  0.42194688  0.38355692  0.86413471  1
  O  O77  1  0.92194688  0.11644308  0.36413471  1
  O  O78  1  0.57805312  0.61644308  0.13586529  1
  O  O79  1  0.07805312  0.88355692  0.63586529  1
  O  O80  1  0.22102784  0.37081755  0.60421488  1
  O  O81  1  0.72102784  0.12918245  0.10421488  1
  O  O82  1  0.77897216  0.62918245  0.39578512  1
  O  O83  1  0.27897216  0.87081755  0.89578512  1
  O  O84  1  0.49393257  0.29957951  0.61829961  1
  O  O85  1  0.99393257  0.20042049  0.11829961  1
  O  O86  1  0.50606743  0.70042049  0.38170039  1
  O  O87  1  0.00606743  0.79957951  0.88170039  1
  O  O88  1  0.47486745  0.30238695  0.18467662  1
  O  O89  1  0.97486745  0.19761305  0.68467662  1
  O  O90  1  0.52513255  0.69761305  0.81532338  1
  O  O91  1  0.02513255  0.80238695  0.31532338  1
