# generated using pymatgen
data_Er3GaS6
_symmetry_space_group_name_H-M   'P 1'
_cell_length_a   6.42891086
_cell_length_b   8.47799208
_cell_length_c   8.47799209
_cell_angle_alpha   102.43141230
_cell_angle_beta   90.00000000
_cell_angle_gamma   90.00000000
_symmetry_Int_Tables_number   1
_chemical_formula_structural   Er3GaS6
_chemical_formula_sum   'Er6 Ga2 S12'
_cell_volume   451.25274838
_cell_formula_units_Z   2
loop_
 _symmetry_equiv_pos_site_id
 _symmetry_equiv_pos_as_xyz
  1  'x, y, z'
loop_
 _atom_site_type_symbol
 _atom_site_label
 _atom_site_symmetry_multiplicity
 _atom_site_fract_x
 _atom_site_fract_y
 _atom_site_fract_z
 _atom_site_occupancy
  S  S0  1  0.06356816  0.03961005  0.96038995  1
  S  S1  1  0.56356816  0.96038995  0.03961005  1
  S  S2  1  0.06462383  0.78258766  0.21741234  1
  S  S3  1  0.56462383  0.21741234  0.78258766  1
  S  S4  1  0.04283619  0.69311033  0.63221038  1
  S  S5  1  0.54283619  0.30688967  0.36778962  1
  S  S6  1  0.04283619  0.36778962  0.30688967  1
  S  S7  1  0.54283619  0.63221038  0.69311033  1
  S  S8  1  0.52879364  0.56577329  0.10166458  1
  S  S9  1  0.02879364  0.43422671  0.89833542  1
  S  S10  1  0.52879364  0.89833542  0.43422671  1
  S  S11  1  0.02879364  0.10166458  0.56577329  1
  Ga  Ga12  1  0.71110370  0.79890613  0.20109387  1
  Ga  Ga13  1  0.21110370  0.20109387  0.79890613  1
  Er  Er14  1  0.33665132  0.59739154  0.40260846  1
  Er  Er15  1  0.83665132  0.40260846  0.59739154  1
  Er  Er16  1  0.24669667  0.08567050  0.28425422  1
  Er  Er17  1  0.74669667  0.91432950  0.71574578  1
  Er  Er18  1  0.24669667  0.71574578  0.91432950  1
  Er  Er19  1  0.74669667  0.28425422  0.08567050  1
