# generated using pymatgen
data_CsMgH12(ClO2)3
_symmetry_space_group_name_H-M   'P 1'
_cell_length_a   6.86630490
_cell_length_b   13.70721415
_cell_length_c   6.83184491
_cell_angle_alpha   89.93449747
_cell_angle_beta   90.59267996
_cell_angle_gamma   90.25503442
_symmetry_Int_Tables_number   1
_chemical_formula_structural   CsMgH12(ClO2)3
_chemical_formula_sum   'Cs2 Mg2 H24 Cl6 O12'
_cell_volume   642.95781788
_cell_formula_units_Z   2
loop_
 _symmetry_equiv_pos_site_id
 _symmetry_equiv_pos_as_xyz
  1  'x, y, z'
loop_
 _atom_site_type_symbol
 _atom_site_label
 _atom_site_symmetry_multiplicity
 _atom_site_fract_x
 _atom_site_fract_y
 _atom_site_fract_z
 _atom_site_occupancy
  Cs  Cs0  1  0.99284156  0.99885479  0.99986575  1
  Cs  Cs1  1  0.01756111  0.50091550  0.98750084  1
  Mg  Mg2  1  0.49923838  0.24847996  0.49461598  1
  Mg  Mg3  1  0.50344730  0.75416936  0.49301126  1
  H  H4  1  0.71795121  0.26872265  0.14715765  1
  H  H5  1  0.57288175  0.35607120  0.16704569  1
  H  H6  1  0.54643694  0.41595540  0.72916584  1
  H  H7  1  0.71066998  0.41526526  0.56928755  1
  H  H8  1  0.16375055  0.36926574  0.44539125  1
  H  H9  1  0.15461875  0.28120515  0.29792656  1
  H  H10  1  0.83626503  0.13189833  0.54730399  1
  H  H11  1  0.83359815  0.21186762  0.71322064  1
  H  H12  1  0.29660623  0.07723948  0.43774494  1
  H  H13  1  0.43486392  0.08463540  0.25456512  1
  H  H14  1  0.42644485  0.14877058  0.83203128  1
  H  H15  1  0.27095791  0.23270154  0.83151681  1
  H  H16  1  0.30214777  0.78262892  0.14643697  1
  H  H17  1  0.44826948  0.87090416  0.15005130  1
  H  H18  1  0.27173860  0.58443523  0.44729806  1
  H  H19  1  0.44793938  0.57799929  0.30040904  1
  H  H20  1  0.73178332  0.92478444  0.53686401  1
  H  H21  1  0.56510024  0.92896657  0.69274170  1
  H  H22  1  0.55677230  0.63060526  0.81890846  1
  H  H23  1  0.70014092  0.71950714  0.84090740  1
  H  H24  1  0.84052281  0.73541421  0.26008508  1
  H  H25  1  0.84132712  0.65388701  0.42216189  1
  H  H26  1  0.15963146  0.85078185  0.54698526  1
  H  H27  1  0.16168696  0.77474574  0.71895260  1
  Cl  Cl28  1  0.01628003  0.99832356  0.49663828  1
  Cl  Cl29  1  0.99389990  0.50591687  0.48993573  1
  Cl  Cl30  1  0.49316440  0.00668176  0.97702140  1
  Cl  Cl31  1  0.51529628  0.49589725  0.00721508  1
  Cl  Cl32  1  0.99548178  0.24941914  0.99717048  1
  Cl  Cl33  1  0.00372961  0.75131469  0.99127822  1
  O  O34  1  0.60407514  0.29129976  0.22148973  1
  O  O35  1  0.58790167  0.38374982  0.60747346  1
  O  O36  1  0.22493086  0.30636812  0.41375057  1
  O  O37  1  0.76624241  0.18948881  0.59231687  1
  O  O38  1  0.41043002  0.11208634  0.38506511  1
  O  O39  1  0.39125045  0.21087400  0.76876219  1
  O  O40  1  0.41547356  0.80970972  0.21726667  1
  O  O41  1  0.39942453  0.61357053  0.41496087  1
  O  O42  1  0.60897446  0.89309615  0.57668738  1
  O  O43  1  0.58561768  0.69624222  0.76694019  1
  O  O44  1  0.77894955  0.71587376  0.38456004  1
  O  O45  1  0.22613367  0.79170970  0.59468479  1
