# generated using pymatgen
data_Na2ZnPO5
_symmetry_space_group_name_H-M   'P 1'
_cell_length_a   5.84788344
_cell_length_b   8.65109845
_cell_length_c   9.90677806
_cell_angle_alpha   90.00000000
_cell_angle_beta   90.00000000
_cell_angle_gamma   104.50022570
_symmetry_Int_Tables_number   1
_chemical_formula_structural   Na2ZnPO5
_chemical_formula_sum   'Na8 Zn4 P4 O20'
_cell_volume   485.22541946
_cell_formula_units_Z   4
loop_
 _symmetry_equiv_pos_site_id
 _symmetry_equiv_pos_as_xyz
  1  'x, y, z'
loop_
 _atom_site_type_symbol
 _atom_site_label
 _atom_site_symmetry_multiplicity
 _atom_site_fract_x
 _atom_site_fract_y
 _atom_site_fract_z
 _atom_site_occupancy
  Na  Na0  1  0.18289027  0.29782585  0.35797540  1
  Na  Na1  1  0.31710973  0.70217415  0.85797540  1
  Na  Na2  1  0.81710973  0.70217415  0.64202460  1
  Na  Na3  1  0.68289027  0.29782585  0.14202460  1
  Na  Na4  1  0.14339085  0.37981637  0.66928399  1
  Na  Na5  1  0.35660915  0.62018363  0.16928399  1
  Na  Na6  1  0.85660915  0.62018363  0.33071601  1
  Na  Na7  1  0.64339085  0.37981637  0.83071601  1
  Zn  Zn8  1  0.27025368  0.01460420  0.64228690  1
  Zn  Zn9  1  0.22974632  0.98539580  0.14228690  1
  Zn  Zn10  1  0.72974632  0.98539580  0.35771310  1
  Zn  Zn11  1  0.77025368  0.01460420  0.85771310  1
  P  P12  1  0.13976186  0.29534923  0.99321326  1
  P  P13  1  0.36023814  0.70465077  0.49321326  1
  P  P14  1  0.86023814  0.70465077  0.00678674  1
  P  P15  1  0.63976186  0.29534923  0.50678674  1
  O  O16  1  0.11779312  0.36353087  0.13456359  1
  O  O17  1  0.38220688  0.63646913  0.63456359  1
  O  O18  1  0.88220688  0.63646913  0.86543641  1
  O  O19  1  0.61779312  0.36353087  0.36543641  1
  O  O20  1  0.26884751  0.15625544  0.00433169  1
  O  O21  1  0.23115249  0.84374456  0.50433169  1
  O  O22  1  0.73115249  0.84374456  0.99566831  1
  O  O23  1  0.76884751  0.15625544  0.49566831  1
  O  O24  1  0.28150059  0.41922099  0.89323930  1
  O  O25  1  0.21849941  0.58077901  0.39323930  1
  O  O26  1  0.71849941  0.58077901  0.10676070  1
  O  O27  1  0.78150059  0.41922099  0.60676070  1
  O  O28  1  0.44665582  0.97799790  0.79676469  1
  O  O29  1  0.05334418  0.02200210  0.29676469  1
  O  O30  1  0.55334418  0.02200210  0.20323531  1
  O  O31  1  0.94665582  0.97799790  0.70323531  1
  O  O32  1  0.38032021  0.22925080  0.56350952  1
  O  O33  1  0.11967979  0.77074920  0.06350952  1
  O  O34  1  0.61967979  0.77074920  0.43649048  1
  O  O35  1  0.88032021  0.22925080  0.93649048  1
