# generated using pymatgen
data_CaH3NO5
_symmetry_space_group_name_H-M   'P 1'
_cell_length_a   14.18236165
_cell_length_b   8.88723929
_cell_length_c   14.64183398
_cell_angle_alpha   90.00000000
_cell_angle_beta   90.00000000
_cell_angle_gamma   90.00000000
_symmetry_Int_Tables_number   1
_chemical_formula_structural   CaH3NO5
_chemical_formula_sum   'Ca16 H48 N16 O80'
_cell_volume   1845.48664879
_cell_formula_units_Z   16
loop_
 _symmetry_equiv_pos_site_id
 _symmetry_equiv_pos_as_xyz
  1  'x, y, z'
loop_
 _atom_site_type_symbol
 _atom_site_label
 _atom_site_symmetry_multiplicity
 _atom_site_fract_x
 _atom_site_fract_y
 _atom_site_fract_z
 _atom_site_occupancy
  Ca  Ca0  1  0.73161311  0.51426484  0.05303199  1
  Ca  Ca1  1  0.23161311  0.98573516  0.94696801  1
  Ca  Ca2  1  0.26838689  0.01426484  0.44696801  1
  Ca  Ca3  1  0.76838689  0.48573516  0.55303199  1
  Ca  Ca4  1  0.26838689  0.48573516  0.94696801  1
  Ca  Ca5  1  0.76838689  0.01426484  0.05303199  1
  Ca  Ca6  1  0.73161311  0.98573516  0.55303199  1
  Ca  Ca7  1  0.23161311  0.51426484  0.44696801  1
  Ca  Ca8  1  0.72881144  0.51316272  0.80134764  1
  Ca  Ca9  1  0.22881144  0.98683728  0.19865236  1
  Ca  Ca10  1  0.27118856  0.01316272  0.69865236  1
  Ca  Ca11  1  0.77118856  0.48683728  0.30134764  1
  Ca  Ca12  1  0.27118856  0.48683728  0.19865236  1
  Ca  Ca13  1  0.77118856  0.01316272  0.80134764  1
  Ca  Ca14  1  0.72881144  0.98683728  0.30134764  1
  Ca  Ca15  1  0.22881144  0.51316272  0.69865236  1
  H  H16  1  0.59626237  0.40842792  0.19111851  1
  H  H17  1  0.09626237  0.09157208  0.80888149  1
  H  H18  1  0.40373763  0.90842792  0.30888149  1
  H  H19  1  0.90373763  0.59157208  0.69111851  1
  H  H20  1  0.40373763  0.59157208  0.80888149  1
  H  H21  1  0.90373763  0.90842792  0.19111851  1
  H  H22  1  0.59626237  0.09157208  0.69111851  1
  H  H23  1  0.09626237  0.40842792  0.30888149  1
  H  H24  1  0.66645807  0.25981797  0.17965130  1
  H  H25  1  0.16645807  0.24018203  0.82034870  1
  H  H26  1  0.33354193  0.75981797  0.32034870  1
  H  H27  1  0.83354193  0.74018203  0.67965130  1
  H  H28  1  0.33354193  0.74018203  0.82034870  1
  H  H29  1  0.83354193  0.75981797  0.17965130  1
  H  H30  1  0.66645807  0.24018203  0.67965130  1
  H  H31  1  0.16645807  0.25981797  0.32034870  1
  H  H32  1  0.89846732  0.58477808  0.16222233  1
  H  H33  1  0.39846732  0.91522192  0.83777767  1
  H  H34  1  0.10153268  0.08477808  0.33777767  1
  H  H35  1  0.60153268  0.41522192  0.66222233  1
  H  H36  1  0.10153268  0.41522192  0.83777767  1
  H  H37  1  0.60153268  0.08477808  0.16222233  1
  H  H38  1  0.89846732  0.91522192  0.66222233  1
  H  H39  1  0.39846732  0.58477808  0.33777767  1
  H  H40  1  0.88464721  0.57096222  0.92522089  1
  H  H41  1  0.38464721  0.92903778  0.07477911  1
  H  H42  1  0.11535279  0.07096222  0.57477911  1
  H  H43  1  0.61535279  0.42903778  0.42522089  1
  H  H44  1  0.11535279  0.42903778  0.07477911  1
  H  H45  1  0.61535279  0.07096222  0.92522089  1
  H  H46  1  0.88464721  0.92903778  0.42522089  1
  H  H47  1  0.38464721  0.57096222  0.57477911  1
  H  H48  1  0.58967292  0.39596185  0.92785044  1
  H  H49  1  0.08967292  0.10403815  0.07214956  1
  H  H50  1  0.41032708  0.89596185  0.57214956  1
  H  H51  1  0.91032708  0.60403815  0.42785044  1
  H  H52  1  0.41032708  0.60403815  0.07214956  1
  H  H53  1  0.91032708  0.89596185  0.92785044  1
  H  H54  1  0.58967292  0.10403815  0.42785044  1
  H  H55  1  0.08967292  0.39596185  0.57214956  1
  H  H56  1  0.66897646  0.24399050  0.92580534  1
  H  H57  1  0.16897646  0.25600950  0.07419466  1
  H  H58  1  0.33102354  0.74399050  0.57419466  1
  H  H59  1  0.83102354  0.75600950  0.42580534  1
  H  H60  1  0.33102354  0.75600950  0.07419466  1
  H  H61  1  0.83102354  0.74399050  0.92580534  1
  H  H62  1  0.66897646  0.25600950  0.42580534  1
  H  H63  1  0.16897646  0.24399050  0.57419466  1
  N  N64  1  0.91189213  0.26220152  0.05520169  1
  N  N65  1  0.41189213  0.23779848  0.94479831  1
  N  N66  1  0.08810787  0.76220152  0.44479831  1
  N  N67  1  0.58810787  0.73779848  0.55520169  1
  N  N68  1  0.08810787  0.73779848  0.94479831  1
  N  N69  1  0.58810787  0.76220152  0.05520169  1
  N  N70  1  0.91189213  0.23779848  0.55520169  1
  N  N71  1  0.41189213  0.26220152  0.44479831  1
  N  N72  1  0.90947330  0.26950185  0.81021255  1
  N  N73  1  0.40947330  0.23049815  0.18978745  1
  N  N74  1  0.09052670  0.76950185  0.68978745  1
  N  N75  1  0.59052670  0.73049815  0.31021255  1
  N  N76  1  0.09052670  0.73049815  0.18978745  1
  N  N77  1  0.59052670  0.76950185  0.81021255  1
  N  N78  1  0.90947330  0.23049815  0.31021255  1
  N  N79  1  0.40947330  0.26950185  0.68978745  1
  O  O80  1  0.94142911  0.12775106  0.06290523  1
  O  O81  1  0.44142911  0.37224894  0.93709477  1
  O  O82  1  0.05857089  0.62775106  0.43709477  1
  O  O83  1  0.55857089  0.87224894  0.56290523  1
  O  O84  1  0.05857089  0.87224894  0.93709477  1
  O  O85  1  0.55857089  0.62775106  0.06290523  1
  O  O86  1  0.94142911  0.37224894  0.56290523  1
  O  O87  1  0.44142911  0.12775106  0.43709477  1
  O  O88  1  0.96431068  0.37318253  0.05430504  1
  O  O89  1  0.46431068  0.12681747  0.94569496  1
  O  O90  1  0.03568932  0.87318253  0.44569496  1
  O  O91  1  0.53568932  0.62681747  0.55430504  1
  O  O92  1  0.03568932  0.62681747  0.94569496  1
  O  O93  1  0.53568932  0.87318253  0.05430504  1
  O  O94  1  0.96431068  0.12681747  0.55430504  1
  O  O95  1  0.46431068  0.37318253  0.44569496  1
  O  O96  1  0.82113085  0.27881205  0.04768293  1
  O  O97  1  0.32113085  0.22118795  0.95231707  1
  O  O98  1  0.17886915  0.77881205  0.45231707  1
  O  O99  1  0.67886915  0.72118795  0.54768293  1
  O  O100  1  0.17886915  0.72118795  0.95231707  1
  O  O101  1  0.67886915  0.77881205  0.04768293  1
  O  O102  1  0.82113085  0.22118795  0.54768293  1
  O  O103  1  0.32113085  0.27881205  0.45231707  1
  O  O104  1  0.94388344  0.13766331  0.81367205  1
  O  O105  1  0.44388344  0.36233669  0.18632795  1
  O  O106  1  0.05611656  0.63766331  0.68632795  1
  O  O107  1  0.55611656  0.86233669  0.31367205  1
  O  O108  1  0.05611656  0.86233669  0.18632795  1
  O  O109  1  0.55611656  0.63766331  0.81367205  1
  O  O110  1  0.94388344  0.36233669  0.31367205  1
  O  O111  1  0.44388344  0.13766331  0.68632795  1
  O  O112  1  0.95697595  0.38558706  0.81923794  1
  O  O113  1  0.45697595  0.11441294  0.18076206  1
  O  O114  1  0.04302405  0.88558706  0.68076206  1
  O  O115  1  0.54302405  0.61441294  0.31923794  1
  O  O116  1  0.04302405  0.61441294  0.18076206  1
  O  O117  1  0.54302405  0.88558706  0.81923794  1
  O  O118  1  0.95697595  0.11441294  0.31923794  1
  O  O119  1  0.45697595  0.38558706  0.68076206  1
  O  O120  1  0.81918502  0.27901777  0.79657490  1
  O  O121  1  0.31918502  0.22098223  0.20342510  1
  O  O122  1  0.18081498  0.77901777  0.70342510  1
  O  O123  1  0.68081498  0.72098223  0.29657490  1
  O  O124  1  0.18081498  0.72098223  0.20342510  1
  O  O125  1  0.68081498  0.77901777  0.79657490  1
  O  O126  1  0.81918502  0.22098223  0.29657490  1
  O  O127  1  0.31918502  0.27901777  0.70342510  1
  O  O128  1  0.66347071  0.38440590  0.18487008  1
  O  O129  1  0.16347071  0.11559410  0.81512992  1
  O  O130  1  0.33652929  0.88440590  0.31512992  1
  O  O131  1  0.83652929  0.61559410  0.68487008  1
  O  O132  1  0.33652929  0.61559410  0.81512992  1
  O  O133  1  0.83652929  0.88440590  0.18487008  1
  O  O134  1  0.66347071  0.11559410  0.68487008  1
  O  O135  1  0.16347071  0.38440590  0.31512992  1
  O  O136  1  0.83111848  0.60491979  0.17109878  1
  O  O137  1  0.33111848  0.89508021  0.82890122  1
  O  O138  1  0.16888152  0.10491979  0.32890122  1
  O  O139  1  0.66888152  0.39508021  0.67109878  1
  O  O140  1  0.16888152  0.39508021  0.82890122  1
  O  O141  1  0.66888152  0.10491979  0.17109878  1
  O  O142  1  0.83111848  0.89508021  0.67109878  1
  O  O143  1  0.33111848  0.60491979  0.32890122  1
  O  O144  1  0.82013885  0.61007953  0.92612564  1
  O  O145  1  0.32013885  0.88992047  0.07387436  1
  O  O146  1  0.17986115  0.11007953  0.57387436  1
  O  O147  1  0.67986115  0.38992047  0.42612564  1
  O  O148  1  0.17986115  0.38992047  0.07387436  1
  O  O149  1  0.67986115  0.11007953  0.92612564  1
  O  O150  1  0.82013885  0.88992047  0.42612564  1
  O  O151  1  0.32013885  0.61007953  0.57387436  1
  O  O152  1  0.65834483  0.38389839  0.92587423  1
  O  O153  1  0.15834483  0.11610161  0.07412577  1
  O  O154  1  0.34165517  0.88389839  0.57412577  1
  O  O155  1  0.84165517  0.61610161  0.42587423  1
  O  O156  1  0.34165517  0.61610161  0.07412577  1
  O  O157  1  0.84165517  0.88389839  0.92587423  1
  O  O158  1  0.65834483  0.11610161  0.42587423  1
  O  O159  1  0.15834483  0.38389839  0.57412577  1
