# generated using pymatgen
data_LiBi3(ClO2)2
_symmetry_space_group_name_H-M   'P 1'
_cell_length_a   5.51068027
_cell_length_b   6.80067898
_cell_length_c   10.97751837
_cell_angle_alpha   90.00000000
_cell_angle_beta   90.00000000
_cell_angle_gamma   113.90094896
_symmetry_Int_Tables_number   1
_chemical_formula_structural   LiBi3(ClO2)2
_chemical_formula_sum   'Li2 Bi6 Cl4 O8'
_cell_volume   376.11904244
_cell_formula_units_Z   2
loop_
 _symmetry_equiv_pos_site_id
 _symmetry_equiv_pos_as_xyz
  1  'x, y, z'
loop_
 _atom_site_type_symbol
 _atom_site_label
 _atom_site_symmetry_multiplicity
 _atom_site_fract_x
 _atom_site_fract_y
 _atom_site_fract_z
 _atom_site_occupancy
  Li  Li0  1  0.78840941  0.57681981  0.00000000  1
  Li  Li1  1  0.21159059  0.42318019  0.50000000  1
  Bi  Bi2  1  0.65716900  0.31433899  0.25635951  1
  Bi  Bi3  1  0.14560242  0.29120384  0.00000000  1
  Bi  Bi4  1  0.85439758  0.70879616  0.50000000  1
  Bi  Bi5  1  0.34283100  0.68566101  0.24364049  1
  Bi  Bi6  1  0.65716900  0.31433899  0.74364049  1
  Bi  Bi7  1  0.34283100  0.68566101  0.75635951  1
  Cl  Cl8  1  0.51363681  0.02727361  0.00000000  1
  Cl  Cl9  1  0.48636319  0.97272639  0.50000000  1
  Cl  Cl10  1  0.00000000  0.00000000  0.25000000  1
  Cl  Cl11  1  0.00000000  0.00000000  0.75000000  1
  O  O12  1  0.48849681  0.48455450  0.12630447  1
  O  O13  1  0.51150319  0.51544550  0.37369553  1
  O  O14  1  0.99605769  0.48455450  0.12630447  1
  O  O15  1  0.00394231  0.51544550  0.37369553  1
  O  O16  1  0.51150319  0.51544550  0.62630447  1
  O  O17  1  0.48849681  0.48455450  0.87369553  1
  O  O18  1  0.00394231  0.51544550  0.62630447  1
  O  O19  1  0.99605769  0.48455450  0.87369553  1
