# generated using pymatgen
data_Sr8Fe5Re5O28
_symmetry_space_group_name_H-M   'P 1'
_cell_length_a   5.58114736
_cell_length_b   5.58114736
_cell_length_c   25.60190382
_cell_angle_alpha   90.00000000
_cell_angle_beta   90.00000000
_cell_angle_gamma   90.00000000
_symmetry_Int_Tables_number   1
_chemical_formula_structural   Sr8Fe5Re5O28
_chemical_formula_sum   'Sr8 Fe5 Re5 O28'
_cell_volume   797.47897234
_cell_formula_units_Z   1
loop_
 _symmetry_equiv_pos_site_id
 _symmetry_equiv_pos_as_xyz
  1  'x, y, z'
loop_
 _atom_site_type_symbol
 _atom_site_label
 _atom_site_symmetry_multiplicity
 _atom_site_fract_x
 _atom_site_fract_y
 _atom_site_fract_z
 _atom_site_occupancy
  Sr  Sr0  1  0.00000000  0.50000000  0.26126345  1
  Sr  Sr1  1  0.50000000  -0.00000000  0.26126345  1
  Sr  Sr2  1  0.00000000  0.50000000  0.73873655  1
  Sr  Sr3  1  0.50000000  -0.00000000  0.73873655  1
  Sr  Sr4  1  0.00000000  0.50000000  0.42198014  1
  Sr  Sr5  1  0.50000000  -0.00000000  0.42198014  1
  Sr  Sr6  1  0.00000000  0.50000000  0.57801986  1
  Sr  Sr7  1  0.50000000  -0.00000000  0.57801986  1
  Fe  Fe8  1  0.00000000  -0.00000000  0.18853781  1
  Fe  Fe9  1  0.00000000  -0.00000000  0.81146219  1
  Fe  Fe10  1  0.50000000  0.50000000  0.34570314  1
  Fe  Fe11  1  0.50000000  0.50000000  0.65429686  1
  Fe  Fe12  1  0.00000000  -0.00000000  0.50000000  1
  Re  Re13  1  0.50000000  0.50000000  0.19040425  1
  Re  Re14  1  0.50000000  0.50000000  0.80959575  1
  Re  Re15  1  0.00000000  -0.00000000  0.34325478  1
  Re  Re16  1  0.00000000  -0.00000000  0.65674522  1
  Re  Re17  1  0.50000000  0.50000000  0.50000000  1
  O  O18  1  0.74339594  0.25660406  0.18638593  1
  O  O19  1  0.25660406  0.74339594  0.18638593  1
  O  O20  1  0.25660406  0.25660406  0.18638593  1
  O  O21  1  0.74339594  0.74339594  0.18638593  1
  O  O22  1  0.25660406  0.74339594  0.81361407  1
  O  O23  1  0.74339594  0.25660406  0.81361407  1
  O  O24  1  0.74339594  0.74339594  0.81361407  1
  O  O25  1  0.25660406  0.25660406  0.81361407  1
  O  O26  1  0.00000000  -0.00000000  0.26657172  1
  O  O27  1  0.00000000  -0.00000000  0.73342828  1
  O  O28  1  0.50000000  0.50000000  0.26423948  1
  O  O29  1  0.50000000  0.50000000  0.73576052  1
  O  O30  1  0.75335327  0.24664673  0.34345562  1
  O  O31  1  0.24664673  0.75335327  0.34345562  1
  O  O32  1  0.24664673  0.24664673  0.34345562  1
  O  O33  1  0.75335327  0.75335327  0.34345562  1
  O  O34  1  0.24664673  0.75335327  0.65654438  1
  O  O35  1  0.75335327  0.24664673  0.65654438  1
  O  O36  1  0.75335327  0.75335327  0.65654438  1
  O  O37  1  0.24664673  0.24664673  0.65654438  1
  O  O38  1  0.00000000  -0.00000000  0.41979473  1
  O  O39  1  0.00000000  -0.00000000  0.58020527  1
  O  O40  1  0.50000000  0.50000000  0.42323694  1
  O  O41  1  0.50000000  0.50000000  0.57676306  1
  O  O42  1  0.74711703  0.25288297  0.50000000  1
  O  O43  1  0.25288297  0.74711703  0.50000000  1
  O  O44  1  0.25288297  0.25288297  0.50000000  1
  O  O45  1  0.74711703  0.74711703  0.50000000  1
