# generated using pymatgen
data_Y2MgNi2
_symmetry_space_group_name_H-M   'P 1'
_cell_length_a   7.36634175
_cell_length_b   7.36609194
_cell_length_c   3.73880902
_cell_angle_alpha   90.00000000
_cell_angle_beta   90.00000000
_cell_angle_gamma   90.08813304
_symmetry_Int_Tables_number   1
_chemical_formula_structural   Y2MgNi2
_chemical_formula_sum   'Y4 Mg2 Ni4'
_cell_volume   202.87183919
_cell_formula_units_Z   2
loop_
 _symmetry_equiv_pos_site_id
 _symmetry_equiv_pos_as_xyz
  1  'x, y, z'
loop_
 _atom_site_type_symbol
 _atom_site_label
 _atom_site_symmetry_multiplicity
 _atom_site_fract_x
 _atom_site_fract_y
 _atom_site_fract_z
 _atom_site_occupancy
  Y  Y0  1  0.17311893  0.67311367  0.50000000  1
  Y  Y1  1  0.32684875  0.17316176  0.50000000  1
  Y  Y2  1  0.67315589  0.82688087  0.50000000  1
  Y  Y3  1  0.82687235  0.32688031  0.50000000  1
  Mg  Mg4  1  0.99997897  0.00000368  0.00000000  1
  Mg  Mg5  1  0.50000720  0.49998457  0.00000000  1
  Ni  Ni6  1  0.12042594  0.37961110  0.00000000  1
  Ni  Ni7  1  0.37969015  0.87972422  0.00000000  1
  Ni  Ni8  1  0.62029195  0.12026888  0.00000000  1
  Ni  Ni9  1  0.87962786  0.62035394  0.00000000  1
