# generated using pymatgen
data_CuH14C4(NO2)4
_symmetry_space_group_name_H-M   'P 1'
_cell_length_a   8.03530614
_cell_length_b   9.15918880
_cell_length_c   8.32937405
_cell_angle_alpha   90.00000000
_cell_angle_beta   90.00000000
_cell_angle_gamma   99.12322341
_symmetry_Int_Tables_number   1
_chemical_formula_structural   CuH14C4(NO2)4
_chemical_formula_sum   'Cu2 H28 C8 N8 O16'
_cell_volume   605.26110672
_cell_formula_units_Z   2
loop_
 _symmetry_equiv_pos_site_id
 _symmetry_equiv_pos_as_xyz
  1  'x, y, z'
loop_
 _atom_site_type_symbol
 _atom_site_label
 _atom_site_symmetry_multiplicity
 _atom_site_fract_x
 _atom_site_fract_y
 _atom_site_fract_z
 _atom_site_occupancy
  Cu  Cu0  1  0.50000000  0.00000000  0.50000000  1
  Cu  Cu1  1  -0.00000000  0.00000000  0.00000000  1
  H  H2  1  0.96698479  0.71430773  0.24448978  1
  H  H3  1  0.53301521  0.28569227  0.74448978  1
  H  H4  1  0.03301521  0.28569227  0.75551022  1
  H  H5  1  0.46698479  0.71430773  0.25551022  1
  H  H6  1  0.80823404  0.56182861  0.21971944  1
  H  H7  1  0.69176596  0.43817139  0.71971944  1
  H  H8  1  0.19176596  0.43817139  0.78028056  1
  H  H9  1  0.30823404  0.56182861  0.28028056  1
  H  H10  1  0.05965851  0.79225850  0.49350282  1
  H  H11  1  0.44034149  0.20774150  0.99350282  1
  H  H12  1  0.94034149  0.20774150  0.50649718  1
  H  H13  1  0.55965851  0.79225850  0.00649718  1
  H  H14  1  0.95520349  0.71733821  0.66768979  1
  H  H15  1  0.54479651  0.28266179  0.16768979  1
  H  H16  1  0.04479651  0.28266179  0.33231021  1
  H  H17  1  0.45520349  0.71733821  0.83231021  1
  H  H18  1  0.61948028  0.36730219  0.43296384  1
  H  H19  1  0.88051972  0.63269781  0.93296384  1
  H  H20  1  0.38051972  0.63269781  0.56703616  1
  H  H21  1  0.11948028  0.36730219  0.06703616  1
  H  H22  1  0.42647445  0.33509889  0.42255741  1
  H  H23  1  0.07352555  0.66490111  0.92255741  1
  H  H24  1  0.57352555  0.66490111  0.57744259  1
  H  H25  1  0.92647445  0.33509889  0.07744259  1
  H  H26  1  0.82721299  0.06723451  0.29905590  1
  H  H27  1  0.67278701  0.93276549  0.79905590  1
  H  H28  1  0.17278701  0.93276549  0.70094410  1
  H  H29  1  0.32721299  0.06723451  0.20094410  1
  C  C30  1  0.73529720  0.98704237  0.23310226  1
  C  C31  1  0.76470280  0.01295763  0.73310226  1
  C  C32  1  0.26470280  0.01295763  0.76689774  1
  C  C33  1  0.23529720  0.98704237  0.26689774  1
  C  C34  1  0.85531342  0.63058381  0.45455002  1
  C  C35  1  0.64468658  0.36941619  0.95455002  1
  C  C36  1  0.14468658  0.36941619  0.54544998  1
  C  C37  1  0.35531342  0.63058381  0.04544998  1
  N  N38  1  0.88195603  0.63323613  0.29461056  1
  N  N39  1  0.61804397  0.36676387  0.79461056  1
  N  N40  1  0.11804397  0.36676387  0.70538944  1
  N  N41  1  0.38195603  0.63323613  0.20538944  1
  N  N42  1  0.95709679  0.73031203  0.54502116  1
  N  N43  1  0.54290321  0.26968797  0.04502116  1
  N  N44  1  0.04290321  0.26968797  0.45497884  1
  N  N45  1  0.45709679  0.73031203  0.95497884  1
  O  O46  1  0.59370391  0.93801819  0.29683219  1
  O  O47  1  0.90629609  0.06198181  0.79683219  1
  O  O48  1  0.40629609  0.06198181  0.70316781  1
  O  O49  1  0.09370391  0.93801819  0.20316781  1
  O  O50  1  0.77347164  0.94452750  0.09432100  1
  O  O51  1  0.72652836  0.05547250  0.59432100  1
  O  O52  1  0.22652836  0.05547250  0.90567900  1
  O  O53  1  0.27347164  0.94452750  0.40567900  1
  O  O54  1  0.73634509  0.54077348  0.51872064  1
  O  O55  1  0.76365491  0.45922652  0.01872064  1
  O  O56  1  0.26365491  0.45922652  0.48127936  1
  O  O57  1  0.23634509  0.54077348  0.98127936  1
  O  O58  1  0.52665824  0.28815063  0.39989376  1
  O  O59  1  0.97334176  0.71184937  0.89989376  1
  O  O60  1  0.47334176  0.71184937  0.60010624  1
  O  O61  1  0.02665824  0.28815063  0.10010624  1
