# generated using pymatgen
data_BaTm2O4
_symmetry_space_group_name_H-M   'P 1'
_cell_length_a   3.42815541
_cell_length_b   10.41513784
_cell_length_c   12.06662847
_cell_angle_alpha   90.00000000
_cell_angle_beta   90.00000000
_cell_angle_gamma   90.00000000
_symmetry_Int_Tables_number   1
_chemical_formula_structural   BaTm2O4
_chemical_formula_sum   'Ba4 Tm8 O16'
_cell_volume   430.83548386
_cell_formula_units_Z   4
loop_
 _symmetry_equiv_pos_site_id
 _symmetry_equiv_pos_as_xyz
  1  'x, y, z'
loop_
 _atom_site_type_symbol
 _atom_site_label
 _atom_site_symmetry_multiplicity
 _atom_site_fract_x
 _atom_site_fract_y
 _atom_site_fract_z
 _atom_site_occupancy
  Ba  Ba0  1  0.75000000  0.25347199  0.14917367  1
  Ba  Ba1  1  0.75000000  0.75347199  0.35082633  1
  Ba  Ba2  1  0.25000000  0.74652801  0.85082633  1
  Ba  Ba3  1  0.25000000  0.24652801  0.64917367  1
  Tm  Tm4  1  0.75000000  0.42203500  0.89179848  1
  Tm  Tm5  1  0.75000000  0.92203500  0.60820152  1
  Tm  Tm6  1  0.25000000  0.57796500  0.10820152  1
  Tm  Tm7  1  0.25000000  0.07796500  0.39179848  1
  Tm  Tm8  1  0.75000000  0.92793343  0.11104338  1
  Tm  Tm9  1  0.75000000  0.42793343  0.38895662  1
  Tm  Tm10  1  0.25000000  0.07206657  0.88895662  1
  Tm  Tm11  1  0.25000000  0.57206657  0.61104338  1
  O  O12  1  0.75000000  0.20901548  0.84389310  1
  O  O13  1  0.75000000  0.70901548  0.65610690  1
  O  O14  1  0.25000000  0.79098452  0.15610690  1
  O  O15  1  0.25000000  0.29098452  0.34389310  1
  O  O16  1  0.75000000  0.11297828  0.51756984  1
  O  O17  1  0.75000000  0.61297828  0.98243016  1
  O  O18  1  0.25000000  0.88702172  0.48243016  1
  O  O19  1  0.25000000  0.38702172  0.01756984  1
  O  O20  1  0.75000000  0.01961196  0.28289888  1
  O  O21  1  0.75000000  0.51961196  0.21710112  1
  O  O22  1  0.25000000  0.98038804  0.71710112  1
  O  O23  1  0.25000000  0.48038804  0.78289888  1
  O  O24  1  0.75000000  0.43087003  0.57312164  1
  O  O25  1  0.75000000  0.93087003  0.92687836  1
  O  O26  1  0.25000000  0.56912997  0.42687836  1
  O  O27  1  0.25000000  0.06912997  0.07312164  1
