# generated using pymatgen
data_K2MgO2
_symmetry_space_group_name_H-M   'P 1'
_cell_length_a   10.45099026
_cell_length_b   6.11355877
_cell_length_c   5.57047801
_cell_angle_alpha   90.00000000
_cell_angle_beta   90.00000000
_cell_angle_gamma   90.00000000
_symmetry_Int_Tables_number   1
_chemical_formula_structural   K2MgO2
_chemical_formula_sum   'K8 Mg4 O8'
_cell_volume   355.91312077
_cell_formula_units_Z   4
loop_
 _symmetry_equiv_pos_site_id
 _symmetry_equiv_pos_as_xyz
  1  'x, y, z'
loop_
 _atom_site_type_symbol
 _atom_site_label
 _atom_site_symmetry_multiplicity
 _atom_site_fract_x
 _atom_site_fract_y
 _atom_site_fract_z
 _atom_site_occupancy
  K  K0  1  0.15576225  0.37704740  0.94295566  1
  K  K1  1  0.15576225  0.62295260  0.44295566  1
  K  K2  1  0.34423775  0.12295260  0.44295566  1
  K  K3  1  0.34423775  0.87704740  0.94295566  1
  K  K4  1  0.65576225  0.12295260  0.05704434  1
  K  K5  1  0.65576225  0.87704740  0.55704434  1
  K  K6  1  0.84423775  0.37704740  0.55704434  1
  K  K7  1  0.84423775  0.62295260  0.05704434  1
  Mg  Mg8  1  0.00000000  0.01206176  0.25000000  1
  Mg  Mg9  1  0.00000000  0.98793824  0.75000000  1
  Mg  Mg10  1  0.50000000  0.48793824  0.75000000  1
  Mg  Mg11  1  0.50000000  0.51206176  0.25000000  1
  O  O12  1  0.09358133  0.82062783  0.00665935  1
  O  O13  1  0.09358133  0.17937217  0.50665935  1
  O  O14  1  0.40641867  0.32062783  0.00665935  1
  O  O15  1  0.40641867  0.67937217  0.50665935  1
  O  O16  1  0.59358133  0.32062783  0.49334065  1
  O  O17  1  0.59358133  0.67937217  0.99334065  1
  O  O18  1  0.90641867  0.17937217  0.99334065  1
  O  O19  1  0.90641867  0.82062783  0.49334065  1
