# generated using pymatgen
data_Tm(CuO2)2
_symmetry_space_group_name_H-M   'P 1'
_cell_length_a   5.63902351
_cell_length_b   6.19575198
_cell_length_c   6.19575198
_cell_angle_alpha   100.95145194
_cell_angle_beta   63.53322740
_cell_angle_gamma   63.53322740
_symmetry_Int_Tables_number   1
_chemical_formula_structural   Tm(CuO2)2
_chemical_formula_sum   'Tm2 Cu4 O8'
_cell_volume   151.70924360
_cell_formula_units_Z   2
loop_
 _symmetry_equiv_pos_site_id
 _symmetry_equiv_pos_as_xyz
  1  'x, y, z'
loop_
 _atom_site_type_symbol
 _atom_site_label
 _atom_site_symmetry_multiplicity
 _atom_site_fract_x
 _atom_site_fract_y
 _atom_site_fract_z
 _atom_site_occupancy
  Tm  Tm0  1  0.75000000  0.12489506  0.37510494  1
  Tm  Tm1  1  0.25000000  0.87510494  0.62489506  1
  Cu  Cu2  1  0.50000000  -0.00000000  0.00000000  1
  Cu  Cu3  1  0.50000000  0.50000000  0.00000000  1
  Cu  Cu4  1  -0.00000000  0.50000000  0.00000000  1
  Cu  Cu5  1  -0.00000000  0.50000000  0.50000000  1
  O  O6  1  0.69904037  0.16985071  0.02673724  1
  O  O7  1  0.80095963  0.47326276  0.33014929  1
  O  O8  1  0.90059167  0.27796768  0.63285898  1
  O  O9  1  0.40059167  0.13285898  0.77796768  1
  O  O10  1  0.59940833  0.86714102  0.22203232  1
  O  O11  1  0.09940833  0.72203232  0.36714102  1
  O  O12  1  0.19904037  0.52673724  0.66985071  1
  O  O13  1  0.30095963  0.83014929  0.97326276  1
