# generated using pymatgen
data_TlAsO4
_symmetry_space_group_name_H-M   'P 1'
_cell_length_a   6.89777087
_cell_length_b   6.89777087
_cell_length_c   6.89777087
_cell_angle_alpha   137.54173954
_cell_angle_beta   137.54173954
_cell_angle_gamma   61.60557554
_symmetry_Int_Tables_number   1
_chemical_formula_structural   TlAsO4
_chemical_formula_sum   'Tl2 As2 O8'
_cell_volume   147.84277543
_cell_formula_units_Z   2
loop_
 _symmetry_equiv_pos_site_id
 _symmetry_equiv_pos_as_xyz
  1  'x, y, z'
loop_
 _atom_site_type_symbol
 _atom_site_label
 _atom_site_symmetry_multiplicity
 _atom_site_fract_x
 _atom_site_fract_y
 _atom_site_fract_z
 _atom_site_occupancy
  Tl  Tl0  1  0.50000000  0.50000000  0.00000000  1
  Tl  Tl1  1  0.25000000  0.75000000  0.50000000  1
  As  As2  1  0.00000000  0.00000000  0.00000000  1
  As  As3  1  0.75000000  0.25000000  0.50000000  1
  O  O4  1  0.67181720  0.07859167  0.90559566  1
  O  O5  1  0.57700399  0.48377746  0.40559566  1
  O  O6  1  0.51622254  0.92181720  0.09322653  1
  O  O7  1  0.92140833  0.82700399  0.59322653  1
  O  O8  1  0.23377746  0.32818280  0.40677347  1
  O  O9  1  0.82859167  0.42299601  0.90677347  1
  O  O10  1  0.07818280  0.17140833  0.59440434  1
  O  O11  1  0.17299601  0.76622254  0.09440434  1
