# generated using pymatgen
data_Mn6PbO12
_symmetry_space_group_name_H-M   'P 1'
_cell_length_a   8.37354159
_cell_length_b   8.25476560
_cell_length_c   8.37354159
_cell_angle_alpha   71.78324851
_cell_angle_beta   65.12588096
_cell_angle_gamma   105.96784157
_symmetry_Int_Tables_number   1
_chemical_formula_structural   Mn6PbO12
_chemical_formula_sum   'Mn12 Pb2 O24'
_cell_volume   439.77641288
_cell_formula_units_Z   2
loop_
 _symmetry_equiv_pos_site_id
 _symmetry_equiv_pos_as_xyz
  1  'x, y, z'
loop_
 _atom_site_type_symbol
 _atom_site_label
 _atom_site_symmetry_multiplicity
 _atom_site_fract_x
 _atom_site_fract_y
 _atom_site_fract_z
 _atom_site_occupancy
  Mn  Mn0  1  0.00336666  0.48766222  0.18139860  1
  Mn  Mn1  1  0.52010803  0.18525973  0.00008302  1
  Mn  Mn2  1  0.18796437  0.18247154  0.33882683  1
  Mn  Mn3  1  0.14655897  0.81474027  0.33324998  1
  Mn  Mn4  1  0.66329934  0.51233878  0.15193440  1
  Mn  Mn5  1  0.33093918  0.51233878  0.48429455  1
  Mn  Mn6  1  0.66653163  0.48484528  0.51501934  1
  Mn  Mn7  1  0.33572782  0.48766222  0.84903845  1
  Mn  Mn8  1  0.85200874  0.18525973  0.66818230  1
  Mn  Mn9  1  0.81465726  0.81474027  0.66515170  1
  Mn  Mn10  1  0.47870263  0.81752846  0.99450717  1
  Mn  Mn11  1  0.00013537  0.51515472  0.81831366  1
  Pb  Pb12  1  0.60425587  0.00000000  0.39574413  1
  Pb  Pb13  1  0.06241013  0.00000000  0.93758987  1
  O  O14  1  0.03858616  0.35440901  0.01751115  1
  O  O15  1  0.34913761  0.03693651  0.30351336  1
  O  O16  1  0.00711688  0.03693651  0.64553409  1
  O  O17  1  0.01292831  0.30247269  0.37729337  1
  O  O18  1  0.34643306  0.30247269  0.04378862  1
  O  O19  1  0.37741354  0.36622779  0.34451875  1
  O  O20  1  0.04410101  0.36372168  0.68013005  1
  O  O21  1  0.71051773  0.36372168  0.01371333  1
  O  O22  1  0.32023394  0.69752731  0.28954538  1
  O  O23  1  0.31752939  0.96306349  0.02981964  1
  O  O24  1  0.36425748  0.34833588  0.69071494  1
  O  O25  1  0.70571782  0.34833588  0.34925459  1
  O  O26  1  0.62808084  0.64559199  0.31582285  1
  O  O27  1  0.30240852  0.65166412  0.64261806  1
  O  O28  1  0.67318696  0.03733488  0.96918508  1
  O  O29  1  0.68139382  0.30568381  0.70904400  1
  O  O30  1  0.62256499  0.63627832  0.65320295  1
  O  O31  1  0.95614827  0.63627832  0.31961967  1
  O  O32  1  0.28925246  0.63377221  0.98881425  1
  O  O33  1  0.98527218  0.69431619  0.62428900  1
  O  O34  1  0.65373869  0.69752731  0.95603963  1
  O  O35  1  0.99348004  0.96266512  0.36414892  1
  O  O36  1  0.65955012  0.96306349  0.68779891  1
  O  O37  1  0.96094918  0.65166412  0.98407841  1
