# generated using pymatgen
data_ScH6Br3N2
_symmetry_space_group_name_H-M   'P 1'
_cell_length_a   7.34674148
_cell_length_b   10.33888184
_cell_length_c   11.58412653
_cell_angle_alpha   105.48825415
_cell_angle_beta   90.77701850
_cell_angle_gamma   109.70482670
_symmetry_Int_Tables_number   1
_chemical_formula_structural   ScH6Br3N2
_chemical_formula_sum   'Sc4 H24 Br12 N8'
_cell_volume   793.06778415
_cell_formula_units_Z   4
loop_
 _symmetry_equiv_pos_site_id
 _symmetry_equiv_pos_as_xyz
  1  'x, y, z'
loop_
 _atom_site_type_symbol
 _atom_site_label
 _atom_site_symmetry_multiplicity
 _atom_site_fract_x
 _atom_site_fract_y
 _atom_site_fract_z
 _atom_site_occupancy
  Sc  Sc0  1  0.16772618  0.79883715  0.19751511  1
  Sc  Sc1  1  0.31217045  0.22258083  0.30352552  1
  Sc  Sc2  1  0.68782955  0.77741917  0.69647448  1
  Sc  Sc3  1  0.83227382  0.20116285  0.80248489  1
  H  H4  1  0.06920133  0.83739087  0.43468606  1
  H  H5  1  0.14987261  0.89694924  0.99517848  1
  H  H6  1  0.08319784  0.72094535  0.94520287  1
  H  H7  1  0.15526284  0.70542076  0.40713667  1
  H  H8  1  0.30712068  0.87335011  0.44464530  1
  H  H9  1  0.31713866  0.82140335  0.97550703  1
  H  H10  1  0.28076210  0.64470993  0.66602098  1
  H  H11  1  0.28288694  0.55631931  0.15080811  1
  H  H12  1  0.36419474  0.54533578  0.56090608  1
  H  H13  1  0.37111395  0.53289525  0.70014143  1
  H  H14  1  0.44123596  0.67345600  0.09547442  1
  H  H15  1  0.46212739  0.69056715  0.24131273  1
  H  H16  1  0.53787261  0.30943285  0.75868727  1
  H  H17  1  0.55876404  0.32654400  0.90452558  1
  H  H18  1  0.62888605  0.46710475  0.29985857  1
  H  H19  1  0.63580526  0.45466422  0.43909392  1
  H  H20  1  0.71711306  0.44368069  0.84919189  1
  H  H21  1  0.71923790  0.35529007  0.33397902  1
  H  H22  1  0.68286134  0.17859665  0.02449297  1
  H  H23  1  0.69287932  0.12664989  0.55535470  1
  H  H24  1  0.84473716  0.29457924  0.59286333  1
  H  H25  1  0.91680216  0.27905465  0.05479713  1
  H  H26  1  0.85012739  0.10305076  0.00482152  1
  H  H27  1  0.93079867  0.16260913  0.56531394  1
  Br  Br28  1  0.14458026  0.42205771  0.86156610  1
  Br  Br29  1  0.12652059  0.40224590  0.34545580  1
  Br  Br30  1  0.01354983  0.01221083  0.75676144  1
  Br  Br31  1  0.49150409  0.97149672  0.74201847  1
  Br  Br32  1  0.33569273  0.22046065  0.53250147  1
  Br  Br33  1  0.34266785  0.22850742  0.07769322  1
  Br  Br34  1  0.65733215  0.77149258  0.92230678  1
  Br  Br35  1  0.66430727  0.77953935  0.46749853  1
  Br  Br36  1  0.50849591  0.02850328  0.25798153  1
  Br  Br37  1  0.98645017  0.98778917  0.24323856  1
  Br  Br38  1  0.87347941  0.59775410  0.65454420  1
  Br  Br39  1  0.85541974  0.57794229  0.13843390  1
  N  N40  1  0.17714000  0.80454058  0.39592870  1
  N  N41  1  0.18198242  0.81071168  0.00405055  1
  N  N42  1  0.36212170  0.66301583  0.16762749  1
  N  N43  1  0.39049922  0.60408079  0.65018299  1
  N  N44  1  0.60950078  0.39591921  0.34981701  1
  N  N45  1  0.63787830  0.33698417  0.83237251  1
  N  N46  1  0.81801758  0.18928832  0.99594945  1
  N  N47  1  0.82286000  0.19545942  0.60407130  1
