# generated using pymatgen
data_NiP4H16(NO8)2
_symmetry_space_group_name_H-M   'P 1'
_cell_length_a   7.09101713
_cell_length_b   7.31979801
_cell_length_c   7.74405196
_cell_angle_alpha   81.67530613
_cell_angle_beta   71.28201617
_cell_angle_gamma   88.42980581
_symmetry_Int_Tables_number   1
_chemical_formula_structural   NiP4H16(NO8)2
_chemical_formula_sum   'Ni1 P4 H16 N2 O16'
_cell_volume   376.60497093
_cell_formula_units_Z   1
loop_
 _symmetry_equiv_pos_site_id
 _symmetry_equiv_pos_as_xyz
  1  'x, y, z'
loop_
 _atom_site_type_symbol
 _atom_site_label
 _atom_site_symmetry_multiplicity
 _atom_site_fract_x
 _atom_site_fract_y
 _atom_site_fract_z
 _atom_site_occupancy
  Ni  Ni0  1  0.00000000  0.50000000  0.00000000  1
  P  P1  1  0.15517249  0.73954462  0.26183998  1
  P  P2  1  0.25542249  0.21115895  0.74497138  1
  P  P3  1  0.74457751  0.78884105  0.25502862  1
  P  P4  1  0.84482751  0.26045538  0.73816002  1
  H  H5  1  0.24056329  0.97639779  0.03870772  1
  H  H6  1  0.11247418  0.69026874  0.65836291  1
  H  H7  1  0.32064140  0.38628447  0.16394093  1
  H  H8  1  0.11921699  0.82595539  0.80114436  1
  H  H9  1  0.37494060  0.15988348  0.19422734  1
  H  H10  1  0.41603044  0.29844478  0.33390079  1
  H  H11  1  0.56092306  0.32147527  0.10975842  1
  H  H12  1  0.42541911  0.72191233  0.42225182  1
  H  H13  1  0.57458089  0.27808767  0.57774818  1
  H  H14  1  0.43907694  0.67852473  0.89024158  1
  H  H15  1  0.58396956  0.70155522  0.66609921  1
  H  H16  1  0.62505940  0.84011652  0.80577266  1
  H  H17  1  0.88078301  0.17404461  0.19885564  1
  H  H18  1  0.67935860  0.61371553  0.83605907  1
  H  H19  1  0.88752582  0.30973126  0.34163709  1
  H  H20  1  0.75943671  0.02360221  0.96129228  1
  N  N21  1  0.41835049  0.29202889  0.19999626  1
  N  N22  1  0.58164951  0.70797111  0.80000374  1
  O  O23  1  0.19264945  0.61670649  0.11170127  1
  O  O24  1  0.08142008  0.23330354  0.64836261  1
  O  O25  1  0.24884508  0.93763810  0.17201222  1
  O  O26  1  0.05134605  0.71549042  0.78642547  1
  O  O27  1  0.22758830  0.66849741  0.42202940  1
  O  O28  1  0.23936654  0.01484389  0.84654623  1
  O  O29  1  0.24660343  0.36314199  0.85909095  1
  O  O30  1  0.44050237  0.23739930  0.56372393  1
  O  O31  1  0.55949763  0.76260070  0.43627607  1
  O  O32  1  0.75339657  0.63685801  0.14090905  1
  O  O33  1  0.76063346  0.98515611  0.15345377  1
  O  O34  1  0.77241170  0.33150259  0.57797060  1
  O  O35  1  0.94865395  0.28450958  0.21357453  1
  O  O36  1  0.75115492  0.06236190  0.82798778  1
  O  O37  1  0.91857992  0.76669646  0.35163739  1
  O  O38  1  0.80735055  0.38329351  0.88829873  1
