# generated using pymatgen
data_K2Li3CoO4
_symmetry_space_group_name_H-M   'P 1'
_cell_length_a   5.57387294
_cell_length_b   8.84865690
_cell_length_c   10.38780652
_cell_angle_alpha   90.00000000
_cell_angle_beta   81.28484440
_cell_angle_gamma   90.00000000
_symmetry_Int_Tables_number   1
_chemical_formula_structural   K2Li3CoO4
_chemical_formula_sum   'K8 Li12 Co4 O16'
_cell_volume   506.42445092
_cell_formula_units_Z   4
loop_
 _symmetry_equiv_pos_site_id
 _symmetry_equiv_pos_as_xyz
  1  'x, y, z'
loop_
 _atom_site_type_symbol
 _atom_site_label
 _atom_site_symmetry_multiplicity
 _atom_site_fract_x
 _atom_site_fract_y
 _atom_site_fract_z
 _atom_site_occupancy
  K  K0  1  0.15486900  0.99232706  0.13848463  1
  K  K1  1  0.10979681  0.27248064  0.60771504  1
  K  K2  1  0.34513100  0.49232706  0.36151537  1
  K  K3  1  0.39020319  0.77248064  0.89228496  1
  K  K4  1  0.60979681  0.22751936  0.10771504  1
  K  K5  1  0.65486900  0.50767294  0.63848463  1
  K  K6  1  0.89020319  0.72751936  0.39228496  1
  K  K7  1  0.84513100  0.00767294  0.86151537  1
  Li  Li8  1  0.07337997  0.23549963  0.30139487  1
  Li  Li9  1  0.19958816  0.00321193  0.43212205  1
  Li  Li10  1  0.30041184  0.50321193  0.06787795  1
  Li  Li11  1  0.10827307  0.53386280  0.79773105  1
  Li  Li12  1  0.42662003  0.73549963  0.19860513  1
  Li  Li13  1  0.39172693  0.03386280  0.70226895  1
  Li  Li14  1  0.60827307  0.96613720  0.29773105  1
  Li  Li15  1  0.57337997  0.26450037  0.80139487  1
  Li  Li16  1  0.89172693  0.46613720  0.20226895  1
  Li  Li17  1  0.69958816  0.49678807  0.93212205  1
  Li  Li18  1  0.80041184  0.99678807  0.56787795  1
  Li  Li19  1  0.92662003  0.76450037  0.69860513  1
  Co  Co20  1  0.15819365  0.28661454  0.93614141  1
  Co  Co21  1  0.34180635  0.78661454  0.56385859  1
  Co  Co22  1  0.65819365  0.21338546  0.43614141  1
  Co  Co23  1  0.84180635  0.71338546  0.06385859  1
  O  O24  1  0.11609402  0.30837331  0.12010707  1
  O  O25  1  0.10691970  0.67263450  0.14411562  1
  O  O26  1  0.12025625  0.94987180  0.62341230  1
  O  O27  1  0.16581116  0.60956932  0.61168142  1
  O  O28  1  0.39308030  0.17263450  0.35588438  1
  O  O29  1  0.38390598  0.80837331  0.37989293  1
  O  O30  1  0.33418884  0.10956932  0.88831858  1
  O  O31  1  0.37974375  0.44987180  0.87658770  1
  O  O32  1  0.62025625  0.55012820  0.12341230  1
  O  O33  1  0.66581116  0.89043068  0.11168142  1
  O  O34  1  0.61609402  0.19162669  0.62010707  1
  O  O35  1  0.60691970  0.82736550  0.64411562  1
  O  O36  1  0.83418884  0.39043068  0.38831858  1
  O  O37  1  0.87974375  0.05012820  0.37658770  1
  O  O38  1  0.89308030  0.32736550  0.85588438  1
  O  O39  1  0.88390598  0.69162669  0.87989293  1
