# generated using pymatgen
data_LiCu2F6
_symmetry_space_group_name_H-M   'P 1'
_cell_length_a   4.67186458
_cell_length_b   4.67201831
_cell_length_c   9.06660617
_cell_angle_alpha   89.98495501
_cell_angle_beta   89.99733031
_cell_angle_gamma   89.97040159
_symmetry_Int_Tables_number   1
_chemical_formula_structural   LiCu2F6
_chemical_formula_sum   'Li2 Cu4 F12'
_cell_volume   197.89711342
_cell_formula_units_Z   2
loop_
 _symmetry_equiv_pos_site_id
 _symmetry_equiv_pos_as_xyz
  1  'x, y, z'
loop_
 _atom_site_type_symbol
 _atom_site_label
 _atom_site_symmetry_multiplicity
 _atom_site_fract_x
 _atom_site_fract_y
 _atom_site_fract_z
 _atom_site_occupancy
  Li  Li0  1  0.99999736  0.00000412  0.99977292  1
  Li  Li1  1  0.49999604  0.49999318  0.49976961  1
  Cu  Cu2  1  0.00003092  -0.00000046  0.66868993  1
  Cu  Cu3  1  0.99998793  0.99997251  0.33147228  1
  Cu  Cu4  1  0.50003330  0.50002102  0.83145720  1
  Cu  Cu5  1  0.49998348  0.49998450  0.16859599  1
  F  F6  1  0.18972627  0.81028349  0.49996518  1
  F  F7  1  0.19764845  0.80236428  0.82851682  1
  F  F8  1  0.19883142  0.80121459  0.17160317  1
  F  F9  1  0.30136468  0.30139300  0.67172441  1
  F  F10  1  0.30242030  0.30238385  0.32831614  1
  F  F11  1  0.31044169  0.31048148  0.99988450  1
  F  F12  1  0.68954446  0.68951775  0.00003334  1
  F  F13  1  0.69854173  0.69854763  0.67175464  1
  F  F14  1  0.69773203  0.69763985  0.32828613  1
  F  F15  1  0.80125972  0.19877847  0.17161728  1
  F  F16  1  0.80223718  0.19768462  0.82849154  1
  F  F17  1  0.81031405  0.18964613  0.50004891  1
