# generated using pymatgen
data_RbTiPS5
_symmetry_space_group_name_H-M   'P 1'
_cell_length_a   7.16685602
_cell_length_b   9.95981567
_cell_length_c   13.94466563
_cell_angle_alpha   97.19558643
_cell_angle_beta   104.74729806
_cell_angle_gamma   68.99546033
_symmetry_Int_Tables_number   1
_chemical_formula_structural   RbTiPS5
_chemical_formula_sum   'Rb4 Ti4 P4 S20'
_cell_volume   897.98827720
_cell_formula_units_Z   4
loop_
 _symmetry_equiv_pos_site_id
 _symmetry_equiv_pos_as_xyz
  1  'x, y, z'
loop_
 _atom_site_type_symbol
 _atom_site_label
 _atom_site_symmetry_multiplicity
 _atom_site_fract_x
 _atom_site_fract_y
 _atom_site_fract_z
 _atom_site_occupancy
  Rb  Rb0  1  0.33685346  0.96222431  0.63728952  1
  Rb  Rb1  1  0.29816009  0.54387945  0.14257161  1
  Rb  Rb2  1  0.70211156  0.45326099  0.85640928  1
  Rb  Rb3  1  0.66414106  0.03629440  0.36291588  1
  Ti  Ti4  1  0.27702305  0.49886175  0.49982101  1
  Ti  Ti5  1  0.72370457  0.49881553  0.50028653  1
  Ti  Ti6  1  0.22226049  0.99820443  0.00075463  1
  Ti  Ti7  1  0.77858729  0.99822775  0.00073825  1
  P  P8  1  0.66686805  0.75847769  0.09495870  1
  P  P9  1  0.92663637  0.74667278  0.59831788  1
  P  P10  1  0.07649515  0.25106926  0.40196566  1
  P  P11  1  0.33284662  0.23803361  0.90544030  1
  S  S12  1  0.82987760  0.95778526  0.61687574  1
  S  S13  1  0.41094312  0.86489965  0.15310801  1
  S  S14  1  0.87396565  0.86542461  0.15285696  1
  S  S15  1  0.02389764  0.86548649  0.91479167  1
  S  S16  1  0.56011198  0.82590654  0.94813735  1
  S  S17  1  0.89376599  0.66665290  0.45046263  1
  S  S18  1  0.23768702  0.64527841  0.65262702  1
  S  S19  1  0.76981462  0.64534198  0.65236655  1
  S  S20  1  0.39665500  0.62277959  0.41304964  1
  S  S21  1  0.78006927  0.54805833  0.11025734  1
  S  S22  1  0.22097014  0.44815478  0.88930482  1
  S  S23  1  0.60540706  0.37577696  0.58770497  1
  S  S24  1  0.76504256  0.35193411  0.34818383  1
  S  S25  1  0.23040891  0.35364862  0.34677990  1
  S  S26  1  0.11091260  0.33009300  0.54999556  1
  S  S27  1  0.43855465  0.17047898  0.05240354  1
  S  S28  1  0.97748210  0.13037674  0.08703951  1
  S  S29  1  0.12545658  0.13157101  0.84782277  1
  S  S30  1  0.59014496  0.13162311  0.84847432  1
  S  S31  1  0.17384781  0.03918800  0.38368162  1
