# generated using pymatgen
data_LiP3(WO6)2
_symmetry_space_group_name_H-M   'P 1'
_cell_length_a   8.63204933
_cell_length_b   8.64366247
_cell_length_c   9.16660794
_cell_angle_alpha   118.46997309
_cell_angle_beta   90.66071518
_cell_angle_gamma   119.18054438
_symmetry_Int_Tables_number   1
_chemical_formula_structural   LiP3(WO6)2
_chemical_formula_sum   'Li2 P6 W4 O24'
_cell_volume   497.70606878
_cell_formula_units_Z   2
loop_
 _symmetry_equiv_pos_site_id
 _symmetry_equiv_pos_as_xyz
  1  'x, y, z'
loop_
 _atom_site_type_symbol
 _atom_site_label
 _atom_site_symmetry_multiplicity
 _atom_site_fract_x
 _atom_site_fract_y
 _atom_site_fract_z
 _atom_site_occupancy
  Li  Li0  1  0.23215443  0.76723224  0.58121523  1
  Li  Li1  1  0.76784557  0.23276776  0.41878477  1
  P  P2  1  0.24720051  0.71194315  0.25334260  1
  P  P3  1  0.03971446  0.00879294  0.75093714  1
  P  P4  1  0.46494069  0.72090898  0.74801286  1
  P  P5  1  0.53505931  0.27909102  0.25198714  1
  P  P6  1  0.96028554  0.99120706  0.24906286  1
  P  P7  1  0.75279949  0.28805685  0.74665740  1
  W  W8  1  0.13348906  0.79007884  0.93057531  1
  W  W9  1  0.64161121  0.79144958  0.43835903  1
  W  W10  1  0.35838879  0.20855042  0.56164097  1
  W  W11  1  0.86651094  0.20992116  0.06942469  1
  O  O12  1  0.10413142  0.86694277  0.74587206  1
  O  O13  1  0.25451651  0.88687280  0.42957916  1
  O  O14  1  0.18708121  0.70931358  0.09683939  1
  O  O15  1  0.10547744  0.50472534  0.24336500  1
  O  O16  1  0.27753765  0.68657812  0.77778041  1
  O  O17  1  0.02743407  0.12938580  0.93535095  1
  O  O18  1  0.44211762  0.74692845  0.27103100  1
  O  O19  1  0.15941179  0.14286522  0.38246847  1
  O  O20  1  0.46725309  0.76086451  0.59891564  1
  O  O21  1  0.17736672  0.16675190  0.71054837  1
  O  O22  1  0.63022263  0.91113967  0.91591731  1
  O  O23  1  0.46704625  0.52502897  0.69352222  1
  O  O24  1  0.53295375  0.47497103  0.30647778  1
  O  O25  1  0.36977737  0.08886033  0.08408269  1
  O  O26  1  0.82263328  0.83324810  0.28945163  1
  O  O27  1  0.53274691  0.23913549  0.40108436  1
  O  O28  1  0.84058821  0.85713478  0.61753153  1
  O  O29  1  0.55788238  0.25307155  0.72896900  1
  O  O30  1  0.97256593  0.87061420  0.06464905  1
  O  O31  1  0.72246235  0.31342188  0.22221959  1
  O  O32  1  0.89452256  0.49527466  0.75663500  1
  O  O33  1  0.81291879  0.29068642  0.90316061  1
  O  O34  1  0.74548349  0.11312720  0.57042084  1
  O  O35  1  0.89586858  0.13305723  0.25412794  1
