# generated using pymatgen
data_HS2IO8
_symmetry_space_group_name_H-M   'P 1'
_cell_length_a   11.95346950
_cell_length_b   6.36838035
_cell_length_c   9.77857342
_cell_angle_alpha   90.00000000
_cell_angle_beta   106.67379900
_cell_angle_gamma   90.00000000
_symmetry_Int_Tables_number   1
_chemical_formula_structural   HS2IO8
_chemical_formula_sum   'H4 S8 I4 O32'
_cell_volume   713.08785196
_cell_formula_units_Z   4
loop_
 _symmetry_equiv_pos_site_id
 _symmetry_equiv_pos_as_xyz
  1  'x, y, z'
loop_
 _atom_site_type_symbol
 _atom_site_label
 _atom_site_symmetry_multiplicity
 _atom_site_fract_x
 _atom_site_fract_y
 _atom_site_fract_z
 _atom_site_occupancy
  H  H0  1  0.40716315  0.80413712  0.67708147  1
  H  H1  1  0.40716315  0.69586288  0.17708147  1
  H  H2  1  0.59283685  0.30413712  0.82291853  1
  H  H3  1  0.59283685  0.19586288  0.32291853  1
  S  S4  1  0.10771036  0.89121606  0.68008084  1
  S  S5  1  0.10771036  0.60878394  0.18008084  1
  S  S6  1  0.38457721  0.47420564  0.62657809  1
  S  S7  1  0.38457721  0.02579436  0.12657809  1
  S  S8  1  0.61542279  0.97420564  0.87342191  1
  S  S9  1  0.61542279  0.52579436  0.37342191  1
  S  S10  1  0.89228964  0.39121606  0.81991916  1
  S  S11  1  0.89228964  0.10878394  0.31991916  1
  I  I12  1  0.16421612  0.41091484  0.74277229  1
  I  I13  1  0.16421612  0.08908516  0.24277229  1
  I  I14  1  0.83578388  0.91091484  0.75722771  1
  I  I15  1  0.83578388  0.58908516  0.25722771  1
  O  O16  1  0.02892995  0.98955936  0.75711557  1
  O  O17  1  0.05200815  0.78715612  0.54792529  1
  O  O18  1  0.02892995  0.51044064  0.25711557  1
  O  O19  1  0.18035695  0.71940571  0.79325722  1
  O  O20  1  0.05200815  0.71284388  0.04792529  1
  O  O21  1  0.19655774  0.05148774  0.67532153  1
  O  O22  1  0.18035695  0.78059429  0.29325722  1
  O  O23  1  0.19655774  0.44851226  0.17532153  1
  O  O24  1  0.33849672  0.42351760  0.76211329  1
  O  O25  1  0.31770221  0.36325633  0.50382096  1
  O  O26  1  0.35846594  0.71308476  0.59745435  1
  O  O27  1  0.33849672  0.07648240  0.26211329  1
  O  O28  1  0.49060137  0.94079217  0.81837167  1
  O  O29  1  0.31770221  0.13674367  0.00382096  1
  O  O30  1  0.35846594  0.78691524  0.09745435  1
  O  O31  1  0.50939863  0.44079217  0.68162833  1
  O  O32  1  0.49060137  0.55920783  0.31837167  1
  O  O33  1  0.64153406  0.21308476  0.90254565  1
  O  O34  1  0.68229779  0.86325633  0.99617904  1
  O  O35  1  0.50939863  0.05920783  0.18162833  1
  O  O36  1  0.66150328  0.92351760  0.73788671  1
  O  O37  1  0.64153406  0.28691524  0.40254565  1
  O  O38  1  0.68229779  0.63674367  0.49617904  1
  O  O39  1  0.66150328  0.57648240  0.23788671  1
  O  O40  1  0.80344226  0.55148774  0.82467847  1
  O  O41  1  0.81964305  0.21940571  0.70674278  1
  O  O42  1  0.80344226  0.94851226  0.32467847  1
  O  O43  1  0.94799185  0.28715612  0.95207471  1
  O  O44  1  0.81964305  0.28059429  0.20674278  1
  O  O45  1  0.97107005  0.48955936  0.74288443  1
  O  O46  1  0.94799185  0.21284388  0.45207471  1
  O  O47  1  0.97107005  0.01044064  0.24288443  1
