# generated using pymatgen
data_CaAs2H6F18
_symmetry_space_group_name_H-M   'P 1'
_cell_length_a   9.81053058
_cell_length_b   15.13080120
_cell_length_c   9.70463652
_cell_angle_alpha   90.00000000
_cell_angle_beta   108.49201538
_cell_angle_gamma   90.00000000
_symmetry_Int_Tables_number   1
_chemical_formula_structural   CaAs2H6F18
_chemical_formula_sum   'Ca4 As8 H24 F72'
_cell_volume   1366.18818302
_cell_formula_units_Z   4
loop_
 _symmetry_equiv_pos_site_id
 _symmetry_equiv_pos_as_xyz
  1  'x, y, z'
loop_
 _atom_site_type_symbol
 _atom_site_label
 _atom_site_symmetry_multiplicity
 _atom_site_fract_x
 _atom_site_fract_y
 _atom_site_fract_z
 _atom_site_occupancy
  Ca  Ca0  1  0.30947331  0.99219407  0.70258521  1
  Ca  Ca1  1  0.30947331  0.50780593  0.20258521  1
  Ca  Ca2  1  0.69052669  0.49219407  0.79741479  1
  Ca  Ca3  1  0.69052669  0.00780593  0.29741479  1
  As  As4  1  0.10008082  0.32226557  0.58387186  1
  As  As5  1  0.10008082  0.17773443  0.08387186  1
  As  As6  1  0.38750344  0.64975197  0.87689734  1
  As  As7  1  0.38750344  0.85024803  0.37689734  1
  As  As8  1  0.61249656  0.14975197  0.62310266  1
  As  As9  1  0.61249656  0.35024803  0.12310266  1
  As  As10  1  0.89991918  0.82226457  0.91612814  1
  As  As11  1  0.89991918  0.67773543  0.41612814  1
  H  H12  1  0.09295413  0.48026421  0.89103759  1
  H  H13  1  0.07406415  0.05287864  0.83794972  1
  H  H14  1  0.09448245  0.85292609  0.70584233  1
  H  H15  1  0.09295413  0.01973579  0.39103759  1
  H  H16  1  0.07406415  0.44712136  0.33794972  1
  H  H17  1  0.09448245  0.64707391  0.20584233  1
  H  H18  1  0.37521225  0.39938634  0.69035385  1
  H  H19  1  0.45607521  0.15989113  0.83703066  1
  H  H20  1  0.34539043  0.51218333  0.52723109  1
  H  H21  1  0.65460957  0.01218333  0.97276891  1
  H  H22  1  0.54392479  0.65989113  0.66296934  1
  H  H23  1  0.37521225  0.10061366  0.19035385  1
  H  H24  1  0.62478775  0.89938634  0.80964615  1
  H  H25  1  0.45607521  0.34010887  0.33703066  1
  H  H26  1  0.34539043  0.98781667  0.02723109  1
  H  H27  1  0.65460957  0.48781667  0.47276891  1
  H  H28  1  0.54392479  0.84010887  0.16296934  1
  H  H29  1  0.62478775  0.60061366  0.30964615  1
  H  H30  1  0.90551755  0.35292609  0.79415767  1
  H  H31  1  0.92593585  0.55287864  0.66205028  1
  H  H32  1  0.90704587  0.98026421  0.60896241  1
  H  H33  1  0.90551755  0.14707391  0.29415767  1
  H  H34  1  0.92593585  0.94712136  0.16205028  1
  H  H35  1  0.90704587  0.51973579  0.10896241  1
  F  F36  1  0.01233308  0.37580959  0.69878022  1
  F  F37  1  0.07025770  0.03876639  0.73861453  1
  F  F38  1  0.15028862  0.45401967  0.97971201  1
  F  F39  1  0.08555854  0.22165803  0.66427209  1
  F  F40  1  0.20085223  0.22364135  0.98317135  1
  F  F41  1  0.06244264  0.68805048  0.55510181  1
  F  F42  1  0.01233308  0.12419041  0.19878022  1
  F  F43  1  0.11875239  0.43148175  0.51055044  1
  F  F44  1  0.23858477  0.71415721  0.86897026  1
  F  F45  1  0.15692952  0.86881150  0.65048707  1
  F  F46  1  0.31673599  0.94970206  0.94352642  1
  F  F47  1  0.07025770  0.46123361  0.23861453  1
  F  F48  1  0.26930303  0.34759850  0.72748106  1
  F  F49  1  0.15028862  0.04598133  0.47971201  1
  F  F50  1  0.27721842  0.56370364  0.78073816  1
  F  F51  1  0.08555854  0.27834197  0.16427209  1
  F  F52  1  0.20085223  0.27635865  0.48317135  1
  F  F53  1  0.06244264  0.81194952  0.05510181  1
  F  F54  1  0.38234905  0.12036393  0.84776128  1
  F  F55  1  0.11875239  0.06851825  0.01055044  1
  F  F56  1  0.23858477  0.78584279  0.36897026  1
  F  F57  1  0.15692952  0.63118850  0.15048707  1
  F  F58  1  0.40490829  0.69334345  0.71096413  1
  F  F59  1  0.31673599  0.55029794  0.44352642  1
  F  F60  1  0.26930303  0.15240150  0.22748106  1
  F  F61  1  0.50528002  0.73081654  0.97493681  1
  F  F62  1  0.27721842  0.93629636  0.28073816  1
  F  F63  1  0.38623743  0.90024875  0.54576239  1
  F  F64  1  0.54184472  0.58020957  0.88992964  1
  F  F65  1  0.38234905  0.37963607  0.34776128  1
  F  F66  1  0.55776886  0.93935180  0.84011323  1
  F  F67  1  0.44223114  0.43935180  0.65988677  1
  F  F68  1  0.45815528  0.08020957  0.61007036  1
  F  F69  1  0.61376257  0.40024875  0.95423761  1
  F  F70  1  0.40490829  0.80665655  0.21096413  1
  F  F71  1  0.49471998  0.23081654  0.52506319  1
  F  F72  1  0.50528002  0.76918346  0.47493681  1
  F  F73  1  0.59509171  0.19334345  0.78903587  1
  F  F74  1  0.38623743  0.59975125  0.04576239  1
  F  F75  1  0.54184472  0.91979043  0.38992964  1
  F  F76  1  0.55776886  0.56064820  0.34011323  1
  F  F77  1  0.44223114  0.06064820  0.15988677  1
  F  F78  1  0.61765095  0.62036393  0.65223872  1
  F  F79  1  0.45815528  0.41979043  0.11007036  1
  F  F80  1  0.61376257  0.09975125  0.45423761  1
  F  F81  1  0.72278158  0.06370364  0.71926184  1
  F  F82  1  0.49471998  0.26918346  0.02506319  1
  F  F83  1  0.73069697  0.84759850  0.77251894  1
  F  F84  1  0.68326401  0.44970206  0.55647358  1
  F  F85  1  0.59509171  0.30665655  0.28903587  1
  F  F86  1  0.84307048  0.36881150  0.84951293  1
  F  F87  1  0.76141523  0.21415721  0.63102974  1
  F  F88  1  0.88124761  0.93148175  0.98944956  1
  F  F89  1  0.61765095  0.87963607  0.15223872  1
  F  F90  1  0.93755736  0.18805048  0.94489819  1
  F  F91  1  0.79914777  0.72364135  0.51682865  1
  F  F92  1  0.91444146  0.72165803  0.83572791  1
  F  F93  1  0.72278158  0.43629636  0.21926184  1
  F  F94  1  0.84971138  0.95401867  0.52028799  1
  F  F95  1  0.73069697  0.65240150  0.27251894  1
  F  F96  1  0.92974230  0.53876639  0.76138547  1
  F  F97  1  0.68326401  0.05029794  0.05647358  1
  F  F98  1  0.84307048  0.13118850  0.34951293  1
  F  F99  1  0.76141523  0.28584279  0.13102974  1
  F  F100  1  0.88124761  0.56851825  0.48944956  1
  F  F101  1  0.98766692  0.87580959  0.80121978  1
  F  F102  1  0.93755736  0.31194952  0.44489819  1
  F  F103  1  0.79914777  0.77635865  0.01682865  1
  F  F104  1  0.91444146  0.77834197  0.33572791  1
  F  F105  1  0.84971138  0.54598133  0.02028799  1
  F  F106  1  0.92974230  0.96123361  0.26138547  1
  F  F107  1  0.98766692  0.62419041  0.30121978  1
