# generated using pymatgen
data_Ho2TiO5
_symmetry_space_group_name_H-M   'P 1'
_cell_length_a   10.44513292
_cell_length_b   11.24137329
_cell_length_c   3.71577076
_cell_angle_alpha   90.00000000
_cell_angle_beta   90.00000000
_cell_angle_gamma   90.00000000
_symmetry_Int_Tables_number   1
_chemical_formula_structural   Ho2TiO5
_chemical_formula_sum   'Ho8 Ti4 O20'
_cell_volume   436.29702680
_cell_formula_units_Z   4
loop_
 _symmetry_equiv_pos_site_id
 _symmetry_equiv_pos_as_xyz
  1  'x, y, z'
loop_
 _atom_site_type_symbol
 _atom_site_label
 _atom_site_symmetry_multiplicity
 _atom_site_fract_x
 _atom_site_fract_y
 _atom_site_fract_z
 _atom_site_occupancy
  Ho  Ho0  1  0.11221857  0.72359733  0.25000000  1
  Ho  Ho1  1  0.13587734  0.05676982  0.25000000  1
  Ho  Ho2  1  0.36412266  0.55676982  0.75000000  1
  Ho  Ho3  1  0.38778143  0.22359733  0.75000000  1
  Ho  Ho4  1  0.61221857  0.77640267  0.25000000  1
  Ho  Ho5  1  0.63587734  0.44323018  0.25000000  1
  Ho  Ho6  1  0.86412266  0.94323018  0.75000000  1
  Ho  Ho7  1  0.88778143  0.27640267  0.75000000  1
  Ti  Ti8  1  0.17799916  0.37925476  0.25000000  1
  Ti  Ti9  1  0.32200084  0.87925476  0.75000000  1
  Ti  Ti10  1  0.67799916  0.12074524  0.25000000  1
  Ti  Ti11  1  0.82200084  0.62074524  0.75000000  1
  O  O12  1  0.00686690  0.10424075  0.75000000  1
  O  O13  1  0.01147854  0.34099471  0.25000000  1
  O  O14  1  0.22574673  0.54327403  0.25000000  1
  O  O15  1  0.24000270  0.38286111  0.75000000  1
  O  O16  1  0.23729798  0.72817198  0.75000000  1
  O  O17  1  0.26270202  0.22817198  0.25000000  1
  O  O18  1  0.25999730  0.88286111  0.25000000  1
  O  O19  1  0.27425327  0.04327403  0.75000000  1
  O  O20  1  0.48852146  0.84099471  0.75000000  1
  O  O21  1  0.49313310  0.60424075  0.25000000  1
  O  O22  1  0.50686690  0.39575925  0.75000000  1
  O  O23  1  0.51147854  0.15900529  0.25000000  1
  O  O24  1  0.72574673  0.95672597  0.25000000  1
  O  O25  1  0.74000270  0.11713889  0.75000000  1
  O  O26  1  0.73729798  0.77182802  0.75000000  1
  O  O27  1  0.76270202  0.27182802  0.25000000  1
  O  O28  1  0.75999730  0.61713889  0.25000000  1
  O  O29  1  0.77425327  0.45672597  0.75000000  1
  O  O30  1  0.98852146  0.65900529  0.75000000  1
  O  O31  1  0.99313310  0.89575925  0.25000000  1
