# generated using pymatgen
data_Ho2TeO6
_symmetry_space_group_name_H-M   'P 1'
_cell_length_a   5.29975550
_cell_length_b   9.09928224
_cell_length_c   9.98791187
_cell_angle_alpha   90.00000000
_cell_angle_beta   90.00000000
_cell_angle_gamma   90.00000000
_symmetry_Int_Tables_number   1
_chemical_formula_structural   Ho2TeO6
_chemical_formula_sum   'Ho8 Te4 O24'
_cell_volume   481.65677334
_cell_formula_units_Z   4
loop_
 _symmetry_equiv_pos_site_id
 _symmetry_equiv_pos_as_xyz
  1  'x, y, z'
loop_
 _atom_site_type_symbol
 _atom_site_label
 _atom_site_symmetry_multiplicity
 _atom_site_fract_x
 _atom_site_fract_y
 _atom_site_fract_z
 _atom_site_occupancy
  Ho  Ho0  1  0.02538512  0.39688022  0.03930901  1
  Ho  Ho1  1  0.03539194  0.28208558  0.63488636  1
  Ho  Ho2  1  0.46460806  0.71791442  0.13488636  1
  Ho  Ho3  1  0.47461488  0.60311978  0.53930901  1
  Ho  Ho4  1  0.52538512  0.10311978  0.96069099  1
  Ho  Ho5  1  0.53539194  0.21791442  0.36511364  1
  Ho  Ho6  1  0.96460806  0.78208558  0.86511364  1
  Ho  Ho7  1  0.97461488  0.89688022  0.46069099  1
  Te  Te8  1  0.04094476  0.00542433  0.14674138  1
  Te  Te9  1  0.45905524  0.99457567  0.64674138  1
  Te  Te10  1  0.54094476  0.49457567  0.85325862  1
  Te  Te11  1  0.95905524  0.50542433  0.35325862  1
  O  O12  1  0.08085145  0.65556226  0.47520506  1
  O  O13  1  0.17618621  0.54927017  0.20396517  1
  O  O14  1  0.18709471  0.85851087  0.26286748  1
  O  O15  1  0.18077055  0.85734281  0.67893219  1
  O  O16  1  0.22731980  0.38449313  0.43609740  1
  O  O17  1  0.24776566  0.08675122  0.50583297  1
  O  O18  1  0.25223434  0.91324878  0.00583297  1
  O  O19  1  0.27268020  0.61550687  0.93609740  1
  O  O20  1  0.31922945  0.14265719  0.17893219  1
  O  O21  1  0.31290529  0.14148913  0.76286748  1
  O  O22  1  0.32381379  0.45072983  0.70396517  1
  O  O23  1  0.41914855  0.34443774  0.97520506  1
  O  O24  1  0.58085145  0.84443774  0.52479494  1
  O  O25  1  0.67618621  0.95072983  0.79603483  1
  O  O26  1  0.68709471  0.64148913  0.73713252  1
  O  O27  1  0.68077055  0.64265719  0.32106781  1
  O  O28  1  0.72731980  0.11550687  0.56390260  1
  O  O29  1  0.74776566  0.41324878  0.49416703  1
  O  O30  1  0.75223434  0.58675122  0.99416703  1
  O  O31  1  0.77268020  0.88449313  0.06390260  1
  O  O32  1  0.81922945  0.35734281  0.82106781  1
  O  O33  1  0.81290529  0.35851087  0.23713252  1
  O  O34  1  0.82381379  0.04927017  0.29603483  1
  O  O35  1  0.91914855  0.15556226  0.02479494  1
