# generated using pymatgen
data_K2V3(PO5)4
_symmetry_space_group_name_H-M   'P 1'
_cell_length_a   6.27486239
_cell_length_b   11.23261826
_cell_length_c   12.85554465
_cell_angle_alpha   106.62234810
_cell_angle_beta   103.09919201
_cell_angle_gamma   95.97454895
_symmetry_Int_Tables_number   1
_chemical_formula_structural   K2V3(PO5)4
_chemical_formula_sum   'K4 V6 P8 O40'
_cell_volume   831.67528593
_cell_formula_units_Z   2
loop_
 _symmetry_equiv_pos_site_id
 _symmetry_equiv_pos_as_xyz
  1  'x, y, z'
loop_
 _atom_site_type_symbol
 _atom_site_label
 _atom_site_symmetry_multiplicity
 _atom_site_fract_x
 _atom_site_fract_y
 _atom_site_fract_z
 _atom_site_occupancy
  K  K0  1  0.43553443  0.22404949  0.57090078  1
  K  K1  1  0.56446557  0.77595051  0.42909922  1
  K  K2  1  0.19041629  0.09725773  0.22123455  1
  K  K3  1  0.80958371  0.90274227  0.77876545  1
  V  V4  1  0.38769595  0.16998177  0.84245475  1
  V  V5  1  0.61230405  0.83001823  0.15754525  1
  V  V6  1  0.66643542  0.38962467  0.37109632  1
  V  V7  1  0.33356458  0.61037533  0.62890368  1
  V  V8  1  0.03422148  0.38830482  0.09388263  1
  V  V9  1  0.96577852  0.61169518  0.90611737  1
  P  P10  1  0.17818576  0.44768466  0.36555008  1
  P  P11  1  0.82181424  0.55231534  0.63444992  1
  P  P12  1  0.88782682  0.23283659  0.83186098  1
  P  P13  1  0.11217318  0.76716341  0.16813902  1
  P  P14  1  0.52977229  0.34384624  0.10190723  1
  P  P15  1  0.47022771  0.65615376  0.89809277  1
  P  P16  1  0.77895705  0.08686640  0.40105914  1
  P  P17  1  0.22104295  0.91313360  0.59894086  1
  O  O18  1  0.35406732  0.35991069  0.37368457  1
  O  O19  1  0.64593268  0.64008931  0.62631543  1
  O  O20  1  0.96211357  0.36999541  0.36956988  1
  O  O21  1  0.03788643  0.63000459  0.63043012  1
  O  O22  1  0.68357547  0.53323509  0.37025159  1
  O  O23  1  0.31642453  0.46676491  0.62974841  1
  O  O24  1  0.62366452  0.17537293  0.36843271  1
  O  O25  1  0.37633548  0.82462707  0.63156729  1
  O  O26  1  0.56116151  0.30446465  0.21034848  1
  O  O27  1  0.43883849  0.69553535  0.78965152  1
  O  O28  1  0.74567342  0.42628158  0.53533778  1
  O  O29  1  0.25432658  0.57371842  0.46466222  1
  O  O30  1  0.07916503  0.15405194  0.84719609  1
  O  O31  1  0.92083497  0.84594806  0.15280391  1
  O  O32  1  0.68935001  0.14588375  0.84594170  1
  O  O33  1  0.31064999  0.85411625  0.15405830  1
  O  O34  1  0.40235430  0.30070328  0.81286399  1
  O  O35  1  0.59764570  0.69929672  0.18713601  1
  O  O36  1  0.30648307  0.97954147  0.84696956  1
  O  O37  1  0.69351693  0.02045853  0.15303044  1
  O  O38  1  0.29219162  0.04836342  0.69315747  1
  O  O39  1  0.70780838  0.95163658  0.30684253  1
  O  O40  1  0.47000568  0.21814373  0.00348615  1
  O  O41  1  0.52999432  0.78185627  0.99651385  1
  O  O42  1  0.95014916  0.36114292  0.93585618  1
  O  O43  1  0.04985084  0.63885708  0.06414382  1
  O  O44  1  0.14153656  0.47847115  0.25429565  1
  O  O45  1  0.85846344  0.52152885  0.74570435  1
  O  O46  1  0.74556402  0.42539881  0.10275876  1
  O  O47  1  0.25443598  0.57460119  0.89724124  1
  O  O48  1  0.00695629  0.24468673  0.09420522  1
  O  O49  1  0.99304371  0.75531327  0.90579478  1
  O  O50  1  0.34060693  0.42143957  0.09180876  1
  O  O51  1  0.65939307  0.57856043  0.90819124  1
  O  O52  1  0.84121713  0.26042130  0.72317148  1
  O  O53  1  0.15878287  0.73957870  0.27682852  1
  O  O54  1  0.74101723  0.05840405  0.50672198  1
  O  O55  1  0.25898277  0.94159595  0.49327802  1
  O  O56  1  0.02412917  0.13565845  0.41814350  1
  O  O57  1  0.97587083  0.86434155  0.58185650  1
