# generated using pymatgen
data_Dy2(SeO4)3
_symmetry_space_group_name_H-M   'P 1'
_cell_length_a   13.47649225
_cell_length_b   9.69624341
_cell_length_c   9.78577251
_cell_angle_alpha   90.00000000
_cell_angle_beta   90.00000000
_cell_angle_gamma   90.00000000
_symmetry_Int_Tables_number   1
_chemical_formula_structural   Dy2(SeO4)3
_chemical_formula_sum   'Dy8 Se12 O48'
_cell_volume   1278.72009654
_cell_formula_units_Z   4
loop_
 _symmetry_equiv_pos_site_id
 _symmetry_equiv_pos_as_xyz
  1  'x, y, z'
loop_
 _atom_site_type_symbol
 _atom_site_label
 _atom_site_symmetry_multiplicity
 _atom_site_fract_x
 _atom_site_fract_y
 _atom_site_fract_z
 _atom_site_occupancy
  Dy  Dy0  1  0.11776550  0.24979117  0.96236016  1
  Dy  Dy1  1  0.11776550  0.75020883  0.46236016  1
  Dy  Dy2  1  0.38223450  0.25020883  0.46236016  1
  Dy  Dy3  1  0.38223450  0.74979117  0.96236016  1
  Dy  Dy4  1  0.61776550  0.25020883  0.03763984  1
  Dy  Dy5  1  0.61776550  0.74979117  0.53763984  1
  Dy  Dy6  1  0.88223450  0.24979117  0.53763984  1
  Dy  Dy7  1  0.88223450  0.75020883  0.03763984  1
  Se  Se8  1  0.00000000  0.03509929  0.25000000  1
  Se  Se9  1  0.00000000  0.96490071  0.75000000  1
  Se  Se10  1  0.14666014  0.39397387  0.61151367  1
  Se  Se11  1  0.14666014  0.60602613  0.11151367  1
  Se  Se12  1  0.35333986  0.10602613  0.11151367  1
  Se  Se13  1  0.35333986  0.89397387  0.61151367  1
  Se  Se14  1  0.50000000  0.46490071  0.75000000  1
  Se  Se15  1  0.50000000  0.53509929  0.25000000  1
  Se  Se16  1  0.64666014  0.10602613  0.38848633  1
  Se  Se17  1  0.64666014  0.89397387  0.88848633  1
  Se  Se18  1  0.85333986  0.39397387  0.88848633  1
  Se  Se19  1  0.85333986  0.60602613  0.38848633  1
  O  O20  1  0.03467897  0.66697520  0.07434704  1
  O  O21  1  0.03467897  0.33302480  0.57434704  1
  O  O22  1  0.06457466  0.86514969  0.64519767  1
  O  O23  1  0.06457466  0.13485031  0.14519767  1
  O  O24  1  0.08025503  0.06190726  0.83621009  1
  O  O25  1  0.08025503  0.93809274  0.33621009  1
  O  O26  1  0.14848562  0.43567424  0.09447185  1
  O  O27  1  0.14848562  0.56432576  0.59447185  1
  O  O28  1  0.17635512  0.35619886  0.77244256  1
  O  O29  1  0.17635512  0.64380114  0.27244256  1
  O  O30  1  0.22704996  0.32269200  0.50378640  1
  O  O31  1  0.22704996  0.67730800  0.00378640  1
  O  O32  1  0.27295004  0.17730800  0.00378640  1
  O  O33  1  0.27295004  0.82269200  0.50378640  1
  O  O34  1  0.32364488  0.85619886  0.77244256  1
  O  O35  1  0.32364488  0.14380114  0.27244256  1
  O  O36  1  0.35151438  0.06432576  0.59447185  1
  O  O37  1  0.35151438  0.93567424  0.09447185  1
  O  O38  1  0.41974497  0.43809274  0.33621009  1
  O  O39  1  0.41974497  0.56190726  0.83621009  1
  O  O40  1  0.43542534  0.36514969  0.64519767  1
  O  O41  1  0.43542534  0.63485031  0.14519767  1
  O  O42  1  0.46532103  0.16697520  0.07434704  1
  O  O43  1  0.46532103  0.83302480  0.57434704  1
  O  O44  1  0.53467897  0.16697520  0.42565296  1
  O  O45  1  0.53467897  0.83302480  0.92565296  1
  O  O46  1  0.56457466  0.63485031  0.35480233  1
  O  O47  1  0.56457466  0.36514969  0.85480233  1
  O  O48  1  0.58025503  0.43809274  0.16378991  1
  O  O49  1  0.58025503  0.56190726  0.66378991  1
  O  O50  1  0.64848562  0.06432576  0.90552815  1
  O  O51  1  0.64848562  0.93567424  0.40552815  1
  O  O52  1  0.67635512  0.14380114  0.22755744  1
  O  O53  1  0.67635512  0.85619886  0.72755744  1
  O  O54  1  0.72704996  0.17730800  0.49621360  1
  O  O55  1  0.72704996  0.82269200  0.99621360  1
  O  O56  1  0.77295004  0.32269200  0.99621360  1
  O  O57  1  0.77295004  0.67730800  0.49621360  1
  O  O58  1  0.82364488  0.35619886  0.72755744  1
  O  O59  1  0.82364488  0.64380114  0.22755744  1
  O  O60  1  0.85151438  0.43567424  0.40552815  1
  O  O61  1  0.85151438  0.56432576  0.90552815  1
  O  O62  1  0.91974497  0.06190726  0.66378991  1
  O  O63  1  0.91974497  0.93809274  0.16378991  1
  O  O64  1  0.93542534  0.13485031  0.35480233  1
  O  O65  1  0.93542534  0.86514969  0.85480233  1
  O  O66  1  0.96532103  0.33302480  0.92565296  1
  O  O67  1  0.96532103  0.66697520  0.42565296  1
