# generated using pymatgen
data_Li3Bi(BO3)2
_symmetry_space_group_name_H-M   'P 1'
_cell_length_a   8.98539076
_cell_length_b   6.54328663
_cell_length_c   10.09553171
_cell_angle_alpha   90.00000000
_cell_angle_beta   64.99472034
_cell_angle_gamma   90.00000000
_symmetry_Int_Tables_number   1
_chemical_formula_structural   Li3Bi(BO3)2
_chemical_formula_sum   'Li12 Bi4 B8 O24'
_cell_volume   537.92181730
_cell_formula_units_Z   4
loop_
 _symmetry_equiv_pos_site_id
 _symmetry_equiv_pos_as_xyz
  1  'x, y, z'
loop_
 _atom_site_type_symbol
 _atom_site_label
 _atom_site_symmetry_multiplicity
 _atom_site_fract_x
 _atom_site_fract_y
 _atom_site_fract_z
 _atom_site_occupancy
  Li  Li0  1  0.12924988  0.25627959  0.47922985  1
  Li  Li1  1  0.03819930  0.56400842  0.66806606  1
  Li  Li2  1  0.37075012  0.75627959  0.02077015  1
  Li  Li3  1  0.29584196  0.78309532  0.54525194  1
  Li  Li4  1  0.53819930  0.93599158  0.16806606  1
  Li  Li5  1  0.20415804  0.28309532  0.95474806  1
  Li  Li6  1  0.79584196  0.71690468  0.04525194  1
  Li  Li7  1  0.46180070  0.06400842  0.83193394  1
  Li  Li8  1  0.70415804  0.21690468  0.45474806  1
  Li  Li9  1  0.62924988  0.24372041  0.97922985  1
  Li  Li10  1  0.96180070  0.43599158  0.33193394  1
  Li  Li11  1  0.87075012  0.74372041  0.52077015  1
  Bi  Bi12  1  0.01019490  0.02901623  0.80046101  1
  Bi  Bi13  1  0.51019490  0.47098377  0.30046101  1
  Bi  Bi14  1  0.48980510  0.52901623  0.69953899  1
  Bi  Bi15  1  0.98980510  0.97098377  0.19953899  1
  B  B16  1  0.28559046  0.16443567  0.17528460  1
  B  B17  1  0.21440954  0.66443567  0.32471540  1
  B  B18  1  0.15874653  0.66935791  0.89003210  1
  B  B19  1  0.34125347  0.16935791  0.60996790  1
  B  B20  1  0.65874653  0.83064209  0.39003210  1
  B  B21  1  0.84125347  0.33064209  0.10996790  1
  B  B22  1  0.78559046  0.33556433  0.67528460  1
  B  B23  1  0.71440954  0.83556433  0.82471540  1
  O  O24  1  0.06595586  0.70549774  0.31878418  1
  O  O25  1  0.13227397  0.21168290  0.28733254  1
  O  O26  1  0.28609002  0.06488000  0.05175826  1
  O  O27  1  0.21390998  0.56488000  0.44824174  1
  O  O28  1  0.36772603  0.71168290  0.21266746  1
  O  O29  1  0.02134677  0.77629418  0.98392930  1
  O  O30  1  0.23885891  0.06969536  0.56017691  1
  O  O31  1  0.43404414  0.20549774  0.18121582  1
  O  O32  1  0.19586838  0.67309455  0.74148966  1
  O  O33  1  0.30413162  0.17309455  0.75851034  1
  O  O34  1  0.26114109  0.56969536  0.93982309  1
  O  O35  1  0.47865323  0.27629418  0.51607070  1
  O  O36  1  0.52134677  0.72370582  0.48392930  1
  O  O37  1  0.73885891  0.43030464  0.06017691  1
  O  O38  1  0.69586838  0.82690545  0.24148966  1
  O  O39  1  0.80413162  0.32690545  0.25851034  1
  O  O40  1  0.56595586  0.79450226  0.81878418  1
  O  O41  1  0.76114109  0.93030464  0.43982309  1
  O  O42  1  0.97865323  0.22370582  0.01607070  1
  O  O43  1  0.63227397  0.28831710  0.78733254  1
  O  O44  1  0.78609002  0.43512000  0.55175826  1
  O  O45  1  0.71390998  0.93512000  0.94824174  1
  O  O46  1  0.86772603  0.78831710  0.71266746  1
  O  O47  1  0.93404414  0.29450226  0.68121582  1
