# generated using pymatgen
data_Li4TiS4
_symmetry_space_group_name_H-M   'P 1'
_cell_length_a   14.31128273
_cell_length_b   7.84546346
_cell_length_c   6.19996798
_cell_angle_alpha   90.00000000
_cell_angle_beta   90.00000000
_cell_angle_gamma   90.00000000
_symmetry_Int_Tables_number   1
_chemical_formula_structural   Li4TiS4
_chemical_formula_sum   'Li16 Ti4 S16'
_cell_volume   696.12400833
_cell_formula_units_Z   4
loop_
 _symmetry_equiv_pos_site_id
 _symmetry_equiv_pos_as_xyz
  1  'x, y, z'
loop_
 _atom_site_type_symbol
 _atom_site_label
 _atom_site_symmetry_multiplicity
 _atom_site_fract_x
 _atom_site_fract_y
 _atom_site_fract_z
 _atom_site_occupancy
  Li  Li0  1  0.00000000  0.00000000  0.50000000  1
  Li  Li1  1  0.00000000  0.50000000  0.50000000  1
  Li  Li2  1  0.08719928  0.25000000  0.86873648  1
  Li  Li3  1  0.17779462  0.49985693  0.30429063  1
  Li  Li4  1  0.17779462  0.00014307  0.30429063  1
  Li  Li5  1  0.32220538  0.99985693  0.80429063  1
  Li  Li6  1  0.32220538  0.50014307  0.80429063  1
  Li  Li7  1  0.41280072  0.75000000  0.36873648  1
  Li  Li8  1  0.50000000  0.00000000  0.00000000  1
  Li  Li9  1  0.50000000  0.50000000  0.00000000  1
  Li  Li10  1  0.58719928  0.25000000  0.63126352  1
  Li  Li11  1  0.67779462  0.49985693  0.19570937  1
  Li  Li12  1  0.67779462  0.00014307  0.19570937  1
  Li  Li13  1  0.82220538  0.99985693  0.69570937  1
  Li  Li14  1  0.82220538  0.50014307  0.69570937  1
  Li  Li15  1  0.91280072  0.75000000  0.13126352  1
  Ti  Ti16  1  0.08850579  0.75000000  0.84788563  1
  Ti  Ti17  1  0.41149421  0.25000000  0.34788563  1
  Ti  Ti18  1  0.58850579  0.75000000  0.65211437  1
  Ti  Ti19  1  0.91149421  0.25000000  0.15211437  1
  S  S20  1  0.06370539  0.25000000  0.26418393  1
  S  S21  1  0.08245857  0.75000000  0.21366888  1
  S  S22  1  0.15682361  0.50925647  0.71739652  1
  S  S23  1  0.15682361  0.99074353  0.71739652  1
  S  S24  1  0.34317639  0.00925647  0.21739652  1
  S  S25  1  0.34317639  0.49074353  0.21739652  1
  S  S26  1  0.41754143  0.25000000  0.71366888  1
  S  S27  1  0.43629461  0.75000000  0.76418393  1
  S  S28  1  0.56370539  0.25000000  0.23581607  1
  S  S29  1  0.58245857  0.75000000  0.28633112  1
  S  S30  1  0.65682361  0.50925647  0.78260348  1
  S  S31  1  0.65682361  0.99074353  0.78260348  1
  S  S32  1  0.84317639  0.00925647  0.28260348  1
  S  S33  1  0.84317639  0.49074353  0.28260348  1
  S  S34  1  0.91754143  0.25000000  0.78633112  1
  S  S35  1  0.93629461  0.75000000  0.73581607  1
