# generated using pymatgen
data_Li5Ti6FeO16
_symmetry_space_group_name_H-M   'P 1'
_cell_length_a   8.43845065
_cell_length_b   8.43873180
_cell_length_c   8.43666944
_cell_angle_alpha   90.00027458
_cell_angle_beta   90.00013020
_cell_angle_gamma   90.03571366
_symmetry_Int_Tables_number   1
_chemical_formula_structural   Li5Ti6FeO16
_chemical_formula_sum   'Li10 Ti12 Fe2 O32'
_cell_volume   600.77361103
_cell_formula_units_Z   2
loop_
 _symmetry_equiv_pos_site_id
 _symmetry_equiv_pos_as_xyz
  1  'x, y, z'
loop_
 _atom_site_type_symbol
 _atom_site_label
 _atom_site_symmetry_multiplicity
 _atom_site_fract_x
 _atom_site_fract_y
 _atom_site_fract_z
 _atom_site_occupancy
  Li  Li0  1  0.00188537  0.49693207  0.50363246  1
  Li  Li1  1  0.12538557  0.87438776  0.37506684  1
  Li  Li2  1  0.24673654  0.74578447  0.75136466  1
  Li  Li3  1  0.25326285  0.25421683  0.25136747  1
  Li  Li4  1  0.37461602  0.12561469  0.87506304  1
  Li  Li5  1  0.49811691  0.50306796  0.00363187  1
  Li  Li6  1  0.62587668  0.62510574  0.62504304  1
  Li  Li7  1  0.74840264  0.75026459  0.24702757  1
  Li  Li8  1  0.75159515  0.24973761  0.74703001  1
  Li  Li9  1  0.87412053  0.37489459  0.12504367  1
  Ti  Ti10  1  0.11381073  0.61637552  0.13619802  1
  Ti  Ti11  1  0.12930042  0.37799457  0.88090482  1
  Ti  Ti12  1  0.12717116  0.12015956  0.62077050  1
  Ti  Ti13  1  0.37282867  0.87984782  0.12076839  1
  Ti  Ti14  1  0.37070866  0.62200885  0.38089176  1
  Ti  Ti15  1  0.38617933  0.38363733  0.63619373  1
  Ti  Ti16  1  0.61351872  0.87186963  0.87316985  1
  Ti  Ti17  1  0.61573480  0.13745774  0.11027605  1
  Ti  Ti18  1  0.63427630  0.39086606  0.37564389  1
  Ti  Ti19  1  0.86572518  0.60913316  0.87563875  1
  Ti  Ti20  1  0.88426381  0.86254437  0.61027781  1
  Ti  Ti21  1  0.88648077  0.12813073  0.37317011  1
  Fe  Fe22  1  0.50353270  0.00186205  0.49771394  1
  Fe  Fe23  1  0.99648300  0.99815305  0.99771908  1
  O  O24  1  0.10787270  0.12553185  0.39072229  1
  O  O25  1  0.10932228  0.89334648  0.62659441  1
  O  O26  1  0.11227086  0.60753147  0.88778796  1
  O  O27  1  0.12599446  0.39158380  0.10802781  1
  O  O28  1  0.11875614  0.13692247  0.86552772  1
  O  O29  1  0.14155308  0.35469042  0.64163178  1
  O  O30  1  0.14036487  0.62644001  0.35787608  1
  O  O31  1  0.13793400  0.86754004  0.11878210  1
  O  O32  1  0.36206063  0.13245879  0.61878651  1
  O  O33  1  0.35963588  0.37356046  0.85787762  1
  O  O34  1  0.35844661  0.64531241  0.14163425  1
  O  O35  1  0.38124588  0.86308683  0.36552697  1
  O  O36  1  0.37400007  0.60842004  0.60802492  1
  O  O37  1  0.38772820  0.39247095  0.38778636  1
  O  O38  1  0.39067521  0.10665794  0.12659383  1
  O  O39  1  0.39212675  0.87446855  0.89072122  1
  O  O40  1  0.60624215  0.37256302  0.60780616  1
  O  O41  1  0.60898892  0.60778547  0.37388866  1
  O  O42  1  0.60836073  0.88722323  0.10871984  1
  O  O43  1  0.62619474  0.10947066  0.89308685  1
  O  O44  1  0.62513991  0.35520513  0.14340312  1
  O  O45  1  0.63469399  0.13104732  0.36546440  1
  O  O46  1  0.63638504  0.88226598  0.63918514  1
  O  O47  1  0.64380257  0.64508665  0.87472763  1
  O  O48  1  0.85619757  0.35491366  0.37473349  1
  O  O49  1  0.86361214  0.11773317  0.13918802  1
  O  O50  1  0.86530886  0.86895742  0.86546466  1
  O  O51  1  0.87486278  0.64479584  0.64340064  1
  O  O52  1  0.87380820  0.89053059  0.39308436  1
  O  O53  1  0.89163632  0.11277820  0.60871957  1
  O  O54  1  0.89101402  0.39221528  0.87388904  1
  O  O55  1  0.89375095  0.62743712  0.10780724  1
