# generated using pymatgen
data_Y2(SeO4)3
_symmetry_space_group_name_H-M   'P 1'
_cell_length_a   13.50099383
_cell_length_b   9.71360524
_cell_length_c   9.80012430
_cell_angle_alpha   90.00000000
_cell_angle_beta   90.00000000
_cell_angle_gamma   90.00000000
_symmetry_Int_Tables_number   1
_chemical_formula_structural   Y2(SeO4)3
_chemical_formula_sum   'Y8 Se12 O48'
_cell_volume   1285.22088036
_cell_formula_units_Z   4
loop_
 _symmetry_equiv_pos_site_id
 _symmetry_equiv_pos_as_xyz
  1  'x, y, z'
loop_
 _atom_site_type_symbol
 _atom_site_label
 _atom_site_symmetry_multiplicity
 _atom_site_fract_x
 _atom_site_fract_y
 _atom_site_fract_z
 _atom_site_occupancy
  Y  Y0  1  0.11765435  0.24983231  0.96229872  1
  Y  Y1  1  0.11765435  0.75016769  0.46229872  1
  Y  Y2  1  0.38234565  0.25016769  0.46229872  1
  Y  Y3  1  0.38234565  0.74983231  0.96229872  1
  Y  Y4  1  0.61765435  0.25016769  0.03770128  1
  Y  Y5  1  0.61765435  0.74983231  0.53770128  1
  Y  Y6  1  0.88234565  0.24983231  0.53770128  1
  Y  Y7  1  0.88234565  0.75016769  0.03770128  1
  Se  Se8  1  0.00000000  0.03513801  0.25000000  1
  Se  Se9  1  0.00000000  0.96486199  0.75000000  1
  Se  Se10  1  0.14683303  0.39394751  0.61157519  1
  Se  Se11  1  0.14683303  0.60605249  0.11157519  1
  Se  Se12  1  0.35316697  0.10605249  0.11157519  1
  Se  Se13  1  0.35316697  0.89394751  0.61157519  1
  Se  Se14  1  0.50000000  0.46486199  0.75000000  1
  Se  Se15  1  0.50000000  0.53513801  0.25000000  1
  Se  Se16  1  0.64683303  0.10605249  0.38842481  1
  Se  Se17  1  0.64683303  0.89394751  0.88842481  1
  Se  Se18  1  0.85316697  0.39394751  0.88842481  1
  Se  Se19  1  0.85316697  0.60605249  0.38842481  1
  O  O20  1  0.03479697  0.66677923  0.07472290  1
  O  O21  1  0.03479697  0.33322077  0.57472290  1
  O  O22  1  0.06466400  0.86529562  0.64547691  1
  O  O23  1  0.06466400  0.13470438  0.14547691  1
  O  O24  1  0.08021038  0.06165146  0.83598220  1
  O  O25  1  0.08021038  0.93834854  0.33598220  1
  O  O26  1  0.14866790  0.43586544  0.09468169  1
  O  O27  1  0.14866790  0.56413456  0.59468169  1
  O  O28  1  0.17647857  0.35629759  0.77213123  1
  O  O29  1  0.17647857  0.64370241  0.27213123  1
  O  O30  1  0.22681344  0.32272424  0.50367192  1
  O  O31  1  0.22681344  0.67727576  0.00367192  1
  O  O32  1  0.27318656  0.17727576  0.00367192  1
  O  O33  1  0.27318656  0.82272424  0.50367192  1
  O  O34  1  0.32352243  0.85629759  0.77213123  1
  O  O35  1  0.32352243  0.14370241  0.27213123  1
  O  O36  1  0.35133210  0.06413456  0.59468169  1
  O  O37  1  0.35133210  0.93586544  0.09468169  1
  O  O38  1  0.41978962  0.43834854  0.33598220  1
  O  O39  1  0.41978962  0.56165146  0.83598220  1
  O  O40  1  0.43533600  0.36529562  0.64547691  1
  O  O41  1  0.43533600  0.63470438  0.14547691  1
  O  O42  1  0.46520303  0.16677923  0.07472290  1
  O  O43  1  0.46520303  0.83322077  0.57472290  1
  O  O44  1  0.53479697  0.16677923  0.42527710  1
  O  O45  1  0.53479697  0.83322077  0.92527710  1
  O  O46  1  0.56466400  0.63470438  0.35452309  1
  O  O47  1  0.56466400  0.36529562  0.85452309  1
  O  O48  1  0.58021038  0.43834854  0.16401780  1
  O  O49  1  0.58021038  0.56165146  0.66401780  1
  O  O50  1  0.64866790  0.06413456  0.90531831  1
  O  O51  1  0.64866790  0.93586544  0.40531831  1
  O  O52  1  0.67647857  0.14370241  0.22786877  1
  O  O53  1  0.67647857  0.85629759  0.72786877  1
  O  O54  1  0.72681344  0.17727576  0.49632808  1
  O  O55  1  0.72681344  0.82272424  0.99632808  1
  O  O56  1  0.77318656  0.32272424  0.99632808  1
  O  O57  1  0.77318656  0.67727576  0.49632808  1
  O  O58  1  0.82352143  0.35629759  0.72786877  1
  O  O59  1  0.82352143  0.64370241  0.22786877  1
  O  O60  1  0.85133210  0.43586544  0.40531831  1
  O  O61  1  0.85133210  0.56413456  0.90531831  1
  O  O62  1  0.91978962  0.06165146  0.66401780  1
  O  O63  1  0.91978962  0.93834854  0.16401780  1
  O  O64  1  0.93533600  0.13470438  0.35452309  1
  O  O65  1  0.93533600  0.86529562  0.85452309  1
  O  O66  1  0.96520303  0.33322077  0.92527710  1
  O  O67  1  0.96520303  0.66677923  0.42527710  1
