# generated using pymatgen
data_Ti4(Ni5O8)3
_symmetry_space_group_name_H-M   'P 1'
_cell_length_a   5.95184566
_cell_length_b   5.95184566
_cell_length_c   14.50415751
_cell_angle_alpha   90.00006631
_cell_angle_beta   89.99993369
_cell_angle_gamma   120.00006343
_symmetry_Int_Tables_number   1
_chemical_formula_structural   Ti4(Ni5O8)3
_chemical_formula_sum   'Ti4 Ni15 O24'
_cell_volume   444.96533926
_cell_formula_units_Z   1
loop_
 _symmetry_equiv_pos_site_id
 _symmetry_equiv_pos_as_xyz
  1  'x, y, z'
loop_
 _atom_site_type_symbol
 _atom_site_label
 _atom_site_symmetry_multiplicity
 _atom_site_fract_x
 _atom_site_fract_y
 _atom_site_fract_z
 _atom_site_occupancy
  Ti  Ti0  1  0.83333364  0.66666636  0.04401655  1
  Ti  Ti1  1  0.16666674  0.33333326  0.70937539  1
  Ti  Ti2  1  0.16666671  0.33333329  0.95729390  1
  Ti  Ti3  1  0.49999960  0.00000040  0.62264828  1
  Ni  Ni4  1  0.33143436  0.66286592  0.16591835  1
  Ni  Ni5  1  0.16666730  0.83333362  0.33334201  1
  Ni  Ni6  1  0.00190951  0.49809049  0.50073122  1
  Ni  Ni7  1  0.49999999  0.00000001  0.00024770  1
  Ni  Ni8  1  0.33143262  0.16856738  0.16591828  1
  Ni  Ni9  1  0.66666624  0.83333376  0.33334216  1
  Ni  Ni10  1  0.16666662  0.33333338  0.33334376  1
  Ni  Ni11  1  0.00190860  0.00381870  0.50073138  1
  Ni  Ni12  1  0.66666638  0.33333270  0.33334201  1
  Ni  Ni13  1  0.83713408  0.16856564  0.16591835  1
  Ni  Ni14  1  0.16666694  0.83333300  0.83334230  1
  Ni  Ni15  1  0.49618130  0.49809140  0.50073138  1
  Ni  Ni16  1  0.83333272  0.66666728  0.66640682  1
  Ni  Ni17  1  0.66666640  0.83333360  0.83334222  1
  Ni  Ni18  1  0.66666700  0.33333306  0.83334230  1
  O  O19  1  0.17252796  0.83626352  0.08508238  1
  O  O20  1  0.66373547  0.83626453  0.08508263  1
  O  O21  1  0.01669891  0.48330109  0.25835209  1
  O  O22  1  0.16666635  0.33333365  0.08416867  1
  O  O23  1  0.16081405  0.83040747  0.58158374  1
  O  O24  1  0.46660342  0.48330163  0.25835207  1
  O  O25  1  0.01669837  0.03339658  0.25835207  1
  O  O26  1  0.31663582  0.63327162  0.40831093  1
  O  O27  1  0.66373648  0.32747204  0.08508238  1
  O  O28  1  0.50000002  -0.00000002  0.24939831  1
  O  O29  1  0.31663572  0.18336428  0.40831100  1
  O  O30  1  0.16666733  0.33333267  0.58250108  1
  O  O31  1  0.66959318  0.83040682  0.58158349  1
  O  O32  1  0.83333316  0.66666684  0.41726712  1
  O  O33  1  0.33627175  0.67254410  0.91576545  1
  O  O34  1  0.66959253  0.33918595  0.58158374  1
  O  O35  1  0.50587275  0.50293608  0.75090446  1
  O  O36  1  0.99706392  0.99412725  0.75090446  1
  O  O37  1  0.86672838  0.18336418  0.40831093  1
  O  O38  1  0.83333348  0.66666652  0.91628652  1
  O  O39  1  0.99706310  0.50293690  0.75090453  1
  O  O40  1  0.49999969  0.00000031  0.75038090  1
  O  O41  1  0.33627250  0.16372750  0.91576524  1
  O  O42  1  0.82745590  0.16372825  0.91576545  1
