# generated using pymatgen
data_Cs3ScO3
_symmetry_space_group_name_H-M   'P 1'
_cell_length_a   11.92277037
_cell_length_b   7.41480653
_cell_length_c   8.21137728
_cell_angle_alpha   90.00000000
_cell_angle_beta   96.28956578
_cell_angle_gamma   90.00000000
_symmetry_Int_Tables_number   1
_chemical_formula_structural   Cs3ScO3
_chemical_formula_sum   'Cs12 Sc4 O12'
_cell_volume   721.55768948
_cell_formula_units_Z   4
loop_
 _symmetry_equiv_pos_site_id
 _symmetry_equiv_pos_as_xyz
  1  'x, y, z'
loop_
 _atom_site_type_symbol
 _atom_site_label
 _atom_site_symmetry_multiplicity
 _atom_site_fract_x
 _atom_site_fract_y
 _atom_site_fract_z
 _atom_site_occupancy
  Cs  Cs0  1  0.07317578  0.33197171  0.65080932  1
  Cs  Cs1  1  0.15574551  0.62025924  0.04786982  1
  Cs  Cs2  1  0.19434545  0.82175541  0.62360237  1
  Cs  Cs3  1  0.30565455  0.32175541  0.37639763  1
  Cs  Cs4  1  0.34425449  0.12025924  0.95213018  1
  Cs  Cs5  1  0.42682422  0.83197171  0.34919068  1
  Cs  Cs6  1  0.57317578  0.16802829  0.65080932  1
  Cs  Cs7  1  0.65574551  0.87974076  0.04786982  1
  Cs  Cs8  1  0.69434545  0.67824459  0.62360237  1
  Cs  Cs9  1  0.80565455  0.17824459  0.37639763  1
  Cs  Cs10  1  0.84425449  0.37974076  0.95213018  1
  Cs  Cs11  1  0.92682422  0.66802829  0.34919068  1
  Sc  Sc12  1  0.06485149  0.08147017  0.15144155  1
  Sc  Sc13  1  0.43514851  0.58147017  0.84855845  1
  Sc  Sc14  1  0.56485149  0.41852983  0.15144155  1
  Sc  Sc15  1  0.93514851  0.91852983  0.84855845  1
  O  O16  1  0.04192978  0.32605253  0.24075391  1
  O  O17  1  0.08512699  0.05438338  0.90435032  1
  O  O18  1  0.18417115  0.94921407  0.28716170  1
  O  O19  1  0.31582885  0.44921407  0.71283830  1
  O  O20  1  0.41487301  0.55438338  0.09564968  1
  O  O21  1  0.45807022  0.82605253  0.75924609  1
  O  O22  1  0.54192978  0.17394747  0.24075391  1
  O  O23  1  0.58512699  0.44561662  0.90435032  1
  O  O24  1  0.68417115  0.55078593  0.28716170  1
  O  O25  1  0.81582885  0.05078593  0.71283830  1
  O  O26  1  0.91487301  0.94561662  0.09564968  1
  O  O27  1  0.95807022  0.67394747  0.75924609  1
