# generated using pymatgen
data_Li2Mn3(SeO3)4
_symmetry_space_group_name_H-M   'P 1'
_cell_length_a   7.69999239
_cell_length_b   8.54762980
_cell_length_c   10.80446706
_cell_angle_alpha   74.15323242
_cell_angle_beta   88.11800702
_cell_angle_gamma   63.97172309
_symmetry_Int_Tables_number   1
_chemical_formula_structural   Li2Mn3(SeO3)4
_chemical_formula_sum   'Li4 Mn6 Se8 O24'
_cell_volume   611.58662135
_cell_formula_units_Z   2
loop_
 _symmetry_equiv_pos_site_id
 _symmetry_equiv_pos_as_xyz
  1  'x, y, z'
loop_
 _atom_site_type_symbol
 _atom_site_label
 _atom_site_symmetry_multiplicity
 _atom_site_fract_x
 _atom_site_fract_y
 _atom_site_fract_z
 _atom_site_occupancy
  Li  Li0  1  0.24880736  0.54379176  0.07040329  1
  Li  Li1  1  0.35161369  0.54508954  0.58426695  1
  Li  Li2  1  0.64838631  0.45491046  0.41573305  1
  Li  Li3  1  0.75119264  0.45620824  0.92959671  1
  Mn  Mn4  1  0.00000000  0.00000000  0.00000000  1
  Mn  Mn5  1  0.00000000  0.00000000  0.50000000  1
  Mn  Mn6  1  0.06114489  0.28395621  0.21675711  1
  Mn  Mn7  1  0.05456943  0.62591514  0.32667370  1
  Mn  Mn8  1  0.94543057  0.37408486  0.67332630  1
  Mn  Mn9  1  0.93885511  0.71604379  0.78324289  1
  Se  Se10  1  0.28782259  0.21223660  0.52085538  1
  Se  Se11  1  0.27305557  0.24579126  0.93284543  1
  Se  Se12  1  0.32328943  0.74118122  0.79551668  1
  Se  Se13  1  0.31956756  0.81785345  0.27013030  1
  Se  Se14  1  0.68043244  0.18214655  0.72986970  1
  Se  Se15  1  0.67671057  0.25881878  0.20448332  1
  Se  Se16  1  0.72694443  0.75420874  0.06715457  1
  Se  Se17  1  0.71217741  0.78776340  0.47914462  1
  O  O18  1  0.09760673  0.16062447  0.57251708  1
  O  O19  1  0.04178278  0.40971231  0.84820122  1
  O  O20  1  0.24867657  0.04926926  0.97487263  1
  O  O21  1  0.21424180  0.33621064  0.35936116  1
  O  O22  1  0.25942216  0.29939135  0.07684945  1
  O  O23  1  0.22169976  0.38419008  0.59285597  1
  O  O24  1  0.13161994  0.81423156  0.18672800  1
  O  O25  1  0.14297559  0.74963623  0.90370133  1
  O  O26  1  0.19189359  0.73961081  0.66364053  1
  O  O27  1  0.35708540  0.62888665  0.39595533  1
  O  O28  1  0.20084170  0.99350626  0.34054267  1
  O  O29  1  0.50977147  0.47840985  0.15339217  1
  O  O30  1  0.49022853  0.52159015  0.84660783  1
  O  O31  1  0.79915830  0.00649374  0.65945733  1
  O  O32  1  0.64291460  0.37111335  0.60404467  1
  O  O33  1  0.80810641  0.26038919  0.33635947  1
  O  O34  1  0.85702441  0.25036377  0.09629867  1
  O  O35  1  0.86838006  0.18576844  0.81327200  1
  O  O36  1  0.77830024  0.61580992  0.40714403  1
  O  O37  1  0.74057784  0.70060865  0.92315055  1
  O  O38  1  0.78575820  0.66378936  0.64063884  1
  O  O39  1  0.75132343  0.95073074  0.02512737  1
  O  O40  1  0.95821722  0.59028769  0.15179878  1
  O  O41  1  0.90239327  0.83937553  0.42748292  1
