# generated using pymatgen
data_GdAsO4
_symmetry_space_group_name_H-M   'P 1'
_cell_length_a   6.04416125
_cell_length_b   6.04416125
_cell_length_c   6.04416125
_cell_angle_alpha   106.43469928
_cell_angle_beta   106.43469928
_cell_angle_gamma   115.73155246
_symmetry_Int_Tables_number   1
_chemical_formula_structural   GdAsO4
_chemical_formula_sum   'Gd2 As2 O8'
_cell_volume   168.43717253
_cell_formula_units_Z   2
loop_
 _symmetry_equiv_pos_site_id
 _symmetry_equiv_pos_as_xyz
  1  'x, y, z'
loop_
 _atom_site_type_symbol
 _atom_site_label
 _atom_site_symmetry_multiplicity
 _atom_site_fract_x
 _atom_site_fract_y
 _atom_site_fract_z
 _atom_site_occupancy
  Gd  Gd0  1  0.87500000  0.12500000  0.75000000  1
  Gd  Gd1  1  0.12500000  0.87500000  0.25000000  1
  As  As2  1  0.62500000  0.37500000  0.25000000  1
  As  As3  1  0.37500000  0.62500000  0.75000000  1
  O  O4  1  0.79926062  0.36881839  0.06955778  1
  O  O5  1  0.63118161  0.20073938  0.43044222  1
  O  O6  1  0.27029716  0.20073938  0.06955778  1
  O  O7  1  0.79926062  0.72970284  0.43044222  1
  O  O8  1  0.20073938  0.27029716  0.56955778  1
  O  O9  1  0.72970284  0.79926062  0.93044222  1
  O  O10  1  0.36881839  0.79926062  0.56955778  1
  O  O11  1  0.20073938  0.63118161  0.93044222  1
