# generated using pymatgen
data_Hg3(SeO3)4
_symmetry_space_group_name_H-M   'P 1'
_cell_length_a   7.71038685
_cell_length_b   10.04177052
_cell_length_c   9.69374574
_cell_angle_alpha   90.00000000
_cell_angle_beta   112.43050117
_cell_angle_gamma   90.00000000
_symmetry_Int_Tables_number   1
_chemical_formula_structural   Hg3(SeO3)4
_chemical_formula_sum   'Hg6 Se8 O24'
_cell_volume   693.76320315
_cell_formula_units_Z   2
loop_
 _symmetry_equiv_pos_site_id
 _symmetry_equiv_pos_as_xyz
  1  'x, y, z'
loop_
 _atom_site_type_symbol
 _atom_site_label
 _atom_site_symmetry_multiplicity
 _atom_site_fract_x
 _atom_site_fract_y
 _atom_site_fract_z
 _atom_site_occupancy
  Hg  Hg0  1  0.54426506  0.62869889  0.16216185  1
  Hg  Hg1  1  0.95573494  0.12869889  0.83783815  1
  Hg  Hg2  1  0.45573494  0.37130111  0.83783815  1
  Hg  Hg3  1  0.04426506  0.87130111  0.16216185  1
  Hg  Hg4  1  0.50000000  -0.00000000  0.00000000  1
  Hg  Hg5  1  0.00000000  0.50000000  0.00000000  1
  Se  Se6  1  0.73492281  0.88283618  0.38089282  1
  Se  Se7  1  0.76507719  0.38283618  0.61910718  1
  Se  Se8  1  0.26507719  0.11716382  0.61910718  1
  Se  Se9  1  0.23492281  0.61716382  0.38089282  1
  Se  Se10  1  0.24153567  0.65288473  0.80622981  1
  Se  Se11  1  0.25846433  0.15288473  0.19377019  1
  Se  Se12  1  0.75846433  0.34711527  0.19377019  1
  Se  Se13  1  0.74153567  0.84711527  0.80622981  1
  O  O14  1  0.61889597  0.74509842  0.40051382  1
  O  O15  1  0.88110403  0.24509842  0.59948618  1
  O  O16  1  0.38110403  0.25490158  0.59948618  1
  O  O17  1  0.11889597  0.75490158  0.40051382  1
  O  O18  1  0.73807328  0.85887560  0.20317076  1
  O  O19  1  0.76192672  0.35887560  0.79682924  1
  O  O20  1  0.26192672  0.14112440  0.79682924  1
  O  O21  1  0.23807328  0.64112440  0.20317076  1
  O  O22  1  0.61591904  0.02345055  0.37044470  1
  O  O23  1  0.88408096  0.52345055  0.62955530  1
  O  O24  1  0.38408096  0.97654945  0.62955530  1
  O  O25  1  0.11591904  0.47654945  0.37044470  1
  O  O26  1  0.37360350  0.57014276  0.72575854  1
  O  O27  1  0.12639650  0.07014276  0.27424146  1
  O  O28  1  0.62639650  0.42985724  0.27424146  1
  O  O29  1  0.87360350  0.92985724  0.72575854  1
  O  O30  1  0.40780901  0.74401462  0.95013584  1
  O  O31  1  0.09219099  0.24401462  0.04986416  1
  O  O32  1  0.59219099  0.25598538  0.04986416  1
  O  O33  1  0.90780901  0.75598538  0.95013584  1
  O  O34  1  0.22027386  0.51552933  0.91269411  1
  O  O35  1  0.27972614  0.01552933  0.08730589  1
  O  O36  1  0.77972614  0.48447067  0.08730589  1
  O  O37  1  0.72027386  0.98447067  0.91269411  1
