# generated using pymatgen
data_Ta2PbO6
_symmetry_space_group_name_H-M   'P 1'
_cell_length_a   11.19548217
_cell_length_b   7.73606446
_cell_length_c   5.74436537
_cell_angle_alpha   90.00000000
_cell_angle_beta   90.00000000
_cell_angle_gamma   90.00000000
_symmetry_Int_Tables_number   1
_chemical_formula_structural   Ta2PbO6
_chemical_formula_sum   'Ta8 Pb4 O24'
_cell_volume   497.51357793
_cell_formula_units_Z   4
loop_
 _symmetry_equiv_pos_site_id
 _symmetry_equiv_pos_as_xyz
  1  'x, y, z'
loop_
 _atom_site_type_symbol
 _atom_site_label
 _atom_site_symmetry_multiplicity
 _atom_site_fract_x
 _atom_site_fract_y
 _atom_site_fract_z
 _atom_site_occupancy
  Ta  Ta0  1  0.14251717  0.50314290  0.03837277  1
  Ta  Ta1  1  0.14251717  0.99685710  0.03837277  1
  Ta  Ta2  1  0.35748283  0.00314290  0.53837277  1
  Ta  Ta3  1  0.35748283  0.49685710  0.53837277  1
  Ta  Ta4  1  0.64251717  0.50314290  0.46162723  1
  Ta  Ta5  1  0.64251717  0.99685710  0.46162723  1
  Ta  Ta6  1  0.85748283  0.00314290  0.96162723  1
  Ta  Ta7  1  0.85748283  0.49685710  0.96162723  1
  Pb  Pb8  1  0.03812337  0.25000000  0.53998114  1
  Pb  Pb9  1  0.46187663  0.75000000  0.03998114  1
  Pb  Pb10  1  0.53812337  0.25000000  0.96001886  1
  Pb  Pb11  1  0.96187663  0.75000000  0.46001886  1
  O  O12  1  0.02320547  0.53439819  0.78581352  1
  O  O13  1  0.02320547  0.96560181  0.78581352  1
  O  O14  1  0.13075198  0.75000000  0.13488248  1
  O  O15  1  0.14643402  0.25000000  0.97372208  1
  O  O16  1  0.21673169  0.04585661  0.35385741  1
  O  O17  1  0.21673169  0.45414339  0.35385741  1
  O  O18  1  0.28326831  0.95414339  0.85385741  1
  O  O19  1  0.28326831  0.54585661  0.85385741  1
  O  O20  1  0.35356598  0.75000000  0.47372208  1
  O  O21  1  0.36924802  0.25000000  0.63488248  1
  O  O22  1  0.47679453  0.03439819  0.28581352  1
  O  O23  1  0.47679453  0.46560181  0.28581352  1
  O  O24  1  0.52320547  0.53439819  0.71418648  1
  O  O25  1  0.52320547  0.96560181  0.71418648  1
  O  O26  1  0.63075198  0.75000000  0.36511752  1
  O  O27  1  0.64643402  0.25000000  0.52627792  1
  O  O28  1  0.71673169  0.04585661  0.14614259  1
  O  O29  1  0.71673169  0.45414339  0.14614259  1
  O  O30  1  0.78326831  0.54585661  0.64614259  1
  O  O31  1  0.78326831  0.95414339  0.64614259  1
  O  O32  1  0.85356598  0.75000000  0.02627792  1
  O  O33  1  0.86924802  0.25000000  0.86511752  1
  O  O34  1  0.97679453  0.03439819  0.21418648  1
  O  O35  1  0.97679453  0.46560181  0.21418648  1
