# generated using pymatgen
data_Rb6Co2O7
_symmetry_space_group_name_H-M   'P 1'
_cell_length_a   6.91467467
_cell_length_b   9.54205432
_cell_length_c   9.67762189
_cell_angle_alpha   90.00000000
_cell_angle_beta   91.87526391
_cell_angle_gamma   90.00000000
_symmetry_Int_Tables_number   1
_chemical_formula_structural   Rb6Co2O7
_chemical_formula_sum   'Rb12 Co4 O14'
_cell_volume   638.18946684
_cell_formula_units_Z   2
loop_
 _symmetry_equiv_pos_site_id
 _symmetry_equiv_pos_as_xyz
  1  'x, y, z'
loop_
 _atom_site_type_symbol
 _atom_site_label
 _atom_site_symmetry_multiplicity
 _atom_site_fract_x
 _atom_site_fract_y
 _atom_site_fract_z
 _atom_site_occupancy
  Rb  Rb0  1  0.12553863  0.79092144  0.71603990  1
  Rb  Rb1  1  0.12829894  0.64650701  0.08088775  1
  Rb  Rb2  1  0.24790800  0.52952403  0.44806832  1
  Rb  Rb3  1  0.25209200  0.02952403  0.05193168  1
  Rb  Rb4  1  0.37446137  0.29092144  0.78396010  1
  Rb  Rb5  1  0.37170106  0.14650701  0.41911225  1
  Rb  Rb6  1  0.62829894  0.85349299  0.58088775  1
  Rb  Rb7  1  0.62553863  0.70907856  0.21603990  1
  Rb  Rb8  1  0.74790800  0.97047597  0.94806832  1
  Rb  Rb9  1  0.75209200  0.47047597  0.55193168  1
  Rb  Rb10  1  0.87170106  0.35349299  0.91911225  1
  Rb  Rb11  1  0.87446137  0.20907856  0.28396010  1
  Co  Co12  1  0.04941005  0.86068944  0.37016656  1
  Co  Co13  1  0.45058995  0.36068944  0.12983344  1
  Co  Co14  1  0.54941005  0.63931056  0.87016656  1
  Co  Co15  1  0.95058995  0.13931056  0.62983344  1
  O  O16  1  0.00000000  0.00000000  0.50000000  1
  O  O17  1  0.04957451  0.09036652  0.79762273  1
  O  O18  1  0.07372559  0.29380964  0.57078443  1
  O  O19  1  0.19198216  0.33305539  0.13559169  1
  O  O20  1  0.30801784  0.83305539  0.36440831  1
  O  O21  1  0.42627441  0.79380964  0.92921557  1
  O  O22  1  0.45042549  0.59036652  0.70237727  1
  O  O23  1  0.50000000  0.50000000  0.00000000  1
  O  O24  1  0.54957451  0.40963348  0.29762273  1
  O  O25  1  0.57372559  0.20619036  0.07078443  1
  O  O26  1  0.69198216  0.16694461  0.63559169  1
  O  O27  1  0.80801784  0.66694461  0.86440831  1
  O  O28  1  0.92627441  0.70619036  0.42921557  1
  O  O29  1  0.95042549  0.90963348  0.20237727  1
