# generated using pymatgen
data_Li3FeF6
_symmetry_space_group_name_H-M   'P 1'
_cell_length_a   8.57279539
_cell_length_b   8.57279539
_cell_length_c   10.25874367
_cell_angle_alpha   85.96704202
_cell_angle_beta   94.03295798
_cell_angle_gamma   118.28392723
_symmetry_Int_Tables_number   1
_chemical_formula_structural   Li3FeF6
_chemical_formula_sum   'Li18 Fe6 F36'
_cell_volume   661.69890420
_cell_formula_units_Z   6
loop_
 _symmetry_equiv_pos_site_id
 _symmetry_equiv_pos_as_xyz
  1  'x, y, z'
loop_
 _atom_site_type_symbol
 _atom_site_label
 _atom_site_symmetry_multiplicity
 _atom_site_fract_x
 _atom_site_fract_y
 _atom_site_fract_z
 _atom_site_occupancy
  Li  Li0  1  0.05879926  0.65489031  0.93211045  1
  Li  Li1  1  0.34510969  0.94120074  0.43211045  1
  Li  Li2  1  0.54538318  0.88013454  0.94948723  1
  Li  Li3  1  0.11986546  0.45461682  0.44948823  1
  Li  Li4  1  0.00562228  0.28654396  0.73059857  1
  Li  Li5  1  0.71345604  0.99437772  0.23059857  1
  Li  Li6  1  0.32667181  0.37294748  0.96151717  1
  Li  Li7  1  0.62705252  0.67332819  0.46151717  1
  Li  Li8  1  0.80963672  0.80963672  0.75000000  1
  Li  Li9  1  0.19036328  0.19036328  0.25000000  1
  Li  Li10  1  0.37294748  0.32667181  0.53848283  1
  Li  Li11  1  0.67332819  0.62705252  0.03848283  1
  Li  Li12  1  0.28654396  0.00562228  0.76940143  1
  Li  Li13  1  0.99437772  0.71345604  0.26940143  1
  Li  Li14  1  0.88013454  0.54538318  0.55051277  1
  Li  Li15  1  0.45461682  0.11986546  0.05051177  1
  Li  Li16  1  0.65489031  0.05879926  0.56788955  1
  Li  Li17  1  0.94120074  0.34510969  0.06788955  1
  Fe  Fe18  1  0.34001662  0.66522691  0.70453504  1
  Fe  Fe19  1  0.33477309  0.65998338  0.20453504  1
  Fe  Fe20  1  0.00000000  0.00000000  0.50000000  1
  Fe  Fe21  1  0.00000000  0.00000000  0.00000000  1
  Fe  Fe22  1  0.66522691  0.34001662  0.79546496  1
  Fe  Fe23  1  0.65998338  0.33477309  0.29546496  1
  F  F24  1  0.06547890  0.92188179  0.66645866  1
  F  F25  1  0.07811821  0.93452110  0.16645866  1
  F  F26  1  0.26568210  0.77350460  0.83651793  1
  F  F27  1  0.41538672  0.89376519  0.60624478  1
  F  F28  1  0.22649540  0.73431790  0.33651793  1
  F  F29  1  0.10825175  0.56895762  0.60986213  1
  F  F30  1  0.10623481  0.58461328  0.10624478  1
  F  F31  1  0.43104238  0.89174825  0.10986213  1
  F  F32  1  0.23840706  0.44082251  0.80636347  1
  F  F33  1  0.56625238  0.75505802  0.80476014  1
  F  F34  1  0.55917749  0.76159294  0.30636347  1
  F  F35  1  0.24494198  0.43374762  0.30476014  1
  F  F36  1  0.41415306  0.56975437  0.56675545  1
  F  F37  1  0.08633667  0.24035919  0.56334543  1
  F  F38  1  0.76006128  0.90575756  0.56639055  1
  F  F39  1  0.43024563  0.58584694  0.06675545  1
  F  F40  1  0.75964081  0.91366333  0.06334543  1
  F  F41  1  0.09424244  0.23993872  0.06639055  1
  F  F42  1  0.90575756  0.76006128  0.93360945  1
  F  F43  1  0.24035919  0.08633667  0.93665457  1
  F  F44  1  0.56975437  0.41415306  0.93324455  1
  F  F45  1  0.23993872  0.09424244  0.43360945  1
  F  F46  1  0.91366333  0.75964081  0.43665457  1
  F  F47  1  0.58584694  0.43024563  0.43324455  1
  F  F48  1  0.75505802  0.56625238  0.69523986  1
  F  F49  1  0.44082251  0.23840706  0.69363653  1
  F  F50  1  0.43374762  0.24494198  0.19523986  1
  F  F51  1  0.76159294  0.55917749  0.19363653  1
  F  F52  1  0.56895762  0.10825175  0.89013787  1
  F  F53  1  0.89376519  0.41538672  0.89375522  1
  F  F54  1  0.89174825  0.43104238  0.39013787  1
  F  F55  1  0.77350460  0.26568210  0.66348207  1
  F  F56  1  0.58461328  0.10623481  0.39375522  1
  F  F57  1  0.73431790  0.22649540  0.16348207  1
  F  F58  1  0.92188179  0.06547890  0.83354134  1
  F  F59  1  0.93452110  0.07811821  0.33354134  1
