# generated using pymatgen
data_CsAsO3
_symmetry_space_group_name_H-M   'P 1'
_cell_length_a   5.93704673
_cell_length_b   12.59463259
_cell_length_c   5.46077034
_cell_angle_alpha   90.00000000
_cell_angle_beta   90.00000000
_cell_angle_gamma   90.00000000
_symmetry_Int_Tables_number   1
_chemical_formula_structural   CsAsO3
_chemical_formula_sum   'Cs4 As4 O12'
_cell_volume   408.32867751
_cell_formula_units_Z   4
loop_
 _symmetry_equiv_pos_site_id
 _symmetry_equiv_pos_as_xyz
  1  'x, y, z'
loop_
 _atom_site_type_symbol
 _atom_site_label
 _atom_site_symmetry_multiplicity
 _atom_site_fract_x
 _atom_site_fract_y
 _atom_site_fract_z
 _atom_site_occupancy
  Cs  Cs0  1  0.08476728  0.60160132  0.75000000  1
  Cs  Cs1  1  0.08476728  0.89839868  0.25000000  1
  Cs  Cs2  1  0.91523272  0.39839868  0.25000000  1
  Cs  Cs3  1  0.91523272  0.10160132  0.75000000  1
  As  As4  1  0.43954898  0.16831387  0.25000000  1
  As  As5  1  0.43954898  0.33168613  0.75000000  1
  As  As6  1  0.56045102  0.66831387  0.25000000  1
  As  As7  1  0.56045102  0.83168613  0.75000000  1
  O  O8  1  0.15806355  0.16111934  0.25000000  1
  O  O9  1  0.15806355  0.33888066  0.75000000  1
  O  O10  1  0.39408917  0.56166542  0.25000000  1
  O  O11  1  0.39408917  0.93833458  0.75000000  1
  O  O12  1  0.45269217  0.75000000  0.50000000  1
  O  O13  1  0.45269217  0.75000000  0.00000000  1
  O  O14  1  0.54730783  0.25000000  0.50000000  1
  O  O15  1  0.54730783  0.25000000  0.00000000  1
  O  O16  1  0.60591083  0.06166542  0.25000000  1
  O  O17  1  0.60591083  0.43833458  0.75000000  1
  O  O18  1  0.84193645  0.66111934  0.25000000  1
  O  O19  1  0.84193645  0.83888066  0.75000000  1
