# generated using pymatgen
data_SrYb2O4
_symmetry_space_group_name_H-M   'P 1'
_cell_length_a   3.47209703
_cell_length_b   9.81279073
_cell_length_c   11.94805346
_cell_angle_alpha   90.00000000
_cell_angle_beta   90.00000000
_cell_angle_gamma   90.00000000
_symmetry_Int_Tables_number   1
_chemical_formula_structural   SrYb2O4
_chemical_formula_sum   'Sr4 Yb8 O16'
_cell_volume   407.08167003
_cell_formula_units_Z   4
loop_
 _symmetry_equiv_pos_site_id
 _symmetry_equiv_pos_as_xyz
  1  'x, y, z'
loop_
 _atom_site_type_symbol
 _atom_site_label
 _atom_site_symmetry_multiplicity
 _atom_site_fract_x
 _atom_site_fract_y
 _atom_site_fract_z
 _atom_site_occupancy
  O  O0  1  0.25000000  0.07744598  0.08484954  1
  O  O1  1  0.75000000  0.92255402  0.91515046  1
  O  O2  1  0.25000000  0.57744598  0.41515046  1
  O  O3  1  0.75000000  0.42255402  0.58484954  1
  O  O4  1  0.25000000  0.98933964  0.72231030  1
  O  O5  1  0.75000000  0.01066036  0.27768970  1
  O  O6  1  0.25000000  0.48933964  0.77768970  1
  O  O7  1  0.75000000  0.51066036  0.22231030  1
  O  O8  1  0.25000000  0.36766605  0.01994212  1
  O  O9  1  0.75000000  0.63233395  0.98005788  1
  O  O10  1  0.25000000  0.86766605  0.48005788  1
  O  O11  1  0.75000000  0.13233395  0.51994212  1
  O  O12  1  0.75000000  0.21411519  0.81825579  1
  O  O13  1  0.25000000  0.78588481  0.18174421  1
  O  O14  1  0.75000000  0.71411519  0.68174421  1
  O  O15  1  0.25000000  0.28588481  0.31825579  1
  Sr  Sr16  1  0.75000000  0.75032018  0.34290729  1
  Sr  Sr17  1  0.25000000  0.24967982  0.65709271  1
  Sr  Sr18  1  0.75000000  0.25032018  0.15709271  1
  Sr  Sr19  1  0.25000000  0.74967982  0.84290729  1
  Yb  Yb20  1  0.25000000  0.07613979  0.39126882  1
  Yb  Yb21  1  0.75000000  0.92386021  0.60873118  1
  Yb  Yb22  1  0.25000000  0.57613979  0.10873118  1
  Yb  Yb23  1  0.75000000  0.42386021  0.89126882  1
  Yb  Yb24  1  0.75000000  0.41489698  0.39478358  1
  Yb  Yb25  1  0.25000000  0.58510302  0.60521642  1
  Yb  Yb26  1  0.75000000  0.91489698  0.10521642  1
  Yb  Yb27  1  0.25000000  0.08510302  0.89478358  1
