# generated using pymatgen
data_KAl11O17
_symmetry_space_group_name_H-M   'P 1'
_cell_length_a   5.64924208
_cell_length_b   5.64925987
_cell_length_c   22.90910706
_cell_angle_alpha   89.99981600
_cell_angle_beta   90.00024913
_cell_angle_gamma   119.92570138
_symmetry_Int_Tables_number   1
_chemical_formula_structural   KAl11O17
_chemical_formula_sum   'K2 Al22 O34'
_cell_volume   633.64380613
_cell_formula_units_Z   2
loop_
 _symmetry_equiv_pos_site_id
 _symmetry_equiv_pos_as_xyz
  1  'x, y, z'
loop_
 _atom_site_type_symbol
 _atom_site_label
 _atom_site_symmetry_multiplicity
 _atom_site_fract_x
 _atom_site_fract_y
 _atom_site_fract_z
 _atom_site_occupancy
  K  K0  1  0.31553628  0.68445634  0.75000041  1
  K  K1  1  0.68446383  0.31554322  0.24999955  1
  Al  Al2  1  0.16741990  0.83257121  0.89432052  1
  Al  Al3  1  0.16742115  0.83257199  0.60568076  1
  Al  Al4  1  0.33186881  0.66815807  0.17525542  1
  Al  Al5  1  0.33331486  0.66669044  0.02477853  1
  Al  Al6  1  0.00000031  0.00000505  0.00000032  1
  Al  Al7  1  0.33186424  0.66816290  0.32473342  1
  Al  Al8  1  0.99999868  0.00000107  0.50000042  1
  Al  Al9  1  0.33331164  0.66668579  0.47522178  1
  Al  Al10  1  0.16833911  0.33480521  0.60642195  1
  Al  Al11  1  0.16833931  0.33480597  0.89357868  1
  Al  Al12  1  0.66519317  0.83166199  0.89357847  1
  Al  Al13  1  0.66519405  0.83166297  0.60642246  1
  Al  Al14  1  0.33480656  0.16833981  0.39357830  1
  Al  Al15  1  0.33481213  0.16834318  0.10642134  1
  Al  Al16  1  0.83166127  0.66519781  0.39357853  1
  Al  Al17  1  0.66813732  0.33184132  0.67526301  1
  Al  Al18  1  0.66813584  0.33184134  0.82474123  1
  Al  Al19  1  0.66668772  0.33331775  0.52477936  1
  Al  Al20  1  0.66668754  0.33332028  0.97522193  1
  Al  Al21  1  0.83166479  0.66519753  0.10642159  1
  Al  Al22  1  0.83258318  0.16743275  0.10568026  1
  Al  Al23  1  0.83258129  0.16743205  0.39431948  1
  O  O24  1  0.15700803  0.84299922  0.04942198  1
  O  O25  1  0.15700887  0.84300010  0.45057755  1
  O  O26  1  0.00515482  0.50306247  0.64468378  1
  O  O27  1  0.00515388  0.50306338  0.85531540  1
  O  O28  1  0.32149751  0.67859895  0.25000960  1
  O  O29  1  0.15721297  0.31419152  0.45043002  1
  O  O30  1  0.99979329  0.00021504  0.14092323  1
  O  O31  1  0.99978795  0.00021494  0.35907688  1
  O  O32  1  0.33402259  0.66597334  0.55521649  1
  O  O33  1  0.00021122  0.99978768  0.85907665  1
  O  O34  1  0.00021320  0.99978789  0.64092297  1
  O  O35  1  0.33402463  0.66597249  0.94478263  1
  O  O36  1  0.15721707  0.31419637  0.04957003  1
  O  O37  1  0.49692552  0.99483385  0.85531691  1
  O  O38  1  0.49692535  0.99482984  0.64468342  1
  O  O39  1  0.31419262  0.15722245  0.54956939  1
  O  O40  1  0.31419147  0.15722166  0.95043062  1
  O  O41  1  0.49799112  0.50201019  0.64584931  1
  O  O42  1  0.49799186  0.50200836  0.85414983  1
  O  O43  1  0.50200916  0.49799266  0.35415100  1
  O  O44  1  0.50201229  0.49799480  0.14585073  1
  O  O45  1  0.68581058  0.84278568  0.04956903  1
  O  O46  1  0.68580619  0.84277812  0.45043035  1
  O  O47  1  0.50307558  0.00517373  0.35531648  1
  O  O48  1  0.66597997  0.33402872  0.44478276  1
  O  O49  1  0.50307446  0.00516434  0.14468232  1
  O  O50  1  0.84278852  0.68581312  0.95043004  1
  O  O51  1  0.84278760  0.68581088  0.54956974  1
  O  O52  1  0.66598052  0.33403414  0.05521676  1
  O  O53  1  0.67850268  0.32140372  0.74999671  1
  O  O54  1  0.99484739  0.49693842  0.14468567  1
  O  O55  1  0.99484594  0.49694147  0.35531602  1
  O  O56  1  0.84299233  0.15700761  0.95057759  1
  O  O57  1  0.84299084  0.15700279  0.54942243  1
