# generated using pymatgen
data_CuH8S3O10
_symmetry_space_group_name_H-M   'P 1'
_cell_length_a   7.20966867
_cell_length_b   7.79911395
_cell_length_c   20.69930511
_cell_angle_alpha   90.00000000
_cell_angle_beta   90.00000000
_cell_angle_gamma   116.62540607
_symmetry_Int_Tables_number   1
_chemical_formula_structural   CuH8S3O10
_chemical_formula_sum   'Cu4 H32 S12 O40'
_cell_volume   1040.47653321
_cell_formula_units_Z   4
loop_
 _symmetry_equiv_pos_site_id
 _symmetry_equiv_pos_as_xyz
  1  'x, y, z'
loop_
 _atom_site_type_symbol
 _atom_site_label
 _atom_site_symmetry_multiplicity
 _atom_site_fract_x
 _atom_site_fract_y
 _atom_site_fract_z
 _atom_site_occupancy
  Cu  Cu0  1  0.68644377  0.01882562  0.64118812  1
  Cu  Cu1  1  0.18644377  0.51882562  0.85881188  1
  Cu  Cu2  1  0.31355623  0.98117438  0.35881188  1
  Cu  Cu3  1  0.81355623  0.48117438  0.14118812  1
  H  H4  1  0.63577630  0.70890036  0.69090495  1
  H  H5  1  0.13577630  0.20890036  0.80909505  1
  H  H6  1  0.36422370  0.29109964  0.30909505  1
  H  H7  1  0.86422370  0.79109964  0.19090495  1
  H  H8  1  0.80669416  0.87490451  0.73415257  1
  H  H9  1  0.30669416  0.37490451  0.76584743  1
  H  H10  1  0.19330584  0.12509549  0.26584743  1
  H  H11  1  0.69330584  0.62509549  0.23415257  1
  H  H12  1  0.88642387  0.90463531  0.56957751  1
  H  H13  1  0.38642387  0.40463531  0.93042249  1
  H  H14  1  0.11357613  0.09536469  0.43042249  1
  H  H15  1  0.61357613  0.59536469  0.06957751  1
  H  H16  1  0.76423451  0.98238841  0.52242015  1
  H  H17  1  0.26423451  0.48238841  0.97757985  1
  H  H18  1  0.23576549  0.01761159  0.47757985  1
  H  H19  1  0.73576549  0.51761159  0.02242015  1
  H  H20  1  0.68204119  0.22139082  0.54661965  1
  H  H21  1  0.18204119  0.72139082  0.95338035  1
  H  H22  1  0.31795881  0.77860918  0.45338035  1
  H  H23  1  0.81795881  0.27860918  0.04661965  1
  H  H24  1  0.49069437  0.18355931  0.59326343  1
  H  H25  1  0.99069437  0.68355931  0.90673657  1
  H  H26  1  0.50930563  0.81644069  0.40673657  1
  H  H27  1  0.00930563  0.31644069  0.09326343  1
  H  H28  1  0.54221661  0.19270931  0.71370850  1
  H  H29  1  0.04221661  0.69270931  0.78629150  1
  H  H30  1  0.45778339  0.80729069  0.28629150  1
  H  H31  1  0.95778339  0.30729069  0.21370850  1
  H  H32  1  0.52668528  0.00963343  0.75094159  1
  H  H33  1  0.02668528  0.50963343  0.74905841  1
  H  H34  1  0.47331472  0.99036657  0.24905841  1
  H  H35  1  0.97331472  0.49036657  0.25094159  1
  S  S36  1  0.19472651  0.71333195  0.59110554  1
  S  S37  1  0.69472651  0.21333195  0.90889446  1
  S  S38  1  0.80527349  0.28666805  0.40889446  1
  S  S39  1  0.30527349  0.78666805  0.09110554  1
  S  S40  1  0.23499986  0.47025109  0.55877312  1
  S  S41  1  0.73499986  0.97025109  0.94122688  1
  S  S42  1  0.76500014  0.52974891  0.44122688  1
  S  S43  1  0.26500014  0.02974891  0.05877312  1
  S  S44  1  0.22544928  0.31765857  0.64346718  1
  S  S45  1  0.72544928  0.81765857  0.85653282  1
  S  S46  1  0.77455072  0.68234143  0.35653282  1
  S  S47  1  0.27455072  0.18234143  0.14346718  1
  O  O48  1  0.75588137  0.83643412  0.68934642  1
  O  O49  1  0.25588137  0.33643412  0.81065358  1
  O  O50  1  0.24411863  0.16356588  0.31065358  1
  O  O51  1  0.74411863  0.66356588  0.18934642  1
  O  O52  1  0.75508186  0.91061203  0.56245641  1
  O  O53  1  0.25508186  0.41061203  0.93754359  1
  O  O54  1  0.24491814  0.08938797  0.43754359  1
  O  O55  1  0.74491814  0.58938797  0.06245641  1
  O  O56  1  0.63943979  0.21231282  0.59264835  1
  O  O57  1  0.13943979  0.71231282  0.90735165  1
  O  O58  1  0.36056021  0.78768718  0.40735165  1
  O  O59  1  0.86056021  0.28768718  0.09264835  1
  O  O60  1  0.61503691  0.11557660  0.72262099  1
  O  O61  1  0.11503691  0.61557660  0.77737901  1
  O  O62  1  0.38496309  0.88442340  0.27737901  1
  O  O63  1  0.88496309  0.38442340  0.22262099  1
  O  O64  1  0.33868819  0.79156483  0.64538216  1
  O  O65  1  0.83868819  0.29156483  0.85461784  1
  O  O66  1  0.66131181  0.20843517  0.35461784  1
  O  O67  1  0.16131181  0.70843517  0.14538216  1
  O  O68  1  0.26585919  0.83091761  0.53140626  1
  O  O69  1  0.76585919  0.33091761  0.96859374  1
  O  O70  1  0.73414081  0.16908239  0.46859374  1
  O  O71  1  0.23414081  0.66908239  0.03140626  1
  O  O72  1  0.97917419  0.65409666  0.60664573  1
  O  O73  1  0.47917419  0.15409666  0.89335427  1
  O  O74  1  0.02082581  0.34590334  0.39335427  1
  O  O75  1  0.52082581  0.84590334  0.10664573  1
  O  O76  1  0.03411882  0.27861342  0.67848121  1
  O  O77  1  0.53411882  0.77861342  0.82151879  1
  O  O78  1  0.96588118  0.72138658  0.32151879  1
  O  O79  1  0.46588118  0.22138658  0.17848121  1
  O  O80  1  0.41118905  0.42244337  0.68462114  1
  O  O81  1  0.91118905  0.92244337  0.81537886  1
  O  O82  1  0.58881095  0.57755663  0.31537886  1
  O  O83  1  0.08881095  0.07755663  0.18462114  1
  O  O84  1  0.22780359  0.14801004  0.61287629  1
  O  O85  1  0.72780359  0.64801004  0.88712371  1
  O  O86  1  0.77219641  0.85198996  0.38712371  1
  O  O87  1  0.27219641  0.35198996  0.11287629  1
