# generated using pymatgen
data_MnGaRu2
_symmetry_space_group_name_H-M   'P 1'
_cell_length_a   4.25185502
_cell_length_b   4.25194861
_cell_length_c   4.25313163
_cell_angle_alpha   60.02236710
_cell_angle_beta   60.03263621
_cell_angle_gamma   60.03322302
_symmetry_Int_Tables_number   1
_chemical_formula_structural   MnGaRu2
_chemical_formula_sum   'Mn1 Ga1 Ru2'
_cell_volume   54.40636310
_cell_formula_units_Z   1
loop_
 _symmetry_equiv_pos_site_id
 _symmetry_equiv_pos_as_xyz
  1  'x, y, z'
loop_
 _atom_site_type_symbol
 _atom_site_label
 _atom_site_symmetry_multiplicity
 _atom_site_fract_x
 _atom_site_fract_y
 _atom_site_fract_z
 _atom_site_occupancy
  Mn  Mn0  1  0.74998154  0.75007043  0.74995802  1
  Ga  Ga1  1  0.25003613  0.24993896  0.25000704  1
  Ru  Ru2  1  0.99997271  -0.00002382  0.99992573  1
  Ru  Ru3  1  0.50001062  0.50001544  0.50011022  1
