# generated using pymatgen
data_Cr2S3
_symmetry_space_group_name_H-M   'P 1'
_cell_length_a   5.90950369
_cell_length_b   5.90950361
_cell_length_c   6.51849276
_cell_angle_alpha   63.04519320
_cell_angle_beta   116.95481053
_cell_angle_gamma   120.00000279
_symmetry_Int_Tables_number   1
_chemical_formula_structural   Cr2S3
_chemical_formula_sum   'Cr4 S6'
_cell_volume   167.98102933
_cell_formula_units_Z   2
loop_
 _symmetry_equiv_pos_site_id
 _symmetry_equiv_pos_as_xyz
  1  'x, y, z'
loop_
 _atom_site_type_symbol
 _atom_site_label
 _atom_site_symmetry_multiplicity
 _atom_site_fract_x
 _atom_site_fract_y
 _atom_site_fract_z
 _atom_site_occupancy
  Cr  Cr0  1  0.32640717  0.67359283  0.97922152  1
  Cr  Cr1  1  0.50428106  0.49571894  0.51284317  1
  Cr  Cr2  1  0.00040914  0.99959086  0.00122742  1
  Cr  Cr3  1  0.66990353  0.33009647  0.00971060  1
  S  S4  1  0.09039877  0.58850420  0.24370469  1
  S  S5  1  0.59364269  0.74788479  0.75529441  1
  S  S6  1  0.41149580  0.25818988  0.24370469  1
  S  S7  1  0.90953651  0.40635731  0.75529441  1
  S  S8  1  0.25211521  0.09046349  0.75529441  1
  S  S9  1  0.74181012  0.90960123  0.24370469  1
