# generated using pymatgen
data_Pr11In9Ni4
_symmetry_space_group_name_H-M   'P 1'
_cell_length_a   13.50971057
_cell_length_b   13.50971057
_cell_length_c   3.78843919
_cell_angle_alpha   90.00000000
_cell_angle_beta   90.00000000
_cell_angle_gamma   67.42522693
_symmetry_Int_Tables_number   1
_chemical_formula_structural   Pr11In9Ni4
_chemical_formula_sum   'Pr11 In9 Ni4'
_cell_volume   638.45833158
_cell_formula_units_Z   1
loop_
 _symmetry_equiv_pos_site_id
 _symmetry_equiv_pos_as_xyz
  1  'x, y, z'
loop_
 _atom_site_type_symbol
 _atom_site_label
 _atom_site_symmetry_multiplicity
 _atom_site_fract_x
 _atom_site_fract_y
 _atom_site_fract_z
 _atom_site_occupancy
  Pr  Pr0  1  0.00000000  0.00000000  0.00000000  1
  Pr  Pr1  1  0.31281926  0.68718074  0.00000000  1
  Pr  Pr2  1  0.68718074  0.31281926  0.00000000  1
  Pr  Pr3  1  0.41633008  0.92257203  0.00000000  1
  Pr  Pr4  1  0.58366892  0.07742797  0.00000000  1
  Pr  Pr5  1  0.07742797  0.58366892  0.00000000  1
  Pr  Pr6  1  0.92257203  0.41633008  0.00000000  1
  Pr  Pr7  1  0.37427839  0.37427839  0.00000000  1
  Pr  Pr8  1  0.62572161  0.62572161  0.00000000  1
  Pr  Pr9  1  0.16112976  0.16112976  0.00000000  1
  Pr  Pr10  1  0.83887024  0.83887024  0.00000000  1
  In  In11  1  0.36700248  0.16217945  0.49999900  1
  In  In12  1  0.63299752  0.83781955  0.49999900  1
  In  In13  1  0.83781955  0.63299752  0.49999900  1
  In  In14  1  0.16217945  0.36700248  0.49999900  1
  In  In15  1  0.22018276  0.91857316  0.49999900  1
  In  In16  1  0.77981724  0.08142684  0.49999900  1
  In  In17  1  0.08142684  0.77981724  0.49999900  1
  In  In18  1  0.91857316  0.22018276  0.49999900  1
  In  In19  1  0.50000000  0.50000000  0.49999900  1
  Ni  Ni20  1  0.44842337  0.75456211  0.49999900  1
  Ni  Ni21  1  0.55157763  0.24543889  0.49999900  1
  Ni  Ni22  1  0.24543889  0.55157763  0.49999900  1
  Ni  Ni23  1  0.75456211  0.44842337  0.49999900  1
