# generated using pymatgen
data_UTc2Sn
_symmetry_space_group_name_H-M   'P 1'
_cell_length_a   4.70669392
_cell_length_b   4.70666203
_cell_length_c   4.70666292
_cell_angle_alpha   59.99969536
_cell_angle_beta   60.00009522
_cell_angle_gamma   59.99940492
_symmetry_Int_Tables_number   1
_chemical_formula_structural   UTc2Sn
_chemical_formula_sum   'U1 Tc2 Sn1'
_cell_volume   73.72663791
_cell_formula_units_Z   1
loop_
 _symmetry_equiv_pos_site_id
 _symmetry_equiv_pos_as_xyz
  1  'x, y, z'
loop_
 _atom_site_type_symbol
 _atom_site_label
 _atom_site_symmetry_multiplicity
 _atom_site_fract_x
 _atom_site_fract_y
 _atom_site_fract_z
 _atom_site_occupancy
  U  U0  1  0.74999953  0.74999999  0.75000039  1
  Tc  Tc1  1  0.49999916  0.49999904  0.49999936  1
  Tc  Tc2  1  0.99999999  0.99999993  0.99999934  1
  Sn  Sn3  1  0.24999932  0.24999903  0.24999890  1
