# generated using pymatgen
data_YbPaRh2
_symmetry_space_group_name_H-M   'P 1'
_cell_length_a   4.81503760
_cell_length_b   4.81503760
_cell_length_c   4.81503760
_cell_angle_alpha   59.99397792
_cell_angle_beta   59.99397792
_cell_angle_gamma   59.99397792
_symmetry_Int_Tables_number   1
_chemical_formula_structural   YbPaRh2
_chemical_formula_sum   'Yb1 Pa1 Rh2'
_cell_volume   78.92684579
_cell_formula_units_Z   1
loop_
 _symmetry_equiv_pos_site_id
 _symmetry_equiv_pos_as_xyz
  1  'x, y, z'
loop_
 _atom_site_type_symbol
 _atom_site_label
 _atom_site_symmetry_multiplicity
 _atom_site_fract_x
 _atom_site_fract_y
 _atom_site_fract_z
 _atom_site_occupancy
  Yb  Yb0  1  0.74999953  0.74999953  0.74999953  1
  Pa  Pa1  1  0.25000399  0.25000399  0.25000399  1
  Rh  Rh2  1  -0.00003650  -0.00003650  -0.00003650  1
  Rh  Rh3  1  0.50003298  0.50003298  0.50003298  1
