# generated using pymatgen
data_Cs2CaAg2H4C6S6(N3O)2
_symmetry_space_group_name_H-M   'P 1'
_cell_length_a   8.15589292
_cell_length_b   8.33891245
_cell_length_c   19.35050066
_cell_angle_alpha   90.00000000
_cell_angle_beta   90.00000000
_cell_angle_gamma   89.66202946
_symmetry_Int_Tables_number   1
_chemical_formula_structural   Cs2CaAg2H4C6S6(N3O)2
_chemical_formula_sum   'Cs4 Ca2 Ag4 H8 C12 S12 N12 O4'
_cell_volume   1316.02936415
_cell_formula_units_Z   2
loop_
 _symmetry_equiv_pos_site_id
 _symmetry_equiv_pos_as_xyz
  1  'x, y, z'
loop_
 _atom_site_type_symbol
 _atom_site_label
 _atom_site_symmetry_multiplicity
 _atom_site_fract_x
 _atom_site_fract_y
 _atom_site_fract_z
 _atom_site_occupancy
  Cs  Cs0  1  0.97730888  0.24794534  0.11726156  1
  Cs  Cs1  1  0.52269112  0.75205466  0.61726156  1
  Cs  Cs2  1  0.02269112  0.75205466  0.88273844  1
  Cs  Cs3  1  0.47730888  0.24794534  0.38273844  1
  Ca  Ca4  1  0.50000000  0.00000000  -0.00000000  1
  Ca  Ca5  1  -0.00000000  0.00000000  0.50000000  1
  Ag  Ag6  1  0.01488829  0.72867708  0.21729611  1
  Ag  Ag7  1  0.48511171  0.27132292  0.71729611  1
  Ag  Ag8  1  0.98511171  0.27132292  0.78270389  1
  Ag  Ag9  1  0.51488829  0.72867708  0.28270389  1
  H  H10  1  0.52676749  0.33670342  0.04509914  1
  H  H11  1  0.97323251  0.66329658  0.54509914  1
  H  H12  1  0.47323251  0.66329658  0.95490086  1
  H  H13  1  0.02676749  0.33670342  0.45490086  1
  H  H14  1  0.62902655  0.33743647  0.97670125  1
  H  H15  1  0.87097345  0.66256353  0.47670125  1
  H  H16  1  0.37097345  0.66256353  0.02329875  1
  H  H17  1  0.12902655  0.33743647  0.52329875  1
  C  C18  1  0.87025752  0.81474876  0.06058055  1
  C  C19  1  0.62974248  0.18525124  0.56058055  1
  C  C20  1  0.12974248  0.18525124  0.93941945  1
  C  C21  1  0.37025752  0.81474876  0.43941945  1
  C  C22  1  0.86249681  0.98337948  0.32675708  1
  C  C23  1  0.63750319  0.01662052  0.82675708  1
  C  C24  1  0.13750319  0.01662052  0.67324292  1
  C  C25  1  0.36249681  0.98337948  0.17324292  1
  C  C26  1  0.96089710  0.47586895  0.34688614  1
  C  C27  1  0.53910290  0.52413105  0.84688614  1
  C  C28  1  0.03910290  0.52413105  0.65311386  1
  C  C29  1  0.46089710  0.47586895  0.15311386  1
  S  S30  1  0.02519905  0.70203074  0.08541095  1
  S  S31  1  0.47480095  0.29796926  0.58541095  1
  S  S32  1  0.97480095  0.29796926  0.91458905  1
  S  S33  1  0.52519905  0.70203074  0.41458905  1
  S  S34  1  0.79671922  0.93654669  0.24924846  1
  S  S35  1  0.70328078  0.06345331  0.74924846  1
  S  S36  1  0.20328078  0.06345331  0.75075154  1
  S  S37  1  0.29671922  0.93654669  0.25075154  1
  S  S38  1  0.08966237  0.47634415  0.28118832  1
  S  S39  1  0.41033763  0.52365585  0.78118832  1
  S  S40  1  0.91033763  0.52365585  0.71881168  1
  S  S41  1  0.58966237  0.47634415  0.21881168  1
  N  N42  1  0.76209873  0.89748498  0.03990950  1
  N  N43  1  0.73790127  0.10251502  0.53990950  1
  N  N44  1  0.23790127  0.10251502  0.96009050  1
  N  N45  1  0.26209873  0.89748498  0.46009050  1
  N  N46  1  0.90478835  0.01980760  0.38303448  1
  N  N47  1  0.59521165  0.98019240  0.88303448  1
  N  N48  1  0.09521165  0.98019240  0.61696552  1
  N  N49  1  0.40478835  0.01980760  0.11696552  1
  N  N50  1  0.87436512  0.47024250  0.39619380  1
  N  N51  1  0.62563488  0.52975750  0.89619380  1
  N  N52  1  0.12563488  0.52975750  0.60380620  1
  N  N53  1  0.37436512  0.47024250  0.10380620  1
  O  O54  1  0.60033324  0.27042787  0.01639766  1
  O  O55  1  0.89966676  0.72957213  0.51639766  1
  O  O56  1  0.39966676  0.72957213  0.98360234  1
  O  O57  1  0.10033324  0.27042787  0.48360234  1
