# generated using pymatgen
data_CeAgAs2
_symmetry_space_group_name_H-M   'P 1'
_cell_length_a   5.77937729
_cell_length_b   5.77723228
_cell_length_c   20.44765203
_cell_angle_alpha   90.00000000
_cell_angle_beta   90.00000000
_cell_angle_gamma   90.00000000
_symmetry_Int_Tables_number   1
_chemical_formula_structural   CeAgAs2
_chemical_formula_sum   'Ce8 Ag8 As16'
_cell_volume   682.72266712
_cell_formula_units_Z   8
loop_
 _symmetry_equiv_pos_site_id
 _symmetry_equiv_pos_as_xyz
  1  'x, y, z'
loop_
 _atom_site_type_symbol
 _atom_site_label
 _atom_site_symmetry_multiplicity
 _atom_site_fract_x
 _atom_site_fract_y
 _atom_site_fract_z
 _atom_site_occupancy
  Ce  Ce0  1  0.75000000  0.00649846  0.38887917  1
  Ce  Ce1  1  0.25000000  0.99350154  0.61112083  1
  Ce  Ce2  1  0.25000000  0.00649846  0.11112083  1
  Ce  Ce3  1  0.75000000  0.99350154  0.88887917  1
  Ce  Ce4  1  0.25000000  0.50733603  0.38841054  1
  Ce  Ce5  1  0.75000000  0.49266397  0.61158946  1
  Ce  Ce6  1  0.75000000  0.50733603  0.11158946  1
  Ce  Ce7  1  0.25000000  0.49266397  0.88841054  1
  Ag  Ag8  1  -0.00000000  0.23765266  0.75000000  1
  Ag  Ag9  1  0.50000000  0.76234734  0.25000000  1
  Ag  Ag10  1  0.00000000  0.76234734  0.25000000  1
  Ag  Ag11  1  0.50000000  0.23765266  0.75000000  1
  Ag  Ag12  1  0.00000000  0.26148325  0.25000000  1
  Ag  Ag13  1  0.50000000  0.73851675  0.75000000  1
  Ag  Ag14  1  -0.00000000  0.73851675  0.75000000  1
  Ag  Ag15  1  0.50000000  0.26148325  0.25000000  1
  As  As16  1  0.75000000  0.49121565  0.84338129  1
  As  As17  1  0.25000000  0.50878435  0.15661871  1
  As  As18  1  0.25000000  0.49121565  0.65661871  1
  As  As19  1  0.75000000  0.50878435  0.34338129  1
  As  As20  1  0.75000000  0.99133842  0.65643449  1
  As  As21  1  0.25000000  0.00866158  0.34356551  1
  As  As22  1  0.25000000  0.99133842  0.84356551  1
  As  As23  1  0.75000000  0.00866158  0.15643449  1
  As  As24  1  0.99708522  0.25184457  -0.00007585  1
  As  As25  1  0.49708522  0.74815543  0.00007585  1
  As  As26  1  0.00291478  0.25184457  0.50007585  1
  As  As27  1  0.50291478  0.74815543  0.49992415  1
  As  As28  1  0.00291478  0.74815543  0.00007585  1
  As  As29  1  0.50291478  0.25184457  -0.00007585  1
  As  As30  1  0.99708522  0.74815543  0.49992415  1
  As  As31  1  0.49708522  0.25184457  0.50007585  1
