# generated using pymatgen
data_Ce2US5
_symmetry_space_group_name_H-M   'P 1'
_cell_length_a   11.78506043
_cell_length_b   8.07890011
_cell_length_c   7.43289060
_cell_angle_alpha   90.00000000
_cell_angle_beta   90.00000000
_cell_angle_gamma   90.00000000
_symmetry_Int_Tables_number   1
_chemical_formula_structural   Ce2US5
_chemical_formula_sum   'Ce8 U4 S20'
_cell_volume   707.68793718
_cell_formula_units_Z   4
loop_
 _symmetry_equiv_pos_site_id
 _symmetry_equiv_pos_as_xyz
  1  'x, y, z'
loop_
 _atom_site_type_symbol
 _atom_site_label
 _atom_site_symmetry_multiplicity
 _atom_site_fract_x
 _atom_site_fract_y
 _atom_site_fract_z
 _atom_site_occupancy
  Ce  Ce0  1  0.32356577  0.00127186  0.46890956  1
  Ce  Ce1  1  0.17643423  0.99872814  0.96890856  1
  Ce  Ce2  1  0.82356477  0.49872914  0.03109044  1
  Ce  Ce3  1  0.67643523  0.50127086  0.53109044  1
  Ce  Ce4  1  0.67643523  0.99872814  0.53109044  1
  Ce  Ce5  1  0.82356477  0.00127186  0.03109044  1
  Ce  Ce6  1  0.17643423  0.50127086  0.96890856  1
  Ce  Ce7  1  0.32356577  0.49872914  0.46890956  1
  U  U8  1  0.49259249  0.25000000  0.93230388  1
  U  U9  1  0.00740751  0.75000000  0.43230488  1
  U  U10  1  0.99259249  0.25000000  0.56769512  1
  U  U11  1  0.50740651  0.75000000  0.06769512  1
  S  S12  1  0.49900969  0.25000000  0.54739800  1
  S  S13  1  0.00099031  0.75000000  0.04739800  1
  S  S14  1  0.99900969  0.25000000  0.95260100  1
  S  S15  1  0.50099031  0.75000000  0.45260100  1
  S  S16  1  0.31035573  0.25000000  0.16363736  1
  S  S17  1  0.18964327  0.75000000  0.66363736  1
  S  S18  1  0.81035673  0.25000000  0.33636264  1
  S  S19  1  0.68964327  0.75000000  0.83636264  1
  S  S20  1  0.59294525  0.45949962  0.16730286  1
  S  S21  1  0.90705475  0.54050138  0.66730286  1
  S  S22  1  0.09294525  0.04050238  0.33269614  1
  S  S23  1  0.40705575  0.95949862  0.83269614  1
  S  S24  1  0.40705575  0.54050138  0.83269614  1
  S  S25  1  0.09294525  0.45949962  0.33269614  1
  S  S26  1  0.90705475  0.95949862  0.66730286  1
  S  S27  1  0.59294525  0.04050238  0.16730286  1
  S  S28  1  0.71462267  0.25000000  0.81100756  1
  S  S29  1  0.78537733  0.75000000  0.31100756  1
  S  S30  1  0.21462267  0.25000000  0.68899344  1
  S  S31  1  0.28537733  0.75000000  0.18899244  1
