# generated using pymatgen
data_SrReN3
_symmetry_space_group_name_H-M   'P 1'
_cell_length_a   6.28829727
_cell_length_b   7.65557091
_cell_length_c   7.65557101
_cell_angle_alpha   93.09361878
_cell_angle_beta   102.60748794
_cell_angle_gamma   77.39251287
_symmetry_Int_Tables_number   1
_chemical_formula_structural   SrReN3
_chemical_formula_sum   'Sr4 Re4 N12'
_cell_volume   350.97714050
_cell_formula_units_Z   4
loop_
 _symmetry_equiv_pos_site_id
 _symmetry_equiv_pos_as_xyz
  1  'x, y, z'
loop_
 _atom_site_type_symbol
 _atom_site_label
 _atom_site_symmetry_multiplicity
 _atom_site_fract_x
 _atom_site_fract_y
 _atom_site_fract_z
 _atom_site_occupancy
  Sr  Sr0  1  0.75000000  0.31356423  0.31356423  1
  Sr  Sr1  1  0.75000000  0.90798781  0.90798781  1
  Sr  Sr2  1  0.25000000  0.09201219  0.09201219  1
  Sr  Sr3  1  0.25000000  0.68643577  0.68643577  1
  Re  Re4  1  0.74650302  0.37516925  0.79587626  1
  Re  Re5  1  0.75349698  0.79587626  0.37516925  1
  Re  Re6  1  0.24650302  0.20412374  0.62483075  1
  Re  Re7  1  0.25349698  0.62483075  0.20412374  1
  N  N8  1  0.33377897  0.01428202  0.76788032  1
  N  N9  1  0.33214104  0.40320361  0.13246175  1
  N  N10  1  0.01693474  0.64199972  0.33030064  1
  N  N11  1  0.83214104  0.86753825  0.59679639  1
  N  N12  1  0.66785896  0.59679639  0.86753825  1
  N  N13  1  0.66622103  0.98571798  0.23211968  1
  N  N14  1  0.83377897  0.23211968  0.98571798  1
  N  N15  1  0.51693474  0.66969936  0.35800028  1
  N  N16  1  0.48306526  0.33030064  0.64199972  1
  N  N17  1  0.16622103  0.76788032  0.01428202  1
  N  N18  1  0.16785896  0.13246175  0.40320361  1
  N  N19  1  0.98306526  0.35800028  0.66969936  1
