# generated using pymatgen
data_BeH16C4S2(ClO2)2
_symmetry_space_group_name_H-M   'P 1'
_cell_length_a   8.13366615
_cell_length_b   8.33772065
_cell_length_c   10.82499237
_cell_angle_alpha   86.41038592
_cell_angle_beta   83.34314603
_cell_angle_gamma   70.00044579
_symmetry_Int_Tables_number   1
_chemical_formula_structural   BeH16C4S2(ClO2)2
_chemical_formula_sum   'Be2 H32 C8 S4 Cl4 O8'
_cell_volume   684.98179391
_cell_formula_units_Z   2
loop_
 _symmetry_equiv_pos_site_id
 _symmetry_equiv_pos_as_xyz
  1  'x, y, z'
loop_
 _atom_site_type_symbol
 _atom_site_label
 _atom_site_symmetry_multiplicity
 _atom_site_fract_x
 _atom_site_fract_y
 _atom_site_fract_z
 _atom_site_occupancy
  Be  Be0  1  0.37244587  0.77497470  0.25424765  1
  Be  Be1  1  0.62755413  0.22502530  0.74575235  1
  H  H2  1  0.22810757  0.96734426  0.92613300  1
  H  H3  1  0.77189243  0.03265574  0.07386700  1
  H  H4  1  0.10757228  0.19421146  0.93297377  1
  H  H5  1  0.89242772  0.80578854  0.06702623  1
  H  H6  1  0.34425464  0.11624954  0.93434020  1
  H  H7  1  0.65574536  0.88375046  0.06565980  1
  H  H8  1  0.21977037  0.26962772  0.26334675  1
  H  H9  1  0.78022963  0.73037228  0.73665325  1
  H  H10  1  0.33435771  0.28031339  0.11066207  1
  H  H11  1  0.66564229  0.71968661  0.88933793  1
  H  H12  1  0.09689436  0.37120057  0.13467971  1
  H  H13  1  0.90310564  0.62879943  0.86532029  1
  H  H14  1  0.02551912  0.77932064  0.55477637  1
  H  H15  1  0.97448088  0.22067936  0.44522363  1
  H  H16  1  0.14263787  0.74012477  0.69321809  1
  H  H17  1  0.85736213  0.25987523  0.30678191  1
  H  H18  1  0.09733443  0.94424003  0.61046789  1
  H  H19  1  0.90266557  0.05575997  0.38953211  1
  H  H20  1  0.59262186  0.75874141  0.54418822  1
  H  H21  1  0.40737814  0.24125859  0.45581178  1
  H  H22  1  0.40019154  0.92655246  0.61294103  1
  H  H23  1  0.59980846  0.07344754  0.38705897  1
  H  H24  1  0.47162949  0.71642881  0.68650626  1
  H  H25  1  0.52837051  0.28357119  0.31349374  1
  H  H26  1  0.62733071  0.55605441  0.18253776  1
  H  H27  1  0.37266929  0.44394559  0.81746224  1
  H  H28  1  0.67402606  0.67164271  0.28016144  1
  H  H29  1  0.32597394  0.32835729  0.71983856  1
  H  H30  1  0.12881857  0.68433310  0.25657148  1
  H  H31  1  0.87118143  0.31566690  0.74342852  1
  H  H32  1  0.24963737  0.64951079  0.12230533  1
  H  H33  1  0.75036263  0.35048921  0.87769467  1
  C  C34  1  0.22181556  0.08980181  0.96229550  1
  C  C35  1  0.77818444  0.91019819  0.03770450  1
  C  C36  1  0.21439927  0.26924264  0.16277602  1
  C  C37  1  0.78560073  0.73075736  0.83722398  1
  C  C38  1  0.12506680  0.80648013  0.60212766  1
  C  C39  1  0.87493320  0.19351987  0.39787234  1
  C  C40  1  0.46279393  0.78888219  0.59766120  1
  C  C41  1  0.53720607  0.21111781  0.40233880  1
  S  S42  1  0.19294603  0.07176743  0.12751516  1
  S  S43  1  0.80705397  0.92823257  0.87248484  1
  S  S44  1  0.32754397  0.72281634  0.50809865  1
  S  S45  1  0.67245603  0.27718366  0.49190135  1
  Cl  Cl46  1  0.75263583  0.37012837  0.06355778  1
  Cl  Cl47  1  0.24736417  0.62987163  0.93644222  1
  Cl  Cl48  1  0.88206246  0.71344584  0.34349517  1
  Cl  Cl49  1  0.11793754  0.28655416  0.65650483  1
  O  O50  1  0.36977465  0.93598305  0.16143541  1
  O  O51  1  0.63022535  0.06401695  0.83856459  1
  O  O52  1  0.30292940  0.84796905  0.39296916  1
  O  O53  1  0.69707060  0.15203095  0.60703084  1
  O  O54  1  0.57478588  0.64146864  0.25114696  1
  O  O55  1  0.42521412  0.35853136  0.74885304  1
  O  O56  1  0.25028101  0.66842550  0.21353994  1
  O  O57  1  0.74971899  0.33157450  0.78646006  1
