# generated using pymatgen
data_TlFeF3
_symmetry_space_group_name_H-M   'P 1'
_cell_length_a   4.22959863
_cell_length_b   4.22356731
_cell_length_c   4.31014329
_cell_angle_alpha   90.06526289
_cell_angle_beta   90.04639511
_cell_angle_gamma   88.37989248
_symmetry_Int_Tables_number   1
_chemical_formula_structural   TlFeF3
_chemical_formula_sum   'Tl1 Fe1 F3'
_cell_volume   76.96552383
_cell_formula_units_Z   1
loop_
 _symmetry_equiv_pos_site_id
 _symmetry_equiv_pos_as_xyz
  1  'x, y, z'
loop_
 _atom_site_type_symbol
 _atom_site_label
 _atom_site_symmetry_multiplicity
 _atom_site_fract_x
 _atom_site_fract_y
 _atom_site_fract_z
 _atom_site_occupancy
  Tl  Tl0  1  0.99265734  0.99075569  0.00584330  1
  Fe  Fe1  1  0.49221217  0.49013790  0.50610868  1
  F  F2  1  0.49260047  0.99001746  0.50589669  1
  F  F3  1  0.99204274  0.49042089  0.50599011  1
  F  F4  1  0.49048827  0.48866706  0.00615821  1
