# generated using pymatgen
data_TlCoF3
_symmetry_space_group_name_H-M   'P 1'
_cell_length_a   4.19220307
_cell_length_b   4.19991422
_cell_length_c   4.20884828
_cell_angle_alpha   89.99350306
_cell_angle_beta   89.89452728
_cell_angle_gamma   89.79803020
_symmetry_Int_Tables_number   1
_chemical_formula_structural   TlCoF3
_chemical_formula_sum   'Tl1 Co1 F3'
_cell_volume   74.10415625
_cell_formula_units_Z   1
loop_
 _symmetry_equiv_pos_site_id
 _symmetry_equiv_pos_as_xyz
  1  'x, y, z'
loop_
 _atom_site_type_symbol
 _atom_site_label
 _atom_site_symmetry_multiplicity
 _atom_site_fract_x
 _atom_site_fract_y
 _atom_site_fract_z
 _atom_site_occupancy
  Tl  Tl0  1  0.00562560  0.00717422  0.00885774  1
  Co  Co1  1  0.50619440  0.50804683  0.51014459  1
  F  F2  1  0.50545465  0.50742043  0.01028832  1
  F  F3  1  0.50654763  0.00817613  0.50975015  1
  F  F4  1  0.00617572  0.50918039  0.51095820  1
