# generated using pymatgen
data_LiS4
_symmetry_space_group_name_H-M   'P 1'
_cell_length_a   12.84885883
_cell_length_b   12.21087109
_cell_length_c   12.92943896
_cell_angle_alpha   87.71993934
_cell_angle_beta   95.89573647
_cell_angle_gamma   91.74072973
_symmetry_Int_Tables_number   1
_chemical_formula_structural   LiS4
_chemical_formula_sum   'Li2 S8'
_cell_volume   2015.54093288
_cell_formula_units_Z   2
loop_
 _symmetry_equiv_pos_site_id
 _symmetry_equiv_pos_as_xyz
  1  'x, y, z'
loop_
 _atom_site_type_symbol
 _atom_site_label
 _atom_site_symmetry_multiplicity
 _atom_site_fract_x
 _atom_site_fract_y
 _atom_site_fract_z
 _atom_site_occupancy
  Li  Li0  1  0.68193939  0.64816013  0.53069996  1
  Li  Li1  1  0.51808734  0.51978832  0.46593926  1
  S  S2  1  0.70331980  0.46598695  0.48906096  1
  S  S3  1  0.64111352  0.42560566  0.62755319  1
  S  S4  1  0.54110562  0.29239634  0.60334161  1
  S  S5  1  0.41100974  0.34088587  0.50386051  1
  S  S6  1  0.31035676  0.41949339  0.59285259  1
  S  S7  1  0.30125576  0.58372703  0.54455097  1
  S  S8  1  0.42684513  0.67548204  0.60773435  1
  S  S9  1  0.51496695  0.71507728  0.48440761  1
