# generated using pymatgen
data_BaNdAgS3
_symmetry_space_group_name_H-M   'P 1'
_cell_length_a   4.21460333
_cell_length_b   7.24000354
_cell_length_c   10.64851744
_cell_angle_alpha   90.00000000
_cell_angle_beta   90.00000000
_cell_angle_gamma   106.92164439
_symmetry_Int_Tables_number   1
_chemical_formula_structural   BaNdAgS3
_chemical_formula_sum   'Ba2 Nd2 Ag2 S6'
_cell_volume   310.85802516
_cell_formula_units_Z   2
loop_
 _symmetry_equiv_pos_site_id
 _symmetry_equiv_pos_as_xyz
  1  'x, y, z'
loop_
 _atom_site_type_symbol
 _atom_site_label
 _atom_site_symmetry_multiplicity
 _atom_site_fract_x
 _atom_site_fract_y
 _atom_site_fract_z
 _atom_site_occupancy
  Ba  Ba0  1  0.74519511  0.49039021  0.25000000  1
  Ba  Ba1  1  0.25480489  0.50960979  0.75000000  1
  Nd  Nd2  1  -0.00000000  -0.00000000  0.50000000  1
  Nd  Nd3  1  -0.00000000  -0.00000000  0.00000000  1
  Ag  Ag4  1  0.46772740  0.93545480  0.25000000  1
  Ag  Ag5  1  0.53227260  0.06454520  0.75000000  1
  S  S6  1  0.36345692  0.72691384  0.44371887  1
  S  S7  1  0.63654308  0.27308616  0.55628113  1
  S  S8  1  0.36345692  0.72691384  0.05628113  1
  S  S9  1  0.63654308  0.27308616  0.94371887  1
  S  S10  1  0.07726161  0.15452321  0.25000000  1
  S  S11  1  0.92273839  0.84547679  0.75000000  1
