# generated using pymatgen
data_MgP3H16C3NO12
_symmetry_space_group_name_H-M   'P 1'
_cell_length_a   9.29760838
_cell_length_b   9.90238523
_cell_length_c   16.39419245
_cell_angle_alpha   90.00000000
_cell_angle_beta   90.00000000
_cell_angle_gamma   115.73402870
_symmetry_Int_Tables_number   1
_chemical_formula_structural   MgP3H16C3NO12
_chemical_formula_sum   'Mg4 P12 H64 C12 N4 O48'
_cell_volume   1359.68648828
_cell_formula_units_Z   4
loop_
 _symmetry_equiv_pos_site_id
 _symmetry_equiv_pos_as_xyz
  1  'x, y, z'
loop_
 _atom_site_type_symbol
 _atom_site_label
 _atom_site_symmetry_multiplicity
 _atom_site_fract_x
 _atom_site_fract_y
 _atom_site_fract_z
 _atom_site_occupancy
  Mg  Mg0  1  0.46157891  0.82987695  0.78984484  1
  Mg  Mg1  1  0.53842109  0.67012305  0.28984484  1
  Mg  Mg2  1  0.53842109  0.17012305  0.21015516  1
  Mg  Mg3  1  0.46157891  0.32987695  0.71015516  1
  P  P4  1  0.06023298  0.78389268  0.53698543  1
  P  P5  1  0.93976702  0.71610732  0.03698543  1
  P  P6  1  0.93976702  0.21610732  0.46301457  1
  P  P7  1  0.06023298  0.28389268  0.96301457  1
  P  P8  1  0.46087431  0.61938426  0.62047576  1
  P  P9  1  0.53912569  0.88061574  0.12047576  1
  P  P10  1  0.53912569  0.38061574  0.37952424  1
  P  P11  1  0.46087431  0.11938426  0.87952424  1
  P  P12  1  0.82960724  0.01013737  0.71631629  1
  P  P13  1  0.17039276  0.48986263  0.21631629  1
  P  P14  1  0.17039276  0.98986263  0.28368371  1
  P  P15  1  0.82960724  0.51013737  0.78368371  1
  H  H16  1  0.07819216  0.76979477  0.40343183  1
  H  H17  1  0.92180784  0.73020523  0.90343183  1
  H  H18  1  0.92180784  0.23020523  0.59656817  1
  H  H19  1  0.07819216  0.26979477  0.09656817  1
  H  H20  1  0.23746263  0.63229971  0.58317901  1
  H  H21  1  0.76253737  0.86770029  0.08317901  1
  H  H22  1  0.76253737  0.36770029  0.41682099  1
  H  H23  1  0.23746263  0.13229971  0.91682099  1
  H  H24  1  0.98259145  0.08504147  0.83152928  1
  H  H25  1  0.01740855  0.41495853  0.33152928  1
  H  H26  1  0.01740855  0.91495853  0.16847072  1
  H  H27  1  0.98259145  0.58504147  0.66847072  1
  H  H28  1  0.14731218  0.67199340  0.83412474  1
  H  H29  1  0.85268782  0.82800660  0.33412474  1
  H  H30  1  0.85268782  0.32800660  0.16587526  1
  H  H31  1  0.14731218  0.17199340  0.66587526  1
  H  H32  1  0.31609419  0.99365728  0.73241860  1
  H  H33  1  0.68390581  0.50634272  0.23241860  1
  H  H34  1  0.68390581  0.00634272  0.26758140  1
  H  H35  1  0.31609419  0.49365728  0.76758140  1
  H  H36  1  0.78238403  0.60425311  0.57044963  1
  H  H37  1  0.21761597  0.89574689  0.07044963  1
  H  H38  1  0.21761597  0.39574689  0.42955037  1
  H  H39  1  0.78238403  0.10425311  0.92955037  1
  H  H40  1  0.79688201  0.69837927  0.47703026  1
  H  H41  1  0.20311799  0.80162073  0.97703026  1
  H  H42  1  0.20311799  0.30162073  0.52296974  1
  H  H43  1  0.79688201  0.19837927  0.02296974  1
  H  H44  1  0.75015938  0.73971648  0.70188571  1
  H  H45  1  0.24984062  0.76028352  0.20188571  1
  H  H46  1  0.24984062  0.26028352  0.29811429  1
  H  H47  1  0.75015938  0.23971648  0.79811429  1
  H  H48  1  0.95249814  0.85304133  0.67514527  1
  H  H49  1  0.04750186  0.64695867  0.17514527  1
  H  H50  1  0.04750186  0.14695867  0.32485473  1
  H  H51  1  0.95249814  0.35304133  0.82485473  1
  H  H52  1  0.84697307  0.92316312  0.54866013  1
  H  H53  1  0.15302693  0.57683688  0.04866013  1
  H  H54  1  0.15302693  0.07683688  0.45133987  1
  H  H55  1  0.84697307  0.42316312  0.95133987  1
  H  H56  1  0.59446815  0.74948903  0.49777215  1
  H  H57  1  0.40553185  0.75051097  0.99777215  1
  H  H58  1  0.40553185  0.25051097  0.50222785  1
  H  H59  1  0.59446815  0.24948903  0.00222785  1
  H  H60  1  0.59213055  0.87559201  0.57490110  1
  H  H61  1  0.40786945  0.62440799  0.07490110  1
  H  H62  1  0.40786945  0.12440799  0.42509890  1
  H  H63  1  0.59213055  0.37559201  0.92509890  1
  H  H64  1  0.60315435  0.64643353  0.83228377  1
  H  H65  1  0.39684565  0.85356647  0.33228377  1
  H  H66  1  0.39684565  0.35356647  0.16771623  1
  H  H67  1  0.60315435  0.14643353  0.66771623  1
  H  H68  1  0.68121066  0.78675501  0.88967151  1
  H  H69  1  0.31878934  0.71324499  0.38967151  1
  H  H70  1  0.31878934  0.21324499  0.11032849  1
  H  H71  1  0.68121066  0.28675501  0.61032849  1
  H  H72  1  0.22523280  0.59006914  0.88795858  1
  H  H73  1  0.77476720  0.90993086  0.38795858  1
  H  H74  1  0.77476720  0.40993086  0.11204142  1
  H  H75  1  0.22523280  0.09006914  0.61204142  1
  H  H76  1  0.23773872  0.83768267  0.68066024  1
  H  H77  1  0.76226128  0.66231733  0.18066024  1
  H  H78  1  0.76226128  0.16231733  0.31933976  1
  H  H79  1  0.23773872  0.33768267  0.81933976  1
  C  C80  1  0.84081510  0.71322272  0.54003253  1
  C  C81  1  0.15918490  0.78677728  0.04003253  1
  C  C82  1  0.15918490  0.28677728  0.45996747  1
  C  C83  1  0.84081510  0.21322272  0.95996747  1
  C  C84  1  0.61277193  0.77637921  0.56292087  1
  C  C85  1  0.38722807  0.72362079  0.06292087  1
  C  C86  1  0.38722807  0.22362079  0.43707913  1
  C  C87  1  0.61277193  0.27637921  0.93707913  1
  C  C88  1  0.83013892  0.84147849  0.66920994  1
  C  C89  1  0.16986108  0.65852151  0.16920994  1
  C  C90  1  0.16986108  0.15852151  0.33079006  1
  C  C91  1  0.83013892  0.34147849  0.83079006  1
  N  N92  1  0.78727274  0.82064004  0.58014743  1
  N  N93  1  0.21272726  0.67935996  0.08014743  1
  N  N94  1  0.21272726  0.17935996  0.41985257  1
  N  N95  1  0.78727274  0.32064004  0.91985257  1
  O  O96  1  0.13205422  0.95385226  0.53630008  1
  O  O97  1  0.86794578  0.54614774  0.03630008  1
  O  O98  1  0.86794578  0.04614774  0.46369992  1
  O  O99  1  0.13205422  0.45385226  0.96369992  1
  O  O100  1  0.11232407  0.71311213  0.60775615  1
  O  O101  1  0.88767593  0.78688787  0.10775615  1
  O  O102  1  0.88767593  0.28688787  0.39224385  1
  O  O103  1  0.11232407  0.21311213  0.89224385  1
  O  O104  1  0.09349149  0.71790664  0.45509811  1
  O  O105  1  0.90650851  0.78209336  0.95509811  1
  O  O106  1  0.90650851  0.28209336  0.54490189  1
  O  O107  1  0.09349149  0.21790664  0.04490189  1
  O  O108  1  0.43911924  0.67411825  0.70365821  1
  O  O109  1  0.56088076  0.82588175  0.20365821  1
  O  O110  1  0.56088076  0.32588175  0.29634179  1
  O  O111  1  0.43911924  0.17411825  0.79634179  1
  O  O112  1  0.30818707  0.58511438  0.56492848  1
  O  O113  1  0.69181293  0.91488562  0.06492848  1
  O  O114  1  0.69181293  0.41488562  0.43507152  1
  O  O115  1  0.30818707  0.08511438  0.93507152  1
  O  O116  1  0.49956309  0.48624552  0.61935909  1
  O  O117  1  0.50043691  0.01375448  0.11935909  1
  O  O118  1  0.50043691  0.51375448  0.38064091  1
  O  O119  1  0.49956309  0.98624552  0.88064091  1
  O  O120  1  0.65982383  0.99453033  0.72154341  1
  O  O121  1  0.34017617  0.50546967  0.22154341  1
  O  O122  1  0.34017617  0.00546967  0.27845659  1
  O  O123  1  0.65982383  0.49453033  0.77845659  1
  O  O124  1  0.89442244  0.99648071  0.80385784  1
  O  O125  1  0.10557756  0.50351929  0.30385784  1
  O  O126  1  0.10557756  0.00351929  0.19614216  1
  O  O127  1  0.89442244  0.49648071  0.69614216  1
  O  O128  1  0.94769393  0.14701798  0.67031365  1
  O  O129  1  0.05230607  0.35298202  0.17031365  1
  O  O130  1  0.05230607  0.85298202  0.32968635  1
  O  O131  1  0.94769393  0.64701798  0.82968635  1
  O  O132  1  0.58555211  0.72822353  0.85780281  1
  O  O133  1  0.41444789  0.77177647  0.35780281  1
  O  O134  1  0.41444789  0.27177647  0.14219719  1
  O  O135  1  0.58555211  0.22822353  0.64219719  1
  O  O136  1  0.25034530  0.66801903  0.84533318  1
  O  O137  1  0.74965470  0.83198097  0.34533318  1
  O  O138  1  0.74965470  0.33198097  0.15466682  1
  O  O139  1  0.25034530  0.16801903  0.65466682  1
  O  O140  1  0.30942040  0.89262914  0.72599077  1
  O  O141  1  0.69057960  0.60737086  0.22599077  1
  O  O142  1  0.69057960  0.10737086  0.27400923  1
  O  O143  1  0.30942040  0.39262914  0.77400923  1
