# generated using pymatgen
data_CdBiBF10
_symmetry_space_group_name_H-M   'P 1'
_cell_length_a   8.57375481
_cell_length_b   9.23542088
_cell_length_c   9.61984723
_cell_angle_alpha   90.00000000
_cell_angle_beta   90.00000000
_cell_angle_gamma   94.29221170
_symmetry_Int_Tables_number   1
_chemical_formula_structural   CdBiBF10
_chemical_formula_sum   'Cd4 Bi4 B4 F40'
_cell_volume   759.58461017
_cell_formula_units_Z   4
loop_
 _symmetry_equiv_pos_site_id
 _symmetry_equiv_pos_as_xyz
  1  'x, y, z'
loop_
 _atom_site_type_symbol
 _atom_site_label
 _atom_site_symmetry_multiplicity
 _atom_site_fract_x
 _atom_site_fract_y
 _atom_site_fract_z
 _atom_site_occupancy
  Cd  Cd0  1  0.17377986  0.28445976  0.97873861  1
  Cd  Cd1  1  0.82622014  0.21554024  0.47873861  1
  Cd  Cd2  1  0.82622014  0.71554024  0.02126139  1
  Cd  Cd3  1  0.17377986  0.78445976  0.52126139  1
  Bi  Bi4  1  0.33556529  0.23701779  0.56636086  1
  Bi  Bi5  1  0.66443471  0.26298221  0.06636086  1
  Bi  Bi6  1  0.66443471  0.76298221  0.43363914  1
  Bi  Bi7  1  0.33556529  0.73701779  0.93363914  1
  B  B8  1  0.94098549  0.99582942  0.76910677  1
  B  B9  1  0.05901451  0.50417058  0.26910677  1
  B  B10  1  0.05901451  0.00417058  0.23089323  1
  B  B11  1  0.94098549  0.49582942  0.73089323  1
  F  F12  1  0.04194229  0.91269475  0.69068545  1
  F  F13  1  0.95805771  0.58730525  0.19068545  1
  F  F14  1  0.95805771  0.08730525  0.30931455  1
  F  F15  1  0.04194229  0.41269475  0.80931455  1
  F  F16  1  0.84797680  0.90289115  0.85813448  1
  F  F17  1  0.15202320  0.59710885  0.35813448  1
  F  F18  1  0.15202320  0.09710885  0.14186552  1
  F  F19  1  0.84797680  0.40289115  0.64186552  1
  F  F20  1  0.84224539  0.06723918  0.67750445  1
  F  F21  1  0.15775461  0.43276082  0.17750445  1
  F  F22  1  0.15775461  0.93276082  0.32249555  1
  F  F23  1  0.84224539  0.56723918  0.82249555  1
  F  F24  1  0.03007492  0.09876741  0.85064792  1
  F  F25  1  0.96992508  0.40123259  0.35064792  1
  F  F26  1  0.96992508  0.90123259  0.14935208  1
  F  F27  1  0.03007492  0.59876741  0.64935208  1
  F  F28  1  0.34513864  0.45531984  0.57793200  1
  F  F29  1  0.65486136  0.04468016  0.07793200  1
  F  F30  1  0.65486136  0.54468016  0.42206800  1
  F  F31  1  0.34513864  0.95531984  0.92206800  1
  F  F32  1  0.32299941  0.01300587  0.57191046  1
  F  F33  1  0.67700059  0.48699413  0.07191046  1
  F  F34  1  0.67700059  0.98699413  0.42808954  1
  F  F35  1  0.32299941  0.51300587  0.92808954  1
  F  F36  1  0.09347878  0.22131322  0.55642635  1
  F  F37  1  0.90652122  0.27868678  0.05642635  1
  F  F38  1  0.90652122  0.77868678  0.44357365  1
  F  F39  1  0.09347878  0.72131322  0.94357365  1
  F  F40  1  0.57726985  0.23734155  0.57138926  1
  F  F41  1  0.42273015  0.26265845  0.07138926  1
  F  F42  1  0.42273015  0.76265845  0.42861074  1
  F  F43  1  0.57726985  0.73734155  0.92861074  1
  F  F44  1  0.34311858  0.23710177  0.35778955  1
  F  F45  1  0.65688142  0.26289823  0.85778955  1
  F  F46  1  0.65688142  0.76289823  0.64221045  1
  F  F47  1  0.34311858  0.73710177  0.14221045  1
  F  F48  1  0.32077898  0.23464782  0.78144749  1
  F  F49  1  0.67922102  0.26535218  0.28144749  1
  F  F50  1  0.67922102  0.76535218  0.21855251  1
  F  F51  1  0.32077898  0.73464782  0.71855251  1
