# generated using pymatgen
data_Nd2Ga12Pd
_symmetry_space_group_name_H-M   'P 1'
_cell_length_a   6.11660420
_cell_length_b   6.11660420
_cell_length_c   15.68453350
_cell_angle_alpha   90.00000000
_cell_angle_beta   90.00000000
_cell_angle_gamma   90.00000000
_symmetry_Int_Tables_number   1
_chemical_formula_structural   Nd2Ga12Pd
_chemical_formula_sum   'Nd4 Ga24 Pd2'
_cell_volume   586.80305115
_cell_formula_units_Z   2
loop_
 _symmetry_equiv_pos_site_id
 _symmetry_equiv_pos_as_xyz
  1  'x, y, z'
loop_
 _atom_site_type_symbol
 _atom_site_label
 _atom_site_symmetry_multiplicity
 _atom_site_fract_x
 _atom_site_fract_y
 _atom_site_fract_z
 _atom_site_occupancy
  Nd  Nd0  1  0.75000000  0.25000000  0.24822682  1
  Nd  Nd1  1  0.25000000  0.75000000  0.24822682  1
  Nd  Nd2  1  0.25000000  0.75000000  0.75177318  1
  Nd  Nd3  1  0.75000000  0.25000000  0.75177318  1
  Ga  Ga4  1  0.25000000  0.25000000  0.18569532  1
  Ga  Ga5  1  0.75000000  0.75000000  0.18569532  1
  Ga  Ga6  1  0.75000000  0.75000000  0.81430468  1
  Ga  Ga7  1  0.25000000  0.25000000  0.81430468  1
  Ga  Ga8  1  0.25000000  0.25000000  0.34224904  1
  Ga  Ga9  1  0.75000000  0.75000000  0.34224904  1
  Ga  Ga10  1  0.75000000  0.75000000  0.65775096  1
  Ga  Ga11  1  0.25000000  0.25000000  0.65775096  1
  Ga  Ga12  1  0.50049636  0.00049636  0.91193949  1
  Ga  Ga13  1  0.00049636  0.99950364  0.91193949  1
  Ga  Ga14  1  0.49950364  0.50049636  0.91193949  1
  Ga  Ga15  1  0.99950364  0.49950364  0.91193949  1
  Ga  Ga16  1  0.49950364  0.99950364  0.08806051  1
  Ga  Ga17  1  0.99950364  0.00049636  0.08806051  1
  Ga  Ga18  1  0.50049636  0.49950364  0.08806051  1
  Ga  Ga19  1  0.00049636  0.50049636  0.08806051  1
  Ga  Ga20  1  0.57481137  0.07481137  0.42882146  1
  Ga  Ga21  1  0.07481137  0.92518863  0.42882146  1
  Ga  Ga22  1  0.42518863  0.57481137  0.42882146  1
  Ga  Ga23  1  0.92518863  0.42518863  0.42882146  1
  Ga  Ga24  1  0.42518863  0.92518863  0.57117854  1
  Ga  Ga25  1  0.92518863  0.07481137  0.57117854  1
  Ga  Ga26  1  0.57481137  0.42518863  0.57117854  1
  Ga  Ga27  1  0.07481137  0.57481137  0.57117854  1
  Pd  Pd28  1  0.75000000  0.25000000  -0.00000000  1
  Pd  Pd29  1  0.25000000  0.75000000  -0.00000000  1
