# generated using pymatgen
data_DySiPt2
_symmetry_space_group_name_H-M   'P 1'
_cell_length_a   5.55503553
_cell_length_b   6.96498894
_cell_length_c   7.36034026
_cell_angle_alpha   90.00000000
_cell_angle_beta   90.00000000
_cell_angle_gamma   90.00000000
_symmetry_Int_Tables_number   1
_chemical_formula_structural   DySiPt2
_chemical_formula_sum   'Dy4 Si4 Pt8'
_cell_volume   284.77716608
_cell_formula_units_Z   4
loop_
 _symmetry_equiv_pos_site_id
 _symmetry_equiv_pos_as_xyz
  1  'x, y, z'
loop_
 _atom_site_type_symbol
 _atom_site_label
 _atom_site_symmetry_multiplicity
 _atom_site_fract_x
 _atom_site_fract_y
 _atom_site_fract_z
 _atom_site_occupancy
  Dy  Dy0  1  0.13771980  0.75000000  0.47221970  1
  Dy  Dy1  1  0.36228020  0.75000000  0.97221970  1
  Dy  Dy2  1  0.86228020  0.25000000  0.52778030  1
  Dy  Dy3  1  0.63771980  0.25000000  0.02778030  1
  Si  Si4  1  0.86122065  0.75000000  0.11967171  1
  Si  Si5  1  0.63877935  0.75000000  0.61967171  1
  Si  Si6  1  0.13877935  0.25000000  0.88032829  1
  Si  Si7  1  0.36122065  0.25000000  0.38032829  1
  Pt  Pt8  1  0.59190161  0.94941161  0.31884136  1
  Pt  Pt9  1  0.90809839  0.55058839  0.81884136  1
  Pt  Pt10  1  0.40809839  0.44941161  0.68115864  1
  Pt  Pt11  1  0.09190161  0.05058839  0.18115864  1
  Pt  Pt12  1  0.40809839  0.05058839  0.68115864  1
  Pt  Pt13  1  0.09190161  0.44941161  0.18115864  1
  Pt  Pt14  1  0.59190161  0.55058839  0.31884136  1
  Pt  Pt15  1  0.90809839  0.94941161  0.81884136  1
