# generated using pymatgen
data_K2TiO3F4
_symmetry_space_group_name_H-M   'P 1'
_cell_length_a   6.67663455
_cell_length_b   9.34679800
_cell_length_c   12.06156283
_cell_angle_alpha   69.47911636
_cell_angle_beta   73.93228963
_cell_angle_gamma   69.07402169
_symmetry_Int_Tables_number   1
_chemical_formula_structural   K2TiO3F4
_chemical_formula_sum   'K8 Ti4 O12 F16'
_cell_volume   648.48523481
_cell_formula_units_Z   4
loop_
 _symmetry_equiv_pos_site_id
 _symmetry_equiv_pos_as_xyz
  1  'x, y, z'
loop_
 _atom_site_type_symbol
 _atom_site_label
 _atom_site_symmetry_multiplicity
 _atom_site_fract_x
 _atom_site_fract_y
 _atom_site_fract_z
 _atom_site_occupancy
  K  K0  1  0.04110883  0.04534649  0.33689967  1
  K  K1  1  0.42335499  0.45465351  0.16310033  1
  K  K2  1  0.95889117  0.95465351  0.66310033  1
  K  K3  1  0.57664501  0.54534649  0.83689967  1
  K  K4  1  0.80804461  0.50631333  0.36376791  1
  K  K5  1  0.67812586  0.99368667  0.13623209  1
  K  K6  1  0.19195539  0.49368667  0.63623209  1
  K  K7  1  0.32187414  0.00631333  0.86376791  1
  Ti  Ti8  1  0.00011612  0.30617859  0.03382931  1
  Ti  Ti9  1  0.34012401  0.19382141  0.46617069  1
  Ti  Ti10  1  0.99988388  0.69382141  0.96617069  1
  Ti  Ti11  1  0.65987599  0.80617859  0.53382931  1
  O  O12  1  0.07774732  0.07739949  0.08385224  1
  O  O13  1  0.23899905  0.42260051  0.41614776  1
  O  O14  1  0.92225268  0.92260051  0.91614776  1
  O  O15  1  0.76100095  0.57739949  0.58385224  1
  O  O16  1  0.25621892  0.13800049  0.07702262  1
  O  O17  1  0.47124203  0.36199951  0.42297738  1
  O  O18  1  0.74378108  0.86199951  0.92297738  1
  O  O19  1  0.52875797  0.63800049  0.57702262  1
  O  O20  1  0.33393298  0.74803382  0.30405674  1
  O  O21  1  0.38602354  0.75196618  0.19594326  1
  O  O22  1  0.66606702  0.25196618  0.69594326  1
  O  O23  1  0.61397646  0.24803382  0.80405674  1
  F  F24  1  0.92286814  0.67175001  0.13460522  1
  F  F25  1  0.72922337  0.82824999  0.36539478  1
  F  F26  1  0.07713186  0.32824999  0.86539478  1
  F  F27  1  0.27077663  0.17175001  0.63460522  1
  F  F28  1  0.18937891  0.44619655  0.01591093  1
  F  F29  1  0.65148640  0.05380345  0.48408907  1
  F  F30  1  0.81062109  0.55380345  0.98408907  1
  F  F31  1  0.34851360  0.94619655  0.51591093  1
  F  F32  1  0.87683051  0.32956070  0.19239163  1
  F  F33  1  0.39878283  0.17043930  0.30760837  1
  F  F34  1  0.12316949  0.67043930  0.80760837  1
  F  F35  1  0.60121717  0.82956070  0.69239163  1
  F  F36  1  0.03442345  0.21337653  0.47281598  1
  F  F37  1  0.72061596  0.28662347  0.02718402  1
  F  F38  1  0.96557655  0.78662347  0.52718402  1
  F  F39  1  0.27938404  0.71337653  0.97281598  1
