# generated using pymatgen
data_ZnCu2SiS4
_symmetry_space_group_name_H-M   'P 1'
_cell_length_a   6.14609270
_cell_length_b   6.40640382
_cell_length_c   7.43501264
_cell_angle_alpha   90.00000000
_cell_angle_beta   90.02104303
_cell_angle_gamma   90.00000000
_symmetry_Int_Tables_number   1
_chemical_formula_structural   ZnCu2SiS4
_chemical_formula_sum   'Zn2 Cu4 Si2 S8'
_cell_volume   292.74878321
_cell_formula_units_Z   2
loop_
 _symmetry_equiv_pos_site_id
 _symmetry_equiv_pos_as_xyz
  1  'x, y, z'
loop_
 _atom_site_type_symbol
 _atom_site_label
 _atom_site_symmetry_multiplicity
 _atom_site_fract_x
 _atom_site_fract_y
 _atom_site_fract_z
 _atom_site_occupancy
  Zn  Zn0  1  0.41703340  0.32468839  0.27094565  1
  Zn  Zn1  1  0.91703340  0.67531161  0.77094565  1
  Cu  Cu2  1  0.42112404  0.32742916  0.77708832  1
  Cu  Cu3  1  0.92112404  0.67257084  0.27708832  1
  Cu  Cu4  1  0.91581549  0.15260569  0.02556308  1
  Cu  Cu5  1  0.41581549  0.84739431  0.52556308  1
  Si  Si6  1  0.41418767  0.82567719  0.02425118  1
  Si  Si7  1  0.91418767  0.17432281  0.52425118  1
  S  S8  1  0.79977583  0.32933655  0.28449765  1
  S  S9  1  0.29977583  0.67066345  0.78449765  1
  S  S10  1  0.79469981  0.32669990  0.76402994  1
  S  S11  1  0.29469981  0.67330010  0.26402994  1
  S  S12  1  0.76487078  0.82330701  0.02861005  1
  S  S13  1  0.26487078  0.17669299  0.52861005  1
  S  S14  1  0.29059297  0.14049913  0.02061413  1
  S  S15  1  0.79059297  0.85950087  0.52061413  1
