# generated using pymatgen
data_Hf9Re4As
_symmetry_space_group_name_H-M   'P 1'
_cell_length_a   8.62868752
_cell_length_b   8.62868752
_cell_length_c   8.64623601
_cell_angle_alpha   90.00000000
_cell_angle_beta   90.00000000
_cell_angle_gamma   120.19393454
_symmetry_Int_Tables_number   1
_chemical_formula_structural   Hf9Re4As
_chemical_formula_sum   'Hf18 Re8 As2'
_cell_volume   556.41031970
_cell_formula_units_Z   2
loop_
 _symmetry_equiv_pos_site_id
 _symmetry_equiv_pos_as_xyz
  1  'x, y, z'
loop_
 _atom_site_type_symbol
 _atom_site_label
 _atom_site_symmetry_multiplicity
 _atom_site_fract_x
 _atom_site_fract_y
 _atom_site_fract_z
 _atom_site_occupancy
  Hf  Hf0  1  0.80624888  0.61200262  0.54487068  1
  Hf  Hf1  1  0.80509896  0.19490104  0.54462631  1
  Hf  Hf2  1  0.38799738  0.19375112  0.54487068  1
  Hf  Hf3  1  0.19375112  0.38799738  0.45512932  1
  Hf  Hf4  1  0.19490104  0.80509896  0.45537369  1
  Hf  Hf5  1  0.61200262  0.80624888  0.45512932  1
  Hf  Hf6  1  0.19375112  0.38799738  0.04487068  1
  Hf  Hf7  1  0.19490104  0.80509896  0.04462631  1
  Hf  Hf8  1  0.61200262  0.80624888  0.04487068  1
  Hf  Hf9  1  0.80624888  0.61200262  0.95512932  1
  Hf  Hf10  1  0.80509896  0.19490104  0.95537369  1
  Hf  Hf11  1  0.38799738  0.19375112  0.95512932  1
  Hf  Hf12  1  0.45963896  0.91888687  0.75000000  1
  Hf  Hf13  1  0.45931926  0.54068074  0.75000000  1
  Hf  Hf14  1  0.08111313  0.54036104  0.75000000  1
  Hf  Hf15  1  0.54036104  0.08111313  0.25000000  1
  Hf  Hf16  1  0.54068074  0.45931926  0.25000000  1
  Hf  Hf17  1  0.91888687  0.45963896  0.25000000  1
  Re  Re18  1  0.10862421  0.21748500  0.75000000  1
  Re  Re19  1  0.10909772  0.89090228  0.75000000  1
  Re  Re20  1  0.78251500  0.89137579  0.75000000  1
  Re  Re21  1  0.89137579  0.78251500  0.25000000  1
  Re  Re22  1  0.89090228  0.10909772  0.25000000  1
  Re  Re23  1  0.21748500  0.10862421  0.25000000  1
  Re  Re24  1  0.00000000  -0.00000000  0.50000000  1
  Re  Re25  1  0.00000000  -0.00000000  -0.00000000  1
  As  As26  1  0.66671054  0.33328946  0.75000000  1
  As  As27  1  0.33328946  0.66671054  0.25000000  1
