# generated using pymatgen
data_Sr3Yb2(BO3)4
_symmetry_space_group_name_H-M   'P 1'
_cell_length_a   7.52365057
_cell_length_b   8.73204551
_cell_length_c   16.29753946
_cell_angle_alpha   90.00000000
_cell_angle_beta   90.00000000
_cell_angle_gamma   90.00000000
_symmetry_Int_Tables_number   1
_chemical_formula_structural   Sr3Yb2(BO3)4
_chemical_formula_sum   'Sr12 Yb8 B16 O48'
_cell_volume   1070.69715486
_cell_formula_units_Z   4
loop_
 _symmetry_equiv_pos_site_id
 _symmetry_equiv_pos_as_xyz
  1  'x, y, z'
loop_
 _atom_site_type_symbol
 _atom_site_label
 _atom_site_symmetry_multiplicity
 _atom_site_fract_x
 _atom_site_fract_y
 _atom_site_fract_z
 _atom_site_occupancy
  Sr  Sr0  1  0.01952763  0.33430177  0.45259130  1
  Sr  Sr1  1  0.98047237  0.66569823  0.95259130  1
  Sr  Sr2  1  0.51952763  0.16569823  0.45259130  1
  Sr  Sr3  1  0.48047237  0.83430177  0.95259130  1
  Sr  Sr4  1  0.18123417  0.84189147  0.40854828  1
  Sr  Sr5  1  0.81876583  0.15810853  0.90854828  1
  Sr  Sr6  1  0.68123417  0.65810853  0.40854828  1
  Sr  Sr7  1  0.31876583  0.34189147  0.90854828  1
  Sr  Sr8  1  0.30250616  0.34659573  0.66744839  1
  Sr  Sr9  1  0.69749384  0.65340427  0.16744839  1
  Sr  Sr10  1  0.80250616  0.15340427  0.66744839  1
  Sr  Sr11  1  0.19749384  0.84659573  0.16744839  1
  Yb  Yb12  1  0.31653091  0.47246683  0.28789055  1
  Yb  Yb13  1  0.68346909  0.52753317  0.78789055  1
  Yb  Yb14  1  0.81653091  0.02753317  0.28789055  1
  Yb  Yb15  1  0.18346909  0.97246683  0.78789055  1
  Yb  Yb16  1  0.01809110  0.33066923  0.12687239  1
  Yb  Yb17  1  0.98190890  0.66933077  0.62687239  1
  Yb  Yb18  1  0.51809110  0.16933077  0.12687239  1
  Yb  Yb19  1  0.48190890  0.83066923  0.62687239  1
  B  B20  1  0.17297722  0.05841362  0.99965450  1
  B  B21  1  0.82702278  0.94158638  0.49965450  1
  B  B22  1  0.67297722  0.44158638  0.99965450  1
  B  B23  1  0.32702278  0.55841362  0.49965450  1
  B  B24  1  0.00607841  0.37454978  0.78661774  1
  B  B25  1  0.99392159  0.62545022  0.28661774  1
  B  B26  1  0.50607841  0.12545022  0.78661774  1
  B  B27  1  0.49392159  0.87454978  0.28661774  1
  B  B28  1  0.15954491  0.04196234  0.58492998  1
  B  B29  1  0.84045509  0.95803766  0.08492998  1
  B  B30  1  0.65954491  0.45803766  0.58492998  1
  B  B31  1  0.34045509  0.54196234  0.08492998  1
  B  B32  1  0.21383265  0.15523526  0.28613780  1
  B  B33  1  0.78616735  0.84476474  0.78613780  1
  B  B34  1  0.71383265  0.34476474  0.28613780  1
  B  B35  1  0.28616735  0.65523526  0.78613780  1
  O  O36  1  0.24766342  0.22662887  0.21183048  1
  O  O37  1  0.75233658  0.77337113  0.71183048  1
  O  O38  1  0.74766342  0.27337113  0.21183048  1
  O  O39  1  0.25233658  0.72662887  0.71183048  1
  O  O40  1  0.09002938  0.18774609  0.58150330  1
  O  O41  1  0.90997062  0.81225391  0.08150330  1
  O  O42  1  0.59002938  0.31225391  0.58150330  1
  O  O43  1  0.40997062  0.68774609  0.08150330  1
  O  O44  1  0.09424079  0.20092498  0.00200727  1
  O  O45  1  0.90575921  0.79907502  0.50200727  1
  O  O46  1  0.59424079  0.29907502  0.00200727  1
  O  O47  1  0.40575921  0.70092498  0.50200727  1
  O  O48  1  0.12726137  0.01725172  0.28732497  1
  O  O49  1  0.87273863  0.98274828  0.78732497  1
  O  O50  1  0.62726137  0.48274828  0.28732497  1
  O  O51  1  0.37273863  0.51725172  0.78732497  1
  O  O52  1  0.20727827  0.49359090  0.03470059  1
  O  O53  1  0.79272173  0.50640910  0.53470059  1
  O  O54  1  0.70727827  0.00640910  0.03470059  1
  O  O55  1  0.29272173  0.99359090  0.53470059  1
  O  O56  1  0.11053843  0.24223228  0.78725664  1
  O  O57  1  0.88946157  0.75776772  0.28725664  1
  O  O58  1  0.61053843  0.25776772  0.78725664  1
  O  O59  1  0.38946157  0.74223228  0.28725664  1
  O  O60  1  0.04429025  0.55648985  0.21330996  1
  O  O61  1  0.95570975  0.44351015  0.71330996  1
  O  O62  1  0.54429025  0.94351015  0.21330996  1
  O  O63  1  0.45570975  0.05648985  0.71330996  1
  O  O64  1  0.25928378  0.22317317  0.35936078  1
  O  O65  1  0.74071622  0.77682683  0.85936078  1
  O  O66  1  0.75928378  0.27682683  0.35936078  1
  O  O67  1  0.24071622  0.72317317  0.85936078  1
  O  O68  1  0.39033966  0.46611611  0.43717831  1
  O  O69  1  0.60966034  0.53388389  0.93717831  1
  O  O70  1  0.89033966  0.03388389  0.43717831  1
  O  O71  1  0.10966034  0.96611611  0.93717831  1
  O  O72  1  0.41210352  0.44991604  0.14571304  1
  O  O73  1  0.58789648  0.55008396  0.64571304  1
  O  O74  1  0.91210352  0.05008396  0.14571304  1
  O  O75  1  0.08789648  0.94991604  0.64571304  1
  O  O76  1  0.30675220  0.01763506  0.05191630  1
  O  O77  1  0.69324780  0.98236494  0.55191630  1
  O  O78  1  0.80675220  0.48236494  0.05191630  1
  O  O79  1  0.19324780  0.51763506  0.55191630  1
  O  O80  1  0.05743226  0.56802582  0.36020743  1
  O  O81  1  0.94256774  0.43197418  0.86020743  1
  O  O82  1  0.55743226  0.93197418  0.36020743  1
  O  O83  1  0.44256774  0.06802582  0.86020743  1
