# generated using pymatgen
data_Rb5TiSb7O22
_symmetry_space_group_name_H-M   'P 1'
_cell_length_a   7.38764533
_cell_length_b   7.38764533
_cell_length_c   20.87946715
_cell_angle_alpha   96.19942112
_cell_angle_beta   96.19942112
_cell_angle_gamma   90.02385485
_symmetry_Int_Tables_number   1
_chemical_formula_structural   Rb5TiSb7O22
_chemical_formula_sum   'Rb10 Ti2 Sb14 O44'
_cell_volume   1126.17189162
_cell_formula_units_Z   2
loop_
 _symmetry_equiv_pos_site_id
 _symmetry_equiv_pos_as_xyz
  1  'x, y, z'
loop_
 _atom_site_type_symbol
 _atom_site_label
 _atom_site_symmetry_multiplicity
 _atom_site_fract_x
 _atom_site_fract_y
 _atom_site_fract_z
 _atom_site_occupancy
  Rb  Rb0  1  0.73261903  0.50796629  0.97536110  1
  Rb  Rb1  1  0.49259509  0.26751278  0.52517879  1
  Rb  Rb2  1  0.26751278  0.49259509  0.02517879  1
  Rb  Rb3  1  0.50796629  0.73261903  0.47536110  1
  Rb  Rb4  1  0.90542020  0.52827818  0.15329144  1
  Rb  Rb5  1  0.47073488  0.09404475  0.34660098  1
  Rb  Rb6  1  0.09404475  0.47073488  0.84660098  1
  Rb  Rb7  1  0.52827818  0.90542020  0.65329144  1
  Rb  Rb8  1  0.93729152  0.06238978  0.24933394  1
  Rb  Rb9  1  0.06238978  0.93729152  0.74933394  1
  Ti  Ti10  1  0.62798831  0.01243946  0.07462300  1
  Ti  Ti11  1  0.01243946  0.62798831  0.57462300  1
  Sb  Sb12  1  0.41313763  0.29610094  0.18834402  1
  Sb  Sb13  1  0.70146980  0.58858861  0.31061978  1
  Sb  Sb14  1  0.58858861  0.70146980  0.81061978  1
  Sb  Sb15  1  0.29610094  0.41313763  0.68834402  1
  Sb  Sb16  1  0.10381527  0.01090563  0.06753752  1
  Sb  Sb17  1  0.98933642  0.89562298  0.43226225  1
  Sb  Sb18  1  0.89562298  0.98933642  0.93226225  1
  Sb  Sb19  1  0.01090563  0.10381527  0.56753752  1
  Sb  Sb20  1  0.41145328  0.78788410  0.18389964  1
  Sb  Sb21  1  0.21498795  0.59009992  0.31457261  1
  Sb  Sb22  1  0.59009992  0.21498795  0.81457261  1
  Sb  Sb23  1  0.78788410  0.41145328  0.68389964  1
  Sb  Sb24  1  0.98862252  0.38364326  0.42902077  1
  Sb  Sb25  1  0.38364326  0.98862252  0.92902077  1
  O  O26  1  0.24956458  0.35792783  0.25841616  1
  O  O27  1  0.64429376  0.75160283  0.24106781  1
  O  O28  1  0.75160283  0.64429376  0.74106781  1
  O  O29  1  0.35792783  0.24956458  0.75841616  1
  O  O30  1  0.56891468  0.23129035  0.11491792  1
  O  O31  1  0.74867405  0.42597417  0.38700222  1
  O  O32  1  0.42597417  0.74867405  0.88700222  1
  O  O33  1  0.23129035  0.56891468  0.61491792  1
  O  O34  1  0.34644628  0.00901947  0.02132583  1
  O  O35  1  0.99173193  0.65049354  0.47853075  1
  O  O36  1  0.65049354  0.99173193  0.97853075  1
  O  O37  1  0.00901947  0.34644628  0.52132583  1
  O  O38  1  0.99760902  0.18225127  0.00304928  1
  O  O39  1  0.81797432  0.00195546  0.49583688  1
  O  O40  1  0.00195546  0.81797432  0.99583688  1
  O  O41  1  0.18225127  0.99760902  0.50304928  1
  O  O42  1  0.18979298  0.81488273  0.11935546  1
  O  O43  1  0.18418317  0.80804146  0.37982720  1
  O  O44  1  0.80804146  0.18418317  0.87982720  1
  O  O45  1  0.81488273  0.18979298  0.61935546  1
  O  O46  1  0.18643555  0.22658133  0.12705705  1
  O  O47  1  0.77368508  0.81217545  0.37248434  1
  O  O48  1  0.81217545  0.77368508  0.87248434  1
  O  O49  1  0.22658133  0.18643555  0.62705705  1
  O  O50  1  0.86905671  0.01309842  0.10445220  1
  O  O51  1  0.98649432  0.12957567  0.39104512  1
  O  O52  1  0.12957567  0.98649432  0.89104512  1
  O  O53  1  0.01309842  0.86905671  0.60445220  1
  O  O54  1  0.44565813  0.04901064  0.21594641  1
  O  O55  1  0.95219962  0.54836641  0.28735720  1
  O  O56  1  0.54836641  0.95219962  0.78735720  1
  O  O57  1  0.04901064  0.44565813  0.71594641  1
  O  O58  1  0.38454398  0.52883544  0.15085794  1
  O  O59  1  0.47153680  0.61699103  0.34923577  1
  O  O60  1  0.61699103  0.47153680  0.84923577  1
  O  O61  1  0.52883544  0.38454398  0.65085794  1
  O  O62  1  0.23475634  0.76590572  0.24963602  1
  O  O63  1  0.76590572  0.23475634  0.74963602  1
  O  O64  1  0.56111776  0.80952412  0.10877495  1
  O  O65  1  0.21100651  0.43437583  0.39319334  1
  O  O66  1  0.43437583  0.21100651  0.89319334  1
  O  O67  1  0.80952412  0.56111776  0.60877495  1
  O  O68  1  0.63827794  0.36321874  0.24998429  1
  O  O69  1  0.36321874  0.63827794  0.74998429  1
