# generated using pymatgen
data_La3(P3Pd10)2
_symmetry_space_group_name_H-M   'P 1'
_cell_length_a   8.79623721
_cell_length_b   8.79623721
_cell_length_c   8.79623721
_cell_angle_alpha   60.00000000
_cell_angle_beta   60.00000000
_cell_angle_gamma   60.00000000
_symmetry_Int_Tables_number   1
_chemical_formula_structural   La3(P3Pd10)2
_chemical_formula_sum   'La3 P6 Pd20'
_cell_volume   481.25560413
_cell_formula_units_Z   1
loop_
 _symmetry_equiv_pos_site_id
 _symmetry_equiv_pos_as_xyz
  1  'x, y, z'
loop_
 _atom_site_type_symbol
 _atom_site_label
 _atom_site_symmetry_multiplicity
 _atom_site_fract_x
 _atom_site_fract_y
 _atom_site_fract_z
 _atom_site_occupancy
  La  La0  1  0.75000000  0.75000000  0.75000000  1
  La  La1  1  0.25000000  0.25000000  0.25000000  1
  La  La2  1  -0.00000000  0.00000000  -0.00000000  1
  P  P3  1  0.73671375  0.73671375  0.26328625  1
  P  P4  1  0.26328625  0.26328625  0.73671375  1
  P  P5  1  0.73671375  0.26328625  0.73671375  1
  P  P6  1  0.26328625  0.73671375  0.26328625  1
  P  P7  1  0.26328625  0.73671375  0.73671375  1
  P  P8  1  0.73671375  0.26328625  0.26328625  1
  Pd  Pd9  1  0.61383998  0.61383998  0.61383998  1
  Pd  Pd10  1  0.38616002  0.38616002  0.38616002  1
  Pd  Pd11  1  0.15848006  0.61383998  0.61383998  1
  Pd  Pd12  1  0.61383998  0.15848006  0.61383998  1
  Pd  Pd13  1  0.84151994  0.38616002  0.38616002  1
  Pd  Pd14  1  0.38616002  0.84151994  0.38616002  1
  Pd  Pd15  1  0.61383998  0.61383998  0.15848006  1
  Pd  Pd16  1  0.38616002  0.38616002  0.84151994  1
  Pd  Pd17  1  0.00000000  0.00000000  0.65367646  1
  Pd  Pd18  1  -0.00000000  0.00000000  0.34632354  1
  Pd  Pd19  1  0.34632354  0.65367646  0.00000000  1
  Pd  Pd20  1  0.65367646  0.34632354  -0.00000000  1
  Pd  Pd21  1  0.00000000  0.65367646  -0.00000000  1
  Pd  Pd22  1  0.65367646  0.00000000  0.34632354  1
  Pd  Pd23  1  -0.00000000  0.34632354  -0.00000000  1
  Pd  Pd24  1  0.34632354  -0.00000000  0.65367646  1
  Pd  Pd25  1  0.65367646  0.00000000  -0.00000000  1
  Pd  Pd26  1  0.34632354  -0.00000000  -0.00000000  1
  Pd  Pd27  1  -0.00000000  0.65367646  0.34632354  1
  Pd  Pd28  1  0.00000000  0.34632354  0.65367646  1
