# generated using pymatgen
data_Tm2(B2Rh3)3
_symmetry_space_group_name_H-M   'P 1'
_cell_length_a   5.59280780
_cell_length_b   5.59207973
_cell_length_c   8.56714675
_cell_angle_alpha   89.99849409
_cell_angle_beta   90.00301146
_cell_angle_gamma   120.00430983
_symmetry_Int_Tables_number   1
_chemical_formula_structural   Tm2(B2Rh3)3
_chemical_formula_sum   'Tm2 B6 Rh9'
_cell_volume   232.03378492
_cell_formula_units_Z   1
loop_
 _symmetry_equiv_pos_site_id
 _symmetry_equiv_pos_as_xyz
  1  'x, y, z'
loop_
 _atom_site_type_symbol
 _atom_site_label
 _atom_site_symmetry_multiplicity
 _atom_site_fract_x
 _atom_site_fract_y
 _atom_site_fract_z
 _atom_site_occupancy
  Tm  Tm0  1  0.00000256  0.00000000  0.29541847  1
  Tm  Tm1  1  0.99999586  -0.00000000  0.70455693  1
  B  B2  1  0.33330264  0.66662608  0.00000705  1
  B  B3  1  0.66667656  0.33337392  0.00000705  1
  B  B4  1  0.33334894  0.66671484  0.33277047  1
  B  B5  1  0.66663410  0.33328516  0.33277047  1
  B  B6  1  0.66662996  0.33328610  0.66722982  1
  B  B7  1  0.33334386  0.66671390  0.66722982  1
  Rh  Rh8  1  0.49996219  0.00000000  0.16496468  1
  Rh  Rh9  1  0.49997032  0.49999188  0.16490703  1
  Rh  Rh10  1  0.99997844  0.50000812  0.16490703  1
  Rh  Rh11  1  0.50002539  1.00000000  0.83506668  1
  Rh  Rh12  1  0.50001772  0.50000692  0.83511485  1
  Rh  Rh13  1  0.00001080  0.49999308  0.83511485  1
  Rh  Rh14  1  0.50000030  -0.00000000  0.49997809  1
  Rh  Rh15  1  0.50000111  0.50000187  0.49997836  1
  Rh  Rh16  1  0.99999924  0.49999813  0.49997836  1
