# generated using pymatgen
data_K6MgO4
_symmetry_space_group_name_H-M   'P 1'
_cell_length_a   8.61384933
_cell_length_b   8.61384932
_cell_length_c   6.67833484
_cell_angle_alpha   90.00000000
_cell_angle_beta   90.00000000
_cell_angle_gamma   119.99999999
_symmetry_Int_Tables_number   1
_chemical_formula_structural   K6MgO4
_chemical_formula_sum   'K12 Mg2 O8'
_cell_volume   429.13443349
_cell_formula_units_Z   2
loop_
 _symmetry_equiv_pos_site_id
 _symmetry_equiv_pos_as_xyz
  1  'x, y, z'
loop_
 _atom_site_type_symbol
 _atom_site_label
 _atom_site_symmetry_multiplicity
 _atom_site_fract_x
 _atom_site_fract_y
 _atom_site_fract_z
 _atom_site_occupancy
  O  O0  1  0.33333333  0.66666667  0.02230614  1
  O  O1  1  0.66666667  0.33333333  0.52230614  1
  O  O2  1  0.79805025  0.20194975  0.11696525  1
  O  O3  1  0.59610050  0.79805025  0.61696525  1
  O  O4  1  0.20194975  0.40389950  0.61696525  1
  O  O5  1  0.79805025  0.59610050  0.11696525  1
  O  O6  1  0.40389950  0.20194975  0.11696525  1
  O  O7  1  0.20194975  0.79805025  0.61696525  1
  Mg  Mg8  1  0.33333333  0.66666667  0.71791694  1
  Mg  Mg9  1  0.66666667  0.33333333  0.21791694  1
  K  K10  1  0.07316911  0.53658455  0.32262670  1
  K  K11  1  0.53658455  0.46341545  0.82262670  1
  K  K12  1  0.46341545  0.92683089  0.32262670  1
  K  K13  1  0.53658455  0.07316911  0.82262670  1
  K  K14  1  0.92683089  0.46341545  0.82262670  1
  K  K15  1  0.46341545  0.53658455  0.32262670  1
  K  K16  1  0.85592834  0.14407166  0.49560036  1
  K  K17  1  0.71185668  0.85592834  0.99560036  1
  K  K18  1  0.14407166  0.28814332  0.99560036  1
  K  K19  1  0.85592834  0.71185668  0.49560036  1
  K  K20  1  0.28814332  0.14407166  0.49560036  1
  K  K21  1  0.14407166  0.85592834  0.99560036  1
