# generated using pymatgen
data_FeB10(H13O4)2
_symmetry_space_group_name_H-M   'P 1'
_cell_length_a   6.76550541
_cell_length_b   7.34826654
_cell_length_c   18.55453489
_cell_angle_alpha   80.32975939
_cell_angle_beta   79.49542400
_cell_angle_gamma   62.59049881
_symmetry_Int_Tables_number   1
_chemical_formula_structural   FeB10(H13O4)2
_chemical_formula_sum   'Fe2 B20 H52 O16'
_cell_volume   801.41491295
_cell_formula_units_Z   2
loop_
 _symmetry_equiv_pos_site_id
 _symmetry_equiv_pos_as_xyz
  1  'x, y, z'
loop_
 _atom_site_type_symbol
 _atom_site_label
 _atom_site_symmetry_multiplicity
 _atom_site_fract_x
 _atom_site_fract_y
 _atom_site_fract_z
 _atom_site_occupancy
  Fe  Fe0  1  -0.00000000  0.00000000  0.50000000  1
  Fe  Fe1  1  0.50000000  0.50000000  0.00000000  1
  B  B2  1  0.30790919  0.38265259  0.65539333  1
  B  B3  1  0.34595510  0.11734741  0.84460667  1
  B  B4  1  0.69209081  0.61734741  0.34460667  1
  B  B5  1  0.65404490  0.88265259  0.15539333  1
  B  B6  1  0.10328005  0.37136647  0.72186417  1
  B  B7  1  0.19651069  0.12863353  0.77813583  1
  B  B8  1  0.89671995  0.62863353  0.27813583  1
  B  B9  1  0.80348931  0.87136647  0.22186417  1
  B  B10  1  0.29935850  0.46736923  0.73635891  1
  B  B11  1  0.50308664  0.03263077  0.76364109  1
  B  B12  1  0.70064150  0.53263077  0.26364109  1
  B  B13  1  0.49691336  0.96736923  0.23635891  1
  B  B14  1  0.53456828  0.23624855  0.70142019  1
  B  B15  1  0.47223702  0.26375145  0.79857981  1
  B  B16  1  0.46543172  0.76375145  0.29857981  1
  B  B17  1  0.52776298  0.73624855  0.20142019  1
  B  B18  1  0.16679177  0.35890176  0.81300784  1
  B  B19  1  0.33870137  0.14109824  0.68699216  1
  B  B20  1  0.83320823  0.64109824  0.18699216  1
  B  B21  1  0.66129863  0.85890176  0.31300784  1
  H  H22  1  0.33417065  0.28039810  0.94444086  1
  H  H23  1  0.55900960  0.21960190  0.55555914  1
  H  H24  1  0.66582935  0.71960190  0.05555914  1
  H  H25  1  0.44099040  0.78039810  0.44444086  1
  H  H26  1  0.26192467  0.24740389  0.02927369  1
  H  H27  1  0.53860225  0.25259611  0.47072631  1
  H  H28  1  0.73807533  0.75259611  0.97072631  1
  H  H29  1  0.46139775  0.74740389  0.52927369  1
  H  H30  1  0.12964758  0.19862630  0.58321108  1
  H  H31  1  0.91148496  0.30137370  0.91678892  1
  H  H32  1  0.87035242  0.80137370  0.41678892  1
  H  H33  1  0.08851504  0.69862630  0.08321108  1
  H  H34  1  0.89654039  0.36625985  0.55861981  1
  H  H35  1  0.82142005  0.13374015  0.94138019  1
  H  H36  1  0.10345961  0.63374015  0.44138019  1
  H  H37  1  0.17857995  0.86625985  0.05861981  1
  H  H38  1  0.05869476  0.72345130  0.63089607  1
  H  H39  1  0.41304213  0.77654870  0.86910393  1
  H  H40  1  0.94130524  0.27654870  0.36910393  1
  H  H41  1  0.58695787  0.22345130  0.13089607  1
  H  H42  1  0.85710351  0.93965455  0.64786056  1
  H  H43  1  0.44461862  0.56034545  0.85213944  1
  H  H44  1  0.14289649  0.06034545  0.35213944  1
  H  H45  1  0.55538138  0.43965455  0.14786056  1
  H  H46  1  0.02524747  0.80967470  0.90915670  1
  H  H47  1  0.74407887  0.69032530  0.59084330  1
  H  H48  1  0.97475253  0.19032530  0.09084330  1
  H  H49  1  0.25592113  0.30967470  0.40915670  1
  H  H50  1  0.81403117  0.92934166  0.86664181  1
  H  H51  1  0.61001464  0.57065835  0.63335819  1
  H  H52  1  0.18596883  0.07065834  0.13335819  1
  H  H53  1  0.38998536  0.42934165  0.36664181  1
  H  H54  1  0.29657100  0.46720900  0.59399328  1
  H  H55  1  0.35777329  0.03279100  0.90600672  1
  H  H56  1  0.70342900  0.53279100  0.40600672  1
  H  H57  1  0.64222671  0.96720900  0.09399328  1
  H  H58  1  0.91044640  0.45921263  0.71099722  1
  H  H59  1  0.08065626  0.04078737  0.78900278  1
  H  H60  1  0.08955360  0.54078737  0.28900278  1
  H  H61  1  0.91934374  0.95921263  0.21099722  1
  H  H62  1  0.27868517  0.63862562  0.73744762  1
  H  H63  1  0.65475840  0.86137438  0.76255238  1
  H  H64  1  0.72131483  0.36137438  0.26255238  1
  H  H65  1  0.34524160  0.13862562  0.23744762  1
  H  H66  1  0.72053428  0.20598134  0.67276842  1
  H  H67  1  0.59928404  0.29401866  0.82723158  1
  H  H68  1  0.27946572  0.79401866  0.32723158  1
  H  H69  1  0.40071596  0.70598134  0.17276842  1
  H  H70  1  0.02447895  0.47515423  0.85499704  1
  H  H71  1  0.35463022  0.02484577  0.64500296  1
  H  H72  1  0.97552105  0.52484577  0.14500296  1
  H  H73  1  0.64536978  0.97515423  0.35499704  1
  O  O74  1  0.32991838  0.32361086  0.99201444  1
  O  O75  1  0.64554367  0.17638914  0.50798556  1
  O  O76  1  0.67008162  0.67638914  0.00798556  1
  O  O77  1  0.35445633  0.82361086  0.49201444  1
  O  O78  1  0.02911337  0.23610678  0.54544945  1
  O  O79  1  0.81066959  0.26389322  0.95455055  1
  O  O80  1  0.97088663  0.76389322  0.45455055  1
  O  O81  1  0.18933041  0.73610678  0.04544945  1
  O  O82  1  0.93824364  0.84663785  0.60888171  1
  O  O83  1  0.39376321  0.65336215  0.89111829  1
  O  O84  1  0.06175636  0.15336215  0.39111829  1
  O  O85  1  0.60623679  0.34663785  0.10888171  1
  O  O86  1  0.86181890  0.89461956  0.91586192  1
  O  O87  1  0.67230038  0.60538044  0.58413808  1
  O  O88  1  0.13818110  0.10538044  0.08413808  1
  O  O89  1  0.32769962  0.39461956  0.41586192  1
