# generated using pymatgen
data_MoBr3O
_symmetry_space_group_name_H-M   'P 1'
_cell_length_a   3.92324281
_cell_length_b   12.00426682
_cell_length_c   12.00563083
_cell_angle_alpha   90.00000000
_cell_angle_beta   90.33369421
_cell_angle_gamma   90.00000000
_symmetry_Int_Tables_number   1
_chemical_formula_structural   MoBr3O
_chemical_formula_sum   'Mo4 Br12 O4'
_cell_volume   565.40344066
_cell_formula_units_Z   4
loop_
 _symmetry_equiv_pos_site_id
 _symmetry_equiv_pos_as_xyz
  1  'x, y, z'
loop_
 _atom_site_type_symbol
 _atom_site_label
 _atom_site_symmetry_multiplicity
 _atom_site_fract_x
 _atom_site_fract_y
 _atom_site_fract_z
 _atom_site_occupancy
  Mo  Mo0  1  0.42958557  0.38298238  0.61701463  1
  Mo  Mo1  1  0.92958557  0.11701762  0.11701463  1
  Mo  Mo2  1  0.57041443  0.61701762  0.38298537  1
  Mo  Mo3  1  0.07041443  0.88298238  0.88298537  1
  Br  Br4  1  0.50197288  0.39169087  0.82152343  1
  Br  Br5  1  0.49802712  0.60830913  0.17847657  1
  Br  Br6  1  0.00197288  0.10830913  0.32152343  1
  Br  Br7  1  0.99802712  0.89169087  0.67847657  1
  Br  Br8  1  0.50005495  0.82151582  0.39162623  1
  Br  Br9  1  0.49994505  0.17848418  0.60837377  1
  Br  Br10  1  -0.00005495  0.32151582  0.10837377  1
  Br  Br11  1  0.00005495  0.67848418  0.89162623  1
  Br  Br12  1  0.50151023  0.60461637  0.60459477  1
  Br  Br13  1  0.49848977  0.39538363  0.39540523  1
  Br  Br14  1  0.00151023  0.89538363  0.10459477  1
  Br  Br15  1  0.99848977  0.10461637  0.89540523  1
  O  O16  1  0.97661860  0.38914981  0.61074951  1
  O  O17  1  0.02338140  0.61085019  0.38925049  1
  O  O18  1  0.47661860  0.11085019  0.11074951  1
  O  O19  1  0.52338140  0.88914981  0.88925049  1
