# generated using pymatgen
data_ScTeO3F
_symmetry_space_group_name_H-M   'P 1'
_cell_length_a   5.60661192
_cell_length_b   5.85008519
_cell_length_c   22.31977126
_cell_angle_alpha   90.00000000
_cell_angle_beta   90.00000000
_cell_angle_gamma   90.00000000
_symmetry_Int_Tables_number   1
_chemical_formula_structural   ScTeO3F
_chemical_formula_sum   'Sc8 Te8 O24 F8'
_cell_volume   732.06968978
_cell_formula_units_Z   8
loop_
 _symmetry_equiv_pos_site_id
 _symmetry_equiv_pos_as_xyz
  1  'x, y, z'
loop_
 _atom_site_type_symbol
 _atom_site_label
 _atom_site_symmetry_multiplicity
 _atom_site_fract_x
 _atom_site_fract_y
 _atom_site_fract_z
 _atom_site_occupancy
  O  O0  1  0.64359117  0.45669901  0.16105282  1
  O  O1  1  0.64359117  0.04330099  0.83894718  1
  O  O2  1  0.85640883  0.45669901  0.33894718  1
  O  O3  1  0.85640883  0.04330099  0.66105282  1
  O  O4  1  0.35640883  0.54330099  0.83894718  1
  O  O5  1  0.35640883  0.95669901  0.16105282  1
  O  O6  1  0.14359117  0.54330099  0.66105282  1
  O  O7  1  0.14359117  0.95669901  0.33894718  1
  O  O8  1  0.41952064  0.63131911  0.06066881  1
  O  O9  1  0.41952064  0.86868089  0.93933119  1
  O  O10  1  0.08047936  0.63131911  0.43933119  1
  O  O11  1  0.08047936  0.86868089  0.56066881  1
  O  O12  1  0.58047936  0.36868089  0.93933119  1
  O  O13  1  0.58047936  0.13131911  0.06066881  1
  O  O14  1  0.91952064  0.36868089  0.56066881  1
  O  O15  1  0.40251760  0.05679269  0.44967979  1
  O  O16  1  0.90251760  0.55679269  0.05032021  1
  O  O17  1  0.90251760  0.94320731  0.94967979  1
  O  O18  1  0.59748240  0.55679269  0.44967979  1
  O  O19  1  0.59748240  0.94320731  0.55032021  1
  O  O20  1  0.09748240  0.44320731  0.94967979  1
  O  O21  1  0.09748240  0.05679269  0.05032021  1
  O  O22  1  0.40251760  0.44320731  0.55032021  1
  O  O23  1  0.91952064  0.13131911  0.43933119  1
  F  F24  1  0.49768790  0.18953547  0.26938202  1
  F  F25  1  0.99768790  0.81046453  0.76938202  1
  F  F26  1  0.50231210  0.68953547  0.26938202  1
  F  F27  1  0.50231210  0.81046453  0.73061798  1
  F  F28  1  0.00231210  0.31046453  0.76938202  1
  F  F29  1  0.00231210  0.18953547  0.23061798  1
  F  F30  1  0.49768790  0.31046453  0.73061798  1
  F  F31  1  0.99768790  0.68953547  0.23061798  1
  Sc  Sc32  1  0.75000000  0.43172995  0.25000000  1
  Sc  Sc33  1  0.75000000  0.06827005  0.75000000  1
  Sc  Sc34  1  0.25000000  0.56827005  0.75000000  1
  Sc  Sc35  1  0.25000000  0.93172995  0.25000000  1
  Sc  Sc36  1  0.67419206  0.25000000  0.50000000  1
  Sc  Sc37  1  0.32580794  0.75000000  0.50000000  1
  Sc  Sc38  1  0.82580794  0.25000000  0.00000000  1
  Sc  Sc39  1  0.17419206  0.75000000  0.00000000  1
  Te  Te40  1  0.68959760  0.70855303  0.10715299  1
  Te  Te41  1  0.68959760  0.79144697  0.89284701  1
  Te  Te42  1  0.81040240  0.70855303  0.39284701  1
  Te  Te43  1  0.81040240  0.79144697  0.60715299  1
  Te  Te44  1  0.31040240  0.29144697  0.89284701  1
  Te  Te45  1  0.31040240  0.20855303  0.10715299  1
  Te  Te46  1  0.18959760  0.29144697  0.60715299  1
  Te  Te47  1  0.18959760  0.20855303  0.39284701  1
