# generated using pymatgen
data_LaTa7O19
_symmetry_space_group_name_H-M   'P 1'
_cell_length_a   6.30073775
_cell_length_b   6.30073776
_cell_length_c   20.19604851
_cell_angle_alpha   90.00000000
_cell_angle_beta   90.00000000
_cell_angle_gamma   120.00000001
_symmetry_Int_Tables_number   1
_chemical_formula_structural   LaTa7O19
_chemical_formula_sum   'La2 Ta14 O38'
_cell_volume   694.35224630
_cell_formula_units_Z   2
loop_
 _symmetry_equiv_pos_site_id
 _symmetry_equiv_pos_as_xyz
  1  'x, y, z'
loop_
 _atom_site_type_symbol
 _atom_site_label
 _atom_site_symmetry_multiplicity
 _atom_site_fract_x
 _atom_site_fract_y
 _atom_site_fract_z
 _atom_site_occupancy
  O  O0  1  0.94577129  0.56898044  0.55719489  1
  O  O1  1  0.43101956  0.05422871  0.44280511  1
  O  O2  1  0.43101956  0.37679085  0.55719489  1
  O  O3  1  0.62320915  0.05422871  0.55719489  1
  O  O4  1  0.43101956  0.37679085  0.94280511  1
  O  O5  1  0.62320915  0.05422871  0.94280511  1
  O  O6  1  0.94577129  0.56898044  0.94280511  1
  O  O7  1  0.62320915  0.56898044  0.05719489  1
  O  O8  1  0.94577129  0.37679085  0.05719489  1
  O  O9  1  0.94577129  0.37679085  0.44280511  1
  O  O10  1  0.62320915  0.56898044  0.44280511  1
  O  O11  1  0.43101956  0.05422871  0.05719489  1
  O  O12  1  0.37445944  0.41495627  0.75000000  1
  O  O13  1  0.58504373  0.95950317  0.75000000  1
  O  O14  1  0.04049683  0.62554056  0.75000000  1
  O  O15  1  0.04049683  0.41495627  0.25000000  1
  O  O16  1  0.75503184  0.99962533  0.15340716  1
  O  O17  1  0.24459349  0.24496816  0.34659284  1
  O  O18  1  0.00037467  0.75540651  0.34659284  1
  O  O19  1  0.00037467  0.75540651  0.15340716  1
  O  O20  1  0.24459349  0.24496816  0.15340716  1
  O  O21  1  0.00037467  0.24496816  0.84659284  1
  O  O22  1  0.24459349  0.99962533  0.84659284  1
  O  O23  1  0.75503184  0.75540651  0.84659284  1
  O  O24  1  0.24459349  0.99962533  0.65340716  1
  O  O25  1  0.75503184  0.75540651  0.65340716  1
  O  O26  1  0.75503184  0.99962533  0.34659284  1
  O  O27  1  0.00037467  0.24496816  0.65340716  1
  O  O28  1  0.66666667  0.33333333  0.16744202  1
  O  O29  1  0.66666667  0.33333333  0.33255798  1
  O  O30  1  0.66666667  0.33333333  0.83255798  1
  O  O31  1  0.66666667  0.33333333  0.66744202  1
  O  O32  1  0.33333333  0.66666667  0.13283068  1
  O  O33  1  0.33333333  0.66666667  0.36716932  1
  O  O34  1  0.33333333  0.66666667  0.86716932  1
  O  O35  1  0.33333333  0.66666667  0.63283068  1
  O  O36  1  0.37445944  0.95950317  0.25000000  1
  O  O37  1  0.58504373  0.62554056  0.25000000  1
  La  La38  1  0.33333333  0.66666667  0.00000000  1
  La  La39  1  0.33333333  0.66666667  0.50000000  1
  Ta  Ta40  1  0.35905783  0.35724952  0.65606874  1
  Ta  Ta41  1  0.64275048  0.00180831  0.65606874  1
  Ta  Ta42  1  0.35905783  0.35724952  0.84393126  1
  Ta  Ta43  1  0.64275048  0.00180831  0.84393126  1
  Ta  Ta44  1  0.99819169  0.64094217  0.84393126  1
  Ta  Ta45  1  0.64275048  0.64094217  0.15606874  1
  Ta  Ta46  1  0.99819169  0.35724952  0.15606874  1
  Ta  Ta47  1  0.99819169  0.35724952  0.34393126  1
  Ta  Ta48  1  0.64275048  0.64094217  0.34393126  1
  Ta  Ta49  1  0.35905783  0.00180831  0.15606874  1
  Ta  Ta50  1  0.66666667  0.33333333  0.50000000  1
  Ta  Ta51  1  0.66666667  0.33333333  0.00000000  1
  Ta  Ta52  1  0.35905783  0.00180831  0.34393126  1
  Ta  Ta53  1  0.99819169  0.64094217  0.65606874  1
