# generated using pymatgen
data_Ca10P6SeO24
_symmetry_space_group_name_H-M   'P 1'
_cell_length_a   9.60492353
_cell_length_b   9.60492353
_cell_length_c   6.89718767
_cell_angle_alpha   90.00000000
_cell_angle_beta   90.00000000
_cell_angle_gamma   119.99999996
_symmetry_Int_Tables_number   1
_chemical_formula_structural   Ca10P6SeO24
_chemical_formula_sum   'Ca10 P6 Se1 O24'
_cell_volume   551.04935456
_cell_formula_units_Z   1
loop_
 _symmetry_equiv_pos_site_id
 _symmetry_equiv_pos_as_xyz
  1  'x, y, z'
loop_
 _atom_site_type_symbol
 _atom_site_label
 _atom_site_symmetry_multiplicity
 _atom_site_fract_x
 _atom_site_fract_y
 _atom_site_fract_z
 _atom_site_occupancy
  O  O0  1  0.32611694  0.48337770  0.25479603  1
  O  O1  1  0.51662230  0.84273924  0.25479603  1
  O  O2  1  0.15726076  0.67388306  0.25479603  1
  O  O3  1  0.67388306  0.51662230  0.74520397  1
  O  O4  1  0.48337770  0.15726076  0.74520397  1
  O  O5  1  0.84273924  0.32611694  0.74520397  1
  O  O6  1  0.58232981  0.46718024  0.19721245  1
  O  O7  1  0.53281976  0.11514958  0.19721245  1
  O  O8  1  0.88485042  0.41767019  0.19721245  1
  O  O9  1  0.41767019  0.53281976  0.80278755  1
  O  O10  1  0.46718024  0.88485042  0.80278755  1
  O  O11  1  0.11514958  0.58232981  0.80278755  1
  O  O12  1  0.30531848  0.23605393  0.09706648  1
  O  O13  1  0.76394607  0.06926455  0.09706648  1
  O  O14  1  0.93073545  0.69468152  0.09706648  1
  O  O15  1  0.69468152  0.76394607  0.90293352  1
  O  O16  1  0.23605393  0.93073545  0.90293352  1
  O  O17  1  0.06926455  0.30531848  0.90293352  1
  O  O18  1  0.38998732  0.29156491  0.44772954  1
  O  O19  1  0.70843509  0.09842241  0.44772954  1
  O  O20  1  0.90157759  0.61001268  0.44772954  1
  O  O21  1  0.61001268  0.70843509  0.55227046  1
  O  O22  1  0.29156491  0.90157759  0.55227046  1
  O  O23  1  0.09842241  0.38998732  0.55227046  1
  P  P24  1  0.37104211  0.97176817  0.75093396  1
  P  P25  1  0.60072606  0.62895789  0.75093396  1
  P  P26  1  0.97176817  0.60072606  0.24906604  1
  P  P27  1  0.62895789  0.02823183  0.24906604  1
  P  P28  1  0.39927394  0.37104211  0.24906604  1
  P  P29  1  0.02823183  0.39927394  0.75093396  1
  Ca  Ca30  1  0.73809626  0.74914157  0.25008043  1
  Ca  Ca31  1  0.74914157  0.01104531  0.74991957  1
  Ca  Ca32  1  0.98895469  0.73809626  0.74991957  1
  Ca  Ca33  1  0.26190374  0.25085843  0.74991957  1
  Ca  Ca34  1  0.25085843  0.98895469  0.25008043  1
  Ca  Ca35  1  0.66666667  0.33333333  0.48881220  1
  Ca  Ca36  1  0.33333333  0.66666667  0.51118780  1
  Ca  Ca37  1  0.66666667  0.33333333  0.98017719  1
  Ca  Ca38  1  0.33333333  0.66666667  0.01982281  1
  Ca  Ca39  1  0.01104531  0.26190374  0.25008043  1
  Se  Se40  1  0.00000000  0.00000000  0.50000000  1
