# generated using pymatgen
data_AsC3S3NF11
_symmetry_space_group_name_H-M   'P 1'
_cell_length_a   6.03293843
_cell_length_b   15.01312080
_cell_length_c   15.49164311
_cell_angle_alpha   112.70976289
_cell_angle_beta   90.00000000
_cell_angle_gamma   90.00000000
_symmetry_Int_Tables_number   1
_chemical_formula_structural   AsC3S3NF11
_chemical_formula_sum   'As4 C12 S12 N4 F44'
_cell_volume   1294.34693255
_cell_formula_units_Z   4
loop_
 _symmetry_equiv_pos_site_id
 _symmetry_equiv_pos_as_xyz
  1  'x, y, z'
loop_
 _atom_site_type_symbol
 _atom_site_label
 _atom_site_symmetry_multiplicity
 _atom_site_fract_x
 _atom_site_fract_y
 _atom_site_fract_z
 _atom_site_occupancy
  As  As0  1  0.88840565  0.05243702  0.33193966  1
  As  As1  1  0.38840565  0.44756298  0.66806034  1
  As  As2  1  0.11159435  0.94756298  0.66806034  1
  As  As3  1  0.61159435  0.55243702  0.33193966  1
  C  C4  1  0.70462609  0.73921498  0.77912915  1
  C  C5  1  0.20462609  0.76078502  0.22087085  1
  C  C6  1  0.29537391  0.26078502  0.22087085  1
  C  C7  1  0.79537391  0.23921498  0.77912915  1
  C  C8  1  0.66467192  0.77677744  0.88475847  1
  C  C9  1  0.16467192  0.72322256  0.11524153  1
  C  C10  1  0.33532808  0.22322256  0.11524153  1
  C  C11  1  0.83532808  0.27677744  0.88475847  1
  C  C12  1  0.76484329  0.87964517  0.94061752  1
  C  C13  1  0.26484329  0.62035483  0.05938248  1
  C  C14  1  0.23515671  0.12035483  0.05938248  1
  C  C15  1  0.73515671  0.37964517  0.94061752  1
  S  S16  1  0.93605042  0.66456758  0.73508237  1
  S  S17  1  0.43605042  0.83543242  0.26491763  1
  S  S18  1  0.06394958  0.33543242  0.26491763  1
  S  S19  1  0.56394958  0.16456758  0.73508237  1
  S  S20  1  0.89215006  0.63804922  0.59756027  1
  S  S21  1  0.39215006  0.86195078  0.40243973  1
  S  S22  1  0.10784994  0.36195078  0.40243973  1
  S  S23  1  0.60784994  0.13804922  0.59756027  1
  S  S24  1  0.60123280  0.72274944  0.61491988  1
  S  S25  1  0.10123280  0.77725056  0.38508012  1
  S  S26  1  0.39876720  0.27725056  0.38508012  1
  S  S27  1  0.89876720  0.22274944  0.61491988  1
  N  N28  1  0.57034746  0.76052905  0.72544394  1
  N  N29  1  0.07034746  0.73947095  0.27455606  1
  N  N30  1  0.42965254  0.23947095  0.27455606  1
  N  N31  1  0.92965254  0.26052905  0.72544394  1
  F  F32  1  0.44309274  0.78057642  0.90214868  1
  F  F33  1  0.94309274  0.71942358  0.09785132  1
  F  F34  1  0.55690726  0.21942358  0.09785132  1
  F  F35  1  0.05690726  0.28057642  0.90214868  1
  F  F36  1  0.76060220  0.71409121  0.91878638  1
  F  F37  1  0.26060220  0.78590879  0.08121362  1
  F  F38  1  0.23939780  0.28590879  0.08121362  1
  F  F39  1  0.73939780  0.21409121  0.91878638  1
  F  F40  1  0.67584957  0.94498583  0.91070769  1
  F  F41  1  0.17584957  0.55501417  0.08929231  1
  F  F42  1  0.32415043  0.05501417  0.08929231  1
  F  F43  1  0.82415043  0.44498583  0.91070769  1
  F  F44  1  0.98759750  0.87729253  0.92830022  1
  F  F45  1  0.48759750  0.62270747  0.07169978  1
  F  F46  1  0.01240250  0.12270747  0.07169978  1
  F  F47  1  0.51240250  0.37729253  0.92830022  1
  F  F48  1  0.72127265  0.90607083  0.03252173  1
  F  F49  1  0.22127265  0.59392917  0.96747827  1
  F  F50  1  0.27872735  0.09392917  0.96747827  1
  F  F51  1  0.77872735  0.40607083  0.03252173  1
  F  F52  1  0.98763056  0.12592296  0.27441555  1
  F  F53  1  0.48763056  0.37407704  0.72558445  1
  F  F54  1  0.01236944  0.87407704  0.72558445  1
  F  F55  1  0.51236944  0.62592296  0.27441555  1
  F  F56  1  0.78742171  0.98077918  0.39311754  1
  F  F57  1  0.28742171  0.51922082  0.60688246  1
  F  F58  1  0.21257829  0.01922082  0.60688246  1
  F  F59  1  0.71257829  0.48077918  0.39311754  1
  F  F60  1  0.99405886  0.94686016  0.24349176  1
  F  F61  1  0.49405886  0.55313984  0.75650824  1
  F  F62  1  0.00594114  0.05313984  0.75650824  1
  F  F63  1  0.50594114  0.44686016  0.24349176  1
  F  F64  1  0.13988791  0.07009881  0.39525169  1
  F  F65  1  0.63988791  0.42990119  0.60474831  1
  F  F66  1  0.86011209  0.92990119  0.60474831  1
  F  F67  1  0.36011209  0.57009881  0.39525169  1
  F  F68  1  0.77719163  0.15833061  0.42426372  1
  F  F69  1  0.27719163  0.34166939  0.57573628  1
  F  F70  1  0.22280837  0.84166939  0.57573628  1
  F  F71  1  0.72280837  0.65833061  0.42426372  1
  F  F72  1  0.63292379  0.03755028  0.27291088  1
  F  F73  1  0.13292379  0.46244972  0.72708912  1
  F  F74  1  0.36707621  0.96244972  0.72708912  1
  F  F75  1  0.86707621  0.53755028  0.27291088  1
