# generated using pymatgen
data_HoAgSe2
_symmetry_space_group_name_H-M   'P 1'
_cell_length_a   4.26458580
_cell_length_b   6.82360674
_cell_length_c   13.78351305
_cell_angle_alpha   90.00000000
_cell_angle_beta   90.00000000
_cell_angle_gamma   90.00000000
_symmetry_Int_Tables_number   1
_chemical_formula_structural   HoAgSe2
_chemical_formula_sum   'Ho4 Ag4 Se8'
_cell_volume   401.09825056
_cell_formula_units_Z   4
loop_
 _symmetry_equiv_pos_site_id
 _symmetry_equiv_pos_as_xyz
  1  'x, y, z'
loop_
 _atom_site_type_symbol
 _atom_site_label
 _atom_site_symmetry_multiplicity
 _atom_site_fract_x
 _atom_site_fract_y
 _atom_site_fract_z
 _atom_site_occupancy
  Se  Se0  1  0.22827741  0.48956515  0.47330888  1
  Se  Se1  1  0.72827741  0.01043485  0.52669112  1
  Se  Se2  1  0.77172259  0.98956515  0.02669112  1
  Se  Se3  1  0.27172259  0.51043485  0.97330888  1
  Se  Se4  1  0.22280498  0.08837032  0.27434228  1
  Se  Se5  1  0.27719502  0.91162968  0.77434228  1
  Se  Se6  1  0.77719502  0.58837032  0.22565772  1
  Se  Se7  1  0.72280498  0.41162968  0.72565772  1
  Ag  Ag8  1  0.00738646  0.70681459  0.62715035  1
  Ag  Ag9  1  0.99261354  0.20681459  0.87284965  1
  Ag  Ag10  1  0.50738646  0.79318541  0.37284965  1
  Ag  Ag11  1  0.49261354  0.29318541  0.12715035  1
  Ho  Ho12  1  0.72049572  0.29356389  0.37262277  1
  Ho  Ho13  1  0.22049572  0.20643611  0.62737723  1
  Ho  Ho14  1  0.27950428  0.79356389  0.12737723  1
  Ho  Ho15  1  0.77950428  0.70643611  0.87262277  1
