# generated using pymatgen
data_AsPO5
_symmetry_space_group_name_H-M   'P 1'
_cell_length_a   4.61144725
_cell_length_b   8.35200492
_cell_length_c   8.56061789
_cell_angle_alpha   90.00000000
_cell_angle_beta   90.00000000
_cell_angle_gamma   90.00000000
_symmetry_Int_Tables_number   1
_chemical_formula_structural   AsPO5
_chemical_formula_sum   'As4 P4 O20'
_cell_volume   329.71074376
_cell_formula_units_Z   4
loop_
 _symmetry_equiv_pos_site_id
 _symmetry_equiv_pos_as_xyz
  1  'x, y, z'
loop_
 _atom_site_type_symbol
 _atom_site_label
 _atom_site_symmetry_multiplicity
 _atom_site_fract_x
 _atom_site_fract_y
 _atom_site_fract_z
 _atom_site_occupancy
  O  O0  1  0.29545181  0.75325228  0.21068100  1
  O  O1  1  0.79545181  0.24674772  0.28931900  1
  O  O2  1  0.20454819  0.25325228  0.78931900  1
  O  O3  1  0.70454819  0.74674772  0.71068100  1
  O  O4  1  0.46013866  0.96025478  0.00191960  1
  O  O5  1  0.96013866  0.03974522  0.49808040  1
  O  O6  1  0.03986134  0.46025478  0.99808040  1
  O  O7  1  0.53986134  0.53974522  0.50191960  1
  O  O8  1  0.15517340  0.56977867  0.70535273  1
  O  O9  1  0.65517340  0.43022133  0.79464727  1
  O  O10  1  0.34482660  0.06977867  0.29464727  1
  O  O11  1  0.84482660  0.93022133  0.20535273  1
  O  O12  1  0.40049936  0.84413730  0.50153511  1
  O  O13  1  0.90049936  0.15586270  0.99846489  1
  O  O14  1  0.09950064  0.34413730  0.49846489  1
  O  O15  1  0.59950064  0.65586270  0.00153511  1
  O  O16  1  0.90568192  0.73136852  0.42741116  1
  O  O17  1  0.40568192  0.26863148  0.07258884  1
  O  O18  1  0.59431808  0.23136852  0.57258884  1
  O  O19  1  0.09431808  0.76863148  0.92741116  1
  P  P20  1  0.86529759  0.21640904  0.46588938  1
  P  P21  1  0.36529759  0.78359096  0.03411062  1
  P  P22  1  0.63470241  0.71640904  0.53411062  1
  P  P23  1  0.13470241  0.28359096  0.96588938  1
  As  As24  1  0.87353894  0.59930211  0.84884127  1
  As  As25  1  0.37353894  0.40069789  0.65115873  1
  As  As26  1  0.62646106  0.09930211  0.15115873  1
  As  As27  1  0.12646106  0.90069789  0.34884127  1
