# generated using pymatgen
data_Ba2MnTeO6
_symmetry_space_group_name_H-M   'P 1'
_cell_length_a   5.89692101
_cell_length_b   5.89692100
_cell_length_c   5.89692100
_cell_angle_alpha   59.99893647
_cell_angle_beta   59.99893651
_cell_angle_gamma   59.99893647
_symmetry_Int_Tables_number   1
_chemical_formula_structural   Ba2MnTeO6
_chemical_formula_sum   'Ba2 Mn1 Te1 O6'
_cell_volume   144.99414318
_cell_formula_units_Z   1
loop_
 _symmetry_equiv_pos_site_id
 _symmetry_equiv_pos_as_xyz
  1  'x, y, z'
loop_
 _atom_site_type_symbol
 _atom_site_label
 _atom_site_symmetry_multiplicity
 _atom_site_fract_x
 _atom_site_fract_y
 _atom_site_fract_z
 _atom_site_occupancy
  O  O0  1  0.26408574  0.73590653  0.26408574  1
  O  O1  1  0.73590653  0.26408574  0.26408574  1
  O  O2  1  0.26408574  0.26408574  0.73590653  1
  O  O3  1  0.73591426  0.26409347  0.73591426  1
  O  O4  1  0.73591426  0.73591426  0.26409347  1
  O  O5  1  0.26409347  0.73591426  0.73591426  1
  Mn  Mn6  1  0.00000000  0.00000000  0.00000000  1
  Te  Te7  1  0.50000000  0.50000000  0.50000000  1
  Ba  Ba8  1  0.74999515  0.74999515  0.74999515  1
  Ba  Ba9  1  0.25000485  0.25000485  0.25000485  1
