# generated using pymatgen
data_Ba(SiRh)2
_symmetry_space_group_name_H-M   'P 1'
_cell_length_a   6.77461073
_cell_length_b   7.74912959
_cell_length_c   7.98333941
_cell_angle_alpha   91.29478502
_cell_angle_beta   90.00000000
_cell_angle_gamma   90.00000000
_symmetry_Int_Tables_number   1
_chemical_formula_structural   Ba(SiRh)2
_chemical_formula_sum   'Ba4 Si8 Rh8'
_cell_volume   418.99704578
_cell_formula_units_Z   4
loop_
 _symmetry_equiv_pos_site_id
 _symmetry_equiv_pos_as_xyz
  1  'x, y, z'
loop_
 _atom_site_type_symbol
 _atom_site_label
 _atom_site_symmetry_multiplicity
 _atom_site_fract_x
 _atom_site_fract_y
 _atom_site_fract_z
 _atom_site_occupancy
  Si  Si0  1  0.57828023  0.62757427  0.92525623  1
  Si  Si1  1  0.07828023  0.87242573  0.07474377  1
  Si  Si2  1  0.42171977  0.37242573  0.07474377  1
  Si  Si3  1  0.92171977  0.12757427  0.92525623  1
  Si  Si4  1  0.35025847  0.68536824  0.43561419  1
  Si  Si5  1  0.85025847  0.81463176  0.56438581  1
  Si  Si6  1  0.64974153  0.31463176  0.56438581  1
  Si  Si7  1  0.14974153  0.18536824  0.43561419  1
  Rh  Rh8  1  0.89618441  0.11361188  0.62153742  1
  Rh  Rh9  1  0.39618441  0.38638812  0.37846258  1
  Rh  Rh10  1  0.10381559  0.88638812  0.37846258  1
  Rh  Rh11  1  0.60381559  0.61361188  0.62153742  1
  Rh  Rh12  1  0.16799402  0.17130005  0.13827912  1
  Rh  Rh13  1  0.66799402  0.32869995  0.86172088  1
  Rh  Rh14  1  0.83200598  0.82869995  0.86172088  1
  Rh  Rh15  1  0.33200598  0.67130005  0.13827912  1
  Ba  Ba16  1  0.61714409  0.99716271  0.23715598  1
  Ba  Ba17  1  0.11714409  0.50283729  0.76284402  1
  Ba  Ba18  1  0.38285591  0.00283729  0.76284402  1
  Ba  Ba19  1  0.88285591  0.49716271  0.23715598  1
