# generated using pymatgen
data_Mg2Tl2(MoO4)3
_symmetry_space_group_name_H-M   'P 1'
_cell_length_a   10.99952216
_cell_length_b   10.99952216
_cell_length_c   10.99952216
_cell_angle_alpha   90.00000000
_cell_angle_beta   90.00000000
_cell_angle_gamma   90.00000000
_symmetry_Int_Tables_number   1
_chemical_formula_structural   Mg2Tl2(MoO4)3
_chemical_formula_sum   'Mg8 Tl8 Mo12 O48'
_cell_volume   1330.82655161
_cell_formula_units_Z   4
loop_
 _symmetry_equiv_pos_site_id
 _symmetry_equiv_pos_as_xyz
  1  'x, y, z'
loop_
 _atom_site_type_symbol
 _atom_site_label
 _atom_site_symmetry_multiplicity
 _atom_site_fract_x
 _atom_site_fract_y
 _atom_site_fract_z
 _atom_site_occupancy
  O  O0  1  0.95454406  0.28049932  0.02235565  1
  O  O1  1  0.45454406  0.21950068  0.97764435  1
  O  O2  1  0.04545594  0.78049932  0.47764435  1
  O  O3  1  0.21950068  0.97764435  0.45454406  1
  O  O4  1  0.47764435  0.04545594  0.78049932  1
  O  O5  1  0.97764435  0.45454406  0.21950068  1
  O  O6  1  0.28049932  0.02235565  0.95454406  1
  O  O7  1  0.02235565  0.95454406  0.28049932  1
  O  O8  1  0.78049932  0.47764435  0.04545594  1
  O  O9  1  0.71950068  0.52235565  0.54545594  1
  O  O10  1  0.52235565  0.54545594  0.71950068  1
  O  O11  1  0.54545594  0.71950068  0.52235565  1
  O  O12  1  0.18026654  0.24512005  0.89737928  1
  O  O13  1  0.68026654  0.25487995  0.10262072  1
  O  O14  1  0.81973346  0.74512005  0.60262072  1
  O  O15  1  0.25487995  0.10262072  0.68026654  1
  O  O16  1  0.60262072  0.81973346  0.74512005  1
  O  O17  1  0.10262072  0.68026654  0.25487995  1
  O  O18  1  0.72926266  0.05435661  0.70531489  1
  O  O19  1  0.24512005  0.89737928  0.18026654  1
  O  O20  1  0.74512005  0.60262072  0.81973346  1
  O  O21  1  0.75487995  0.39737928  0.31973346  1
  O  O22  1  0.39737928  0.31973346  0.75487995  1
  O  O23  1  0.31973346  0.75487995  0.39737928  1
  O  O24  1  0.94564339  0.20531489  0.77073734  1
  O  O25  1  0.44564339  0.29468511  0.22926266  1
  O  O26  1  0.05435661  0.70531489  0.72926266  1
  O  O27  1  0.29468511  0.22926266  0.44564339  1
  O  O28  1  0.47284029  0.54755501  0.32388740  1
  O  O29  1  0.32388740  0.47284029  0.54755501  1
  O  O30  1  0.54755501  0.32388740  0.47284029  1
  O  O31  1  0.95244499  0.67611260  0.97284029  1
  O  O32  1  0.82388740  0.02715971  0.45244499  1
  O  O33  1  0.45244499  0.82388740  0.02715971  1
  O  O34  1  0.17611260  0.52715971  0.04755501  1
  O  O35  1  0.67611260  0.97284029  0.95244499  1
  O  O36  1  0.04755501  0.17611260  0.52715971  1
  O  O37  1  0.97284029  0.95244499  0.67611260  1
  O  O38  1  0.52715971  0.04755501  0.17611260  1
  O  O39  1  0.02715971  0.45244499  0.82388740  1
  O  O40  1  0.55435661  0.79468511  0.27073734  1
  O  O41  1  0.27073734  0.55435661  0.79468511  1
  O  O42  1  0.79468511  0.27073734  0.55435661  1
  O  O43  1  0.70531489  0.72926266  0.05435661  1
  O  O44  1  0.77073734  0.94564339  0.20531489  1
  O  O45  1  0.20531489  0.77073734  0.94564339  1
  O  O46  1  0.22926266  0.44564339  0.29468511  1
  O  O47  1  0.89737928  0.18026654  0.24512005  1
  Mg  Mg48  1  0.11432877  0.61432877  0.88567123  1
  Mg  Mg49  1  0.38567123  0.38567123  0.38567123  1
  Mg  Mg50  1  0.88567123  0.11432877  0.61432877  1
  Mg  Mg51  1  0.61432877  0.88567123  0.11432877  1
  Mg  Mg52  1  0.66109452  0.66109452  0.66109452  1
  Mg  Mg53  1  0.83890548  0.33890548  0.16109452  1
  Mg  Mg54  1  0.33890548  0.16109452  0.83890548  1
  Mg  Mg55  1  0.16109452  0.83890548  0.33890548  1
  Mo  Mo56  1  0.62216022  0.97246597  0.79706718  1
  Mo  Mo57  1  0.12216022  0.52753403  0.20293282  1
  Mo  Mo58  1  0.29706718  0.87783978  0.02753403  1
  Mo  Mo59  1  0.87783978  0.02753403  0.29706718  1
  Mo  Mo60  1  0.79706718  0.62216022  0.97246597  1
  Mo  Mo61  1  0.70293282  0.37783978  0.47246597  1
  Mo  Mo62  1  0.20293282  0.12216022  0.52753403  1
  Mo  Mo63  1  0.37783978  0.47246597  0.70293282  1
  Mo  Mo64  1  0.02753403  0.29706718  0.87783978  1
  Mo  Mo65  1  0.52753403  0.20293282  0.12216022  1
  Mo  Mo66  1  0.97246597  0.79706718  0.62216022  1
  Mo  Mo67  1  0.47246597  0.70293282  0.37783978  1
  Tl  Tl68  1  0.16594720  0.16594720  0.16594720  1
  Tl  Tl69  1  0.33405280  0.83405280  0.66594720  1
  Tl  Tl70  1  0.66594720  0.33405280  0.83405280  1
  Tl  Tl71  1  0.83405280  0.66594720  0.33405280  1
  Tl  Tl72  1  0.94019730  0.94019730  0.94019730  1
  Tl  Tl73  1  0.55980270  0.05980270  0.44019730  1
  Tl  Tl74  1  0.44019730  0.55980270  0.05980270  1
  Tl  Tl75  1  0.05980270  0.44019730  0.55980270  1
