# generated using pymatgen
data_KEr3F10
_symmetry_space_group_name_H-M   'P 1'
_cell_length_a   8.17171410
_cell_length_b   8.17171410
_cell_length_c   8.17171410
_cell_angle_alpha   59.99999999
_cell_angle_beta   59.99999999
_cell_angle_gamma   59.99999997
_symmetry_Int_Tables_number   1
_chemical_formula_structural   KEr3F10
_chemical_formula_sum   'K2 Er6 F20'
_cell_volume   385.85532053
_cell_formula_units_Z   2
loop_
 _symmetry_equiv_pos_site_id
 _symmetry_equiv_pos_as_xyz
  1  'x, y, z'
loop_
 _atom_site_type_symbol
 _atom_site_label
 _atom_site_symmetry_multiplicity
 _atom_site_fract_x
 _atom_site_fract_y
 _atom_site_fract_z
 _atom_site_occupancy
  F  F0  1  0.17006167  0.50000000  0.50000000  1
  F  F1  1  0.50000000  0.50000000  0.17006167  1
  F  F2  1  0.17006167  0.50000000  0.82993833  1
  F  F3  1  0.50000000  0.17006167  0.50000000  1
  F  F4  1  0.17006167  0.82993833  0.50000000  1
  F  F5  1  0.82993833  0.50000000  0.17006167  1
  F  F6  1  0.50000000  0.82993833  0.50000000  1
  F  F7  1  0.50000000  0.17006167  0.82993833  1
  F  F8  1  0.11165553  0.11165553  0.11165553  1
  F  F9  1  0.88834447  0.88834447  0.33496659  1
  F  F10  1  0.33496659  0.88834447  0.88834447  1
  F  F11  1  0.88834447  0.33496659  0.88834447  1
  F  F12  1  0.66503341  0.11165553  0.11165553  1
  F  F13  1  0.11165553  0.66503341  0.11165553  1
  F  F14  1  0.11165553  0.11165553  0.66503341  1
  F  F15  1  0.88834447  0.88834447  0.88834447  1
  F  F16  1  0.82993833  0.50000000  0.50000000  1
  F  F17  1  0.50000000  0.50000000  0.82993833  1
  F  F18  1  0.82993833  0.17006167  0.50000000  1
  F  F19  1  0.50000000  0.82993833  0.17006167  1
  K  K20  1  0.25000000  0.25000000  0.25000000  1
  K  K21  1  0.75000000  0.75000000  0.75000000  1
  Er  Er22  1  0.75946869  0.24053131  0.75946869  1
  Er  Er23  1  0.24053131  0.24053131  0.75946869  1
  Er  Er24  1  0.75946869  0.75946869  0.24053131  1
  Er  Er25  1  0.75946869  0.24053131  0.24053131  1
  Er  Er26  1  0.24053131  0.75946869  0.24053131  1
  Er  Er27  1  0.24053131  0.75946869  0.75946869  1
