# generated using pymatgen
data_ZnH8(NO2)6
_symmetry_space_group_name_H-M   'P 1'
_cell_length_a   7.89093842
_cell_length_b   12.65206559
_cell_length_c   13.38283045
_cell_angle_alpha   101.26741030
_cell_angle_beta   94.68814081
_cell_angle_gamma   106.74156941
_symmetry_Int_Tables_number   1
_chemical_formula_structural   ZnH8(NO2)6
_chemical_formula_sum   'Zn4 H32 N24 O48'
_cell_volume   1241.18120908
_cell_formula_units_Z   4
loop_
 _symmetry_equiv_pos_site_id
 _symmetry_equiv_pos_as_xyz
  1  'x, y, z'
loop_
 _atom_site_type_symbol
 _atom_site_label
 _atom_site_symmetry_multiplicity
 _atom_site_fract_x
 _atom_site_fract_y
 _atom_site_fract_z
 _atom_site_occupancy
  Zn  Zn0  1  0.90671380  0.20373112  0.25604514  1
  Zn  Zn1  1  0.09328620  0.79626888  0.74395486  1
  Zn  Zn2  1  0.44755690  0.66232902  0.24244494  1
  Zn  Zn3  1  0.55244310  0.33767098  0.75755506  1
  H  H4  1  0.83705911  0.50783115  0.41197692  1
  H  H5  1  0.16294089  0.49216885  0.58802308  1
  H  H6  1  0.69337262  0.58301320  0.42742340  1
  H  H7  1  0.30662738  0.41698680  0.57257660  1
  H  H8  1  0.61319347  0.44256854  0.41117876  1
  H  H9  1  0.38680653  0.55743146  0.58882124  1
  H  H10  1  0.68480279  0.49657986  0.31130137  1
  H  H11  1  0.31519721  0.50342014  0.68869863  1
  H  H12  1  0.90028761  0.58406641  0.12552590  1
  H  H13  1  0.09971239  0.41593359  0.87447410  1
  H  H14  1  0.82658151  0.64502032  0.03775393  1
  H  H15  1  0.17341849  0.35497968  0.96224607  1
  H  H16  1  0.91532019  0.72457800  0.15713988  1
  H  H17  1  0.08467981  0.27542200  0.84286012  1
  H  H18  1  0.04730978  0.67967038  0.07842520  1
  H  H19  1  0.95269022  0.32032962  0.92157480  1
  H  H20  1  0.23450485  0.99495793  0.03314928  1
  H  H21  1  0.76549515  0.00504207  0.96685072  1
  H  H22  1  0.17745253  0.10657050  0.09124848  1
  H  H23  1  0.82254747  0.89342950  0.90875152  1
  H  H24  1  0.31200551  0.11868359  0.99719983  1
  H  H25  1  0.68799449  0.88131641  0.00280017  1
  H  H26  1  0.39087408  0.10330209  0.11392793  1
  H  H27  1  0.60912592  0.89669791  0.88607207  1
  H  H28  1  0.20686735  0.96638386  0.41768845  1
  H  H29  1  0.79313265  0.03361614  0.58231155  1
  H  H30  1  0.19545836  0.82765385  0.38467811  1
  H  H31  1  0.80454164  0.17234615  0.61532189  1
  H  H32  1  0.04353878  0.86918646  0.45233116  1
  H  H33  1  0.95646122  0.13081354  0.54766884  1
  H  H34  1  0.25914727  0.90018120  0.50782394  1
  H  H35  1  0.74085273  0.09981880  0.49217606  1
  N  N36  1  0.70787104  0.50707557  0.39016877  1
  N  N37  1  0.29212896  0.49292443  0.60983123  1
  N  N38  1  0.92197889  0.65844096  0.10063944  1
  N  N39  1  0.07802111  0.34155904  0.89936056  1
  N  N40  1  0.27825178  0.08186889  0.05841142  1
  N  N41  1  0.72174822  0.91813111  0.94158858  1
  N  N42  1  0.17745828  0.89080892  0.44003620  1
  N  N43  1  0.82254172  0.10919108  0.55996380  1
  N  N44  1  0.26130184  0.30282757  0.36134728  1
  N  N45  1  0.73869816  0.69717243  0.63865272  1
  N  N46  1  0.90458353  0.34926236  0.13844691  1
  N  N47  1  0.09541647  0.65073764  0.86155309  1
  N  N48  1  0.57295424  0.12027551  0.29474038  1
  N  N49  1  0.42704576  0.87972449  0.70525962  1
  N  N50  1  0.97160083  0.98755447  0.21647614  1
  N  N51  1  0.02839917  0.01244553  0.78352386  1
  N  N52  1  0.68889835  0.82429728  0.40123057  1
  N  N53  1  0.31110165  0.17570272  0.59876943  1
  N  N54  1  0.19913164  0.59868746  0.36734419  1
  N  N55  1  0.80086836  0.40131254  0.63265581  1
  N  N56  1  0.42988679  0.46821122  0.11686388  1
  N  N57  1  0.57011321  0.53178878  0.88313612  1
  N  N58  1  0.45195261  0.81223682  0.11329870  1
  N  N59  1  0.54804739  0.18776318  0.88670130  1
  O  O60  1  0.28684171  0.28193804  0.26976884  1
  O  O61  1  0.71315829  0.71806196  0.73023116  1
  O  O62  1  0.09916385  0.27728643  0.38356870  1
  O  O63  1  0.90083615  0.72271357  0.61643130  1
  O  O64  1  0.38765533  0.34879804  0.43549355  1
  O  O65  1  0.61234467  0.65120196  0.56450645  1
  O  O66  1  0.87636945  0.36362422  0.23333613  1
  O  O67  1  0.12363055  0.63637578  0.76666387  1
  O  O68  1  0.94149876  0.25930082  0.10099164  1
  O  O69  1  0.05850124  0.74069918  0.89900836  1
  O  O70  1  0.89595696  0.41961898  0.08679742  1
  O  O71  1  0.10404304  0.58038102  0.91320258  1
  O  O72  1  0.59552362  0.12793005  0.20203119  1
  O  O73  1  0.40447638  0.87206995  0.79796881  1
  O  O74  1  0.71699602  0.16120826  0.36176466  1
  O  O75  1  0.28300398  0.83879174  0.63823534  1
  O  O76  1  0.42542064  0.07673416  0.31851562  1
  O  O77  1  0.57457936  0.92326584  0.68148438  1
  O  O78  1  0.94860148  0.00001176  0.30819102  1
  O  O79  1  0.05139852  -0.00001176  0.69180898  1
  O  O80  1  0.95276879  0.06521232  0.16657780  1
  O  O81  1  0.04723121  0.93478768  0.83342220  1
  O  O82  1  0.01318542  0.90621304  0.16735906  1
  O  O83  1  0.98681458  0.09378696  0.83264094  1
  O  O84  1  0.54917387  0.85240433  0.39444890  1
  O  O85  1  0.45082613  0.14759567  0.60555110  1
  O  O86  1  0.69718331  0.73638810  0.33447676  1
  O  O87  1  0.30281669  0.26361190  0.66552324  1
  O  O88  1  0.82033414  0.87698658  0.46954381  1
  O  O89  1  0.17966586  0.12301342  0.53045619  1
  O  O90  1  0.34399831  0.57320263  0.35142010  1
  O  O91  1  0.65600169  0.42679737  0.64857990  1
  O  O92  1  0.15542013  0.66242125  0.31431774  1
  O  O93  1  0.84457987  0.33757875  0.68568226  1
  O  O94  1  0.10993606  0.56151539  0.43222379  1
  O  O95  1  0.89006394  0.43848461  0.56777621  1
  O  O96  1  0.29526126  0.50434263  0.11388069  1
  O  O97  1  0.70473874  0.49565737  0.88611931  1
  O  O98  1  0.57051336  0.53278576  0.18135262  1
  O  O99  1  0.42948664  0.46721424  0.81864738  1
  O  O100  1  0.42821523  0.37735408  0.06050810  1
  O  O101  1  0.57178477  0.62264592  0.93949190  1
  O  O102  1  0.60934275  0.80709490  0.12150534  1
  O  O103  1  0.39065725  0.19290510  0.87849466  1
  O  O104  1  0.33806348  0.75359807  0.16345821  1
  O  O105  1  0.66193652  0.24640193  0.83654179  1
  O  O106  1  0.40035505  0.87002196  0.05974306  1
  O  O107  1  0.59964495  0.12997804  0.94025694  1
