# generated using pymatgen
data_Ti2Ni(PO5)2
_symmetry_space_group_name_H-M   'P 1'
_cell_length_a   7.43080834
_cell_length_b   7.41858271
_cell_length_c   7.41798933
_cell_angle_alpha   119.44940913
_cell_angle_beta   90.00000000
_cell_angle_gamma   90.00000000
_symmetry_Int_Tables_number   1
_chemical_formula_structural   Ti2Ni(PO5)2
_chemical_formula_sum   'Ti4 Ni2 P4 O20'
_cell_volume   356.08749079
_cell_formula_units_Z   2
loop_
 _symmetry_equiv_pos_site_id
 _symmetry_equiv_pos_as_xyz
  1  'x, y, z'
loop_
 _atom_site_type_symbol
 _atom_site_label
 _atom_site_symmetry_multiplicity
 _atom_site_fract_x
 _atom_site_fract_y
 _atom_site_fract_z
 _atom_site_occupancy
  O  O0  1  0.25273627  0.93985273  0.58882744  1
  O  O1  1  0.75273604  0.06014580  0.91117254  1
  O  O2  1  0.74726461  0.06014689  0.41117208  1
  O  O3  1  0.24726485  0.93985383  0.08882833  1
  O  O4  1  0.49239092  0.74045758  0.82636477  1
  O  O5  1  0.99239204  0.25954250  0.67363463  1
  O  O6  1  0.50760861  0.25954360  0.17363552  1
  O  O7  1  0.00760885  0.74045712  0.32636489  1
  O  O8  1  0.26546227  0.55523833  0.92767495  1
  O  O9  1  0.76546204  0.44476175  0.57232445  1
  O  O10  1  0.15827589  0.22768716  0.99831704  1
  O  O11  1  0.65827566  0.77231292  0.50168370  1
  O  O12  1  0.84172499  0.77231247  0.00168248  1
  O  O13  1  0.34172388  0.22768670  0.49831717  1
  O  O14  1  0.00288604  0.21639643  0.31339239  1
  O  O15  1  0.73453726  0.44476130  0.07232458  1
  O  O16  1  0.99711350  0.78360319  0.68660714  1
  O  O17  1  0.49711373  0.21639689  0.81339226  1
  O  O18  1  0.23453750  0.55523787  0.42767507  1
  O  O19  1  0.50288581  0.78360274  0.18660726  1
  P  P20  1  0.37757633  0.75394486  0.00610852  1
  P  P21  1  0.87757610  0.24605431  0.49389113  1
  P  P22  1  0.62242455  0.24605477  0.99389100  1
  P  P23  1  0.12242479  0.75394531  0.50610839  1
  Ti  Ti24  1  0.72239488  0.73614837  0.70880124  1
  Ti  Ti25  1  0.77760577  0.73614791  0.20880136  1
  Ti  Ti26  1  0.27760600  0.26385280  0.29119905  1
  Ti  Ti27  1  0.22239377  0.26385171  0.79119816  1
  Ni  Ni28  1  0.49999977  0.00000046  0.49999987  1
  Ni  Ni29  1  0.00000000  0.00000000  0.00000000  1
