# generated using pymatgen
data_Zn3(AsO3)2
_symmetry_space_group_name_H-M   'P 1'
_cell_length_a   6.26716437
_cell_length_b   7.96645561
_cell_length_c   14.58860801
_cell_angle_alpha   90.00000000
_cell_angle_beta   90.00000000
_cell_angle_gamma   90.00000000
_symmetry_Int_Tables_number   1
_chemical_formula_structural   Zn3(AsO3)2
_chemical_formula_sum   'Zn12 As8 O24'
_cell_volume   728.36669774
_cell_formula_units_Z   4
loop_
 _symmetry_equiv_pos_site_id
 _symmetry_equiv_pos_as_xyz
  1  'x, y, z'
loop_
 _atom_site_type_symbol
 _atom_site_label
 _atom_site_symmetry_multiplicity
 _atom_site_fract_x
 _atom_site_fract_y
 _atom_site_fract_z
 _atom_site_occupancy
  O  O0  1  0.41130788  0.82530710  0.89553943  1
  O  O1  1  0.91130788  0.17469290  0.60446057  1
  O  O2  1  0.58869212  0.82530710  0.10446057  1
  O  O3  1  0.08869212  0.17469290  0.39553943  1
  O  O4  1  0.58869212  0.17469290  0.10446057  1
  O  O5  1  0.08869212  0.82530710  0.39553943  1
  O  O6  1  0.41130788  0.17469290  0.89553943  1
  O  O7  1  0.91130788  0.82530710  0.60446057  1
  O  O8  1  0.34393059  0.67594653  0.69967384  1
  O  O9  1  0.84393059  0.32405347  0.80032616  1
  O  O10  1  0.65606941  0.67594653  0.30032616  1
  O  O11  1  0.15606941  0.32405347  0.19967384  1
  O  O12  1  0.65606941  0.32405347  0.30032616  1
  O  O13  1  0.15606941  0.67594653  0.19967384  1
  O  O14  1  0.34393059  0.32405347  0.69967384  1
  O  O15  1  0.84393059  0.67594653  0.80032616  1
  O  O16  1  0.83913981  0.00000000  0.21862063  1
  O  O17  1  0.33913981  0.00000000  0.28137937  1
  O  O18  1  0.16086019  0.00000000  0.78137937  1
  O  O19  1  0.66086019  0.00000000  0.71862063  1
  O  O20  1  0.66687345  0.50000000  0.94080609  1
  O  O21  1  0.16687345  0.50000000  0.55919391  1
  O  O22  1  0.33312655  0.50000000  0.05919391  1
  O  O23  1  0.83312655  0.50000000  0.44080609  1
  Zn  Zn24  1  0.00000000  0.68593120  0.50000000  1
  Zn  Zn25  1  0.50000000  0.31406880  0.00000000  1
  Zn  Zn26  1  0.00000000  0.31406880  0.50000000  1
  Zn  Zn27  1  0.50000000  0.68593120  0.00000000  1
  Zn  Zn28  1  0.43564231  0.21557576  0.22220704  1
  Zn  Zn29  1  0.93564231  0.78442424  0.27779296  1
  Zn  Zn30  1  0.56435769  0.21557576  0.77779296  1
  Zn  Zn31  1  0.06435769  0.78442424  0.72220704  1
  Zn  Zn32  1  0.93564231  0.21557576  0.27779296  1
  Zn  Zn33  1  0.43564231  0.78442424  0.22220704  1
  Zn  Zn34  1  0.06435769  0.21557576  0.72220704  1
  Zn  Zn35  1  0.56435769  0.78442424  0.77779296  1
  As  As36  1  0.09162728  0.50000000  0.12583821  1
  As  As37  1  0.59162728  0.50000000  0.37416179  1
  As  As38  1  0.90837272  0.50000000  0.87416179  1
  As  As39  1  0.40837272  0.50000000  0.62583821  1
  As  As40  1  0.77382952  0.00000000  0.09807428  1
  As  As41  1  0.27382952  0.00000000  0.40192572  1
  As  As42  1  0.22617048  0.00000000  0.90192572  1
  As  As43  1  0.72617048  0.00000000  0.59807428  1
