# generated using pymatgen
data_CsIO3
_symmetry_space_group_name_H-M   'P 1'
_cell_length_a   4.76897778
_cell_length_b   6.82515119
_cell_length_c   6.73925813
_cell_angle_alpha   90.00000000
_cell_angle_beta   90.00000000
_cell_angle_gamma   90.00106520
_symmetry_Int_Tables_number   1
_chemical_formula_structural   CsIO3
_chemical_formula_sum   'Cs2 I2 O6'
_cell_volume   219.35607480
_cell_formula_units_Z   2
loop_
 _symmetry_equiv_pos_site_id
 _symmetry_equiv_pos_as_xyz
  1  'x, y, z'
loop_
 _atom_site_type_symbol
 _atom_site_label
 _atom_site_symmetry_multiplicity
 _atom_site_fract_x
 _atom_site_fract_y
 _atom_site_fract_z
 _atom_site_occupancy
  O  O0  1  0.59548976  0.46721548  0.50000000  1
  O  O1  1  0.01261790  0.67499976  0.28987774  1
  O  O2  1  0.01261790  0.67499976  0.71012226  1
  O  O3  1  0.98736478  0.17499958  0.78987854  1
  O  O4  1  0.40451734  0.96723251  0.00000000  1
  O  O5  1  0.98736478  0.17499958  0.21012146  1
  I  I6  1  0.02415533  0.00639557  0.00000000  1
  I  I7  1  0.97585932  0.50638814  0.50000000  1
  Cs  Cs8  1  0.50466237  0.48939829  0.00000000  1
  Cs  Cs9  1  0.49535054  0.98937133  0.50000000  1
