# generated using pymatgen
data_SBr
_symmetry_space_group_name_H-M   'P 1'
_cell_length_a   4.75365392
_cell_length_b   4.75365392
_cell_length_c   14.25809523
_cell_angle_alpha   90.00000000
_cell_angle_beta   90.00000000
_cell_angle_gamma   108.49929726
_symmetry_Int_Tables_number   1
_chemical_formula_structural   SBr
_chemical_formula_sum   'S4 Br4'
_cell_volume   305.54487129
_cell_formula_units_Z   4
loop_
 _symmetry_equiv_pos_site_id
 _symmetry_equiv_pos_as_xyz
  1  'x, y, z'
loop_
 _atom_site_type_symbol
 _atom_site_label
 _atom_site_symmetry_multiplicity
 _atom_site_fract_x
 _atom_site_fract_y
 _atom_site_fract_z
 _atom_site_occupancy
  S  S0  1  0.19409986  0.38440600  0.95617852  1
  S  S1  1  0.38440600  0.19409986  0.04382148  1
  S  S2  1  0.69409986  0.88440600  0.54382148  1
  S  S3  1  0.88440600  0.69409986  0.45617852  1
  Br  Br4  1  0.95536118  0.06513296  0.83989404  1
  Br  Br5  1  0.06513296  0.95536118  0.16010596  1
  Br  Br6  1  0.45536118  0.56513296  0.66010596  1
  Br  Br7  1  0.56513296  0.45536118  0.33989404  1
