# generated using pymatgen
data_Pb2SO5
_symmetry_space_group_name_H-M   'P 1'
_cell_length_a   5.81083269
_cell_length_b   7.18367613
_cell_length_c   7.56453698
_cell_angle_alpha   112.86429898
_cell_angle_beta   112.58687523
_cell_angle_gamma   90.00000000
_symmetry_Int_Tables_number   1
_chemical_formula_structural   Pb2SO5
_chemical_formula_sum   'Pb4 S2 O10'
_cell_volume   264.47459752
_cell_formula_units_Z   2
loop_
 _symmetry_equiv_pos_site_id
 _symmetry_equiv_pos_as_xyz
  1  'x, y, z'
loop_
 _atom_site_type_symbol
 _atom_site_label
 _atom_site_symmetry_multiplicity
 _atom_site_fract_x
 _atom_site_fract_y
 _atom_site_fract_z
 _atom_site_occupancy
  O  O0  1  0.74736254  0.00000000  0.00000000  1
  O  O1  1  0.25263746  0.00000000  0.00000000  1
  O  O2  1  0.71134285  0.28761500  0.42268569  1
  O  O3  1  0.28865715  0.71238500  0.57731431  1
  O  O4  1  0.93658087  0.74765584  0.29286056  1
  O  O5  1  0.64372031  0.25234416  0.70713944  1
  O  O6  1  0.88906180  0.57070695  0.77812361  1
  O  O7  1  0.11093820  0.42929305  0.22187639  1
  O  O8  1  0.35627969  0.74765584  0.29286056  1
  O  O9  1  0.06341913  0.25234416  0.70713944  1
  S  S10  1  0.82757655  0.34296537  0.65515309  1
  S  S11  1  0.17242345  0.65703463  0.34484691  1
  Pb  Pb12  1  0.52524929  0.26893216  0.05049859  1
  Pb  Pb13  1  0.47475071  0.73106784  0.94950141  1
  Pb  Pb14  1  0.14560542  0.10099137  0.29121085  1
  Pb  Pb15  1  0.85439458  0.89900863  0.70878915  1
