# generated using pymatgen
data_Er4Ni13C4
_symmetry_space_group_name_H-M   'P 1'
_cell_length_a   3.83818521
_cell_length_b   8.35567144
_cell_length_c   8.35567143
_cell_angle_alpha   91.26373116
_cell_angle_beta   90.00000000
_cell_angle_gamma   90.00000000
_symmetry_Int_Tables_number   1
_chemical_formula_structural   Er4Ni13C4
_chemical_formula_sum   'Er4 Ni13 C4'
_cell_volume   267.90633895
_cell_formula_units_Z   1
loop_
 _symmetry_equiv_pos_site_id
 _symmetry_equiv_pos_as_xyz
  1  'x, y, z'
loop_
 _atom_site_type_symbol
 _atom_site_label
 _atom_site_symmetry_multiplicity
 _atom_site_fract_x
 _atom_site_fract_y
 _atom_site_fract_z
 _atom_site_occupancy
  C  C0  1  0.00000000  0.00000000  0.50000000  1
  C  C1  1  0.00000000  0.50000000  0.00000000  1
  C  C2  1  0.00000000  0.44297007  0.55702993  1
  C  C3  1  0.00000000  0.55702993  0.44297007  1
  Ni  Ni4  1  0.50000000  0.50000000  0.00000000  1
  Ni  Ni5  1  0.50000000  0.00000000  0.50000000  1
  Ni  Ni6  1  0.00000000  0.00000000  0.00000000  1
  Ni  Ni7  1  0.00000000  0.56982280  0.21562266  1
  Ni  Ni8  1  0.00000000  0.43017720  0.78437734  1
  Ni  Ni9  1  0.00000000  0.21562266  0.56982280  1
  Ni  Ni10  1  0.00000000  0.78437734  0.43017720  1
  Ni  Ni11  1  0.00000000  0.29094772  0.07441241  1
  Ni  Ni12  1  0.00000000  0.70905228  0.92558759  1
  Ni  Ni13  1  0.00000000  0.07441241  0.29094772  1
  Ni  Ni14  1  0.00000000  0.92558759  0.70905228  1
  Ni  Ni15  1  0.50000000  0.12337261  0.12337261  1
  Ni  Ni16  1  0.50000000  0.87662739  0.87662739  1
  Er  Er17  1  0.50000000  0.65162621  0.65162621  1
  Er  Er18  1  0.50000000  0.34837379  0.34837379  1
  Er  Er19  1  0.50000000  0.81276280  0.18723720  1
  Er  Er20  1  0.50000000  0.18723720  0.81276280  1
