# generated using pymatgen
data_BaAs2
_symmetry_space_group_name_H-M   'P 1'
_cell_length_a   6.68505848
_cell_length_b   6.69286844
_cell_length_c   12.77320834
_cell_angle_alpha   90.00000000
_cell_angle_beta   90.00000000
_cell_angle_gamma   104.23749404
_symmetry_Int_Tables_number   1
_chemical_formula_structural   BaAs2
_chemical_formula_sum   'Ba6 As12'
_cell_volume   553.94776421
_cell_formula_units_Z   6
loop_
 _symmetry_equiv_pos_site_id
 _symmetry_equiv_pos_as_xyz
  1  'x, y, z'
loop_
 _atom_site_type_symbol
 _atom_site_label
 _atom_site_symmetry_multiplicity
 _atom_site_fract_x
 _atom_site_fract_y
 _atom_site_fract_z
 _atom_site_occupancy
  As  As0  1  0.16957385  0.84190055  0.57633971  1
  As  As1  1  0.66957385  0.34190055  0.42366029  1
  As  As2  1  0.25705495  0.78813129  0.39007153  1
  As  As3  1  0.75705495  0.28813129  0.60992847  1
  As  As4  1  0.11383605  0.49782331  0.65611080  1
  As  As5  1  0.61383605  0.99782331  0.34388920  1
  As  As6  1  0.00360669  0.00821648  0.01548265  1
  As  As7  1  0.50360669  0.50821648  0.98451735  1
  As  As8  1  0.32936559  0.53657639  0.15190592  1
  As  As9  1  0.82936559  0.03657639  0.84809408  1
  As  As10  1  0.99060783  0.25075143  0.15818277  1
  As  As11  1  0.49060783  0.75075143  0.84181723  1
  Ba  Ba12  1  0.35247773  0.17907523  0.77253791  1
  Ba  Ba13  1  0.85247773  0.67907523  0.22746209  1
  Ba  Ba14  1  0.99258167  0.54704841  0.91807981  1
  Ba  Ba15  1  0.49258167  0.04704841  0.08192019  1
  Ba  Ba16  1  0.64419562  0.74987690  0.57593232  1
  Ba  Ba17  1  0.14419562  0.24987690  0.42406768  1
