# generated using pymatgen
data_Re2PbO8
_symmetry_space_group_name_H-M   'P 1'
_cell_length_a   11.54274017
_cell_length_b   11.54274018
_cell_length_c   4.99404098
_cell_angle_alpha   90.00000000
_cell_angle_beta   90.00000000
_cell_angle_gamma   120.00000001
_symmetry_Int_Tables_number   1
_chemical_formula_structural   Re2PbO8
_chemical_formula_sum   'Re6 Pb3 O24'
_cell_volume   576.23624666
_cell_formula_units_Z   3
loop_
 _symmetry_equiv_pos_site_id
 _symmetry_equiv_pos_as_xyz
  1  'x, y, z'
loop_
 _atom_site_type_symbol
 _atom_site_label
 _atom_site_symmetry_multiplicity
 _atom_site_fract_x
 _atom_site_fract_y
 _atom_site_fract_z
 _atom_site_occupancy
  O  O0  1  0.61517826  0.61517826  0.64241456  1
  O  O1  1  0.00000000  0.38482174  0.64241456  1
  O  O2  1  0.38482174  0.00000000  0.64241456  1
  O  O3  1  0.14740122  0.14740122  0.61435664  1
  O  O4  1  0.00000000  0.85259878  0.61435664  1
  O  O5  1  0.85259878  0.00000000  0.61435664  1
  O  O6  1  0.29343439  0.43739603  0.59427275  1
  O  O7  1  0.56260397  0.85603836  0.59427275  1
  O  O8  1  0.14396164  0.70656561  0.59427275  1
  O  O9  1  0.23145047  0.00000000  0.08417535  1
  O  O10  1  0.00000000  0.23145047  0.08417535  1
  O  O11  1  0.76854953  0.76854953  0.08417535  1
  O  O12  1  0.52035206  0.14610623  0.10682599  1
  O  O13  1  0.85389377  0.37424582  0.10682599  1
  O  O14  1  0.62575418  0.47964794  0.10682599  1
  O  O15  1  0.14610623  0.52035206  0.10682599  1
  O  O16  1  0.37424582  0.85389377  0.10682599  1
  O  O17  1  0.47964794  0.62575418  0.10682599  1
  O  O18  1  0.71577362  0.00000000  0.14256588  1
  O  O19  1  0.00000000  0.71577362  0.14256588  1
  O  O20  1  0.28422638  0.28422638  0.14256588  1
  O  O21  1  0.70656561  0.14396164  0.59427275  1
  O  O22  1  0.85603836  0.56260397  0.59427275  1
  O  O23  1  0.43739603  0.29343439  0.59427275  1
  Re  Re24  1  0.37768860  0.00000000  0.98942465  1
  Re  Re25  1  0.00000000  0.37768860  0.98942465  1
  Re  Re26  1  0.62231140  0.62231140  0.98942465  1
  Re  Re27  1  0.29057870  0.29057870  0.48969331  1
  Re  Re28  1  0.00000000  0.70942130  0.48969331  1
  Re  Re29  1  0.70942130  0.00000000  0.48969331  1
  Pb  Pb30  1  0.00000000  0.00000000  -0.03335348  1
  Pb  Pb31  1  0.33333333  0.66666667  0.41948494  1
  Pb  Pb32  1  0.66666667  0.33333333  0.41948494  1
