# generated using pymatgen
data_Li3Cr2(PO4)3
_symmetry_space_group_name_H-M   'P 1'
_cell_length_a   8.94568915
_cell_length_b   8.94568915
_cell_length_c   8.94568915
_cell_angle_alpha   56.10329041
_cell_angle_beta   56.10329048
_cell_angle_gamma   56.10329040
_symmetry_Int_Tables_number   1
_chemical_formula_structural   Li3Cr2(PO4)3
_chemical_formula_sum   'Li6 Cr4 P6 O24'
_cell_volume   460.52857807
_cell_formula_units_Z   2
loop_
 _symmetry_equiv_pos_site_id
 _symmetry_equiv_pos_as_xyz
  1  'x, y, z'
loop_
 _atom_site_type_symbol
 _atom_site_label
 _atom_site_symmetry_multiplicity
 _atom_site_fract_x
 _atom_site_fract_y
 _atom_site_fract_z
 _atom_site_occupancy
  Li  Li0  1  0.07883485  0.33247974  0.73594912  1
  Li  Li1  1  0.92116567  0.66751958  0.26405136  1
  Li  Li2  1  0.66751993  0.26405188  0.92116453  1
  Li  Li3  1  0.26405059  0.92116559  0.66751992  1
  Li  Li4  1  0.73594806  0.07883518  0.33248079  1
  Li  Li5  1  0.33248007  0.73594889  0.07883542  1
  O  O6  1  0.13172766  0.87789929  0.25449416  1
  O  O7  1  0.46191456  0.84301221  0.78845189  1
  O  O8  1  0.78845155  0.46191512  0.84301251  1
  O  O9  1  0.84301197  0.78845284  0.46191477  1
  O  O10  1  0.15698803  0.21154793  0.53808518  1
  O  O11  1  0.21154710  0.53808565  0.15698820  1
  O  O12  1  0.53808544  0.15698856  0.21154694  1
  O  O13  1  0.16884854  0.53376107  0.49363936  1
  O  O14  1  0.12210095  0.74550595  0.86827170  1
  O  O15  1  0.00433806  0.80443301  0.61369827  1
  O  O16  1  0.25449436  0.13172799  0.87789904  1
  O  O17  1  0.86827234  0.12210148  0.74550467  1
  O  O18  1  0.53376128  0.49363801  0.16884940  1
  O  O19  1  0.19556769  0.38630234  0.99566129  1
  O  O20  1  0.83115011  0.46623970  0.50636135  1
  O  O21  1  0.38630151  0.99566211  0.19556687  1
  O  O22  1  0.61369849  0.00433866  0.80443197  1
  O  O23  1  0.87789905  0.25449483  0.13172826  1
  O  O24  1  0.80443231  0.61369843  0.00433866  1
  O  O25  1  0.46623924  0.50636131  0.83115108  1
  O  O26  1  0.50636142  0.83115103  0.46623937  1
  O  O27  1  0.74550616  0.86827133  0.12210143  1
  O  O28  1  0.99566194  0.19556777  0.38630168  1
  O  O29  1  0.49363858  0.16884974  0.53376058  1
  P  P30  1  0.46183950  0.03970026  0.74954845  1
  P  P31  1  0.74954868  0.46183941  0.03970074  1
  P  P32  1  0.25045184  0.53815991  0.96029973  1
  P  P33  1  0.53815914  0.96030051  0.25045114  1
  P  P34  1  0.03970029  0.74954910  0.46184011  1
  P  P35  1  0.96029971  0.25045168  0.53815984  1
  Cr  Cr36  1  0.85552390  0.85552293  0.85552326  1
  Cr  Cr37  1  0.65133663  0.65133618  0.65133569  1
  Cr  Cr38  1  0.34866389  0.34866315  0.34866366  1
  Cr  Cr39  1  0.14447662  0.14447640  0.14447721  1
