# generated using pymatgen
data_Ta9(CoS3)2
_symmetry_space_group_name_H-M   'P 1'
_cell_length_a   10.35921201
_cell_length_b   10.35921180
_cell_length_c   6.61084441
_cell_angle_alpha   90.00000000
_cell_angle_beta   90.00000000
_cell_angle_gamma   120.00000065
_symmetry_Int_Tables_number   1
_chemical_formula_structural   Ta9(CoS3)2
_chemical_formula_sum   'Ta18 Co4 S12'
_cell_volume   614.38555813
_cell_formula_units_Z   2
loop_
 _symmetry_equiv_pos_site_id
 _symmetry_equiv_pos_as_xyz
  1  'x, y, z'
loop_
 _atom_site_type_symbol
 _atom_site_label
 _atom_site_symmetry_multiplicity
 _atom_site_fract_x
 _atom_site_fract_y
 _atom_site_fract_z
 _atom_site_occupancy
  Ta  Ta0  1  0.73968072  0.19159983  0.50000000  1
  Ta  Ta1  1  0.47141338  0.26000852  0.00000000  1
  Ta  Ta2  1  0.54325322  0.54325322  0.24862903  1
  Ta  Ta3  1  0.00000000  0.45674678  0.75137097  1
  Ta  Ta4  1  0.54808089  0.80840017  0.50000000  1
  Ta  Ta5  1  0.19159983  0.73968072  0.50000000  1
  Ta  Ta6  1  0.26031928  0.45191911  0.50000000  1
  Ta  Ta7  1  0.45674678  0.00000000  0.75137097  1
  Ta  Ta8  1  0.80840017  0.54808089  0.50000000  1
  Ta  Ta9  1  0.73999148  0.21140487  0.00000000  1
  Ta  Ta10  1  0.26000852  0.47141338  0.00000000  1
  Ta  Ta11  1  0.78859513  0.52858662  0.00000000  1
  Ta  Ta12  1  0.00000000  0.45674678  0.24862903  1
  Ta  Ta13  1  0.52858662  0.78859513  0.00000000  1
  Ta  Ta14  1  0.45191911  0.26031928  0.50000000  1
  Ta  Ta15  1  0.54325322  0.54325322  0.75137097  1
  Ta  Ta16  1  0.45674678  0.00000000  0.24862903  1
  Ta  Ta17  1  0.21140487  0.73999148  0.00000000  1
  Co  Co18  1  0.66666700  0.33333300  0.27904222  1
  Co  Co19  1  0.66666700  0.33333300  0.72095778  1
  Co  Co20  1  0.33333300  0.66666700  0.72095778  1
  Co  Co21  1  0.33333300  0.66666700  0.27904222  1
  S  S22  1  0.29701003  0.29701003  0.76205565  1
  S  S23  1  0.70298997  0.00000000  0.76205565  1
  S  S24  1  0.72665567  0.72665567  0.50000000  1
  S  S25  1  0.27464737  0.00000000  0.00000000  1
  S  S26  1  1.00000000  0.70298997  0.76205565  1
  S  S27  1  0.29701003  0.29701003  0.23794435  1
  S  S28  1  1.00000000  0.70298997  0.23794435  1
  S  S29  1  0.00000000  0.27334433  0.50000000  1
  S  S30  1  1.00000000  0.27464737  0.00000000  1
  S  S31  1  0.72535263  0.72535263  0.00000000  1
  S  S32  1  0.70298997  0.00000000  0.23794435  1
  S  S33  1  0.27334433  0.00000000  0.50000000  1
