# generated using pymatgen
data_Fe2(MoO4)3
_symmetry_space_group_name_H-M   'P 1'
_cell_length_a   9.46320511
_cell_length_b   9.54811702
_cell_length_c   13.18288506
_cell_angle_alpha   90.00000000
_cell_angle_beta   90.00000000
_cell_angle_gamma   90.00000000
_symmetry_Int_Tables_number   1
_chemical_formula_structural   Fe2(MoO4)3
_chemical_formula_sum   'Fe8 Mo12 O48'
_cell_volume   1191.14999110
_cell_formula_units_Z   4
loop_
 _symmetry_equiv_pos_site_id
 _symmetry_equiv_pos_as_xyz
  1  'x, y, z'
loop_
 _atom_site_type_symbol
 _atom_site_label
 _atom_site_symmetry_multiplicity
 _atom_site_fract_x
 _atom_site_fract_y
 _atom_site_fract_z
 _atom_site_occupancy
  O  O0  1  0.85977956  0.29809405  0.16869777  1
  O  O1  1  0.85977956  0.20190544  0.83130230  1
  O  O2  1  0.64022069  0.79809464  0.33130226  1
  O  O3  1  0.64022069  0.70190603  0.66869781  1
  O  O4  1  0.14022098  0.70190603  0.83130230  1
  O  O5  1  0.14022098  0.79809464  0.16869777  1
  O  O6  1  0.35977874  0.20190544  0.66869781  1
  O  O7  1  0.35977874  0.29809405  0.33130226  1
  O  O8  1  0.82057876  0.07037117  0.02465343  1
  O  O9  1  0.82057876  0.42962942  0.97534586  1
  O  O10  1  0.67942040  0.57037066  0.47534582  1
  O  O11  1  0.67942040  0.92962891  0.52465346  1
  O  O12  1  0.17942068  0.92962891  0.97534586  1
  O  O13  1  0.17942068  0.57037066  0.02465343  1
  O  O14  1  0.32057904  0.42962942  0.52465346  1
  O  O15  1  0.32057904  0.07037117  0.47534582  1
  O  O16  1  0.41665947  0.66177532  0.90953768  1
  O  O17  1  0.58334106  0.16177583  0.90953768  1
  O  O18  1  0.91665919  0.83822425  0.40953765  1
  O  O19  1  0.91665919  0.66177532  0.59046243  1
  O  O20  1  0.08256515  0.09087286  0.14156624  1
  O  O21  1  0.08256515  0.40912772  0.85843384  1
  O  O22  1  0.41743457  0.59087236  0.35843380  1
  O  O23  1  0.41743457  0.90912722  0.64156627  1
  O  O24  1  0.91743428  0.90912722  0.85843384  1
  O  O25  1  0.91743428  0.59087236  0.14156624  1
  O  O26  1  0.58256597  0.40912772  0.64156627  1
  O  O27  1  0.58256597  0.09087286  0.35843380  1
  O  O28  1  0.36462713  0.12686876  0.06619668  1
  O  O29  1  0.36462713  0.37313182  0.93380339  1
  O  O30  1  0.13537259  0.62686826  0.43380336  1
  O  O31  1  0.13537259  0.87313132  0.56619672  1
  O  O32  1  0.63537231  0.87313132  0.93380339  1
  O  O33  1  0.63537231  0.62686826  0.06619668  1
  O  O34  1  0.86462685  0.37313182  0.56619672  1
  O  O35  1  0.86462685  0.12686876  0.43380336  1
  O  O36  1  0.31780079  0.00763625  0.25893338  1
  O  O37  1  0.31780079  0.49236325  0.74106669  1
  O  O38  1  0.18220003  0.50763683  0.24106666  1
  O  O39  1  0.18220003  0.99236383  0.75893342  1
  O  O40  1  0.68219975  0.99236383  0.74106669  1
  O  O41  1  0.68219975  0.50763683  0.25893338  1
  O  O42  1  0.81780051  0.49236325  0.75893342  1
  O  O43  1  0.81780051  0.00763625  0.24106666  1
  O  O44  1  0.08334025  0.33822476  0.40953765  1
  O  O45  1  0.08334025  0.16177583  0.59046243  1
  O  O46  1  0.41665947  0.83822425  0.09046239  1
  O  O47  1  0.58334106  0.33822476  0.09046239  1
  Fe  Fe48  1  0.24997545  0.46585112  0.38096715  1
  Fe  Fe49  1  0.24997545  0.03414946  0.61903293  1
  Fe  Fe50  1  0.25002427  0.96585062  0.11903289  1
  Fe  Fe51  1  0.25002427  0.53414896  0.88096718  1
  Fe  Fe52  1  0.75002508  0.53414896  0.61903293  1
  Fe  Fe53  1  0.75002508  0.96585062  0.38096715  1
  Fe  Fe54  1  0.74997517  0.03414946  0.88096718  1
  Fe  Fe55  1  0.74997517  0.46585112  0.11903289  1
  Mo  Mo56  1  0.02665889  0.74999979  0.50000004  1
  Mo  Mo57  1  0.52665861  0.74999979  0.00000000  1
  Mo  Mo58  1  0.97334165  0.25000029  0.50000004  1
  Mo  Mo59  1  0.47334083  0.25000029  0.00000000  1
  Mo  Mo60  1  0.39478816  0.11632582  0.35526266  1
  Mo  Mo61  1  0.39478816  0.38367368  0.64473662  1
  Mo  Mo62  1  0.10521266  0.61632640  0.14473737  1
  Mo  Mo63  1  0.10521266  0.88367426  0.85526270  1
  Mo  Mo64  1  0.60521238  0.88367426  0.64473662  1
  Mo  Mo65  1  0.60521238  0.61632640  0.35526266  1
  Mo  Mo66  1  0.89478788  0.38367368  0.85526270  1
  Mo  Mo67  1  0.89478788  0.11632582  0.14473737  1
