# generated using pymatgen
data_Al2CoO4
_symmetry_space_group_name_H-M   'P 1'
_cell_length_a   5.78547149
_cell_length_b   5.78547230
_cell_length_c   5.78547196
_cell_angle_alpha   60.00000450
_cell_angle_beta   60.00000276
_cell_angle_gamma   60.00000468
_symmetry_Int_Tables_number   1
_chemical_formula_structural   Al2CoO4
_chemical_formula_sum   'Al4 Co2 O8'
_cell_volume   136.93088369
_cell_formula_units_Z   2
loop_
 _symmetry_equiv_pos_site_id
 _symmetry_equiv_pos_as_xyz
  1  'x, y, z'
loop_
 _atom_site_type_symbol
 _atom_site_label
 _atom_site_symmetry_multiplicity
 _atom_site_fract_x
 _atom_site_fract_y
 _atom_site_fract_z
 _atom_site_occupancy
  Al  Al0  1  0.12500000  0.62500000  0.62500000  1
  Al  Al1  1  0.62500000  0.62500000  0.12500000  1
  Al  Al2  1  0.62500000  0.12500000  0.62500000  1
  Al  Al3  1  0.62500000  0.62500000  0.62500000  1
  Co  Co4  1  -0.00000000  -0.00000000  0.00000000  1
  Co  Co5  1  0.25000000  0.25000000  0.25000000  1
  O  O6  1  0.83150925  0.38949692  0.38949692  1
  O  O7  1  0.86050308  0.86050308  0.86050308  1
  O  O8  1  0.38949692  0.83150925  0.38949692  1
  O  O9  1  0.38949692  0.38949692  0.83150925  1
  O  O10  1  0.86050308  0.86050308  0.41849075  1
  O  O11  1  0.86050308  0.41849075  0.86050308  1
  O  O12  1  0.38949692  0.38949692  0.38949692  1
  O  O13  1  0.41849075  0.86050308  0.86050308  1
