# generated using pymatgen
data_RbCr3O8
_symmetry_space_group_name_H-M   'P 1'
_cell_length_a   5.24933433
_cell_length_b   5.24933433
_cell_length_c   8.21597919
_cell_angle_alpha   85.90886186
_cell_angle_beta   85.90886186
_cell_angle_gamma   63.58603356
_symmetry_Int_Tables_number   1
_chemical_formula_structural   RbCr3O8
_chemical_formula_sum   'Rb1 Cr3 O8'
_cell_volume   202.04503590
_cell_formula_units_Z   1
loop_
 _symmetry_equiv_pos_site_id
 _symmetry_equiv_pos_as_xyz
  1  'x, y, z'
loop_
 _atom_site_type_symbol
 _atom_site_label
 _atom_site_symmetry_multiplicity
 _atom_site_fract_x
 _atom_site_fract_y
 _atom_site_fract_z
 _atom_site_occupancy
  O  O0  1  0.77655888  0.27546662  0.67131542  1
  O  O1  1  0.72453338  0.22344112  0.32868458  1
  O  O2  1  0.22344112  0.72453338  0.32868458  1
  O  O3  1  0.27546662  0.77655888  0.67131542  1
  O  O4  1  0.21997474  0.21997474  0.43789929  1
  O  O5  1  0.78002526  0.78002526  0.56210071  1
  O  O6  1  0.67874249  0.67874249  0.88288423  1
  O  O7  1  0.32125751  0.32125751  0.11711577  1
  Cr  Cr8  1  0.36972648  0.36972648  0.30358100  1
  Cr  Cr9  1  0.63027352  0.63027352  0.69641900  1
  Cr  Cr10  1  0.00000000  0.00000000  0.50000000  1
  Rb  Rb11  1  0.00000000  0.00000000  0.00000000  1
