# generated using pymatgen
data_LiFe(PO3)4
_symmetry_space_group_name_H-M   'P 1'
_cell_length_a   12.78484701
_cell_length_b   8.38382233
_cell_length_c   9.38149642
_cell_angle_alpha   90.00000000
_cell_angle_beta   90.00000000
_cell_angle_gamma   90.00000000
_symmetry_Int_Tables_number   1
_chemical_formula_structural   LiFe(PO3)4
_chemical_formula_sum   'Li4 Fe4 P16 O48'
_cell_volume   1005.56400436
_cell_formula_units_Z   4
loop_
 _symmetry_equiv_pos_site_id
 _symmetry_equiv_pos_as_xyz
  1  'x, y, z'
loop_
 _atom_site_type_symbol
 _atom_site_label
 _atom_site_symmetry_multiplicity
 _atom_site_fract_x
 _atom_site_fract_y
 _atom_site_fract_z
 _atom_site_occupancy
  Li  Li0  1  0.00000000  0.00211956  0.74999966  1
  Li  Li1  1  0.50000028  0.50211991  0.74999966  1
  Li  Li2  1  0.50000028  0.49788078  0.25000024  1
  Li  Li3  1  0.00000000  0.99788113  0.25000024  1
  O  O4  1  0.37394903  0.87222064  0.87871406  1
  O  O5  1  0.92813282  0.46677756  0.37158812  1
  O  O6  1  0.92813282  0.53322312  0.87158753  1
  O  O7  1  0.93621519  0.80941797  0.36667465  1
  O  O8  1  0.06378459  0.19058153  0.63332525  1
  O  O9  1  0.06378459  0.80941797  0.13332584  1
  O  O10  1  0.07186696  0.46677756  0.12841237  1
  O  O11  1  0.07186696  0.53322312  0.62841178  1
  O  O12  1  0.10152651  0.09336428  0.37642900  1
  O  O13  1  0.10152651  0.90663521  0.87642842  1
  O  O14  1  0.12605125  0.37222149  0.87871406  1
  O  O15  1  0.12605125  0.62777920  0.37871358  1
  O  O16  1  0.17970155  0.35316933  0.46508300  1
  O  O17  1  0.17970155  0.64683017  0.96508348  1
  O  O18  1  0.24092680  0.09713527  0.57461129  1
  O  O19  1  0.24092680  0.90286422  0.07461081  1
  O  O20  1  0.25907348  0.40286388  0.07461081  1
  O  O21  1  0.25907348  0.59713562  0.57461129  1
  O  O22  1  0.32029873  0.14683101  0.96508348  1
  O  O23  1  0.32029873  0.85316967  0.46508300  1
  O  O24  1  0.37394903  0.12777885  0.37871358  1
  O  O25  1  0.93621519  0.19058153  0.86667513  1
  O  O26  1  0.39847377  0.40663606  0.87642842  1
  O  O27  1  0.39847377  0.59336463  0.37642900  1
  O  O28  1  0.42813332  0.03322278  0.62841178  1
  O  O29  1  0.42813332  0.96677791  0.12841237  1
  O  O30  1  0.43621491  0.30941762  0.13332584  1
  O  O31  1  0.43621491  0.69058187  0.63332525  1
  O  O32  1  0.56378486  0.30941762  0.36667465  1
  O  O33  1  0.56378486  0.69058187  0.86667513  1
  O  O34  1  0.57186724  0.03322278  0.87158753  1
  O  O35  1  0.57186724  0.96677791  0.37158812  1
  O  O36  1  0.60152601  0.40663606  0.62357090  1
  O  O37  1  0.60152601  0.59336463  0.12357148  1
  O  O38  1  0.62605153  0.12777885  0.12128691  1
  O  O39  1  0.62605153  0.87222064  0.62128632  1
  O  O40  1  0.67970183  0.14683101  0.53491690  1
  O  O41  1  0.67970183  0.85316967  0.03491642  1
  O  O42  1  0.74092630  0.40286388  0.42538861  1
  O  O43  1  0.74092630  0.59713562  0.92538909  1
  O  O44  1  0.75907376  0.09713527  0.92538909  1
  O  O45  1  0.75907376  0.90286422  0.42538861  1
  O  O46  1  0.82029822  0.35316933  0.03491642  1
  O  O47  1  0.82029822  0.64683017  0.53491690  1
  O  O48  1  0.87394853  0.37222149  0.62128632  1
  O  O49  1  0.89847405  0.90663521  0.62357090  1
  O  O50  1  0.89847405  0.09336428  0.12357148  1
  O  O51  1  0.87394853  0.62777920  0.12128691  1
  P  P52  1  0.84834803  0.46744613  0.48997663  1
  P  P53  1  0.84834803  0.53255456  0.98997711  1
  P  P54  1  0.65165202  0.96744528  0.48997663  1
  P  P55  1  0.86284511  0.17751726  0.99410158  1
  P  P56  1  0.13715467  0.17751726  0.50589774  1
  P  P57  1  0.13715467  0.82248343  0.00589832  1
  P  P58  1  0.15165175  0.46744613  0.01002386  1
  P  P59  1  0.15165175  0.53255456  0.51002327  1
  P  P60  1  0.34834853  0.03255422  0.51002327  1
  P  P61  1  0.34834853  0.96744528  0.01002386  1
  P  P62  1  0.36284483  0.32248309  0.00589832  1
  P  P63  1  0.36284483  0.67751641  0.50589774  1
  P  P64  1  0.63715494  0.32248309  0.49410216  1
  P  P65  1  0.63715494  0.67751641  0.99410158  1
  P  P66  1  0.65165202  0.03255422  0.98997711  1
  P  P67  1  0.86284511  0.82248343  0.49410216  1
  Fe  Fe68  1  0.50000028  0.87043561  0.74999966  1
  Fe  Fe69  1  0.50000028  0.12956388  0.25000024  1
  Fe  Fe70  1  0.00000000  0.62956423  0.25000024  1
  Fe  Fe71  1  0.00000000  0.37043646  0.74999966  1
