# generated using pymatgen
data_Li3Fe2(PO4)3
_symmetry_space_group_name_H-M   'P 1'
_cell_length_a   8.67753600
_cell_length_b   12.19124829
_cell_length_c   8.73650793
_cell_angle_alpha   90.00000000
_cell_angle_beta   90.00000000
_cell_angle_gamma   90.38393639
_symmetry_Int_Tables_number   1
_chemical_formula_structural   Li3Fe2(PO4)3
_chemical_formula_sum   'Li12 Fe8 P12 O48'
_cell_volume   924.21438867
_cell_formula_units_Z   4
loop_
 _symmetry_equiv_pos_site_id
 _symmetry_equiv_pos_as_xyz
  1  'x, y, z'
loop_
 _atom_site_type_symbol
 _atom_site_label
 _atom_site_symmetry_multiplicity
 _atom_site_fract_x
 _atom_site_fract_y
 _atom_site_fract_z
 _atom_site_occupancy
  Li  Li0  1  0.07573105  0.69995767  0.07874846  1
  Li  Li1  1  0.92426895  0.30004233  0.92125154  1
  Li  Li2  1  0.91268596  0.24045246  0.29852962  1
  Li  Li3  1  0.79234200  0.81994261  0.22530234  1
  Li  Li4  1  0.70765800  0.68005739  0.72530234  1
  Li  Li5  1  0.58731404  0.25954754  0.79852962  1
  Li  Li6  1  0.57573105  0.19995767  0.42125154  1
  Li  Li7  1  0.42426895  0.80004233  0.57874846  1
  Li  Li8  1  0.41268596  0.74045246  0.20147038  1
  Li  Li9  1  0.08731404  0.75954754  0.70147038  1
  Li  Li10  1  0.20765800  0.18005739  0.77469766  1
  Li  Li11  1  0.29234200  0.31994261  0.27469766  1
  O  O12  1  0.17086748  0.43308068  0.16773683  1
  O  O13  1  0.85394844  0.02798684  0.59171871  1
  O  O14  1  0.85764407  0.18409999  0.78250005  1
  O  O15  1  0.89922704  0.43156641  0.62710537  1
  O  O16  1  0.92834150  0.83186946  0.40877647  1
  O  O17  1  0.92650192  0.40281124  0.31127189  1
  O  O18  1  0.92298994  0.15032025  0.11054014  1
  O  O19  1  0.95173094  0.56952743  0.13305881  1
  O  O20  1  0.04826906  0.43047257  0.86694119  1
  O  O21  1  0.07701006  0.84967975  0.88945986  1
  O  O22  1  0.07349808  0.59718876  0.68872811  1
  O  O23  1  0.07165850  0.16813054  0.59122353  1
  O  O24  1  0.10077296  0.56843359  0.37289463  1
  O  O25  1  0.14235593  0.81590001  0.21749995  1
  O  O26  1  0.14605156  0.97201316  0.40828129  1
  O  O27  1  0.14789404  0.23627211  0.97941381  1
  O  O28  1  0.15697142  0.18686361  0.26440557  1
  O  O29  1  0.85210596  0.76372789  0.02058619  1
  O  O30  1  0.16814522  0.03857315  0.05687856  1
  O  O31  1  0.19413558  0.78060619  0.50396753  1
  O  O32  1  0.30586442  0.71939381  0.00396753  1
  O  O33  1  0.33185478  0.46142685  0.55687856  1
  O  O34  1  0.32913252  0.06691932  0.66773683  1
  O  O35  1  0.34302858  0.31313639  0.76440557  1
  O  O36  1  0.35394844  0.52798684  0.90828129  1
  O  O37  1  0.35210596  0.26372789  0.47941381  1
  O  O38  1  0.35764407  0.68409999  0.71749995  1
  O  O39  1  0.39922704  0.93156641  0.87289463  1
  O  O40  1  0.42650192  0.90281124  0.18872811  1
  O  O41  1  0.42298994  0.65032025  0.38945986  1
  O  O42  1  0.42834150  0.33186946  0.09122353  1
  O  O43  1  0.45173094  0.06952743  0.36694119  1
  O  O44  1  0.54826906  0.93047257  0.63305881  1
  O  O45  1  0.57165850  0.66813054  0.90877647  1
  O  O46  1  0.57701006  0.34967975  0.61054014  1
  O  O47  1  0.57349808  0.09718876  0.81127189  1
  O  O48  1  0.60077296  0.06843359  0.12710537  1
  O  O49  1  0.64235593  0.31590001  0.28250005  1
  O  O50  1  0.64789404  0.73627211  0.52058619  1
  O  O51  1  0.64605156  0.47201316  0.09171871  1
  O  O52  1  0.84302858  0.81313639  0.73559443  1
  O  O53  1  0.67086748  0.93308068  0.33226317  1
  O  O54  1  0.66814522  0.53857315  0.44312144  1
  O  O55  1  0.69413558  0.28060619  0.99603247  1
  O  O56  1  0.80586442  0.21939381  0.49603247  1
  O  O57  1  0.83185478  0.96142685  0.94312144  1
  O  O58  1  0.82913252  0.56691932  0.83226317  1
  O  O59  1  0.65697142  0.68686361  0.23559443  1
  P  P60  1  0.39643563  0.64898947  0.88428251  1
  P  P61  1  0.39718494  0.35089169  0.60256163  1
  P  P62  1  0.46423455  0.00695108  0.74757547  1
  P  P63  1  0.53576545  0.99304892  0.25242453  1
  P  P64  1  0.60281506  0.64910831  0.39743837  1
  P  P65  1  0.60356437  0.35101053  0.11571749  1
  P  P66  1  0.89718494  0.85089169  0.89743837  1
  P  P67  1  0.89643563  0.14898947  0.61571749  1
  P  P68  1  0.03576545  0.49304892  0.24757547  1
  P  P69  1  0.10356437  0.85101053  0.38428251  1
  P  P70  1  0.10281506  0.14910831  0.10256163  1
  P  P71  1  0.96423455  0.50695108  0.75242453  1
  Fe  Fe72  1  0.75463165  0.39454122  0.46885951  1
  Fe  Fe73  1  0.74536835  0.10545878  0.96885951  1
  Fe  Fe74  1  0.75467974  0.89264012  0.54057554  1
  Fe  Fe75  1  0.74532026  0.60735988  0.04057554  1
  Fe  Fe76  1  0.25467974  0.39264012  0.95942446  1
  Fe  Fe77  1  0.24532026  0.10735988  0.45942446  1
  Fe  Fe78  1  0.25463165  0.89454122  0.03114049  1
  Fe  Fe79  1  0.24536835  0.60545878  0.53114049  1
