# generated using pymatgen
data_LiFe(PO3)3
_symmetry_space_group_name_H-M   'P 1'
_cell_length_a   9.75788403
_cell_length_b   9.53416143
_cell_length_c   9.47791094
_cell_angle_alpha   108.65498566
_cell_angle_beta   104.76343354
_cell_angle_gamma   109.36558010
_symmetry_Int_Tables_number   1
_chemical_formula_structural   LiFe(PO3)3
_chemical_formula_sum   'Li4 Fe4 P12 O36'
_cell_volume   721.06998389
_cell_formula_units_Z   4
loop_
 _symmetry_equiv_pos_site_id
 _symmetry_equiv_pos_as_xyz
  1  'x, y, z'
loop_
 _atom_site_type_symbol
 _atom_site_label
 _atom_site_symmetry_multiplicity
 _atom_site_fract_x
 _atom_site_fract_y
 _atom_site_fract_z
 _atom_site_occupancy
  Li  Li0  1  0.50331319  0.93285828  0.34736186  1
  Li  Li1  1  0.49668733  0.06714216  0.65263843  1
  Li  Li2  1  0.67393741  0.84978522  0.64445071  1
  Li  Li3  1  0.32606311  0.15021522  0.35554958  1
  O  O4  1  0.08877478  0.14046153  0.19943261  1
  O  O5  1  0.82893348  0.16197826  0.09275026  1
  O  O6  1  1.00099834  0.73030910  0.04876852  1
  O  O7  1  0.92354539  0.18352557  0.36302362  1
  O  O8  1  0.07645513  0.81647487  0.63697667  1
  O  O9  1  -0.00099782  0.26969134  0.95123177  1
  O  O10  1  0.17106650  0.83802094  0.90724948  1
  O  O11  1  0.19996990  0.63149471  0.99928927  1
  O  O12  1  0.14109605  0.69809597  0.40449777  1
  O  O13  1  0.04430538  0.17690931  0.62921999  1
  O  O14  1  0.18670742  0.09679032  0.88271950  1
  O  O15  1  0.32282158  0.43608929  0.97057368  1
  O  O16  1  0.37421257  0.64324698  0.84999462  1
  O  O17  1  0.29084722  0.60482647  0.57199331  1
  O  O18  1  0.30052111  0.92749476  0.21152118  1
  O  O19  1  0.74725487  0.98690423  0.44484402  1
  O  O20  1  0.25859158  0.52470797  0.27796210  1
  O  O21  1  0.44437989  0.82504591  0.49763054  1
  O  O22  1  0.35571185  0.38680673  0.63194881  1
  O  O23  1  0.25274458  0.01309621  0.55515599  1
  O  O24  1  0.57897877  0.68160221  0.72921278  1
  O  O25  1  0.85890393  0.30190323  0.59550197  1
  O  O26  1  0.49757429  0.74978471  0.15407945  1
  O  O27  1  0.42102175  0.31839823  0.27078751  1
  O  O28  1  0.80003062  0.36850573  0.00071102  1
  O  O29  1  0.64428867  0.61319371  0.36805148  1
  O  O30  1  0.55562009  0.17495328  0.50236920  1
  O  O31  1  0.74140840  0.47529122  0.72203764  1
  O  O32  1  0.91122574  0.85953891  0.80056767  1
  O  O33  1  0.69947781  0.07250444  0.78847827  1
  O  O34  1  0.70915276  0.39517273  0.42800643  1
  O  O35  1  0.62578795  0.35675346  0.15000567  1
  O  O36  1  0.67717788  0.56391115  0.02942633  1
  O  O37  1  0.81329256  0.90320888  0.11728024  1
  O  O38  1  0.95569408  0.82309113  0.37078002  1
  O  O39  1  0.50242517  0.25021573  0.84592056  1
  P  P40  1  0.70459312  0.33494038  0.56877343  1
  P  P41  1  0.83478922  0.20907561  0.94396296  1
  P  P42  1  0.64358707  0.38747794  0.99805952  1
  P  P43  1  0.89351910  0.14986944  0.51156029  1
  P  P44  1  0.07872971  0.91243874  0.81126336  1
  P  P45  1  0.10648088  0.85012975  0.48843945  1
  P  P46  1  0.35641238  0.61252250  0.00194049  1
  P  P47  1  0.16521076  0.79092359  0.05603678  1
  P  P48  1  0.29540580  0.66505882  0.43122603  1
  P  P49  1  0.40930286  0.56983332  0.69216478  1
  P  P50  1  0.59069659  0.43016712  0.30783523  1
  P  P51  1  0.92126974  0.08756170  0.18873664  1
  Fe  Fe52  1  0.72575551  0.76747204  0.25256642  1
  Fe  Fe53  1  0.78856779  0.70031307  0.89963766  1
  Fe  Fe54  1  0.21143220  0.29968612  0.10036208  1
  Fe  Fe55  1  0.27424501  0.23252840  0.74743387  1
