# generated using pymatgen
data_Sr2TaFeO6
_symmetry_space_group_name_H-M   'P 1'
_cell_length_a   5.67907422
_cell_length_b   5.66717506
_cell_length_c   8.00581858
_cell_angle_alpha   90.00000000
_cell_angle_beta   90.00276505
_cell_angle_gamma   90.00000000
_symmetry_Int_Tables_number   1
_chemical_formula_structural   Sr2TaFeO6
_chemical_formula_sum   'Sr4 Ta2 Fe2 O12'
_cell_volume   257.66172882
_cell_formula_units_Z   2
loop_
 _symmetry_equiv_pos_site_id
 _symmetry_equiv_pos_as_xyz
  1  'x, y, z'
loop_
 _atom_site_type_symbol
 _atom_site_label
 _atom_site_symmetry_multiplicity
 _atom_site_fract_x
 _atom_site_fract_y
 _atom_site_fract_z
 _atom_site_occupancy
  O  O0  1  0.94992868  0.49492642  0.25255019  1
  O  O1  1  0.55007132  0.99492642  0.24744981  1
  O  O2  1  0.05007132  0.50507358  0.74744981  1
  O  O3  1  0.44992868  0.00507358  0.75255019  1
  O  O4  1  0.77108356  0.23382656  0.52614153  1
  O  O5  1  0.72891644  0.73382656  0.97385847  1
  O  O6  1  0.22891644  0.76617344  0.47385847  1
  O  O7  1  0.27108356  0.26617344  0.02614153  1
  O  O8  1  0.23441393  0.77069582  0.02579637  1
  O  O9  1  0.26558607  0.27069582  0.47420363  1
  O  O10  1  0.76558607  0.22930418  0.97420363  1
  O  O11  1  0.73441393  0.72930418  0.52579637  1
  Fe  Fe12  1  0.50000000  0.00000000  0.50000000  1
  Fe  Fe13  1  0.00000000  0.50000000  0.00000000  1
  Sr  Sr14  1  0.50275520  0.48739761  0.74966895  1
  Sr  Sr15  1  0.99724480  0.98739761  0.75033105  1
  Sr  Sr16  1  0.00275520  0.01260239  0.24966895  1
  Sr  Sr17  1  0.49724480  0.51260239  0.25033105  1
  Ta  Ta18  1  0.50000000  0.00000000  0.00000000  1
  Ta  Ta19  1  0.00000000  0.50000000  0.50000000  1
