# generated using pymatgen
data_Ca2FeReO6
_symmetry_space_group_name_H-M   'P 1'
_cell_length_a   5.48312356
_cell_length_b   5.70969943
_cell_length_c   7.75006045
_cell_angle_alpha   90.00000000
_cell_angle_beta   90.48712675
_cell_angle_gamma   90.00000000
_symmetry_Int_Tables_number   1
_chemical_formula_structural   Ca2FeReO6
_chemical_formula_sum   'Ca4 Fe2 Re2 O12'
_cell_volume   242.62227628
_cell_formula_units_Z   2
loop_
 _symmetry_equiv_pos_site_id
 _symmetry_equiv_pos_as_xyz
  1  'x, y, z'
loop_
 _atom_site_type_symbol
 _atom_site_label
 _atom_site_symmetry_multiplicity
 _atom_site_fract_x
 _atom_site_fract_y
 _atom_site_fract_z
 _atom_site_occupancy
  O  O0  1  0.09964801  0.53221601  0.74345525  1
  O  O1  1  0.40035244  0.03221570  0.75654404  1
  O  O2  1  0.90035354  0.46778460  0.25654373  1
  O  O3  1  0.59964726  0.96778312  0.24345622  1
  O  O4  1  0.78767213  0.18452337  0.95305416  1
  O  O5  1  0.71232834  0.68452189  0.54694559  1
  O  O6  1  0.21232942  0.81547724  0.04694611  1
  O  O7  1  0.28767136  0.31547694  0.45305467  1
  O  O8  1  0.32021877  0.28257688  0.05386689  1
  O  O9  1  0.17978200  0.78257718  0.44613389  1
  O  O10  1  0.82021770  0.21742342  0.55386637  1
  O  O11  1  0.67978093  0.71742372  0.94613338  1
  Ca  Ca12  1  0.01414888  0.06116821  0.24759455  1
  Ca  Ca13  1  0.48585189  0.56116851  0.25240494  1
  Ca  Ca14  1  0.98585082  0.93883061  0.75240571  1
  Ca  Ca15  1  0.51414782  0.43883209  0.74759533  1
  Fe  Fe16  1  0.00000000  0.50000030  0.00000000  1
  Fe  Fe17  1  0.50000077  0.00000000  0.49999949  1
  Re  Re18  1  0.49999909  0.00000000  0.00000023  1
  Re  Re19  1  0.99999984  0.50000030  0.50000054  1
