# generated using pymatgen
data_Li2CrP2O7
_symmetry_space_group_name_H-M   'P 1'
_cell_length_a   8.94289136
_cell_length_b   8.18181887
_cell_length_c   5.04175467
_cell_angle_alpha   107.94103359
_cell_angle_beta   89.99908441
_cell_angle_gamma   66.13865072
_symmetry_Int_Tables_number   1
_chemical_formula_structural   Li2CrP2O7
_chemical_formula_sum   'Li4 Cr2 P4 O14'
_cell_volume   317.65509130
_cell_formula_units_Z   2
loop_
 _symmetry_equiv_pos_site_id
 _symmetry_equiv_pos_as_xyz
  1  'x, y, z'
loop_
 _atom_site_type_symbol
 _atom_site_label
 _atom_site_symmetry_multiplicity
 _atom_site_fract_x
 _atom_site_fract_y
 _atom_site_fract_z
 _atom_site_occupancy
  Li  Li0  1  0.55213641  0.11984447  0.95358896  1
  Li  Li1  1  0.44791610  0.88008845  0.04626632  1
  Li  Li2  1  0.94788051  0.88015134  0.33372654  1
  Li  Li3  1  0.05208343  0.11991467  0.66618526  1
  O  O4  1  0.94028518  0.29618476  0.05298994  1
  O  O5  1  0.11045817  0.85512131  0.60110793  1
  O  O6  1  0.88956716  0.14486975  0.39877246  1
  O  O7  1  0.38954946  0.14488468  0.24604948  1
  O  O8  1  0.74999446  0.49998381  0.51827683  1
  O  O9  1  0.66279191  0.28751360  0.12519312  1
  O  O10  1  0.05974098  0.70378457  0.94697649  1
  O  O11  1  0.16280672  0.28752397  0.66230165  1
  O  O12  1  0.61040142  0.85512462  0.75385856  1
  O  O13  1  0.25001200  0.50001710  0.48163546  1
  O  O14  1  0.83723333  0.71248493  0.33764565  1
  O  O15  1  0.55973161  0.70382500  0.25683035  1
  O  O16  1  0.33719669  0.71247662  0.87476944  1
  O  O17  1  0.44027254  0.29621388  0.74321248  1
  P  P18  1  0.31560644  0.29399455  0.53229857  1
  P  P19  1  0.68435597  0.70600057  0.46765243  1
  P  P20  1  0.81557709  0.29401372  0.26166831  1
  P  P21  1  0.18444289  0.70599096  0.73827554  1
  Cr  Cr22  1  0.00019874  0.49994546  0.00033178  1
  Cr  Cr23  1  0.49976177  0.50005019  0.00038945  1
