# generated using pymatgen
data_Sm2Ge6Au
_symmetry_space_group_name_H-M   'P 1'
_cell_length_a   4.18121452
_cell_length_b   4.17555646
_cell_length_c   11.34338702
_cell_angle_alpha   90.00000000
_cell_angle_beta   100.62042992
_cell_angle_gamma   90.00000000
_symmetry_Int_Tables_number   1
_chemical_formula_structural   Sm2Ge6Au
_chemical_formula_sum   'Sm2 Ge6 Au1'
_cell_volume   194.65049151
_cell_formula_units_Z   1
loop_
 _symmetry_equiv_pos_site_id
 _symmetry_equiv_pos_as_xyz
  1  'x, y, z'
loop_
 _atom_site_type_symbol
 _atom_site_label
 _atom_site_symmetry_multiplicity
 _atom_site_fract_x
 _atom_site_fract_y
 _atom_site_fract_z
 _atom_site_occupancy
  Sm  Sm0  1  0.77837528  0.50000000  0.55675055  1
  Sm  Sm1  1  0.11885037  0.50000000  0.23770074  1
  Ge  Ge2  1  0.49086618  0.50000000  0.98173235  1
  Ge  Ge3  1  0.37819935  0.50000000  0.75639871  1
  Ge  Ge4  1  0.99146566  -0.00000000  0.98293132  1
  Ge  Ge5  1  0.87843505  0.00000000  0.75687010  1
  Ge  Ge6  1  0.67215658  -0.00000000  0.34431316  1
  Ge  Ge7  1  0.23833915  -0.00000000  0.47667829  1
  Au  Au8  1  0.56031238  -0.00000000  0.12062477  1
