# generated using pymatgen
data_U12Rh4Se31
_symmetry_space_group_name_H-M   'P 1'
_cell_length_a   11.86009197
_cell_length_b   11.86009227
_cell_length_c   11.86009206
_cell_angle_alpha   109.52942275
_cell_angle_beta   109.52941828
_cell_angle_gamma   109.35488197
_symmetry_Int_Tables_number   1
_chemical_formula_structural   U12Rh4Se31
_chemical_formula_sum   'U12 Rh4 Se31'
_cell_volume   1284.22452521
_cell_formula_units_Z   1
loop_
 _symmetry_equiv_pos_site_id
 _symmetry_equiv_pos_as_xyz
  1  'x, y, z'
loop_
 _atom_site_type_symbol
 _atom_site_label
 _atom_site_symmetry_multiplicity
 _atom_site_fract_x
 _atom_site_fract_y
 _atom_site_fract_z
 _atom_site_occupancy
  Rh  Rh0  1  0.00000000  0.00000000  0.50000000  1
  Rh  Rh1  1  0.00000000  0.50000000  0.00000000  1
  Rh  Rh2  1  0.50000000  0.50000000  0.50000000  1
  Rh  Rh3  1  0.50000000  0.00000000  0.00000000  1
  Se  Se4  1  0.00048212  0.56263426  0.81782966  1
  Se  Se5  1  0.99951788  0.81734753  0.56215214  1
  Se  Se6  1  0.25519540  0.81734753  0.81782966  1
  Se  Se7  1  0.00048212  0.18265247  0.43784786  1
  Se  Se8  1  0.23695818  0.50000000  0.73695818  1
  Se  Se9  1  0.25000000  0.75000000  0.50000000  1
  Se  Se10  1  0.18850545  0.18850545  0.74836101  1
  Se  Se11  1  0.18265247  0.74480460  0.18217034  1
  Se  Se12  1  0.25519540  0.43736574  0.43784786  1
  Se  Se13  1  0.18265247  0.00048212  0.43784786  1
  Se  Se14  1  0.18850545  0.44014444  1.00000000  1
  Se  Se15  1  0.43736574  0.99951788  0.18217034  1
  Se  Se16  1  0.55985556  0.55985556  0.74836101  1
  Se  Se17  1  0.56263426  0.74480460  0.56215214  1
  Se  Se18  1  0.50000000  0.23695818  0.73695818  1
  Se  Se19  1  0.50000000  0.76304182  0.26304182  1
  Se  Se20  1  0.43736574  0.25519540  0.43784786  1
  Se  Se21  1  0.44014444  0.44014444  0.25163899  1
  Se  Se22  1  0.56263426  0.00048212  0.81782966  1
  Se  Se23  1  0.55985556  0.81149455  1.00000000  1
  Se  Se24  1  0.50000000  0.50000000  0.00000000  1
  Se  Se25  1  0.74480460  0.56263426  0.56215214  1
  Se  Se26  1  0.44014444  0.18850545  0.00000000  1
  Se  Se27  1  0.81734753  0.25519540  0.81782966  1
  Se  Se28  1  0.81149455  0.81149455  0.25163899  1
  Se  Se29  1  0.75000000  0.25000000  0.50000000  1
  Se  Se30  1  0.76304182  0.50000000  0.26304182  1
  Se  Se31  1  0.74480460  0.18265247  0.18217034  1
  Se  Se32  1  0.81734753  0.99951788  0.56215214  1
  Se  Se33  1  0.81149455  0.55985556  0.00000000  1
  Se  Se34  1  0.99951788  0.43736574  0.18217034  1
  U  U35  1  0.99914148  0.29483757  0.70430391  1
  U  U36  1  0.40946634  0.70516243  0.70430391  1
  U  U37  1  0.30049899  0.30049899  0.60099797  1
  U  U38  1  0.29483757  0.59053366  0.29569609  1
  U  U39  1  0.29483757  0.99914148  0.70430391  1
  U  U40  1  0.30049899  0.69950101  1.00000000  1
  U  U41  1  0.70516243  0.40946634  0.70430391  1
  U  U42  1  0.69950101  0.69950101  0.39900203  1
  U  U43  1  0.59053366  0.29483757  0.29569609  1
  U  U44  1  0.70516243  0.00085852  0.29569609  1
  U  U45  1  0.69950101  0.30049899  0.00000000  1
  U  U46  1  0.00085852  0.70516243  0.29569609  1
