# generated using pymatgen
data_Cs4Sn2Au7
_symmetry_space_group_name_H-M   'P 1'
_cell_length_a   10.86849188
_cell_length_b   10.86849192
_cell_length_c   10.86849228
_cell_angle_alpha   37.71051710
_cell_angle_beta   37.71051689
_cell_angle_gamma   37.71051572
_symmetry_Int_Tables_number   1
_chemical_formula_structural   Cs4Sn2Au7
_chemical_formula_sum   'Cs4 Sn2 Au7'
_cell_volume   430.94287818
_cell_formula_units_Z   1
loop_
 _symmetry_equiv_pos_site_id
 _symmetry_equiv_pos_as_xyz
  1  'x, y, z'
loop_
 _atom_site_type_symbol
 _atom_site_label
 _atom_site_symmetry_multiplicity
 _atom_site_fract_x
 _atom_site_fract_y
 _atom_site_fract_z
 _atom_site_occupancy
  Cs  Cs0  1  0.81318096  0.81318096  0.81318096  1
  Cs  Cs1  1  0.68501776  0.68501776  0.68501776  1
  Cs  Cs2  1  0.31498224  0.31498224  0.31498224  1
  Cs  Cs3  1  0.18681904  0.18681904  0.18681904  1
  Sn  Sn4  1  0.44949660  0.44949660  0.44949660  1
  Sn  Sn5  1  0.55050340  0.55050340  0.55050340  1
  Au  Au6  1  0.78791034  0.78791034  0.19399387  1
  Au  Au7  1  0.80600613  0.21208966  0.21208966  1
  Au  Au8  1  0.19399387  0.78791034  0.78791034  1
  Au  Au9  1  0.21208966  0.80600613  0.21208966  1
  Au  Au10  1  0.78791034  0.19399387  0.78791034  1
  Au  Au11  1  0.00000000  0.00000000  0.00000000  1
  Au  Au12  1  0.21208966  0.21208966  0.80600613  1
