# generated using pymatgen
data_U8CrS17
_symmetry_space_group_name_H-M   'P 1'
_cell_length_a   7.79103111
_cell_length_b   7.79103169
_cell_length_c   10.34114435
_cell_angle_alpha   80.31455604
_cell_angle_beta   80.31455535
_cell_angle_gamma   64.57462455
_symmetry_Int_Tables_number   1
_chemical_formula_structural   U8CrS17
_chemical_formula_sum   'U8 Cr1 S17'
_cell_volume   555.57292036
_cell_formula_units_Z   1
loop_
 _symmetry_equiv_pos_site_id
 _symmetry_equiv_pos_as_xyz
  1  'x, y, z'
loop_
 _atom_site_type_symbol
 _atom_site_label
 _atom_site_symmetry_multiplicity
 _atom_site_fract_x
 _atom_site_fract_y
 _atom_site_fract_z
 _atom_site_occupancy
  U  U0  1  0.30264441  0.81809858  0.29885720  1
  U  U1  1  0.18190142  0.69735559  0.70114280  1
  U  U2  1  0.69735559  0.18190142  0.70114280  1
  U  U3  1  0.81809858  0.30264441  0.29885720  1
  U  U4  1  0.20411971  0.20411971  0.54412542  1
  U  U5  1  0.79588029  0.79588029  0.45587458  1
  U  U6  1  0.68223735  0.68223735  0.98265525  1
  U  U7  1  0.31776265  0.31776265  0.01734475  1
  Cr  Cr8  1  0.00000000  0.00000000  0.00000000  1
  S  S9  1  0.43271851  0.82046038  0.53506342  1
  S  S10  1  0.17953962  0.56728149  0.46493658  1
  S  S11  1  0.56728149  0.17953962  0.46493658  1
  S  S12  1  0.82046038  0.43271851  0.53506342  1
  S  S13  1  0.32174250  0.94424448  0.02909547  1
  S  S14  1  0.05575552  0.67825750  0.97090453  1
  S  S15  1  0.67825750  0.05575552  0.97090453  1
  S  S16  1  0.94424448  0.32174250  0.02909547  1
  S  S17  1  0.21259542  0.21259542  0.27880932  1
  S  S18  1  0.78740458  0.78740458  0.72119068  1
  S  S19  1  0.05725127  0.05725127  0.77263190  1
  S  S20  1  0.94274873  0.94274873  0.22736810  1
  S  S21  1  0.30074279  0.30074279  0.75631860  1
  S  S22  1  0.69925721  0.69925721  0.24368140  1
  S  S23  1  0.52112503  0.52112503  0.83071377  1
  S  S24  1  0.47887497  0.47887497  0.16928623  1
  S  S25  1  0.00000000  0.00000000  0.50000000  1
