# generated using pymatgen
data_LiMnP2O7
_symmetry_space_group_name_H-M   'P 1'
_cell_length_a   4.81257237
_cell_length_b   7.11172062
_cell_length_c   8.36790924
_cell_angle_alpha   90.00000000
_cell_angle_beta   90.00000000
_cell_angle_gamma   108.92951327
_symmetry_Int_Tables_number   1
_chemical_formula_structural   LiMnP2O7
_chemical_formula_sum   'Li2 Mn2 P4 O14'
_cell_volume   270.90847194
_cell_formula_units_Z   2
loop_
 _symmetry_equiv_pos_site_id
 _symmetry_equiv_pos_as_xyz
  1  'x, y, z'
loop_
 _atom_site_type_symbol
 _atom_site_label
 _atom_site_symmetry_multiplicity
 _atom_site_fract_x
 _atom_site_fract_y
 _atom_site_fract_z
 _atom_site_occupancy
  Li  Li0  1  0.17646930  0.67605523  0.86011350  1
  Li  Li1  1  0.82353070  0.32394477  0.36011350  1
  O  O2  1  0.94170130  0.15001547  0.83037462  1
  O  O3  1  0.86110969  0.10658957  0.20907690  1
  O  O4  1  0.05829870  0.84998453  0.33037462  1
  O  O5  1  0.13889031  0.89341043  0.70907690  1
  O  O6  1  0.19110646  0.47967273  0.03532446  1
  O  O7  1  0.24512627  0.48975399  0.33994239  1
  O  O8  1  0.38581483  0.60618604  0.67337679  1
  O  O9  1  0.59617707  0.89862187  0.44127870  1
  O  O10  1  0.59596593  0.74696592  0.15902111  1
  O  O11  1  0.40403407  0.25303408  0.65902111  1
  O  O12  1  0.40382293  0.10137813  0.94127870  1
  O  O13  1  0.61418517  0.39381396  0.17337679  1
  O  O14  1  0.75487373  0.51024601  0.83994239  1
  O  O15  1  0.80889354  0.52032727  0.53532446  1
  P  P16  1  0.59888608  0.48466718  0.67985913  1
  P  P17  1  0.78406012  0.90620099  0.29085534  1
  P  P18  1  0.40111392  0.51533282  0.17985913  1
  P  P19  1  0.21593988  0.09379901  0.79085534  1
  Mn  Mn20  1  0.20823863  0.72533623  0.50093707  1
  Mn  Mn21  1  0.79176137  0.27466377  0.00093707  1
