# generated using pymatgen
data_Mg(IO3)2
_symmetry_space_group_name_H-M   'P 1'
_cell_length_a   5.31441340
_cell_length_b   10.98564452
_cell_length_c   11.11619014
_cell_angle_alpha   120.09298187
_cell_angle_beta   90.00000000
_cell_angle_gamma   90.00000000
_symmetry_Int_Tables_number   1
_chemical_formula_structural   Mg(IO3)2
_chemical_formula_sum   'Mg4 I8 O24'
_cell_volume   561.51298098
_cell_formula_units_Z   4
loop_
 _symmetry_equiv_pos_site_id
 _symmetry_equiv_pos_as_xyz
  1  'x, y, z'
loop_
 _atom_site_type_symbol
 _atom_site_label
 _atom_site_symmetry_multiplicity
 _atom_site_fract_x
 _atom_site_fract_y
 _atom_site_fract_z
 _atom_site_occupancy
  Mg  Mg0  1  0.42276001  0.74743391  0.25627746  1
  Mg  Mg1  1  0.92526786  0.25496146  0.24449780  1
  Mg  Mg2  1  0.42526786  0.74503854  0.75550220  1
  Mg  Mg3  1  0.92276001  0.25256609  0.74372254  1
  I  I4  1  0.99922583  0.06604622  0.40094071  1
  I  I5  1  0.52403600  0.40002789  0.06495262  1
  I  I6  1  0.02403600  0.59997211  0.93504738  1
  I  I7  1  0.50253625  0.93352303  0.09707743  1
  I  I8  1  0.02278590  0.60161415  0.43582220  1
  I  I9  1  0.52278590  0.39838585  0.56417780  1
  I  I10  1  0.00253625  0.06647697  0.90292257  1
  I  I11  1  0.49922583  0.93395378  0.59905929  1
  O  O12  1  0.13740542  0.43403160  0.29282583  1
  O  O13  1  0.15028402  0.12097328  0.56939814  1
  O  O14  1  0.63740542  0.56596840  0.70717417  1
  O  O15  1  0.20468946  0.60537398  0.57817148  1
  O  O16  1  0.13638797  0.43151523  0.79231180  1
  O  O17  1  0.70968592  0.07941989  0.71238873  1
  O  O18  1  0.65028402  0.87902672  0.43060186  1
  O  O19  1  0.20865901  0.72555462  0.40648591  1
  O  O20  1  0.21300090  0.72235731  0.90504926  1
  O  O21  1  0.70468946  0.39462602  0.42182852  1
  O  O22  1  0.71300090  0.27764269  0.09495074  1
  O  O23  1  0.64425113  0.80417321  0.13554753  1
  O  O24  1  0.70591765  0.39542325  0.92209734  1
  O  O25  1  0.14425113  0.19582679  0.86445247  1
  O  O26  1  0.63638797  0.56848477  0.20768820  1
  O  O27  1  0.71176337  0.08023399  0.20889428  1
  O  O28  1  0.14189276  0.19812439  0.36661091  1
  O  O29  1  0.21176337  0.91976601  0.79110572  1
  O  O30  1  0.20591765  0.60457675  0.07790266  1
  O  O31  1  0.70865901  0.27444538  0.59351409  1
  O  O32  1  0.15645054  0.12465049  0.07138002  1
  O  O33  1  0.20968592  0.92058011  0.28761127  1
  O  O34  1  0.65645054  0.87534951  0.92861998  1
  O  O35  1  0.64189276  0.80187561  0.63338909  1
