# generated using pymatgen
data_YbU2S3O2
_symmetry_space_group_name_H-M   'P 1'
_cell_length_a   3.79240812
_cell_length_b   3.79240812
_cell_length_c   10.80188203
_cell_angle_alpha   100.11030890
_cell_angle_beta   100.11030890
_cell_angle_gamma   90.00000000
_symmetry_Int_Tables_number   1
_chemical_formula_structural   YbU2S3O2
_chemical_formula_sum   'Yb1 U2 S3 O2'
_cell_volume   150.49300835
_cell_formula_units_Z   1
loop_
 _symmetry_equiv_pos_site_id
 _symmetry_equiv_pos_as_xyz
  1  'x, y, z'
loop_
 _atom_site_type_symbol
 _atom_site_label
 _atom_site_symmetry_multiplicity
 _atom_site_fract_x
 _atom_site_fract_y
 _atom_site_fract_z
 _atom_site_occupancy
  Yb  Yb0  1  0.00000000  0.00000000  0.00000000  1
  U  U1  1  0.31499080  0.31499080  0.62998159  1
  U  U2  1  0.68500920  0.68500920  0.37001841  1
  S  S3  1  0.13301928  0.13301928  0.26603857  1
  S  S4  1  0.86698072  0.86698072  0.73396143  1
  S  S5  1  0.50000000  0.50000000  0.00000000  1
  O  O6  1  0.25000000  0.75000000  0.50000000  1
  O  O7  1  0.75000000  0.25000000  0.50000000  1
