# generated using pymatgen
data_KZr2(PO4)3
_symmetry_space_group_name_H-M   'P 1'
_cell_length_a   9.57116724
_cell_length_b   9.57116732
_cell_length_c   9.57116778
_cell_angle_alpha   55.18406694
_cell_angle_beta   55.18406664
_cell_angle_gamma   55.18406402
_symmetry_Int_Tables_number   1
_chemical_formula_structural   KZr2(PO4)3
_chemical_formula_sum   'K2 Zr4 P6 O24'
_cell_volume   550.56524560
_cell_formula_units_Z   2
loop_
 _symmetry_equiv_pos_site_id
 _symmetry_equiv_pos_as_xyz
  1  'x, y, z'
loop_
 _atom_site_type_symbol
 _atom_site_label
 _atom_site_symmetry_multiplicity
 _atom_site_fract_x
 _atom_site_fract_y
 _atom_site_fract_z
 _atom_site_occupancy
  K  K0  1  0.00000000  0.00000000  0.00000000  1
  K  K1  1  0.50000000  0.50000000  0.50000000  1
  Zr  Zr2  1  0.14954530  0.14954530  0.14954530  1
  Zr  Zr3  1  0.35045470  0.35045470  0.35045470  1
  Zr  Zr4  1  0.85045470  0.85045470  0.85045470  1
  Zr  Zr5  1  0.64954530  0.64954530  0.64954530  1
  P  P6  1  0.96297591  0.53702409  0.25000000  1
  P  P7  1  0.25000000  0.96297591  0.53702409  1
  P  P8  1  0.53702409  0.25000000  0.96297591  1
  P  P9  1  0.03702409  0.46297591  0.75000000  1
  P  P10  1  0.75000000  0.03702409  0.46297591  1
  P  P11  1  0.46297591  0.75000000  0.03702409  1
  O  O12  1  0.57041468  0.42202967  0.79504324  1
  O  O13  1  0.79504324  0.57041468  0.42202967  1
  O  O14  1  0.42202967  0.79504324  0.57041468  1
  O  O15  1  0.07797033  0.92958532  0.70495676  1
  O  O16  1  0.70495676  0.07797033  0.92958532  1
  O  O17  1  0.92958532  0.70495676  0.07797033  1
  O  O18  1  0.42958532  0.57797033  0.20495676  1
  O  O19  1  0.20495676  0.42958532  0.57797033  1
  O  O20  1  0.57797033  0.20495676  0.42958532  1
  O  O21  1  0.92202967  0.07041468  0.29504324  1
  O  O22  1  0.29504324  0.92202967  0.07041468  1
  O  O23  1  0.07041468  0.29504324  0.92202967  1
  O  O24  1  0.36708130  0.24153501  0.98866824  1
  O  O25  1  0.98866824  0.36708130  0.24153501  1
  O  O26  1  0.24153501  0.98866824  0.36708130  1
  O  O27  1  0.25846499  0.13291870  0.51133176  1
  O  O28  1  0.51133176  0.25846499  0.13291870  1
  O  O29  1  0.13291870  0.51133176  0.25846499  1
  O  O30  1  0.63291870  0.75846499  0.01133176  1
  O  O31  1  0.01133176  0.63291870  0.75846499  1
  O  O32  1  0.75846499  0.01133176  0.63291870  1
  O  O33  1  0.74153501  0.86708130  0.48866824  1
  O  O34  1  0.48866824  0.74153501  0.86708130  1
  O  O35  1  0.86708130  0.48866824  0.74153501  1
