# generated using pymatgen
data_V2Hg2O7
_symmetry_space_group_name_H-M   'P 1'
_cell_length_a   3.69140191
_cell_length_b   7.29945008
_cell_length_c   22.01446464
_cell_angle_alpha   90.00000000
_cell_angle_beta   90.00000000
_cell_angle_gamma   90.00000000
_symmetry_Int_Tables_number   1
_chemical_formula_structural   V2Hg2O7
_chemical_formula_sum   'V8 Hg8 O28'
_cell_volume   593.18423995
_cell_formula_units_Z   4
loop_
 _symmetry_equiv_pos_site_id
 _symmetry_equiv_pos_as_xyz
  1  'x, y, z'
loop_
 _atom_site_type_symbol
 _atom_site_label
 _atom_site_symmetry_multiplicity
 _atom_site_fract_x
 _atom_site_fract_y
 _atom_site_fract_z
 _atom_site_occupancy
  Hg  Hg0  1  0.75000000  0.72345225  0.75236006  1
  Hg  Hg1  1  0.25000000  0.27654775  0.24763994  1
  Hg  Hg2  1  0.75000000  0.22345225  0.74763994  1
  Hg  Hg3  1  0.25000000  0.77654775  0.25236006  1
  Hg  Hg4  1  0.75000000  0.53457769  0.12826812  1
  Hg  Hg5  1  0.25000000  0.46542231  0.87173188  1
  Hg  Hg6  1  0.75000000  0.03457769  0.37173188  1
  Hg  Hg7  1  0.25000000  0.96542231  0.62826812  1
  V  V8  1  0.25000000  0.97518288  0.88167010  1
  V  V9  1  0.75000000  0.02481712  0.11832990  1
  V  V10  1  0.25000000  0.47518288  0.61832990  1
  V  V11  1  0.75000000  0.52481712  0.38167010  1
  V  V12  1  0.75000000  0.79751741  0.97948390  1
  V  V13  1  0.25000000  0.20248259  0.02051610  1
  V  V14  1  0.75000000  0.29751741  0.52051610  1
  V  V15  1  0.25000000  0.70248259  0.47948390  1
  O  O16  1  0.75000000  0.46882043  0.79971618  1
  O  O17  1  0.25000000  0.53117957  0.20028382  1
  O  O18  1  0.75000000  0.96882043  0.70028382  1
  O  O19  1  0.25000000  0.03117957  0.29971618  1
  O  O20  1  0.25000000  0.13901749  0.82665970  1
  O  O21  1  0.75000000  0.86098251  0.17334030  1
  O  O22  1  0.25000000  0.63901749  0.67334030  1
  O  O23  1  0.75000000  0.36098251  0.32665970  1
  O  O24  1  0.25000000  0.77574718  0.83982300  1
  O  O25  1  0.75000000  0.22425282  0.16017700  1
  O  O26  1  0.25000000  0.27574718  0.66017700  1
  O  O27  1  0.75000000  0.72425282  0.33982300  1
  O  O28  1  0.25000000  0.87318493  0.97076066  1
  O  O29  1  0.75000000  0.12681507  0.02923934  1
  O  O30  1  0.25000000  0.37318493  0.52923934  1
  O  O31  1  0.75000000  0.62681507  0.47076066  1
  O  O32  1  0.75000000  0.96864174  0.90514048  1
  O  O33  1  0.25000000  0.03135826  0.09485952  1
  O  O34  1  0.75000000  0.46864174  0.59485952  1
  O  O35  1  0.25000000  0.53135826  0.40514048  1
  O  O36  1  0.75000000  0.59442723  0.94512090  1
  O  O37  1  0.25000000  0.40557277  0.05487910  1
  O  O38  1  0.75000000  0.09442723  0.55487910  1
  O  O39  1  0.25000000  0.90557277  0.44512090  1
  O  O40  1  0.75000000  0.76075301  0.05731103  1
  O  O41  1  0.25000000  0.23924699  0.94268897  1
  O  O42  1  0.75000000  0.26075301  0.44268897  1
  O  O43  1  0.25000000  0.73924699  0.55731103  1
