# generated using pymatgen
data_Cs2Hg3I8
_symmetry_space_group_name_H-M   'P 1'
_cell_length_a   7.58676867
_cell_length_b   8.10485502
_cell_length_c   12.02752326
_cell_angle_alpha   84.28325154
_cell_angle_beta   71.59962298
_cell_angle_gamma   71.57226491
_symmetry_Int_Tables_number   1
_chemical_formula_structural   Cs2Hg3I8
_chemical_formula_sum   'Cs2 Hg3 I8'
_cell_volume   665.77316171
_cell_formula_units_Z   1
loop_
 _symmetry_equiv_pos_site_id
 _symmetry_equiv_pos_as_xyz
  1  'x, y, z'
loop_
 _atom_site_type_symbol
 _atom_site_label
 _atom_site_symmetry_multiplicity
 _atom_site_fract_x
 _atom_site_fract_y
 _atom_site_fract_z
 _atom_site_occupancy
  Hg  Hg0  1  1.00015365  0.00089597  0.99997796  1
  Hg  Hg1  1  0.68656641  0.07998462  0.38745961  1
  Hg  Hg2  1  0.07393797  0.08007807  0.61248463  1
  I  I3  1  0.33864174  0.73979231  0.99996588  1
  I  I4  1  0.91289828  0.35709848  0.00004824  1
  I  I5  1  0.09091589  0.94676272  0.38947981  1
  I  I6  1  0.48035825  0.94688349  0.61052569  1
  I  I7  1  0.54051830  0.43948915  0.38842231  1
  I  I8  1  0.92868344  0.43954401  0.61166361  1
  I  I9  1  0.88232296  0.89994083  0.80399886  1
  I  I10  1  0.68630545  0.90000274  0.19596110  1
  Cs  Cs11  1  0.10305215  0.45275447  0.25848912  1
  Cs  Cs12  1  0.36164552  0.45277315  0.74152318  1
