# generated using pymatgen
data_Tl2SnO3
_symmetry_space_group_name_H-M   'P 1'
_cell_length_a   3.29968406
_cell_length_b   10.41881589
_cell_length_c   12.73605147
_cell_angle_alpha   90.00000000
_cell_angle_beta   90.00000000
_cell_angle_gamma   90.00000000
_symmetry_Int_Tables_number   1
_chemical_formula_structural   Tl2SnO3
_chemical_formula_sum   'Tl8 Sn4 O12'
_cell_volume   437.85017540
_cell_formula_units_Z   4
loop_
 _symmetry_equiv_pos_site_id
 _symmetry_equiv_pos_as_xyz
  1  'x, y, z'
loop_
 _atom_site_type_symbol
 _atom_site_label
 _atom_site_symmetry_multiplicity
 _atom_site_fract_x
 _atom_site_fract_y
 _atom_site_fract_z
 _atom_site_occupancy
  Tl  Tl0  1  0.75000000  0.13642954  0.89474604  1
  Tl  Tl1  1  0.25000000  0.86357046  0.10525396  1
  Tl  Tl2  1  0.75000000  0.63642954  0.60525396  1
  Tl  Tl3  1  0.25000000  0.36357046  0.39474604  1
  Tl  Tl4  1  0.75000000  0.29191681  0.65437502  1
  Tl  Tl5  1  0.25000000  0.70808319  0.34562498  1
  Tl  Tl6  1  0.75000000  0.79191681  0.84562498  1
  Tl  Tl7  1  0.25000000  0.20808319  0.15437502  1
  Sn  Sn8  1  0.25000000  0.46096177  0.89029607  1
  Sn  Sn9  1  0.75000000  0.53903823  0.10970393  1
  Sn  Sn10  1  0.25000000  0.96096177  0.60970393  1
  Sn  Sn11  1  0.75000000  0.03903823  0.39029607  1
  O  O12  1  0.75000000  0.39376531  0.99024847  1
  O  O13  1  0.25000000  0.60623469  0.00975153  1
  O  O14  1  0.75000000  0.89376531  0.50975153  1
  O  O15  1  0.25000000  0.10623469  0.49024847  1
  O  O16  1  0.75000000  0.04252850  0.69020268  1
  O  O17  1  0.25000000  0.95747150  0.30979732  1
  O  O18  1  0.75000000  0.54252850  0.80979732  1
  O  O19  1  0.25000000  0.45747150  0.19020268  1
  O  O20  1  0.25000000  0.28952691  0.81055398  1
  O  O21  1  0.75000000  0.71047309  0.18944602  1
  O  O22  1  0.25000000  0.78952691  0.68944602  1
  O  O23  1  0.75000000  0.21047309  0.31055398  1
