# generated using pymatgen
data_CsCr5S8
_symmetry_space_group_name_H-M   'P 1'
_cell_length_a   3.52542314
_cell_length_b   8.84117717
_cell_length_c   9.22372371
_cell_angle_alpha   104.62486229
_cell_angle_beta   101.02046778
_cell_angle_gamma   89.99489278
_symmetry_Int_Tables_number   1
_chemical_formula_structural   CsCr5S8
_chemical_formula_sum   'Cs1 Cr5 S8'
_cell_volume   272.69695871
_cell_formula_units_Z   1
loop_
 _symmetry_equiv_pos_site_id
 _symmetry_equiv_pos_as_xyz
  1  'x, y, z'
loop_
 _atom_site_type_symbol
 _atom_site_label
 _atom_site_symmetry_multiplicity
 _atom_site_fract_x
 _atom_site_fract_y
 _atom_site_fract_z
 _atom_site_occupancy
  Cs  Cs0  1  0.50000000  0.50000000  0.00000000  1
  Cr  Cr1  1  0.00000000  0.00000000  0.00000000  1
  Cr  Cr2  1  0.65999188  0.97962740  0.31993236  1
  Cr  Cr3  1  0.34000812  0.02037260  0.68006764  1
  Cr  Cr4  1  0.70453779  0.33467799  0.40919381  1
  Cr  Cr5  1  0.29546221  0.66532201  0.59080619  1
  S  S6  1  0.42356620  0.85130720  0.84705816  1
  S  S7  1  0.57643380  0.14869280  0.15294184  1
  S  S8  1  0.91109479  0.16082186  0.82230303  1
  S  S9  1  0.08890521  0.83917814  0.17769697  1
  S  S10  1  0.82645932  0.51463764  0.65271609  1
  S  S11  1  0.17354068  0.48536236  0.34728391  1
  S  S12  1  0.76106560  0.84271050  0.52236262  1
  S  S13  1  0.23893440  0.15728950  0.47763738  1
