# generated using pymatgen
data_K3SnTe3
_symmetry_space_group_name_H-M   'P 1'
_cell_length_a   9.72807514
_cell_length_b   9.74877841
_cell_length_c   13.88324488
_cell_angle_alpha   90.00000000
_cell_angle_beta   90.00000000
_cell_angle_gamma   116.84423094
_symmetry_Int_Tables_number   1
_chemical_formula_structural   K3SnTe3
_chemical_formula_sum   'K12 Sn4 Te12'
_cell_volume   1174.75841667
_cell_formula_units_Z   4
loop_
 _symmetry_equiv_pos_site_id
 _symmetry_equiv_pos_as_xyz
  1  'x, y, z'
loop_
 _atom_site_type_symbol
 _atom_site_label
 _atom_site_symmetry_multiplicity
 _atom_site_fract_x
 _atom_site_fract_y
 _atom_site_fract_z
 _atom_site_occupancy
  K  K0  1  0.94513573  0.79651786  0.71819488  1
  K  K1  1  0.05486427  0.70348214  0.21819488  1
  K  K2  1  0.05486427  0.20348214  0.28180512  1
  K  K3  1  0.94513573  0.29651786  0.78180512  1
  K  K4  1  0.72374757  0.20653170  0.06540946  1
  K  K5  1  0.27625243  0.29346830  0.56540946  1
  K  K6  1  0.27625243  0.79346830  0.93459054  1
  K  K7  1  0.72374757  0.70653170  0.43459054  1
  K  K8  1  0.49836292  0.01094076  0.65680836  1
  K  K9  1  0.50163708  0.48905924  0.15680836  1
  K  K10  1  0.50163708  0.98905924  0.34319164  1
  K  K11  1  0.49836292  0.51094076  0.84319164  1
  Sn  Sn12  1  0.15452236  0.12382182  0.99174371  1
  Sn  Sn13  1  0.84547764  0.37617818  0.49174371  1
  Sn  Sn14  1  0.84547764  0.87617818  0.00825629  1
  Sn  Sn15  1  0.15452236  0.62382182  0.50825629  1
  Te  Te16  1  0.14438199  0.40003982  0.02503047  1
  Te  Te17  1  0.85561801  0.09996018  0.52503047  1
  Te  Te18  1  0.85561801  0.59996018  0.97496953  1
  Te  Te19  1  0.14438199  0.90003982  0.47496953  1
  Te  Te20  1  0.26082542  0.11790057  0.80690492  1
  Te  Te21  1  0.73917458  0.38209943  0.30690492  1
  Te  Te22  1  0.73917458  0.88209943  0.19309508  1
  Te  Te23  1  0.26082542  0.61790057  0.69309508  1
  Te  Te24  1  0.32927457  0.07465178  0.13371972  1
  Te  Te25  1  0.67072543  0.42534822  0.63371972  1
  Te  Te26  1  0.67072543  0.92534822  0.86628028  1
  Te  Te27  1  0.32927457  0.57465178  0.36628028  1
