# generated using pymatgen
data_Cs2ZnCl4
_symmetry_space_group_name_H-M   'P 1'
_cell_length_a   7.43343169
_cell_length_b   9.98696195
_cell_length_c   13.39908271
_cell_angle_alpha   90.00000000
_cell_angle_beta   90.00000000
_cell_angle_gamma   90.00000000
_symmetry_Int_Tables_number   1
_chemical_formula_structural   Cs2ZnCl4
_chemical_formula_sum   'Cs8 Zn4 Cl16'
_cell_volume   994.71305535
_cell_formula_units_Z   4
loop_
 _symmetry_equiv_pos_site_id
 _symmetry_equiv_pos_as_xyz
  1  'x, y, z'
loop_
 _atom_site_type_symbol
 _atom_site_label
 _atom_site_symmetry_multiplicity
 _atom_site_fract_x
 _atom_site_fract_y
 _atom_site_fract_z
 _atom_site_occupancy
  Zn  Zn0  1  0.75000000  0.23321229  0.57691286  1
  Zn  Zn1  1  0.25000000  0.76678771  0.42308714  1
  Zn  Zn2  1  0.75000000  0.73321229  0.92308714  1
  Zn  Zn3  1  0.25000000  0.26678771  0.07691286  1
  Cs  Cs4  1  0.75000000  0.63846914  0.59621498  1
  Cs  Cs5  1  0.25000000  0.36153086  0.40378502  1
  Cs  Cs6  1  0.75000000  0.13846914  0.90378502  1
  Cs  Cs7  1  0.25000000  0.86153086  0.09621498  1
  Cs  Cs8  1  0.75000000  0.98545821  0.32622169  1
  Cs  Cs9  1  0.25000000  0.01454179  0.67377831  1
  Cs  Cs10  1  0.75000000  0.48545821  0.17377831  1
  Cs  Cs11  1  0.25000000  0.51454179  0.82622169  1
  Cl  Cl12  1  0.75000000  0.00579957  0.59216298  1
  Cl  Cl13  1  0.25000000  0.99420043  0.40783702  1
  Cl  Cl14  1  0.75000000  0.50579957  0.90783702  1
  Cl  Cl15  1  0.25000000  0.49420043  0.09216298  1
  Cl  Cl16  1  0.75000000  0.31526721  0.41693883  1
  Cl  Cl17  1  0.25000000  0.68473279  0.58306117  1
  Cl  Cl18  1  0.75000000  0.81526721  0.08306117  1
  Cl  Cl19  1  0.25000000  0.18473279  0.91693883  1
  Cl  Cl20  1  -0.00066156  0.32010205  0.65343130  1
  Cl  Cl21  1  0.49933844  0.67989795  0.34656870  1
  Cl  Cl22  1  0.50066156  0.82010205  0.84656870  1
  Cl  Cl23  1  1.00066156  0.17989795  0.15343130  1
  Cl  Cl24  1  1.00066156  0.67989795  0.34656870  1
  Cl  Cl25  1  0.50066156  0.32010205  0.65343130  1
  Cl  Cl26  1  0.49933844  0.17989795  0.15343130  1
  Cl  Cl27  1  -0.00066156  0.82010205  0.84656870  1
