# generated using pymatgen
data_NCl3
_symmetry_space_group_name_H-M   'P 1'
_cell_length_a   8.50966053
_cell_length_b   9.86615825
_cell_length_c   17.43019570
_cell_angle_alpha   90.00000000
_cell_angle_beta   90.00000000
_cell_angle_gamma   90.00000000
_symmetry_Int_Tables_number   1
_chemical_formula_structural   NCl3
_chemical_formula_sum   'N12 Cl36'
_cell_volume   1463.39839974
_cell_formula_units_Z   12
loop_
 _symmetry_equiv_pos_site_id
 _symmetry_equiv_pos_as_xyz
  1  'x, y, z'
loop_
 _atom_site_type_symbol
 _atom_site_label
 _atom_site_symmetry_multiplicity
 _atom_site_fract_x
 _atom_site_fract_y
 _atom_site_fract_z
 _atom_site_occupancy
  N  N0  1  0.88848687  0.25000000  0.05096703  1
  N  N1  1  0.38848687  0.25000000  0.44903297  1
  N  N2  1  0.11151313  0.75000000  0.94903297  1
  N  N3  1  0.61151313  0.75000000  0.55096703  1
  N  N4  1  0.80495024  0.25000000  0.34877521  1
  N  N5  1  0.30495024  0.25000000  0.15122479  1
  N  N6  1  0.19504976  0.75000000  0.65122479  1
  N  N7  1  0.69504976  0.75000000  0.84877521  1
  N  N8  1  0.03457590  0.25000000  0.69535226  1
  N  N9  1  0.53457590  0.25000000  0.80464774  1
  N  N10  1  0.96542410  0.75000000  0.30464774  1
  N  N11  1  0.46542410  0.75000000  0.19535226  1
  Cl  Cl12  1  0.77574830  0.10388037  0.07568179  1
  Cl  Cl13  1  0.27574830  0.39611963  0.42431821  1
  Cl  Cl14  1  0.22425170  0.60388037  0.92431821  1
  Cl  Cl15  1  0.72425170  0.89611963  0.57568179  1
  Cl  Cl16  1  0.22425170  0.89611963  0.92431821  1
  Cl  Cl17  1  0.72425170  0.60388037  0.57568179  1
  Cl  Cl18  1  0.77574830  0.39611963  0.07568179  1
  Cl  Cl19  1  0.27574830  0.10388037  0.42431821  1
  Cl  Cl20  1  0.91319800  0.25000000  0.94962833  1
  Cl  Cl21  1  0.41319800  0.25000000  0.55037167  1
  Cl  Cl22  1  0.08680200  0.75000000  0.05037167  1
  Cl  Cl23  1  0.58680200  0.75000000  0.44962833  1
  Cl  Cl24  1  0.78218902  0.10457890  0.40832568  1
  Cl  Cl25  1  0.28218902  0.39542110  0.09167432  1
  Cl  Cl26  1  0.21781098  0.60457890  0.59167432  1
  Cl  Cl27  1  0.71781098  0.89542110  0.90832568  1
  Cl  Cl28  1  0.21781098  0.89542110  0.59167432  1
  Cl  Cl29  1  0.71781098  0.60457890  0.90832568  1
  Cl  Cl30  1  0.78218902  0.39542110  0.40832568  1
  Cl  Cl31  1  0.28218902  0.10457890  0.09167432  1
  Cl  Cl32  1  0.64730559  0.25000000  0.28106662  1
  Cl  Cl33  1  0.14730559  0.25000000  0.21893338  1
  Cl  Cl34  1  0.35269441  0.75000000  0.71893338  1
  Cl  Cl35  1  0.85269441  0.75000000  0.78106662  1
  Cl  Cl36  1  0.97907565  0.10439415  0.74941687  1
  Cl  Cl37  1  0.47907565  0.39560585  0.75058313  1
  Cl  Cl38  1  0.02092435  0.60439415  0.25058313  1
  Cl  Cl39  1  0.52092435  0.89560585  0.24941687  1
  Cl  Cl40  1  0.02092435  0.89560585  0.25058313  1
  Cl  Cl41  1  0.52092435  0.60439415  0.24941687  1
  Cl  Cl42  1  0.97907565  0.39560585  0.74941687  1
  Cl  Cl43  1  0.47907565  0.10439415  0.75058313  1
  Cl  Cl44  1  0.91968627  0.25000000  0.60913063  1
  Cl  Cl45  1  0.41968627  0.25000000  0.89086937  1
  Cl  Cl46  1  0.08031373  0.75000000  0.39086937  1
  Cl  Cl47  1  0.58031373  0.75000000  0.10913063  1
