# generated using pymatgen
data_Ti4Tl2O9
_symmetry_space_group_name_H-M   'P 1'
_cell_length_a   3.79952702
_cell_length_b   9.89647928
_cell_length_c   12.21476173
_cell_angle_alpha   106.44432928
_cell_angle_beta   90.00000000
_cell_angle_gamma   101.06739823
_symmetry_Int_Tables_number   1
_chemical_formula_structural   Ti4Tl2O9
_chemical_formula_sum   'Ti8 Tl4 O18'
_cell_volume   431.59754947
_cell_formula_units_Z   2
loop_
 _symmetry_equiv_pos_site_id
 _symmetry_equiv_pos_as_xyz
  1  'x, y, z'
loop_
 _atom_site_type_symbol
 _atom_site_label
 _atom_site_symmetry_multiplicity
 _atom_site_fract_x
 _atom_site_fract_y
 _atom_site_fract_z
 _atom_site_occupancy
  Tl  Tl0  1  0.58315905  0.16631810  0.08864370  1
  Tl  Tl1  1  0.41684095  0.83368190  0.91135630  1
  Tl  Tl2  1  0.51255868  0.02511737  0.32607358  1
  Tl  Tl3  1  0.48744132  0.97488263  0.67392642  1
  Ti  Ti4  1  0.24587082  0.49174164  0.16729225  1
  Ti  Ti5  1  0.75412918  0.50825836  0.83270775  1
  Ti  Ti6  1  0.83522940  0.67045880  0.37632976  1
  Ti  Ti7  1  0.16477060  0.32954120  0.62367024  1
  Ti  Ti8  1  0.87183025  0.74366049  0.13705291  1
  Ti  Ti9  1  0.12816975  0.25633951  0.86294709  1
  Ti  Ti10  1  0.20417175  0.40834349  0.39738486  1
  Ti  Ti11  1  0.79582825  0.59165651  0.60261514  1
  O  O12  1  0.76752571  0.53505141  0.20095710  1
  O  O13  1  0.23247429  0.46494859  0.79904290  1
  O  O14  1  0.30602375  0.61204750  0.35865863  1
  O  O15  1  0.69397625  0.38795250  0.64134137  1
  O  O16  1  0.34460543  0.68921085  0.14352106  1
  O  O17  1  0.65539457  0.31078915  0.85647894  1
  O  O18  1  0.73119400  0.46238801  0.42215477  1
  O  O19  1  0.26880600  0.53761199  0.57784523  1
  O  O20  1  0.91023136  0.82046273  0.31823522  1
  O  O21  1  0.08976864  0.17953727  0.68176478  1
  O  O22  1  0.95811910  0.91623820  0.12304628  1
  O  O23  1  0.04188090  0.08376180  0.87695372  1
  O  O24  1  0.12769061  0.25538121  0.46260167  1
  O  O25  1  0.87230939  0.74461879  0.53739833  1
  O  O26  1  0.16608496  0.33216991  0.24330024  1
  O  O27  1  0.83391504  0.66783009  0.75669976  1
  O  O28  1  0.18469728  0.36939455  0.02788377  1
  O  O29  1  0.81530272  0.63060545  0.97211623  1
