# generated using pymatgen
data_K2PdO2
_symmetry_space_group_name_H-M   'P 1'
_cell_length_a   3.18572725
_cell_length_b   5.55717959
_cell_length_c   5.55717975
_cell_angle_alpha   67.11480377
_cell_angle_beta   73.34359970
_cell_angle_gamma   73.34359396
_symmetry_Int_Tables_number   1
_chemical_formula_structural   K2PdO2
_chemical_formula_sum   'K2 Pd1 O2'
_cell_volume   85.10802557
_cell_formula_units_Z   1
loop_
 _symmetry_equiv_pos_site_id
 _symmetry_equiv_pos_as_xyz
  1  'x, y, z'
loop_
 _atom_site_type_symbol
 _atom_site_label
 _atom_site_symmetry_multiplicity
 _atom_site_fract_x
 _atom_site_fract_y
 _atom_site_fract_z
 _atom_site_occupancy
  Pd  Pd0  1  0.00000000  0.00000000  0.00000000  1
  K  K1  1  0.17539387  0.32460613  0.32460613  1
  K  K2  1  0.82460613  0.67539387  0.67539387  1
  O  O3  1  0.50000000  0.21962682  0.78037318  1
  O  O4  1  0.50000000  0.78037318  0.21962682  1
