# generated using pymatgen
data_Sb(S8I)3
_symmetry_space_group_name_H-M   'P 1'
_cell_length_a   15.25233801
_cell_length_b   15.25233735
_cell_length_c   15.25233747
_cell_angle_alpha   118.77501583
_cell_angle_beta   118.77501416
_cell_angle_gamma   118.77501774
_symmetry_Int_Tables_number   1
_chemical_formula_structural   Sb(S8I)3
_chemical_formula_sum   'Sb1 S24 I3'
_cell_volume   1014.55835772
_cell_formula_units_Z   1
loop_
 _symmetry_equiv_pos_site_id
 _symmetry_equiv_pos_as_xyz
  1  'x, y, z'
loop_
 _atom_site_type_symbol
 _atom_site_label
 _atom_site_symmetry_multiplicity
 _atom_site_fract_x
 _atom_site_fract_y
 _atom_site_fract_z
 _atom_site_occupancy
  Sb  Sb0  1  0.27819162  0.27819162  0.27819162  1
  I  I1  1  0.95795987  0.11740261  0.95795987  1
  I  I2  1  0.95795987  0.95795987  0.11740261  1
  I  I3  1  0.11740261  0.95795987  0.95795987  1
  S  S4  1  0.60852273  0.01430913  0.60852273  1
  S  S5  1  0.60852273  0.60852273  0.01430913  1
  S  S6  1  0.01430913  0.60852273  0.60852273  1
  S  S7  1  0.84175251  0.23192945  0.71377618  1
  S  S8  1  0.71377618  0.84175251  0.23192945  1
  S  S9  1  0.23192945  0.71377618  0.84175251  1
  S  S10  1  0.23192945  0.84175251  0.71377618  1
  S  S11  1  0.71377618  0.23192945  0.84175251  1
  S  S12  1  0.84175251  0.71377618  0.23192945  1
  S  S13  1  0.63054825  0.10268337  0.44944948  1
  S  S14  1  0.44944948  0.63054825  0.10268337  1
  S  S15  1  0.10268337  0.44944948  0.63054825  1
  S  S16  1  0.10268337  0.63054825  0.44944948  1
  S  S17  1  0.44944948  0.10268337  0.63054825  1
  S  S18  1  0.63054825  0.44944948  0.10268337  1
  S  S19  1  0.74442207  0.35627066  0.61629886  1
  S  S20  1  0.61629886  0.74442207  0.35627066  1
  S  S21  1  0.35627066  0.61629886  0.74442207  1
  S  S22  1  0.35627066  0.74442207  0.61629886  1
  S  S23  1  0.61629886  0.35627066  0.74442207  1
  S  S24  1  0.74442207  0.61629886  0.35627066  1
  S  S25  1  0.47016278  0.18964419  0.47016278  1
  S  S26  1  0.47016278  0.47016278  0.18964419  1
  S  S27  1  0.18964419  0.47016278  0.47016278  1
