# generated using pymatgen
data_BaMnSnS4
_symmetry_space_group_name_H-M   'P 1'
_cell_length_a   12.67732378
_cell_length_b   12.67732406
_cell_length_c   12.92195664
_cell_angle_alpha   104.96073990
_cell_angle_beta   104.96074029
_cell_angle_gamma   118.27620498
_symmetry_Int_Tables_number   1
_chemical_formula_structural   BaMnSnS4
_chemical_formula_sum   'Ba8 Mn8 Sn8 S32'
_cell_volume   1580.44930422
_cell_formula_units_Z   8
loop_
 _symmetry_equiv_pos_site_id
 _symmetry_equiv_pos_as_xyz
  1  'x, y, z'
loop_
 _atom_site_type_symbol
 _atom_site_label
 _atom_site_symmetry_multiplicity
 _atom_site_fract_x
 _atom_site_fract_y
 _atom_site_fract_z
 _atom_site_occupancy
  Ba  Ba0  1  0.74992765  0.75108922  0.50420625  1
  Ba  Ba1  1  0.99572140  0.49688298  0.99579375  1
  Ba  Ba2  1  0.50108922  0.99992765  0.00420625  1
  Ba  Ba3  1  0.24823259  0.74823259  0.50000000  1
  Ba  Ba4  1  0.99950098  0.99950098  1.00000000  1
  Ba  Ba5  1  0.49823259  0.49823259  0.00000000  1
  Ba  Ba6  1  0.24688298  0.24572140  0.49579375  1
  Ba  Ba7  1  0.74950098  0.24950098  0.50000000  1
  Mn  Mn8  1  0.73554388  0.08802919  0.75115997  1
  Mn  Mn9  1  0.23856037  0.51463854  0.74876700  1
  Mn  Mn10  1  0.23979336  0.01587153  0.75123300  1
  Mn  Mn11  1  0.83802919  0.98554388  0.25115997  1
  Mn  Mn12  1  0.76587153  0.48979336  0.25123300  1
  Mn  Mn13  1  0.73438391  0.58686922  0.74884003  1
  Mn  Mn14  1  0.33686922  0.98438391  0.24884003  1
  Mn  Mn15  1  0.26463854  0.48856037  0.24876700  1
  Sn  Sn16  1  0.98557008  0.76096798  0.24878887  1
  Sn  Sn17  1  0.51217912  0.73678122  0.75121113  1
  Sn  Sn18  1  0.01557419  0.65454588  0.75042343  1
  Sn  Sn19  1  0.90412245  0.26515076  0.24957657  1
  Sn  Sn20  1  0.51096798  0.23557008  0.74878887  1
  Sn  Sn21  1  0.48678122  0.76217912  0.25121113  1
  Sn  Sn22  1  0.40454588  0.26557419  0.25042343  1
  Sn  Sn23  1  0.01515076  0.15412245  0.74957657  1
  S  S24  1  0.95865553  0.21114264  0.41429220  1
  S  S25  1  0.22181650  0.28456920  0.24928958  1
  S  S26  1  0.21989515  0.81603330  0.75265773  1
  S  S27  1  0.29436333  0.04685044  0.08570780  1
  S  S28  1  0.21723742  0.31337558  0.74734227  1
  S  S29  1  0.96114264  0.20865553  0.91429220  1
  S  S30  1  0.68776552  0.78139776  0.25209092  1
  S  S31  1  0.45778106  0.70506083  0.91325939  1
  S  S32  1  0.71588384  0.76933997  0.75235169  1
  S  S33  1  0.03456920  0.47181650  0.74928958  1
  S  S34  1  0.52930684  0.43567460  0.74790908  1
  S  S35  1  0.71353215  0.26698828  0.74764831  1
  S  S36  1  0.29729660  0.54391601  0.58669287  1
  S  S37  1  0.79343615  0.04471146  0.08670216  1
  S  S38  1  0.95800930  0.70673399  0.91329784  1
  S  S39  1  0.03527962  0.97252692  0.75071042  1
  S  S40  1  0.06337558  0.46723742  0.24734227  1
  S  S41  1  0.53139776  0.93776552  0.75209092  1
  S  S42  1  0.18567460  0.77930684  0.24790908  1
  S  S43  1  0.29391601  0.54729660  0.08669287  1
  S  S44  1  0.79180144  0.54452167  0.08674061  1
  S  S45  1  0.79685044  0.54436333  0.58570780  1
  S  S46  1  0.45506083  0.70778106  0.41325939  1
  S  S47  1  0.79471146  0.04343615  0.58670216  1
  S  S48  1  0.01698828  0.96353215  0.24764831  1
  S  S49  1  0.29452167  0.04180144  0.58674061  1
  S  S50  1  0.56603330  0.46989515  0.25265773  1
  S  S51  1  0.45673399  0.20800930  0.41329784  1
  S  S52  1  0.46060373  0.20722314  0.91330713  1
  S  S53  1  0.51933997  0.96588384  0.25235169  1
  S  S54  1  0.95722314  0.71060373  0.41330713  1
  S  S55  1  0.72252692  0.28527962  0.25071042  1
