# generated using pymatgen
data_RhF5
_symmetry_space_group_name_H-M   'P 1'
_cell_length_a   5.69259024
_cell_length_b   10.14192622
_cell_length_c   12.64043538
_cell_angle_alpha   90.00000000
_cell_angle_beta   101.09965729
_cell_angle_gamma   90.00000000
_symmetry_Int_Tables_number   1
_chemical_formula_structural   RhF5
_chemical_formula_sum   'Rh8 F40'
_cell_volume   716.12933660
_cell_formula_units_Z   8
loop_
 _symmetry_equiv_pos_site_id
 _symmetry_equiv_pos_as_xyz
  1  'x, y, z'
loop_
 _atom_site_type_symbol
 _atom_site_label
 _atom_site_symmetry_multiplicity
 _atom_site_fract_x
 _atom_site_fract_y
 _atom_site_fract_z
 _atom_site_occupancy
  Rh  Rh0  1  0.00477532  0.75083742  0.49616777  1
  Rh  Rh1  1  0.99522468  0.25083742  0.00383223  1
  Rh  Rh2  1  0.99522468  0.24916258  0.50383223  1
  Rh  Rh3  1  0.00477532  0.74916258  0.99616777  1
  Rh  Rh4  1  0.30023257  0.50123170  0.69946535  1
  Rh  Rh5  1  0.69976743  0.00123170  0.80053465  1
  Rh  Rh6  1  0.69976743  0.49876830  0.30053465  1
  Rh  Rh7  1  0.30023257  0.99876830  0.19946535  1
  F  F8  1  0.90722027  0.83024049  0.36162462  1
  F  F9  1  0.09277973  0.33024049  0.13837538  1
  F  F10  1  0.09277973  0.16975951  0.63837538  1
  F  F11  1  0.90722027  0.66975951  0.86162462  1
  F  F12  1  0.18525104  0.89932328  0.54652743  1
  F  F13  1  0.81474896  0.39932328  0.95347257  1
  F  F14  1  0.81474896  0.10067672  0.45347257  1
  F  F15  1  0.18525104  0.60067672  0.04652743  1
  F  F16  1  0.26498441  0.66991481  0.45335284  1
  F  F17  1  0.73501559  0.16991481  0.04664716  1
  F  F18  1  0.73501559  0.33008519  0.54664716  1
  F  F19  1  0.26498441  0.83008519  0.95335284  1
  F  F20  1  0.73942098  0.81366775  0.54622015  1
  F  F21  1  0.26057902  0.31366775  0.95377985  1
  F  F22  1  0.26057902  0.18633225  0.45377985  1
  F  F23  1  0.73942098  0.68633225  0.04622015  1
  F  F24  1  0.11010270  0.66546599  0.64412272  1
  F  F25  1  0.88989730  0.16546599  0.85587728  1
  F  F26  1  0.88989730  0.33453401  0.35587728  1
  F  F27  1  0.11010270  0.83453401  0.14412272  1
  F  F28  1  0.80832934  0.58667202  0.44697170  1
  F  F29  1  0.19167066  0.08667202  0.05302830  1
  F  F30  1  0.19167066  0.41332798  0.55302830  1
  F  F31  1  0.80832934  0.91332798  0.94697170  1
  F  F32  1  0.47490787  0.35164894  0.75225148  1
  F  F33  1  0.52509213  0.85164894  0.74774852  1
  F  F34  1  0.52509213  0.64835106  0.24774852  1
  F  F35  1  0.47490787  0.14835106  0.25225148  1
  F  F36  1  0.55664662  0.56952431  0.64519184  1
  F  F37  1  0.44335338  0.06952431  0.85480816  1
  F  F38  1  0.44335338  0.43047569  0.35480816  1
  F  F39  1  0.55664662  0.93047569  0.14519184  1
  F  F40  1  0.39669632  0.58668189  0.83157501  1
  F  F41  1  0.60330368  0.08668189  0.66842499  1
  F  F42  1  0.60330368  0.41331811  0.16842499  1
  F  F43  1  0.39669632  0.91331811  0.33157501  1
  F  F44  1  0.02354089  0.43667888  0.73904544  1
  F  F45  1  0.97645911  0.93667888  0.76095456  1
  F  F46  1  0.97645911  0.56332112  0.26095456  1
  F  F47  1  0.02354089  0.06332112  0.23904544  1
