# generated using pymatgen
data_Ba(BO2)2
_symmetry_space_group_name_H-M   'P 1'
_cell_length_a   14.03686010
_cell_length_b   14.03686014
_cell_length_c   14.03686044
_cell_angle_alpha   30.25353608
_cell_angle_beta   30.25353581
_cell_angle_gamma   30.25353424
_symmetry_Int_Tables_number   1
_chemical_formula_structural   Ba(BO2)2
_chemical_formula_sum   'Ba6 B12 O24'
_cell_volume   622.10542492
_cell_formula_units_Z   6
loop_
 _symmetry_equiv_pos_site_id
 _symmetry_equiv_pos_as_xyz
  1  'x, y, z'
loop_
 _atom_site_type_symbol
 _atom_site_label
 _atom_site_symmetry_multiplicity
 _atom_site_fract_x
 _atom_site_fract_y
 _atom_site_fract_z
 _atom_site_occupancy
  O  O0  1  0.21146533  0.07190304  0.83553678  1
  O  O1  1  0.83553678  0.21146533  0.07190304  1
  O  O2  1  0.07190304  0.83553678  0.21146533  1
  O  O3  1  0.42809696  0.28853467  0.66446322  1
  O  O4  1  0.66446322  0.42809696  0.28853467  1
  O  O5  1  0.28853467  0.66446322  0.42809696  1
  O  O6  1  0.78853467  0.92809696  0.16446322  1
  O  O7  1  0.16446322  0.78853467  0.92809696  1
  O  O8  1  0.92809696  0.16446322  0.78853467  1
  O  O9  1  0.57190304  0.71146533  0.33553678  1
  O  O10  1  0.33553678  0.57190304  0.71146533  1
  O  O11  1  0.71146533  0.33553678  0.57190304  1
  O  O12  1  0.44010982  0.69329794  0.97536602  1
  O  O13  1  0.97536602  0.44010982  0.69329794  1
  O  O14  1  0.69329794  0.97536602  0.44010982  1
  O  O15  1  0.80670206  0.05989018  0.52463398  1
  O  O16  1  0.52463398  0.80670206  0.05989018  1
  O  O17  1  0.05989018  0.52463398  0.80670206  1
  O  O18  1  0.55989018  0.30670206  0.02463398  1
  O  O19  1  0.02463398  0.55989018  0.30670206  1
  O  O20  1  0.30670206  0.02463398  0.55989018  1
  O  O21  1  0.19329794  0.94010982  0.47536602  1
  O  O22  1  0.47536602  0.19329794  0.94010982  1
  O  O23  1  0.94010982  0.47536602  0.19329794  1
  B  B24  1  0.00509106  0.24869622  0.86182014  1
  B  B25  1  0.86182014  0.00509106  0.24869622  1
  B  B26  1  0.24869622  0.86182014  0.00509106  1
  B  B27  1  0.25130378  0.49490894  0.63817986  1
  B  B28  1  0.63817986  0.25130378  0.49490894  1
  B  B29  1  0.49490894  0.63817986  0.25130378  1
  B  B30  1  0.99490894  0.75130378  0.13817986  1
  B  B31  1  0.13817986  0.99490894  0.75130378  1
  B  B32  1  0.75130378  0.13817986  0.99490894  1
  B  B33  1  0.74869622  0.50509106  0.36182014  1
  B  B34  1  0.36182014  0.74869622  0.50509106  1
  B  B35  1  0.50509106  0.36182014  0.74869622  1
  Ba  Ba36  1  0.34903587  0.34903587  0.34903587  1
  Ba  Ba37  1  0.15096413  0.15096413  0.15096413  1
  Ba  Ba38  1  0.65096413  0.65096413  0.65096413  1
  Ba  Ba39  1  0.84903587  0.84903587  0.84903587  1
  Ba  Ba40  1  0.25000000  0.25000000  0.25000000  1
  Ba  Ba41  1  0.75000000  0.75000000  0.75000000  1
