# generated using pymatgen
data_SrGa2(GeO4)2
_symmetry_space_group_name_H-M   'P 1'
_cell_length_a   8.69832536
_cell_length_b   9.32548490
_cell_length_c   9.79240463
_cell_angle_alpha   90.00000000
_cell_angle_beta   90.00000000
_cell_angle_gamma   90.47378199
_symmetry_Int_Tables_number   1
_chemical_formula_structural   SrGa2(GeO4)2
_chemical_formula_sum   'Sr4 Ga8 Ge8 O32'
_cell_volume   794.29453496
_cell_formula_units_Z   4
loop_
 _symmetry_equiv_pos_site_id
 _symmetry_equiv_pos_as_xyz
  1  'x, y, z'
loop_
 _atom_site_type_symbol
 _atom_site_label
 _atom_site_symmetry_multiplicity
 _atom_site_fract_x
 _atom_site_fract_y
 _atom_site_fract_z
 _atom_site_occupancy
  Sr  Sr0  1  0.25049016  0.88541197  0.41285316  1
  Sr  Sr1  1  0.74950984  0.61458803  0.91285316  1
  Sr  Sr2  1  0.74950984  0.11458803  0.58714684  1
  Sr  Sr3  1  0.25049016  0.38541197  0.08714684  1
  Ga  Ga4  1  0.93265045  0.23506536  0.92416224  1
  Ga  Ga5  1  0.06734955  0.26493464  0.42416224  1
  Ga  Ga6  1  0.06734955  0.76493464  0.07583776  1
  Ga  Ga7  1  0.93265045  0.73506536  0.57583776  1
  Ge  Ge8  1  0.56187227  0.24196567  0.92026368  1
  Ge  Ge9  1  0.43812773  0.25803433  0.42026368  1
  Ge  Ge10  1  0.43812773  0.75803433  0.07973632  1
  Ge  Ge11  1  0.56187227  0.74196567  0.57973632  1
  Ge  Ge12  1  0.93999349  0.05693062  0.19935683  1
  Ge  Ge13  1  0.06000651  0.44306938  0.69935683  1
  Ge  Ge14  1  0.06000651  0.94306938  0.80064317  1
  Ge  Ge15  1  0.93999349  0.55693062  0.30064317  1
  Ga  Ga16  1  0.56889120  0.05356411  0.19392770  1
  Ga  Ga17  1  0.43110880  0.44643589  0.69392770  1
  Ga  Ga18  1  0.43110880  0.94643589  0.80607230  1
  Ga  Ga19  1  0.56889120  0.55356411  0.30607230  1
  O  O20  1  0.01933840  0.19359321  0.09197068  1
  O  O21  1  0.98066160  0.30640679  0.59197068  1
  O  O22  1  0.98066160  0.80640679  0.90802932  1
  O  O23  1  0.01933840  0.69359321  0.40802932  1
  O  O24  1  0.48266352  0.19104914  0.07900436  1
  O  O25  1  0.51733648  0.30895086  0.57900436  1
  O  O26  1  0.51733648  0.80895086  0.92099564  1
  O  O27  1  0.48266352  0.69104914  0.42099564  1
  O  O28  1  0.93373533  0.11629557  0.37180529  1
  O  O29  1  0.06626467  0.38370443  0.87180529  1
  O  O30  1  0.06626467  0.88370443  0.62819471  1
  O  O31  1  0.93373533  0.61629557  0.12819471  1
  O  O32  1  0.56632170  0.11844495  0.37388950  1
  O  O33  1  0.43367830  0.38155505  0.87388950  1
  O  O34  1  0.43367830  0.88155505  0.62611050  1
  O  O35  1  0.56632170  0.61844495  0.12611050  1
  O  O36  1  0.07456737  0.91473669  0.19904824  1
  O  O37  1  0.92543263  0.58526331  0.69904824  1
  O  O38  1  0.92543263  0.08526331  0.80095176  1
  O  O39  1  0.07456737  0.41473669  0.30095176  1
  O  O40  1  0.42986615  0.90024558  0.19814949  1
  O  O41  1  0.57013385  0.59975442  0.69814949  1
  O  O42  1  0.57013385  0.09975442  0.80185051  1
  O  O43  1  0.42986615  0.40024558  0.30185051  1
  O  O44  1  0.76087223  0.00141337  0.13595867  1
  O  O45  1  0.23912777  0.49858663  0.63595867  1
  O  O46  1  0.23912777  0.99858663  0.86404133  1
  O  O47  1  0.76087223  0.50141337  0.36404133  1
  O  O48  1  0.74453539  0.32940691  0.92501036  1
  O  O49  1  0.25546461  0.17059309  0.42501036  1
  O  O50  1  0.25546461  0.67059309  0.07498964  1
  O  O51  1  0.74453539  0.82940691  0.57498964  1
