# generated using pymatgen
data_Al2Te2Cl7
_symmetry_space_group_name_H-M   'P 1'
_cell_length_a   9.55073678
_cell_length_b   11.47477819
_cell_length_c   13.73940444
_cell_angle_alpha   90.00000000
_cell_angle_beta   93.97936243
_cell_angle_gamma   90.00000000
_symmetry_Int_Tables_number   1
_chemical_formula_structural   Al2Te2Cl7
_chemical_formula_sum   'Al8 Te8 Cl28'
_cell_volume   1502.10669993
_cell_formula_units_Z   4
loop_
 _symmetry_equiv_pos_site_id
 _symmetry_equiv_pos_as_xyz
  1  'x, y, z'
loop_
 _atom_site_type_symbol
 _atom_site_label
 _atom_site_symmetry_multiplicity
 _atom_site_fract_x
 _atom_site_fract_y
 _atom_site_fract_z
 _atom_site_occupancy
  Te  Te0  1  0.56676714  0.84627420  0.03488798  1
  Te  Te1  1  0.43323286  0.34627420  0.46511202  1
  Te  Te2  1  0.43323286  0.15372580  0.96511202  1
  Te  Te3  1  0.56676714  0.65372580  0.53488798  1
  Te  Te4  1  0.67589938  0.06476177  0.05066794  1
  Te  Te5  1  0.32410062  0.56476177  0.44933206  1
  Te  Te6  1  0.32410062  0.93523823  0.94933206  1
  Te  Te7  1  0.67589938  0.43523823  0.55066794  1
  Al  Al8  1  0.88201612  0.82259699  0.29547761  1
  Al  Al9  1  0.11798388  0.32259699  0.20452239  1
  Al  Al10  1  0.11798388  0.17740301  0.70452239  1
  Al  Al11  1  0.88201612  0.67740301  0.79547761  1
  Al  Al12  1  0.26083924  0.91772881  0.34396310  1
  Al  Al13  1  0.73916076  0.41772881  0.15603690  1
  Al  Al14  1  0.73916076  0.08227119  0.65603690  1
  Al  Al15  1  0.26083924  0.58227119  0.84396310  1
  Cl  Cl16  1  0.89013439  0.83194652  0.13862164  1
  Cl  Cl17  1  0.10986561  0.33194652  0.36137836  1
  Cl  Cl18  1  0.10986561  0.16805348  0.86137836  1
  Cl  Cl19  1  0.89013439  0.66805348  0.63862164  1
  Cl  Cl20  1  0.68324930  0.87710109  0.33843994  1
  Cl  Cl21  1  0.31675070  0.37710109  0.16156006  1
  Cl  Cl22  1  0.31675070  0.12289891  0.66156006  1
  Cl  Cl23  1  0.68324930  0.62289891  0.83843994  1
  Cl  Cl24  1  0.95821218  0.66720686  0.36404360  1
  Cl  Cl25  1  0.04178782  0.16720686  0.13595640  1
  Cl  Cl26  1  0.04178782  0.33279314  0.63595640  1
  Cl  Cl27  1  0.95821218  0.83279314  0.86404360  1
  Cl  Cl28  1  0.03017395  0.96822765  0.35265439  1
  Cl  Cl29  1  0.96982605  0.46822765  0.14734561  1
  Cl  Cl30  1  0.96982605  0.03177235  0.64734561  1
  Cl  Cl31  1  0.03017395  0.53177235  0.85265439  1
  Cl  Cl32  1  0.31713311  0.85315507  0.48912254  1
  Cl  Cl33  1  0.68286689  0.35315507  0.01087746  1
  Cl  Cl34  1  0.68286689  0.14684493  0.51087746  1
  Cl  Cl35  1  0.31713311  0.64684493  0.98912254  1
  Cl  Cl36  1  0.27535267  0.78385609  0.23849994  1
  Cl  Cl37  1  0.72464733  0.28385609  0.26150006  1
  Cl  Cl38  1  0.72464733  0.21614391  0.76150006  1
  Cl  Cl39  1  0.27535267  0.71614391  0.73849994  1
  Cl  Cl40  1  0.36238217  0.07562956  0.31045581  1
  Cl  Cl41  1  0.63761783  0.57562956  0.18954419  1
  Cl  Cl42  1  0.63761783  0.92437044  0.68954419  1
  Cl  Cl43  1  0.36238217  0.42437044  0.81045581  1
