# generated using pymatgen
data_Sr2Ti6O13
_symmetry_space_group_name_H-M   'P 1'
_cell_length_a   3.92269621
_cell_length_b   7.62490547
_cell_length_c   9.25728217
_cell_angle_alpha   98.30278459
_cell_angle_beta   90.00000000
_cell_angle_gamma   104.90571415
_symmetry_Int_Tables_number   1
_chemical_formula_structural   Sr2Ti6O13
_chemical_formula_sum   'Sr2 Ti6 O13'
_cell_volume   264.56561872
_cell_formula_units_Z   1
loop_
 _symmetry_equiv_pos_site_id
 _symmetry_equiv_pos_as_xyz
  1  'x, y, z'
loop_
 _atom_site_type_symbol
 _atom_site_label
 _atom_site_symmetry_multiplicity
 _atom_site_fract_x
 _atom_site_fract_y
 _atom_site_fract_z
 _atom_site_occupancy
  Sr  Sr0  1  0.45110017  0.90220033  0.22103388  1
  Sr  Sr1  1  0.54889983  0.09779967  0.77896612  1
  Ti  Ti2  1  0.12292466  0.24584932  0.09523440  1
  Ti  Ti3  1  0.87707534  0.75415068  0.90476560  1
  Ti  Ti4  1  0.16435156  0.32870312  0.44116479  1
  Ti  Ti5  1  0.83564844  0.67129688  0.55883521  1
  Ti  Ti6  1  0.24340998  0.48681995  0.76958858  1
  Ti  Ti7  1  0.75659002  0.51318005  0.23041142  1
  O  O8  1  0.00000000  0.00000000  0.00000000  1
  O  O9  1  0.24393708  0.48787416  0.24775681  1
  O  O10  1  0.75606292  0.51212584  0.75224319  1
  O  O11  1  0.06498184  0.12996369  0.29793895  1
  O  O12  1  0.93501816  0.87003631  0.70206105  1
  O  O13  1  0.30207557  0.60415115  0.56967788  1
  O  O14  1  0.69792443  0.39584885  0.43032212  1
  O  O15  1  0.12447876  0.24895752  0.61709385  1
  O  O16  1  0.87552124  0.75104248  0.38290615  1
  O  O17  1  0.37228699  0.74457398  0.88615889  1
  O  O18  1  0.62771301  0.25542602  0.11384111  1
  O  O19  1  0.16737575  0.33475151  0.91115197  1
  O  O20  1  0.83262425  0.66524849  0.08884803  1
