# generated using pymatgen
data_Al(TeCl2)2
_symmetry_space_group_name_H-M   'P 1'
_cell_length_a   11.67570139
_cell_length_b   12.22302736
_cell_length_c   14.27994210
_cell_angle_alpha   90.00000000
_cell_angle_beta   90.00000000
_cell_angle_gamma   90.00000000
_symmetry_Int_Tables_number   1
_chemical_formula_structural   Al(TeCl2)2
_chemical_formula_sum   'Al8 Te16 Cl32'
_cell_volume   2037.92505938
_cell_formula_units_Z   8
loop_
 _symmetry_equiv_pos_site_id
 _symmetry_equiv_pos_as_xyz
  1  'x, y, z'
loop_
 _atom_site_type_symbol
 _atom_site_label
 _atom_site_symmetry_multiplicity
 _atom_site_fract_x
 _atom_site_fract_y
 _atom_site_fract_z
 _atom_site_occupancy
  Te  Te0  1  1.00401535  0.63540131  0.93168608  1
  Te  Te1  1  0.50401535  0.36459869  0.56831392  1
  Te  Te2  1  0.49598465  0.13540131  0.06831392  1
  Te  Te3  1  -0.00401535  0.86459869  0.43168608  1
  Te  Te4  1  -0.00401535  0.36459869  0.06831392  1
  Te  Te5  1  0.49598465  0.63540131  0.43168608  1
  Te  Te6  1  0.50401535  0.86459869  0.93168608  1
  Te  Te7  1  1.00401535  0.13540131  0.56831392  1
  Te  Te8  1  0.61301649  0.56033451  0.58336169  1
  Te  Te9  1  0.11301649  0.43966549  0.91663831  1
  Te  Te10  1  0.88698351  0.06033451  0.41663831  1
  Te  Te11  1  0.38698351  0.93966549  0.08336169  1
  Te  Te12  1  0.38698351  0.43966549  0.41663831  1
  Te  Te13  1  0.88698351  0.56033451  0.08336169  1
  Te  Te14  1  0.11301649  0.93966549  0.58336169  1
  Te  Te15  1  0.61301649  0.06033451  0.91663831  1
  Al  Al16  1  0.60239350  0.91133331  0.64518603  1
  Al  Al17  1  0.10239350  0.08866669  0.85481397  1
  Al  Al18  1  0.89760650  0.41133331  0.35481397  1
  Al  Al19  1  0.39760650  0.58866669  0.14518603  1
  Al  Al20  1  0.39760650  0.08866669  0.35481397  1
  Al  Al21  1  0.89760650  0.91133331  0.14518603  1
  Al  Al22  1  0.10239350  0.58866669  0.64518603  1
  Al  Al23  1  0.60239350  0.41133331  0.85481397  1
  Cl  Cl24  1  0.61620446  0.58205310  0.88474369  1
  Cl  Cl25  1  0.11620446  0.41794690  0.61525631  1
  Cl  Cl26  1  0.88379554  0.08205310  0.11525631  1
  Cl  Cl27  1  0.38379554  0.91794690  0.38474369  1
  Cl  Cl28  1  0.38379554  0.41794690  0.11525631  1
  Cl  Cl29  1  0.88379554  0.58205310  0.38474369  1
  Cl  Cl30  1  0.11620446  0.91794690  0.88474369  1
  Cl  Cl31  1  0.61620446  0.08205310  0.61525631  1
  Cl  Cl32  1  0.93187040  0.64365478  0.67318043  1
  Cl  Cl33  1  0.43187040  0.35634522  0.82681957  1
  Cl  Cl34  1  0.56812960  0.14365478  0.32681957  1
  Cl  Cl35  1  0.06812960  0.85634522  0.17318043  1
  Cl  Cl36  1  0.06812960  0.35634522  0.32681957  1
  Cl  Cl37  1  0.56812960  0.64365478  0.17318043  1
  Cl  Cl38  1  0.43187040  0.85634522  0.67318043  1
  Cl  Cl39  1  0.93187040  0.14365478  0.82681957  1
  Cl  Cl40  1  0.67632846  0.81554148  0.53062991  1
  Cl  Cl41  1  0.17632846  0.18445852  0.96937009  1
  Cl  Cl42  1  0.82367154  0.31554148  0.46937009  1
  Cl  Cl43  1  0.32367154  0.68445852  0.03062991  1
  Cl  Cl44  1  0.32367154  0.18445852  0.46937009  1
  Cl  Cl45  1  0.82367154  0.81554148  0.03062991  1
  Cl  Cl46  1  0.17632846  0.68445852  0.53062991  1
  Cl  Cl47  1  0.67632846  0.31554148  0.96937009  1
  Cl  Cl48  1  0.70693760  0.87676621  0.76885657  1
  Cl  Cl49  1  0.20693760  0.12323379  0.73114343  1
  Cl  Cl50  1  0.79306240  0.37676621  0.23114343  1
  Cl  Cl51  1  0.29306240  0.62323379  0.26885657  1
  Cl  Cl52  1  0.29306240  0.12323379  0.23114343  1
  Cl  Cl53  1  0.79306240  0.87676621  0.26885657  1
  Cl  Cl54  1  0.20693760  0.62323379  0.76885657  1
  Cl  Cl55  1  0.70693760  0.37676621  0.73114343  1
