# generated using pymatgen
data_GeSe2
_symmetry_space_group_name_H-M   'P 1'
_cell_length_a   7.20019779
_cell_length_b   12.89870701
_cell_length_c   17.25089389
_cell_angle_alpha   90.00000000
_cell_angle_beta   90.00000000
_cell_angle_gamma   90.85330497
_symmetry_Int_Tables_number   1
_chemical_formula_structural   GeSe2
_chemical_formula_sum   'Ge16 Se32'
_cell_volume   1601.96876226
_cell_formula_units_Z   16
loop_
 _symmetry_equiv_pos_site_id
 _symmetry_equiv_pos_as_xyz
  1  'x, y, z'
loop_
 _atom_site_type_symbol
 _atom_site_label
 _atom_site_symmetry_multiplicity
 _atom_site_fract_x
 _atom_site_fract_y
 _atom_site_fract_z
 _atom_site_occupancy
  Ge  Ge0  1  0.66027641  0.77612519  0.84572815  1
  Ge  Ge1  1  0.33972359  0.72387481  0.34572815  1
  Ge  Ge2  1  0.33972359  0.22387481  0.15427185  1
  Ge  Ge3  1  0.66027641  0.27612519  0.65427185  1
  Ge  Ge4  1  0.83458316  0.22457387  0.84987941  1
  Ge  Ge5  1  0.16541684  0.27542613  0.34987941  1
  Ge  Ge6  1  0.16541684  0.77542613  0.15012059  1
  Ge  Ge7  1  0.83458316  0.72457387  0.65012059  1
  Ge  Ge8  1  0.16208545  0.29403285  0.99975030  1
  Ge  Ge9  1  0.83791455  0.20596715  0.49975030  1
  Ge  Ge10  1  0.83791455  0.70596715  0.00024970  1
  Ge  Ge11  1  0.16208545  0.79403285  0.50024970  1
  Ge  Ge12  1  0.33218415  0.72487986  0.68997585  1
  Ge  Ge13  1  0.66781585  0.77512014  0.18997585  1
  Ge  Ge14  1  0.66781585  0.27512014  0.31002415  1
  Ge  Ge15  1  0.33218415  0.22487986  0.81002415  1
  Se  Se16  1  0.33295601  0.78850661  0.82054678  1
  Se  Se17  1  0.66704399  0.71149339  0.32054678  1
  Se  Se18  1  0.66704399  0.21149339  0.17945322  1
  Se  Se19  1  0.33295601  0.28850661  0.67945322  1
  Se  Se20  1  0.72357302  0.87258350  0.96216535  1
  Se  Se21  1  0.27642698  0.62741650  0.46216535  1
  Se  Se22  1  0.27642698  0.12741650  0.03783465  1
  Se  Se23  1  0.72357302  0.37258350  0.53783465  1
  Se  Se24  1  0.76904292  0.60871869  0.88495364  1
  Se  Se25  1  0.23095708  0.89128131  0.38495364  1
  Se  Se26  1  0.23095708  0.39128131  0.11504636  1
  Se  Se27  1  0.76904292  0.10871869  0.61504636  1
  Se  Se28  1  0.84052996  0.85947035  0.74484827  1
  Se  Se29  1  0.15947004  0.64052965  0.24484827  1
  Se  Se30  1  0.15947004  0.14052965  0.25515173  1
  Se  Se31  1  0.84052996  0.35947035  0.75515173  1
  Se  Se32  1  0.58203558  0.60555580  0.67043925  1
  Se  Se33  1  0.41796442  0.89444420  0.17043925  1
  Se  Se34  1  0.41796442  0.39444420  0.32956075  1
  Se  Se35  1  0.58203558  0.10555580  0.82956075  1
  Se  Se36  1  0.08513633  0.60446297  0.66176276  1
  Se  Se37  1  0.91486367  0.89553703  0.16176276  1
  Se  Se38  1  0.91486367  0.39553703  0.33823724  1
  Se  Se39  1  0.08513633  0.10446297  0.83823724  1
  Se  Se40  1  0.33087615  0.87238553  0.60651095  1
  Se  Se41  1  0.66912385  0.62761447  0.10651095  1
  Se  Se42  1  0.66912385  0.12761447  0.39348905  1
  Se  Se43  1  0.33087615  0.37238553  0.89348905  1
  Se  Se44  1  0.83378817  0.80336786  0.52407627  1
  Se  Se45  1  0.16621183  0.69663214  0.02407627  1
  Se  Se46  1  0.16621183  0.19663214  0.47592373  1
  Se  Se47  1  0.83378817  0.30336786  0.97592373  1
