# generated using pymatgen
data_Cs2DyCl5
_symmetry_space_group_name_H-M   'P 1'
_cell_length_a   7.57833228
_cell_length_b   9.72988641
_cell_length_c   15.48620502
_cell_angle_alpha   90.00000000
_cell_angle_beta   90.00000000
_cell_angle_gamma   90.00000000
_symmetry_Int_Tables_number   1
_chemical_formula_structural   Cs2DyCl5
_chemical_formula_sum   'Cs8 Dy4 Cl20'
_cell_volume   1141.89564910
_cell_formula_units_Z   4
loop_
 _symmetry_equiv_pos_site_id
 _symmetry_equiv_pos_as_xyz
  1  'x, y, z'
loop_
 _atom_site_type_symbol
 _atom_site_label
 _atom_site_symmetry_multiplicity
 _atom_site_fract_x
 _atom_site_fract_y
 _atom_site_fract_z
 _atom_site_occupancy
  Cs  Cs0  1  0.25000000  0.97519095  0.78788811  1
  Cs  Cs1  1  0.75000000  0.02480905  0.21211189  1
  Cs  Cs2  1  0.25000000  0.47519095  0.71211189  1
  Cs  Cs3  1  0.75000000  0.52480905  0.28788811  1
  Cs  Cs4  1  0.75000000  0.83427655  0.58402943  1
  Cs  Cs5  1  0.25000000  0.16572345  0.41597057  1
  Cs  Cs6  1  0.75000000  0.33427655  0.91597057  1
  Cs  Cs7  1  0.25000000  0.66572345  0.08402943  1
  Dy  Dy8  1  0.75000000  0.82094864  0.93447126  1
  Dy  Dy9  1  0.25000000  0.17905136  0.06552874  1
  Dy  Dy10  1  0.75000000  0.32094864  0.56552874  1
  Dy  Dy11  1  0.25000000  0.67905136  0.43447126  1
  Cl  Cl12  1  0.00000000  0.00000000  0.00000000  1
  Cl  Cl13  1  0.50000000  0.00000000  0.00000000  1
  Cl  Cl14  1  0.50000000  0.50000000  0.50000000  1
  Cl  Cl15  1  0.00000000  0.50000000  0.50000000  1
  Cl  Cl16  1  0.49675848  0.66600431  0.88091743  1
  Cl  Cl17  1  0.99675848  0.33399569  0.11908257  1
  Cl  Cl18  1  0.00324152  0.16600431  0.61908257  1
  Cl  Cl19  1  0.50324152  0.83399569  0.38091743  1
  Cl  Cl20  1  0.50324152  0.33399569  0.11908257  1
  Cl  Cl21  1  0.00324152  0.66600431  0.88091743  1
  Cl  Cl22  1  0.99675848  0.83399569  0.38091743  1
  Cl  Cl23  1  0.49675848  0.16600431  0.61908257  1
  Cl  Cl24  1  0.25000000  0.78816285  0.59120602  1
  Cl  Cl25  1  0.75000000  0.21183715  0.40879398  1
  Cl  Cl26  1  0.25000000  0.28816285  0.90879398  1
  Cl  Cl27  1  0.75000000  0.71183715  0.09120602  1
  Cl  Cl28  1  0.75000000  0.98153089  0.79978813  1
  Cl  Cl29  1  0.25000000  0.01846911  0.20021187  1
  Cl  Cl30  1  0.75000000  0.48153089  0.70021187  1
  Cl  Cl31  1  0.25000000  0.51846911  0.29978813  1
