# generated using pymatgen
data_Ti7Cl16
_symmetry_space_group_name_H-M   'P 1'
_cell_length_a   6.86909926
_cell_length_b   10.06736476
_cell_length_c   14.55589598
_cell_angle_alpha   90.00000000
_cell_angle_beta   90.00000000
_cell_angle_gamma   90.00000000
_symmetry_Int_Tables_number   1
_chemical_formula_structural   Ti7Cl16
_chemical_formula_sum   'Ti14 Cl32'
_cell_volume   1006.59446882
_cell_formula_units_Z   2
loop_
 _symmetry_equiv_pos_site_id
 _symmetry_equiv_pos_as_xyz
  1  'x, y, z'
loop_
 _atom_site_type_symbol
 _atom_site_label
 _atom_site_symmetry_multiplicity
 _atom_site_fract_x
 _atom_site_fract_y
 _atom_site_fract_z
 _atom_site_occupancy
  Ti  Ti0  1  0.00000000  0.00000000  0.00000000  1
  Ti  Ti1  1  0.50000000  0.50000000  0.50000000  1
  Ti  Ti2  1  0.50000000  0.53861703  0.76306087  1
  Ti  Ti3  1  0.50000000  0.46138297  0.23693913  1
  Ti  Ti4  1  0.00000000  0.03861703  0.73693913  1
  Ti  Ti5  1  0.00000000  0.96138297  0.26306087  1
  Ti  Ti6  1  0.70333405  0.74583016  0.86348428  1
  Ti  Ti7  1  0.70333405  0.25416984  0.13651572  1
  Ti  Ti8  1  0.79666595  0.24583016  0.63651572  1
  Ti  Ti9  1  0.79666595  0.75416984  0.36348428  1
  Ti  Ti10  1  0.29666595  0.25416984  0.13651572  1
  Ti  Ti11  1  0.29666595  0.74583016  0.86348428  1
  Ti  Ti12  1  0.20333405  0.75416984  0.36348428  1
  Ti  Ti13  1  0.20333405  0.24583016  0.63651572  1
  Cl  Cl14  1  0.50000000  0.75672891  0.99298376  1
  Cl  Cl15  1  0.50000000  0.24327109  0.00701624  1
  Cl  Cl16  1  0.00000000  0.25672891  0.50701624  1
  Cl  Cl17  1  0.00000000  0.74327109  0.49298376  1
  Cl  Cl18  1  0.00000000  0.75817233  0.98144734  1
  Cl  Cl19  1  0.00000000  0.24182767  0.01855266  1
  Cl  Cl20  1  0.50000000  0.25817233  0.51855266  1
  Cl  Cl21  1  0.50000000  0.74182767  0.48144734  1
  Cl  Cl22  1  0.00000000  0.77557584  0.75380512  1
  Cl  Cl23  1  0.00000000  0.22442416  0.24619488  1
  Cl  Cl24  1  0.50000000  0.27557584  0.74619488  1
  Cl  Cl25  1  0.50000000  0.72442416  0.25380512  1
  Cl  Cl26  1  0.50000000  0.76956460  0.73042364  1
  Cl  Cl27  1  0.50000000  0.23043540  0.26957636  1
  Cl  Cl28  1  0.00000000  0.26956460  0.76957636  1
  Cl  Cl29  1  0.00000000  0.73043540  0.23042364  1
  Cl  Cl30  1  0.75461221  1.00444373  0.87166570  1
  Cl  Cl31  1  0.75461221  -0.00444373  0.12833430  1
  Cl  Cl32  1  0.74538779  0.50444373  0.62833430  1
  Cl  Cl33  1  0.74538779  0.49555627  0.37166570  1
  Cl  Cl34  1  0.24538779  -0.00444373  0.12833430  1
  Cl  Cl35  1  0.24538779  1.00444373  0.87166570  1
  Cl  Cl36  1  0.25461221  0.49555627  0.37166570  1
  Cl  Cl37  1  0.25461221  0.50444373  0.62833430  1
  Cl  Cl38  1  0.74976888  0.51435890  0.87242540  1
  Cl  Cl39  1  0.74976888  0.48564110  0.12757460  1
  Cl  Cl40  1  0.75023112  0.01435890  0.62757460  1
  Cl  Cl41  1  0.75023112  0.98564110  0.37242540  1
  Cl  Cl42  1  0.25023112  0.48564110  0.12757460  1
  Cl  Cl43  1  0.25023112  0.51435890  0.87242540  1
  Cl  Cl44  1  0.24976888  0.98564110  0.37242540  1
  Cl  Cl45  1  0.24976888  0.01435890  0.62757460  1
