# generated using pymatgen
data_BS2
_symmetry_space_group_name_H-M   'P 1'
_cell_length_a   4.92292777
_cell_length_b   12.45863338
_cell_length_c   21.63178670
_cell_angle_alpha   105.36940715
_cell_angle_beta   90.00000000
_cell_angle_gamma   90.00000000
_symmetry_Int_Tables_number   1
_chemical_formula_structural   BS2
_chemical_formula_sum   'B16 S32'
_cell_volume   1279.29316888
_cell_formula_units_Z   16
loop_
 _symmetry_equiv_pos_site_id
 _symmetry_equiv_pos_as_xyz
  1  'x, y, z'
loop_
 _atom_site_type_symbol
 _atom_site_label
 _atom_site_symmetry_multiplicity
 _atom_site_fract_x
 _atom_site_fract_y
 _atom_site_fract_z
 _atom_site_occupancy
  S  S0  1  0.53388205  0.35908190  0.16076196  1
  S  S1  1  0.03388205  0.14091810  0.33923804  1
  S  S2  1  0.46611795  0.64091810  0.83923804  1
  S  S3  1  0.96611795  0.85908190  0.66076196  1
  S  S4  1  0.66728156  0.42561938  0.08797680  1
  S  S5  1  0.16728156  0.07438062  0.41202320  1
  S  S6  1  0.33271844  0.57438062  0.91202320  1
  S  S7  1  0.83271844  0.92561938  0.58797680  1
  S  S8  1  0.81070051  0.17276100  0.05394955  1
  S  S9  1  0.31070051  0.32723900  0.44605045  1
  S  S10  1  0.18929949  0.82723900  0.94605045  1
  S  S11  1  0.68929949  0.67276100  0.55394955  1
  S  S12  1  0.94735035  0.33424320  0.96111204  1
  S  S13  1  0.44735035  0.16575680  0.53888796  1
  S  S14  1  0.05264965  0.66575680  0.03888796  1
  S  S15  1  0.55264965  0.83424320  0.46111204  1
  S  S16  1  0.75924308  0.75540999  0.16397172  1
  S  S17  1  0.25924308  0.74459001  0.33602828  1
  S  S18  1  0.24075692  0.24459001  0.83602828  1
  S  S19  1  0.74075692  0.25540999  0.66397172  1
  S  S20  1  0.59284752  0.90757805  0.21135612  1
  S  S21  1  0.09284752  0.59242195  0.28864388  1
  S  S22  1  0.40715248  0.09242195  0.78864388  1
  S  S23  1  0.90715248  0.40757805  0.71135612  1
  S  S24  1  0.84522408  0.92429781  0.08188398  1
  S  S25  1  0.34522408  0.57570219  0.41811602  1
  S  S26  1  0.15477592  0.07570219  0.91811602  1
  S  S27  1  0.65477592  0.42429781  0.58188398  1
  S  S28  1  0.54754447  0.13163690  0.18445644  1
  S  S29  1  0.04754447  0.36836310  0.31554356  1
  S  S30  1  0.45245553  0.86836310  0.81554356  1
  S  S31  1  0.95245553  0.63163690  0.68445644  1
  B  B32  1  0.63844512  0.21604149  0.13046124  1
  B  B33  1  0.13844512  0.28395851  0.36953876  1
  B  B34  1  0.36155488  0.78395851  0.86953876  1
  B  B35  1  0.86155488  0.71604149  0.63046124  1
  B  B36  1  0.81441678  0.30444598  0.03344018  1
  B  B37  1  0.31441678  0.19555402  0.46655982  1
  B  B38  1  0.18558322  0.69555402  0.96655982  1
  B  B39  1  0.68558322  0.80444598  0.53344018  1
  B  B40  1  0.88942601  0.78609090  0.09253358  1
  B  B41  1  0.38942601  0.71390910  0.40746642  1
  B  B42  1  0.11057399  0.21390910  0.90746642  1
  B  B43  1  0.61057399  0.28609090  0.59253358  1
  B  B44  1  0.66844917  0.98889397  0.15581497  1
  B  B45  1  0.16844917  0.51110603  0.34418503  1
  B  B46  1  0.33155083  0.01110603  0.84418503  1
  B  B47  1  0.83155083  0.48889397  0.65581497  1
