# generated using pymatgen
data_SeCl4
_symmetry_space_group_name_H-M   'P 1'
_cell_length_a   10.14659765
_cell_length_b   10.14659804
_cell_length_c   15.18546741
_cell_angle_alpha   95.13371195
_cell_angle_beta   104.90623901
_cell_angle_gamma   118.75719590
_symmetry_Int_Tables_number   1
_chemical_formula_structural   SeCl4
_chemical_formula_sum   'Se8 Cl32'
_cell_volume   1281.81151004
_cell_formula_units_Z   8
loop_
 _symmetry_equiv_pos_site_id
 _symmetry_equiv_pos_as_xyz
  1  'x, y, z'
loop_
 _atom_site_type_symbol
 _atom_site_label
 _atom_site_symmetry_multiplicity
 _atom_site_fract_x
 _atom_site_fract_y
 _atom_site_fract_z
 _atom_site_occupancy
  Se  Se0  1  0.65577536  0.11049190  0.81421184  1
  Se  Se1  1  0.79628006  0.84156352  0.68578816  1
  Se  Se2  1  0.34422464  0.88950810  0.18578816  1
  Se  Se3  1  0.20371994  0.15843648  0.31421184  1
  Se  Se4  1  0.14274987  0.26442734  0.88406677  1
  Se  Se5  1  0.88036056  0.25868309  0.61593323  1
  Se  Se6  1  0.85725013  0.73557266  0.11593323  1
  Se  Se7  1  0.11963944  0.74131691  0.38406677  1
  Cl  Cl8  1  0.71699783  0.21277428  0.96507430  1
  Cl  Cl9  1  0.74769998  0.75192353  0.53492570  1
  Cl  Cl10  1  0.28300217  0.78722572  0.03492570  1
  Cl  Cl11  1  0.25230002  0.24807647  0.46507430  1
  Cl  Cl12  1  0.51966435  0.21953952  0.75660032  1
  Cl  Cl13  1  0.96293920  0.76306402  0.74339968  1
  Cl  Cl14  1  0.48033565  0.78046048  0.24339968  1
  Cl  Cl15  1  0.03706080  0.23693598  0.25660032  1
  Cl  Cl16  1  0.44319081  0.88390573  0.80563037  1
  Cl  Cl17  1  0.57827536  0.63756044  0.69436963  1
  Cl  Cl18  1  0.55680919  0.11609427  0.19436963  1
  Cl  Cl19  1  0.42172464  0.36243956  0.30563037  1
  Cl  Cl20  1  0.93164384  0.36225663  0.80814536  1
  Cl  Cl21  1  0.05411127  0.12349848  0.69185464  1
  Cl  Cl22  1  0.06835616  0.63774337  0.19185464  1
  Cl  Cl23  1  0.94588873  0.87650152  0.30814536  1
  Cl  Cl24  1  0.85696083  0.99451201  0.86587501  1
  Cl  Cl25  1  0.62863700  0.99108582  0.63412499  1
  Cl  Cl26  1  0.14303917  0.00548799  0.13412499  1
  Cl  Cl27  1  0.37136300  0.00891418  0.36587501  1
  Cl  Cl28  1  0.34532837  0.47866721  0.87193594  1
  Cl  Cl29  1  0.10673127  0.47339243  0.62806406  1
  Cl  Cl30  1  0.65467163  0.52133279  0.12806406  1
  Cl  Cl31  1  0.89326873  0.52660757  0.37193594  1
  Cl  Cl32  1  0.27747765  0.14844776  0.92639410  1
  Cl  Cl33  1  0.72205366  0.35108355  0.57360590  1
  Cl  Cl34  1  0.72252235  0.85155224  0.07360590  1
  Cl  Cl35  1  0.27794634  0.64891645  0.42639410  1
  Cl  Cl36  1  0.16584743  0.35989931  0.02751464  1
  Cl  Cl37  1  0.83238466  0.13833278  0.47248536  1
  Cl  Cl38  1  0.83415257  0.64010069  0.97248536  1
  Cl  Cl39  1  0.16761534  0.86166722  0.52751464  1
