# generated using pymatgen
data_Ba2MnO3
_symmetry_space_group_name_H-M   'P 1'
_cell_length_a   6.05853140
_cell_length_b   6.59448071
_cell_length_c   12.82793109
_cell_angle_alpha   88.42811121
_cell_angle_beta   86.57651033
_cell_angle_gamma   62.65393790
_symmetry_Int_Tables_number   1
_chemical_formula_structural   Ba2MnO3
_chemical_formula_sum   'Ba8 Mn4 O12'
_cell_volume   454.42603882
_cell_formula_units_Z   4
loop_
 _symmetry_equiv_pos_site_id
 _symmetry_equiv_pos_as_xyz
  1  'x, y, z'
loop_
 _atom_site_type_symbol
 _atom_site_label
 _atom_site_symmetry_multiplicity
 _atom_site_fract_x
 _atom_site_fract_y
 _atom_site_fract_z
 _atom_site_occupancy
  O  O0  1  0.74169889  0.65092570  0.27193197  1
  O  O1  1  0.39262459  0.34907430  0.77193197  1
  O  O2  1  0.22934387  0.01766226  0.65254489  1
  O  O3  1  0.24700613  0.98233774  0.15254489  1
  O  O4  1  0.92145745  0.20043390  0.93536218  1
  O  O5  1  0.12189135  0.79956610  0.43536218  1
  O  O6  1  0.63658942  0.20286884  0.15215267  1
  O  O7  1  0.35704873  0.19846772  0.36920287  1
  O  O8  1  0.73654541  0.34764458  0.53226979  1
  O  O9  1  0.08418998  0.65235542  0.03226979  1
  O  O10  1  0.55551645  0.80153228  0.86920287  1
  O  O11  1  0.83945827  0.79713116  0.65215267  1
  Mn  Mn12  1  0.96715040  0.99417489  0.06572578  1
  Mn  Mn13  1  0.51666542  0.99287724  0.23872038  1
  Mn  Mn14  1  0.96132529  0.00582511  0.56572578  1
  Mn  Mn15  1  0.50954266  0.00712276  0.73872038  1
  Ba  Ba16  1  0.36708467  0.21226483  0.97761012  1
  Ba  Ba17  1  0.89856837  0.21065936  0.32667962  1
  Ba  Ba18  1  0.10922773  0.78934064  0.82667962  1
  Ba  Ba19  1  0.57934949  0.78773517  0.47761012  1
  Ba  Ba20  1  0.26722062  0.41287562  0.55249594  1
  Ba  Ba21  1  0.68009624  0.58712438  0.05249594  1
  Ba  Ba22  1  0.79652328  0.41435199  0.75160379  1
  Ba  Ba23  1  0.21087527  0.58564801  0.25160379  1
