# generated using pymatgen
data_Ti7Br16
_symmetry_space_group_name_H-M   'P 1'
_cell_length_a   7.27996263
_cell_length_b   10.66684374
_cell_length_c   15.47374031
_cell_angle_alpha   90.00000000
_cell_angle_beta   90.00000000
_cell_angle_gamma   90.00000000
_symmetry_Int_Tables_number   1
_chemical_formula_structural   Ti7Br16
_chemical_formula_sum   'Ti14 Br32'
_cell_volume   1201.60129317
_cell_formula_units_Z   2
loop_
 _symmetry_equiv_pos_site_id
 _symmetry_equiv_pos_as_xyz
  1  'x, y, z'
loop_
 _atom_site_type_symbol
 _atom_site_label
 _atom_site_symmetry_multiplicity
 _atom_site_fract_x
 _atom_site_fract_y
 _atom_site_fract_z
 _atom_site_occupancy
  Ti  Ti0  1  0.00000000  0.00000000  0.00000000  1
  Ti  Ti1  1  0.50000000  0.50000000  0.50000000  1
  Ti  Ti2  1  0.50000000  0.54003719  0.76401228  1
  Ti  Ti3  1  0.50000000  0.45996281  0.23598772  1
  Ti  Ti4  1  0.00000000  0.04003719  0.73598772  1
  Ti  Ti5  1  0.00000000  0.95996281  0.26401228  1
  Ti  Ti6  1  0.69753596  0.74305503  0.86085344  1
  Ti  Ti7  1  0.69753596  0.25694497  0.13914656  1
  Ti  Ti8  1  0.80246404  0.24305503  0.63914656  1
  Ti  Ti9  1  0.80246404  0.75694497  0.36085344  1
  Ti  Ti10  1  0.30246404  0.25694497  0.13914656  1
  Ti  Ti11  1  0.30246404  0.74305503  0.86085344  1
  Ti  Ti12  1  0.19753596  0.75694497  0.36085344  1
  Ti  Ti13  1  0.19753596  0.24305503  0.63914656  1
  Br  Br14  1  0.00000000  0.75790789  0.98064378  1
  Br  Br15  1  0.00000000  0.24209211  0.01935622  1
  Br  Br16  1  0.50000000  0.25790789  0.51935622  1
  Br  Br17  1  0.50000000  0.74209211  0.48064378  1
  Br  Br18  1  0.50000000  0.75629851  0.99254115  1
  Br  Br19  1  0.50000000  0.24370149  0.00745885  1
  Br  Br20  1  0.00000000  0.25629851  0.50745885  1
  Br  Br21  1  0.00000000  0.74370149  0.49254115  1
  Br  Br22  1  0.00000000  0.77295172  0.75243753  1
  Br  Br23  1  0.00000000  0.22704828  0.24756247  1
  Br  Br24  1  0.50000000  0.27295172  0.74756247  1
  Br  Br25  1  0.50000000  0.72704828  0.25243753  1
  Br  Br26  1  0.50000000  0.76994955  0.72683343  1
  Br  Br27  1  0.50000000  0.23005045  0.27316657  1
  Br  Br28  1  0.00000000  0.26994955  0.77316657  1
  Br  Br29  1  0.00000000  0.73005045  0.22683343  1
  Br  Br30  1  0.75290630  1.00337382  0.87122355  1
  Br  Br31  1  0.75290630  -0.00337382  0.12877645  1
  Br  Br32  1  0.74709370  0.50337382  0.62877645  1
  Br  Br33  1  0.74709370  0.49662618  0.37122355  1
  Br  Br34  1  0.24709370  -0.00337382  0.12877645  1
  Br  Br35  1  0.24709370  1.00337382  0.87122355  1
  Br  Br36  1  0.25290630  0.49662618  0.37122355  1
  Br  Br37  1  0.25290630  0.50337382  0.62877645  1
  Br  Br38  1  0.74957962  0.51179973  0.87403094  1
  Br  Br39  1  0.74957962  0.48820027  0.12596906  1
  Br  Br40  1  0.75042038  0.01179973  0.62596906  1
  Br  Br41  1  0.75042038  0.98820027  0.37403094  1
  Br  Br42  1  0.25042038  0.48820027  0.12596906  1
  Br  Br43  1  0.25042038  0.51179973  0.87403094  1
  Br  Br44  1  0.24957962  0.98820027  0.37403094  1
  Br  Br45  1  0.24957962  0.01179973  0.62596906  1
