# generated using pymatgen
data_SrIn2O4
_symmetry_space_group_name_H-M   'P 1'
_cell_length_a   3.32088061
_cell_length_b   9.97032539
_cell_length_c   11.66486089
_cell_angle_alpha   90.00000000
_cell_angle_beta   90.00000000
_cell_angle_gamma   90.00000000
_symmetry_Int_Tables_number   1
_chemical_formula_structural   SrIn2O4
_chemical_formula_sum   'Sr4 In8 O16'
_cell_volume   386.22658000
_cell_formula_units_Z   4
loop_
 _symmetry_equiv_pos_site_id
 _symmetry_equiv_pos_as_xyz
  1  'x, y, z'
loop_
 _atom_site_type_symbol
 _atom_site_label
 _atom_site_symmetry_multiplicity
 _atom_site_fract_x
 _atom_site_fract_y
 _atom_site_fract_z
 _atom_site_occupancy
  Sr  Sr0  1  0.75000000  0.75604490  0.34831383  1
  Sr  Sr1  1  0.25000000  0.24395510  0.65168617  1
  Sr  Sr2  1  0.75000000  0.25604490  0.15168617  1
  Sr  Sr3  1  0.25000000  0.74395510  0.84831383  1
  In  In4  1  0.75000000  0.41876816  0.89346083  1
  In  In5  1  0.25000000  0.58123184  0.10653917  1
  In  In6  1  0.75000000  0.91876816  0.60653917  1
  In  In7  1  0.25000000  0.08123184  0.39346083  1
  In  In8  1  0.75000000  0.43021795  0.38851750  1
  In  In9  1  0.25000000  0.56978205  0.61148250  1
  In  In10  1  0.75000000  0.93021795  0.11148250  1
  In  In11  1  0.25000000  0.06978205  0.88851750  1
  O  O12  1  0.75000000  0.20645754  0.83098299  1
  O  O13  1  0.25000000  0.79354246  0.16901701  1
  O  O14  1  0.75000000  0.70645754  0.66901701  1
  O  O15  1  0.25000000  0.29354246  0.33098299  1
  O  O16  1  0.75000000  0.12113544  0.52107239  1
  O  O17  1  0.25000000  0.87886456  0.47892761  1
  O  O18  1  0.75000000  0.62113544  0.97892761  1
  O  O19  1  0.25000000  0.37886456  0.02107239  1
  O  O20  1  0.75000000  0.52382450  0.21775897  1
  O  O21  1  0.25000000  0.47617550  0.78224103  1
  O  O22  1  0.75000000  0.02382450  0.28224103  1
  O  O23  1  0.25000000  0.97617550  0.71775897  1
  O  O24  1  0.75000000  0.41841441  0.57406563  1
  O  O25  1  0.25000000  0.58158559  0.42593437  1
  O  O26  1  0.75000000  0.91841441  0.92593437  1
  O  O27  1  0.25000000  0.08158559  0.07406563  1
