# generated using pymatgen
data_Ba2NiOsO6
_symmetry_space_group_name_H-M   'P 1'
_cell_length_a   5.81357658
_cell_length_b   5.81357664
_cell_length_c   14.25916900
_cell_angle_alpha   90.00000000
_cell_angle_beta   90.00000000
_cell_angle_gamma   119.99999963
_symmetry_Int_Tables_number   1
_chemical_formula_structural   Ba2NiOsO6
_chemical_formula_sum   'Ba6 Ni3 Os3 O18'
_cell_volume   417.36079381
_cell_formula_units_Z   3
loop_
 _symmetry_equiv_pos_site_id
 _symmetry_equiv_pos_as_xyz
  1  'x, y, z'
loop_
 _atom_site_type_symbol
 _atom_site_label
 _atom_site_symmetry_multiplicity
 _atom_site_fract_x
 _atom_site_fract_y
 _atom_site_fract_z
 _atom_site_occupancy
  Ni  Ni0  1  0.00000000  0.00000000  0.00000000  1
  Os  Os1  1  0.00000000  0.00000000  0.50000000  1
  Ba  Ba2  1  0.00000000  0.00000000  0.24879982  1
  Ba  Ba3  1  0.00000000  0.00000000  0.75120018  1
  Ba  Ba4  1  0.33333300  0.66666700  0.08949666  1
  Ba  Ba5  1  0.66666700  0.33333300  0.91050334  1
  Ba  Ba6  1  0.33333300  0.66666700  0.40241997  1
  Ba  Ba7  1  0.66666700  0.33333300  0.59758003  1
  Ni  Ni8  1  0.33333300  0.66666700  0.65152850  1
  Ni  Ni9  1  0.66666700  0.33333300  0.34847150  1
  Os  Os10  1  0.33333300  0.66666700  0.84071915  1
  Os  Os11  1  0.66666700  0.33333300  0.15928085  1
  O  O12  1  0.51378016  0.48621984  0.24530270  1
  O  O13  1  0.51378016  0.02755932  0.24530270  1
  O  O14  1  0.97244068  0.48621984  0.24530270  1
  O  O15  1  0.02755932  0.51378016  0.75469730  1
  O  O16  1  0.48621984  0.97244068  0.75469730  1
  O  O17  1  0.48621984  0.51378016  0.75469730  1
  O  O18  1  0.82786538  0.17213462  0.08395603  1
  O  O19  1  0.82786538  0.65573075  0.08395603  1
  O  O20  1  0.34426925  0.17213462  0.08395603  1
  O  O21  1  0.65573075  0.82786538  0.91604397  1
  O  O22  1  0.17213462  0.34426925  0.91604397  1
  O  O23  1  0.17213462  0.82786538  0.91604397  1
  O  O24  1  0.84170423  0.15829577  0.42203452  1
  O  O25  1  0.84170423  0.68340745  0.42203452  1
  O  O26  1  0.31659255  0.15829577  0.42203452  1
  O  O27  1  0.68340745  0.84170423  0.57796548  1
  O  O28  1  0.15829577  0.31659255  0.57796548  1
  O  O29  1  0.15829577  0.84170423  0.57796548  1
