# generated using pymatgen
data_Na14Mn2O9
_symmetry_space_group_name_H-M   'P 1'
_cell_length_a   6.73706198
_cell_length_b   6.73706198
_cell_length_c   9.44004595
_cell_angle_alpha   90.00000000
_cell_angle_beta   90.00000000
_cell_angle_gamma   120.00000000
_symmetry_Int_Tables_number   1
_chemical_formula_structural   Na14Mn2O9
_chemical_formula_sum   'Na14 Mn2 O9'
_cell_volume   371.06144018
_cell_formula_units_Z   1
loop_
 _symmetry_equiv_pos_site_id
 _symmetry_equiv_pos_as_xyz
  1  'x, y, z'
loop_
 _atom_site_type_symbol
 _atom_site_label
 _atom_site_symmetry_multiplicity
 _atom_site_fract_x
 _atom_site_fract_y
 _atom_site_fract_z
 _atom_site_occupancy
  O  O0  1  0.30499000  0.94760068  0.33735825  1
  O  O1  1  0.64261068  0.69501000  0.33735825  1
  O  O2  1  0.05239932  0.35738932  0.33735825  1
  O  O3  1  0.69501000  0.05239932  0.66264175  1
  O  O4  1  0.35738932  0.30499000  0.66264175  1
  O  O5  1  0.94760068  0.64261068  0.66264175  1
  O  O6  1  0.00000000  0.00000000  0.00000000  1
  O  O7  1  0.66666667  0.33333333  0.96144229  1
  O  O8  1  0.33333333  0.66666667  0.03855771  1
  Na  Na9  1  0.32035479  0.36119095  0.90858842  1
  Na  Na10  1  0.95916383  0.32035479  0.09141158  1
  Na  Na11  1  0.63880905  0.95916383  0.90858842  1
  Na  Na12  1  0.69050183  0.06732966  0.40862422  1
  Na  Na13  1  0.04083617  0.67964521  0.90858842  1
  Na  Na14  1  0.00000000  0.00000000  0.25174512  1
  Na  Na15  1  0.00000000  0.00000000  0.74825488  1
  Na  Na16  1  0.67964521  0.63880905  0.09141158  1
  Na  Na17  1  0.06732966  0.37682783  0.59137578  1
  Na  Na18  1  0.37682783  0.30949817  0.40862422  1
  Na  Na19  1  0.93267034  0.62317217  0.40862422  1
  Na  Na20  1  0.30949817  0.93267034  0.59137578  1
  Na  Na21  1  0.62317217  0.69050183  0.59137578  1
  Na  Na22  1  0.36119095  0.04083617  0.09141158  1
  Mn  Mn23  1  0.66666667  0.33333333  0.73786917  1
  Mn  Mn24  1  0.33333333  0.66666667  0.26213083  1
