# generated using pymatgen
data_NdTl(PO3)4
_symmetry_space_group_name_H-M   'P 1'
_cell_length_a   9.13905733
_cell_length_b   10.61618486
_cell_length_c   11.15632312
_cell_angle_alpha   106.03281220
_cell_angle_beta   90.00000000
_cell_angle_gamma   90.00000000
_symmetry_Int_Tables_number   1
_chemical_formula_structural   NdTl(PO3)4
_chemical_formula_sum   'Nd4 Tl4 P16 O48'
_cell_volume   1040.30623498
_cell_formula_units_Z   4
loop_
 _symmetry_equiv_pos_site_id
 _symmetry_equiv_pos_as_xyz
  1  'x, y, z'
loop_
 _atom_site_type_symbol
 _atom_site_label
 _atom_site_symmetry_multiplicity
 _atom_site_fract_x
 _atom_site_fract_y
 _atom_site_fract_z
 _atom_site_occupancy
  Tl  Tl0  1  0.93723130  0.20869520  0.96081417  1
  Tl  Tl1  1  0.43723130  0.29130480  0.53918583  1
  Tl  Tl2  1  0.06276870  0.79130480  0.03918583  1
  Tl  Tl3  1  0.56276870  0.70869520  0.46081417  1
  Nd  Nd4  1  0.27210786  0.49960666  0.18331309  1
  Nd  Nd5  1  0.77210786  0.00039334  0.31668691  1
  Nd  Nd6  1  0.72789214  0.50039334  0.81668691  1
  Nd  Nd7  1  0.22789214  0.99960666  0.68331309  1
  P  P8  1  0.02371946  0.25025778  0.27635557  1
  P  P9  1  0.52371946  0.24974222  0.22364443  1
  P  P10  1  0.97628054  0.74974222  0.72364443  1
  P  P11  1  0.47628054  0.75025778  0.77635557  1
  P  P12  1  0.82598019  0.95975267  0.64109588  1
  P  P13  1  0.32598019  0.54024733  0.85890412  1
  P  P14  1  0.17401981  0.04024733  0.35890412  1
  P  P15  1  0.67401981  0.45975267  0.14109588  1
  P  P16  1  0.59695393  0.14662423  0.76111018  1
  P  P17  1  0.09695393  0.35337577  0.73888982  1
  P  P18  1  0.40304607  0.85337577  0.23888982  1
  P  P19  1  0.90304607  0.64662423  0.26111018  1
  P  P20  1  0.39514530  0.17718674  0.97736443  1
  P  P21  1  0.89514530  0.32281326  0.52263557  1
  P  P22  1  0.60485470  0.82281326  0.02263557  1
  P  P23  1  0.10485470  0.67718674  0.47736443  1
  O  O24  1  0.70799715  0.02415630  0.74969471  1
  O  O25  1  0.20799715  0.47584370  0.75030529  1
  O  O26  1  0.29200285  0.97584370  0.25030529  1
  O  O27  1  0.79200285  0.52415630  0.24969471  1
  O  O28  1  0.08818620  0.85222504  0.78218639  1
  O  O29  1  0.58818620  0.64777496  0.71781361  1
  O  O30  1  0.91181380  0.14777496  0.21781361  1
  O  O31  1  0.41181380  0.35222504  0.28218639  1
  O  O32  1  0.68309499  0.26250109  0.74915601  1
  O  O33  1  0.18309499  0.23749891  0.75084399  1
  O  O34  1  0.31690501  0.73749891  0.25084399  1
  O  O35  1  0.81690501  0.76250109  0.24915601  1
  O  O36  1  0.96564120  0.03630981  0.66978039  1
  O  O37  1  0.46564120  0.46369019  0.83021961  1
  O  O38  1  0.03435880  0.96369019  0.33021961  1
  O  O39  1  0.53435880  0.53630981  0.16978039  1
  O  O40  1  0.96802413  0.39666899  0.82444486  1
  O  O41  1  0.46802413  0.10333101  0.67555514  1
  O  O42  1  0.03197587  0.60333101  0.17555514  1
  O  O43  1  0.53197587  0.89666899  0.32444486  1
  O  O44  1  0.08830517  0.32805421  0.19554686  1
  O  O45  1  0.58830517  0.17194579  0.30445314  1
  O  O46  1  0.91169483  0.67194579  0.80445314  1
  O  O47  1  0.41169483  0.82805421  0.69554686  1
  O  O48  1  0.33920623  0.31521800  0.01433885  1
  O  O49  1  0.83920623  0.18478200  0.48566115  1
  O  O50  1  0.66079377  0.68478200  0.98566115  1
  O  O51  1  0.16079377  0.81521800  0.51433885  1
  O  O52  1  0.65678531  0.31723013  0.16675380  1
  O  O53  1  0.15678531  0.18276987  0.33324620  1
  O  O54  1  0.34321469  0.68276987  0.83324620  1
  O  O55  1  0.84321469  0.81723013  0.66675380  1
  O  O56  1  0.54995783  0.16975406  0.90409499  1
  O  O57  1  0.04995783  0.33024594  0.59590501  1
  O  O58  1  0.45004217  0.83024594  0.09590501  1
  O  O59  1  0.95004217  0.66975406  0.40409499  1
  O  O60  1  0.25403434  0.56466208  0.98448416  1
  O  O61  1  0.75403434  0.93533792  0.51551584  1
  O  O62  1  0.74596566  0.43533792  0.01551584  1
  O  O63  1  0.24596566  0.06466208  0.48448416  1
  O  O64  1  0.20492691  0.57001427  0.40729081  1
  O  O65  1  0.70492691  0.92998573  0.09270919  1
  O  O66  1  0.79507309  0.42998573  0.59270919  1
  O  O67  1  0.29507309  0.07001427  0.90729081  1
  O  O68  1  0.95761387  0.35589730  0.39866147  1
  O  O69  1  0.45761387  0.14410270  0.10133853  1
  O  O70  1  0.04238613  0.64410270  0.60133853  1
  O  O71  1  0.54238613  0.85589730  0.89866147  1
