# generated using pymatgen
data_BaCd(PO3)4
_symmetry_space_group_name_H-M   'P 1'
_cell_length_a   7.35086068
_cell_length_b   9.41192453
_cell_length_c   15.18876649
_cell_angle_alpha   90.00000000
_cell_angle_beta   90.69098656
_cell_angle_gamma   90.00000000
_symmetry_Int_Tables_number   1
_chemical_formula_structural   BaCd(PO3)4
_chemical_formula_sum   'Ba4 Cd4 P16 O48'
_cell_volume   1050.76972166
_cell_formula_units_Z   4
loop_
 _symmetry_equiv_pos_site_id
 _symmetry_equiv_pos_as_xyz
  1  'x, y, z'
loop_
 _atom_site_type_symbol
 _atom_site_label
 _atom_site_symmetry_multiplicity
 _atom_site_fract_x
 _atom_site_fract_y
 _atom_site_fract_z
 _atom_site_occupancy
  Ba  Ba0  1  0.98508134  0.89224974  0.63288299  1
  Ba  Ba1  1  0.51491866  0.39224974  0.86711701  1
  Ba  Ba2  1  0.01491866  0.10775026  0.36711701  1
  Ba  Ba3  1  0.48508134  0.60775026  0.13288299  1
  Cd  Cd4  1  0.99662595  0.22921483  0.84256100  1
  Cd  Cd5  1  0.50337405  0.72921483  0.65743900  1
  Cd  Cd6  1  0.00337405  0.77078517  0.15743900  1
  Cd  Cd7  1  0.49662595  0.27078517  0.34256100  1
  P  P8  1  0.63000937  0.83260907  0.44179014  1
  P  P9  1  0.86999063  0.33260907  0.05820986  1
  P  P10  1  0.36999063  0.16739093  0.55820986  1
  P  P11  1  0.13000937  0.66739093  0.94179014  1
  P  P12  1  0.73894391  0.75013229  0.95919687  1
  P  P13  1  0.76105609  0.25013229  0.54080313  1
  P  P14  1  0.26105609  0.24986771  0.04080313  1
  P  P15  1  0.23894391  0.74986771  0.45919687  1
  P  P16  1  0.13627814  0.52058221  0.32642299  1
  P  P17  1  0.36372186  0.02058221  0.17357701  1
  P  P18  1  0.86372186  0.47941779  0.67357701  1
  P  P19  1  0.63627814  0.97941779  0.82642299  1
  P  P20  1  0.74180568  0.60020652  0.32257595  1
  P  P21  1  0.75819432  0.10020652  0.17742405  1
  P  P22  1  0.25819432  0.39979348  0.67742405  1
  P  P23  1  0.24180568  0.89979348  0.82257595  1
  O  O24  1  0.71732565  0.68005007  0.41521092  1
  O  O25  1  0.78267435  0.18005007  0.08478908  1
  O  O26  1  0.28267435  0.31994993  0.58478908  1
  O  O27  1  0.21732565  0.81994993  0.91521092  1
  O  O28  1  0.41879224  0.80981749  0.41281721  1
  O  O29  1  0.08120776  0.30981749  0.08718279  1
  O  O30  1  0.58120776  0.19018251  0.58718279  1
  O  O31  1  0.91879224  0.69018251  0.91281721  1
  O  O32  1  0.71478736  0.90451433  0.91430333  1
  O  O33  1  0.78521264  0.40451433  0.58569667  1
  O  O34  1  0.28521264  0.09548567  0.08569667  1
  O  O35  1  0.21478736  0.59548567  0.41430333  1
  O  O36  1  0.92087943  0.50919076  0.34469302  1
  O  O37  1  0.57912057  0.00919076  0.15530698  1
  O  O38  1  0.07912057  0.49080924  0.65530698  1
  O  O39  1  0.42087943  0.99080924  0.84469302  1
  O  O40  1  0.65076203  0.83983335  0.54092738  1
  O  O41  1  0.84923797  0.33983335  0.95907262  1
  O  O42  1  0.34923797  0.16016665  0.45907262  1
  O  O43  1  0.15076203  0.66016665  0.04092738  1
  O  O44  1  0.70214080  0.95178168  0.38838088  1
  O  O45  1  0.79785920  0.45178168  0.11161912  1
  O  O46  1  0.29785920  0.04821832  0.61161912  1
  O  O47  1  0.20214080  0.54821832  0.88838088  1
  O  O48  1  0.76931314  0.77756639  0.05599841  1
  O  O49  1  0.73068686  0.27756639  0.44400159  1
  O  O50  1  0.23068686  0.22243361  0.94400159  1
  O  O51  1  0.26931314  0.72243361  0.55599841  1
  O  O52  1  0.08336750  0.84676274  0.43652380  1
  O  O53  1  0.41663250  0.34676274  0.06347620  1
  O  O54  1  0.91663250  0.15323726  0.56347620  1
  O  O55  1  0.58336750  0.65323726  0.93652380  1
  O  O56  1  0.20287082  0.36952134  0.32963856  1
  O  O57  1  0.29712918  0.86952134  0.17036144  1
  O  O58  1  0.79712918  0.63047866  0.67036144  1
  O  O59  1  0.70287082  0.13047866  0.82963856  1
  O  O60  1  0.67229059  0.89145093  0.74576408  1
  O  O61  1  0.82770941  0.39145093  0.75423592  1
  O  O62  1  0.32770941  0.10854907  0.25423592  1
  O  O63  1  0.17229059  0.60854907  0.24576408  1
  O  O64  1  0.77101162  0.70470848  0.24890339  1
  O  O65  1  0.72898838  0.20470848  0.25109661  1
  O  O66  1  0.22898838  0.29529152  0.75109661  1
  O  O67  1  0.27101162  0.79529152  0.74890339  1
  O  O68  1  0.58350902  0.50109256  0.30668042  1
  O  O69  1  0.91649098  0.00109256  0.19331958  1
  O  O70  1  0.41649098  0.49890744  0.69331958  1
  O  O71  1  0.08350902  0.99890744  0.80668042  1
