# generated using pymatgen
data_Cs2Sn(GeO3)3
_symmetry_space_group_name_H-M   'P 1'
_cell_length_a   7.40594670
_cell_length_b   7.40594657
_cell_length_c   10.62795166
_cell_angle_alpha   90.00000000
_cell_angle_beta   90.00000000
_cell_angle_gamma   120.00000049
_symmetry_Int_Tables_number   1
_chemical_formula_structural   Cs2Sn(GeO3)3
_chemical_formula_sum   'Cs4 Sn2 Ge6 O18'
_cell_volume   504.82558415
_cell_formula_units_Z   2
loop_
 _symmetry_equiv_pos_site_id
 _symmetry_equiv_pos_as_xyz
  1  'x, y, z'
loop_
 _atom_site_type_symbol
 _atom_site_label
 _atom_site_symmetry_multiplicity
 _atom_site_fract_x
 _atom_site_fract_y
 _atom_site_fract_z
 _atom_site_occupancy
  Cs  Cs0  1  0.33333300  0.66666700  0.06007796  1
  Cs  Cs1  1  0.66666700  0.33333300  0.56007796  1
  Cs  Cs2  1  0.66666700  0.33333300  0.93992204  1
  Cs  Cs3  1  0.33333300  0.66666700  0.43992204  1
  Sn  Sn4  1  0.00000000  0.00000000  0.00000000  1
  Sn  Sn5  1  0.00000000  0.00000000  0.50000000  1
  Ge  Ge6  1  0.37431210  0.23354053  0.25000000  1
  Ge  Ge7  1  0.14077156  0.37431210  0.75000000  1
  Ge  Ge8  1  0.23354053  0.85922844  0.75000000  1
  Ge  Ge9  1  0.76645947  0.14077156  0.25000000  1
  Ge  Ge10  1  0.85922844  0.62568790  0.25000000  1
  Ge  Ge11  1  0.62568790  0.76645947  0.75000000  1
  O  O12  1  0.49411018  0.07470055  0.25000000  1
  O  O13  1  0.41940963  0.49411018  0.75000000  1
  O  O14  1  0.07470055  0.58059037  0.75000000  1
  O  O15  1  0.92529945  0.41940963  0.25000000  1
  O  O16  1  0.58059037  0.50588982  0.25000000  1
  O  O17  1  0.50588982  0.92529945  0.75000000  1
  O  O18  1  0.24723285  0.21830333  0.10879352  1
  O  O19  1  0.02892952  0.24723285  0.60879352  1
  O  O20  1  0.21830333  0.97107048  0.60879352  1
  O  O21  1  0.78169667  0.02892952  0.10879352  1
  O  O22  1  0.97107048  0.75276715  0.10879352  1
  O  O23  1  0.75276715  0.78169667  0.60879352  1
  O  O24  1  0.75276715  0.78169667  0.89120648  1
  O  O25  1  0.97107048  0.75276715  0.39120648  1
  O  O26  1  0.78169667  0.02892952  0.39120648  1
  O  O27  1  0.21830333  0.97107048  0.89120648  1
  O  O28  1  0.02892952  0.24723285  0.89120648  1
  O  O29  1  0.24723285  0.21830333  0.39120648  1
