# generated using pymatgen
data_Fe4Bi2O9
_symmetry_space_group_name_H-M   'P 1'
_cell_length_a   6.10014464
_cell_length_b   8.07136638
_cell_length_c   8.65704436
_cell_angle_alpha   90.00000000
_cell_angle_beta   90.00000000
_cell_angle_gamma   90.00000000
_symmetry_Int_Tables_number   1
_chemical_formula_structural   Fe4Bi2O9
_chemical_formula_sum   'Fe8 Bi4 O18'
_cell_volume   426.24258507
_cell_formula_units_Z   2
loop_
 _symmetry_equiv_pos_site_id
 _symmetry_equiv_pos_as_xyz
  1  'x, y, z'
loop_
 _atom_site_type_symbol
 _atom_site_label
 _atom_site_symmetry_multiplicity
 _atom_site_fract_x
 _atom_site_fract_y
 _atom_site_fract_z
 _atom_site_occupancy
  Fe  Fe0  1  0.25785906  -0.00000000  0.50000000  1
  Fe  Fe1  1  0.74214094  0.50000000  -0.00000000  1
  Fe  Fe2  1  0.74214094  -0.00000000  0.50000000  1
  Fe  Fe3  1  0.25785906  0.50000000  -0.00000000  1
  Fe  Fe4  1  0.50000000  0.85356621  0.16546492  1
  Fe  Fe5  1  0.50000000  0.14643379  0.83453508  1
  Fe  Fe6  1  0.50000000  0.35356621  0.33453508  1
  Fe  Fe7  1  0.50000000  0.64643379  0.66546492  1
  Bi  Bi8  1  0.00000000  0.68105029  0.31943618  1
  Bi  Bi9  1  0.00000000  0.31894971  0.68056382  1
  Bi  Bi10  1  0.00000000  0.18105029  0.18056382  1
  Bi  Bi11  1  0.00000000  0.81894971  0.81943618  1
  O  O12  1  0.50000000  0.50000000  0.50000000  1
  O  O13  1  0.50000000  -0.00000000  -0.00000000  1
  O  O14  1  0.24215837  0.87478052  0.29264977  1
  O  O15  1  0.24215837  0.12521948  0.70735023  1
  O  O16  1  0.75784163  0.37478052  0.20735023  1
  O  O17  1  0.75784163  0.62521948  0.79264977  1
  O  O18  1  0.75784163  0.12521948  0.70735023  1
  O  O19  1  0.75784163  0.87478052  0.29264977  1
  O  O20  1  0.24215837  0.62521948  0.79264977  1
  O  O21  1  0.24215837  0.37478052  0.20735023  1
  O  O22  1  0.50000000  0.63393924  0.09247400  1
  O  O23  1  0.50000000  0.36606076  0.90752600  1
  O  O24  1  0.50000000  0.13393924  0.40752600  1
  O  O25  1  0.50000000  0.86606076  0.59247400  1
  O  O26  1  0.00000000  0.65475135  0.06381078  1
  O  O27  1  0.00000000  0.34524865  0.93618922  1
  O  O28  1  0.00000000  0.15475135  0.43618922  1
  O  O29  1  0.00000000  0.84524865  0.56381078  1
