# generated using pymatgen
data_Th2Zn17
_symmetry_space_group_name_H-M   'P 1'
_cell_length_a   6.85824547
_cell_length_b   6.85824576
_cell_length_c   6.85824548
_cell_angle_alpha   82.98781906
_cell_angle_beta   82.98781866
_cell_angle_gamma   82.98781378
_symmetry_Int_Tables_number   1
_chemical_formula_structural   Th2Zn17
_chemical_formula_sum   'Th2 Zn17'
_cell_volume   315.88725143
_cell_formula_units_Z   1
loop_
 _symmetry_equiv_pos_site_id
 _symmetry_equiv_pos_as_xyz
  1  'x, y, z'
loop_
 _atom_site_type_symbol
 _atom_site_label
 _atom_site_symmetry_multiplicity
 _atom_site_fract_x
 _atom_site_fract_y
 _atom_site_fract_z
 _atom_site_occupancy
  Th  Th0  1  0.33700809  0.33700809  0.33700809  1
  Th  Th1  1  0.66299191  0.66299191  0.66299191  1
  Zn  Zn2  1  0.00000000  0.00000000  0.50000000  1
  Zn  Zn3  1  0.50000000  0.00000000  0.00000000  1
  Zn  Zn4  1  0.00000000  0.50000000  0.00000000  1
  Zn  Zn5  1  0.29318557  0.70681443  0.00000000  1
  Zn  Zn6  1  1.00000000  0.29318557  0.70681443  1
  Zn  Zn7  1  0.70681443  0.00000000  0.29318557  1
  Zn  Zn8  1  0.70681443  0.29318557  1.00000000  1
  Zn  Zn9  1  0.00000000  0.70681443  0.29318557  1
  Zn  Zn10  1  0.29318557  1.00000000  0.70681443  1
  Zn  Zn11  1  0.64947811  0.16109031  0.64947811  1
  Zn  Zn12  1  0.64947811  0.64947811  0.16109031  1
  Zn  Zn13  1  0.16109031  0.64947811  0.64947811  1
  Zn  Zn14  1  0.83890969  0.35052189  0.35052189  1
  Zn  Zn15  1  0.35052189  0.83890969  0.35052189  1
  Zn  Zn16  1  0.35052189  0.35052189  0.83890969  1
  Zn  Zn17  1  0.09857830  0.09857830  0.09857830  1
  Zn  Zn18  1  0.90142170  0.90142170  0.90142170  1
