# generated using pymatgen
data_Ca2B5Os3
_symmetry_space_group_name_H-M   'P 1'
_cell_length_a   4.07167690
_cell_length_b   5.64418152
_cell_length_c   6.99876893
_cell_angle_alpha   77.20529930
_cell_angle_beta   73.09030217
_cell_angle_gamma   68.85867370
_symmetry_Int_Tables_number   1
_chemical_formula_structural   Ca2B5Os3
_chemical_formula_sum   'Ca2 B5 Os3'
_cell_volume   142.29959231
_cell_formula_units_Z   1
loop_
 _symmetry_equiv_pos_site_id
 _symmetry_equiv_pos_as_xyz
  1  'x, y, z'
loop_
 _atom_site_type_symbol
 _atom_site_label
 _atom_site_symmetry_multiplicity
 _atom_site_fract_x
 _atom_site_fract_y
 _atom_site_fract_z
 _atom_site_occupancy
  Os  Os0  1  0.00716681  -0.00001596  -0.00000849  1
  Os  Os1  1  0.87934847  0.13249414  0.59639827  1
  Os  Os2  1  0.60815281  0.86747629  0.40361051  1
  Ca  Ca3  1  0.08675349  0.54876367  0.75841725  1
  Ca  Ca4  1  0.39394680  0.45119610  0.24159846  1
  B  B5  1  0.73794526  0.49999521  0.49996839  1
  B  B6  1  0.46624063  0.94989854  0.12248402  1
  B  B7  1  0.53869090  0.05010028  0.87753104  1
  B  B8  1  0.37352231  0.01124298  0.68982487  1
  B  B9  1  0.07463252  0.98884875  0.31017567  1
