# generated using pymatgen
data_Zn2BO4
_symmetry_space_group_name_H-M   'P 1'
_cell_length_a   3.21562857
_cell_length_b   9.46417061
_cell_length_c   9.34204675
_cell_angle_alpha   90.00000000
_cell_angle_beta   90.00000000
_cell_angle_gamma   90.00000000
_symmetry_Int_Tables_number   1
_chemical_formula_structural   Zn2BO4
_chemical_formula_sum   'Zn8 B4 O16'
_cell_volume   284.30891343
_cell_formula_units_Z   4
loop_
 _symmetry_equiv_pos_site_id
 _symmetry_equiv_pos_as_xyz
  1  'x, y, z'
loop_
 _atom_site_type_symbol
 _atom_site_label
 _atom_site_symmetry_multiplicity
 _atom_site_fract_x
 _atom_site_fract_y
 _atom_site_fract_z
 _atom_site_occupancy
  Zn  Zn0  1  0.75000000  0.87940785  0.92979768  1
  Zn  Zn1  1  0.25000000  0.12059215  0.07020232  1
  Zn  Zn2  1  0.25000000  0.62059215  0.42979768  1
  Zn  Zn3  1  0.75000000  0.37940785  0.57020232  1
  Zn  Zn4  1  0.75000000  0.89535274  0.30860488  1
  Zn  Zn5  1  0.25000000  0.10464726  0.69139512  1
  Zn  Zn6  1  0.25000000  0.60464726  0.80860488  1
  Zn  Zn7  1  0.75000000  0.39535274  0.19139512  1
  B  B8  1  0.75000000  0.83611093  0.62314181  1
  B  B9  1  0.25000000  0.16388907  0.37685819  1
  B  B10  1  0.25000000  0.66388907  0.12314181  1
  B  B11  1  0.75000000  0.33611093  0.87685819  1
  O  O12  1  0.75000000  0.75734074  0.74894958  1
  O  O13  1  0.25000000  0.24265926  0.25105042  1
  O  O14  1  0.25000000  0.74265926  0.24894958  1
  O  O15  1  0.75000000  0.25734074  0.75105042  1
  O  O16  1  0.75000000  0.76981029  0.49061478  1
  O  O17  1  0.25000000  0.23018971  0.50938522  1
  O  O18  1  0.25000000  0.73018971  0.99061478  1
  O  O19  1  0.75000000  0.26981029  0.00938522  1
  O  O20  1  0.75000000  0.98096854  0.62915508  1
  O  O21  1  0.25000000  0.01903146  0.37084492  1
  O  O22  1  0.25000000  0.51903146  0.12915508  1
  O  O23  1  0.75000000  0.48096854  0.87084492  1
  O  O24  1  0.75000000  0.48831191  0.38450106  1
  O  O25  1  0.25000000  0.51168809  0.61549894  1
  O  O26  1  0.25000000  0.01168809  0.88450106  1
  O  O27  1  0.75000000  0.98831191  0.11549894  1
