# generated using pymatgen
data_MnGaH4O2F5
_symmetry_space_group_name_H-M   'P 1'
_cell_length_a   6.65950344
_cell_length_b   7.46011412
_cell_length_c   7.46011303
_cell_angle_alpha   61.53436296
_cell_angle_beta   63.49085245
_cell_angle_gamma   63.49085191
_symmetry_Int_Tables_number   1
_chemical_formula_structural   MnGaH4O2F5
_chemical_formula_sum   'Mn2 Ga2 H8 O4 F10'
_cell_volume   278.40974975
_cell_formula_units_Z   2
loop_
 _symmetry_equiv_pos_site_id
 _symmetry_equiv_pos_as_xyz
  1  'x, y, z'
loop_
 _atom_site_type_symbol
 _atom_site_label
 _atom_site_symmetry_multiplicity
 _atom_site_fract_x
 _atom_site_fract_y
 _atom_site_fract_z
 _atom_site_occupancy
  Ga  Ga0  1  0.50000000  0.00000000  0.50000000  1
  Ga  Ga1  1  0.50000000  0.50000000  0.00000000  1
  Mn  Mn2  1  0.00000000  0.50000000  0.50000000  1
  Mn  Mn3  1  0.50000000  0.00000000  0.00000000  1
  F  F4  1  0.57424935  0.08966292  0.65796344  1
  F  F5  1  0.82187571  0.41033708  0.84203656  1
  F  F6  1  0.42575065  0.34203656  0.91033708  1
  F  F7  1  0.17812429  0.15796344  0.58966292  1
  F  F8  1  0.42575065  0.91033708  0.34203656  1
  F  F9  1  0.17812429  0.58966292  0.15796344  1
  F  F10  1  0.57424935  0.65796344  0.08966292  1
  F  F11  1  0.82187571  0.84203656  0.41033708  1
  F  F12  1  0.56487056  0.25000000  0.25000000  1
  F  F13  1  0.43512944  0.75000000  0.75000000  1
  O  O14  1  0.87648262  0.92119217  0.92119217  1
  O  O15  1  0.21886697  0.57880783  0.57880783  1
  O  O16  1  0.12351738  0.07880783  0.07880783  1
  O  O17  1  0.78113303  0.42119217  0.42119217  1
  H  H18  1  0.02119472  0.99536061  0.20134922  1
  H  H19  1  0.71790456  0.50463939  0.29865078  1
  H  H20  1  0.97880528  0.79865078  0.00463939  1
  H  H21  1  0.28209544  0.70134922  0.49536061  1
  H  H22  1  0.97880528  0.00463939  0.79865078  1
  H  H23  1  0.28209544  0.49536061  0.70134922  1
  H  H24  1  0.02119472  0.20134922  0.99536061  1
  H  H25  1  0.71790456  0.29865078  0.50463939  1
