# generated using pymatgen
data_CdBiClO2
_symmetry_space_group_name_H-M   'P 1'
_cell_length_a   4.24651315
_cell_length_b   6.29125124
_cell_length_c   7.66067681
_cell_angle_alpha   98.16410460
_cell_angle_beta   90.00000000
_cell_angle_gamma   90.00000000
_symmetry_Int_Tables_number   1
_chemical_formula_structural   CdBiClO2
_chemical_formula_sum   'Cd2 Bi2 Cl2 O4'
_cell_volume   202.58756446
_cell_formula_units_Z   2
loop_
 _symmetry_equiv_pos_site_id
 _symmetry_equiv_pos_as_xyz
  1  'x, y, z'
loop_
 _atom_site_type_symbol
 _atom_site_label
 _atom_site_symmetry_multiplicity
 _atom_site_fract_x
 _atom_site_fract_y
 _atom_site_fract_z
 _atom_site_occupancy
  Cd  Cd0  1  0.75000000  0.65311194  0.89619227  1
  O  O1  1  0.25000000  0.50998587  0.85565788  1
  O  O2  1  0.75000000  0.49001415  0.14434224  1
  Cl  Cl3  1  0.25000000  0.97759195  0.20257573  1
  O  O4  1  0.75000000  0.45393230  0.59374779  1
  Cl  Cl5  1  0.75000000  0.02240772  0.79742381  1
  Bi  Bi6  1  0.25000000  0.31422346  0.60193953  1
  O  O7  1  0.25000000  0.54606784  0.40625222  1
  Bi  Bi8  1  0.75000000  0.68577673  0.39806058  1
  Cd  Cd9  1  0.25000000  0.34688803  0.10380795  1
