# generated using pymatgen
data_Ge3Pt2
_symmetry_space_group_name_H-M   'P 1'
_cell_length_a   3.45144903
_cell_length_b   6.31267426
_cell_length_c   16.61627622
_cell_angle_alpha   90.00000000
_cell_angle_beta   90.00000000
_cell_angle_gamma   90.00000000
_symmetry_Int_Tables_number   1
_chemical_formula_structural   Ge3Pt2
_chemical_formula_sum   'Ge12 Pt8'
_cell_volume   362.03332351
_cell_formula_units_Z   4
loop_
 _symmetry_equiv_pos_site_id
 _symmetry_equiv_pos_as_xyz
  1  'x, y, z'
loop_
 _atom_site_type_symbol
 _atom_site_label
 _atom_site_symmetry_multiplicity
 _atom_site_fract_x
 _atom_site_fract_y
 _atom_site_fract_z
 _atom_site_occupancy
  Ge  Ge0  1  0.25000000  0.94146922  0.42887296  1
  Ge  Ge1  1  0.25000000  0.84132440  0.73140099  1
  Ge  Ge2  1  0.75000000  0.05853078  0.57112704  1
  Ge  Ge3  1  0.25000000  0.55853078  0.92887296  1
  Ge  Ge4  1  0.75000000  0.41488810  0.38744281  1
  Ge  Ge5  1  0.25000000  0.58511190  0.61255719  1
  Ge  Ge6  1  0.75000000  0.44146922  0.07112704  1
  Ge  Ge7  1  0.75000000  0.34132440  0.76859901  1
  Ge  Ge8  1  0.75000000  0.15867560  0.26859901  1
  Ge  Ge9  1  0.25000000  0.65867560  0.23140099  1
  Ge  Ge10  1  0.75000000  0.08511190  0.88744281  1
  Ge  Ge11  1  0.25000000  0.91488810  0.11255719  1
  Pt  Pt12  1  0.25000000  0.20632015  0.67041008  1
  Pt  Pt13  1  0.25000000  0.19569627  0.99319026  1
  Pt  Pt14  1  0.25000000  0.29367985  0.17041008  1
  Pt  Pt15  1  0.75000000  0.69569627  0.50680974  1
  Pt  Pt16  1  0.25000000  0.30430373  0.49319026  1
  Pt  Pt17  1  0.75000000  0.70632015  0.82958992  1
  Pt  Pt18  1  0.75000000  0.79367985  0.32958992  1
  Pt  Pt19  1  0.75000000  0.80430373  0.00680974  1
