# generated using pymatgen
data_Ba2CaTeO6
_symmetry_space_group_name_H-M   'P 1'
_cell_length_a   6.01652326
_cell_length_b   6.01652009
_cell_length_c   6.01652291
_cell_angle_alpha   59.99994797
_cell_angle_beta   60.00000082
_cell_angle_gamma   59.99998209
_symmetry_Int_Tables_number   1
_chemical_formula_structural   Ba2CaTeO6
_chemical_formula_sum   'Ba2 Ca1 Te1 O6'
_cell_volume   154.00021274
_cell_formula_units_Z   1
loop_
 _symmetry_equiv_pos_site_id
 _symmetry_equiv_pos_as_xyz
  1  'x, y, z'
loop_
 _atom_site_type_symbol
 _atom_site_label
 _atom_site_symmetry_multiplicity
 _atom_site_fract_x
 _atom_site_fract_y
 _atom_site_fract_z
 _atom_site_occupancy
  O  O0  1  0.27007062  0.72992947  0.72992930  1
  O  O1  1  0.27007056  0.27007039  0.72992947  1
  O  O2  1  0.72992958  0.27007039  0.72992947  1
  Ba  Ba3  1  0.75000025  0.74999969  0.74999982  1
  Ba  Ba4  1  0.24999987  0.25000034  0.24999993  1
  O  O5  1  0.27007044  0.72992945  0.27007059  1
  O  O6  1  0.72992952  0.72992945  0.27007059  1
  Te  Te7  1  0.49999991  0.50000015  0.50000004  1
  Ca  Ca8  1  0.99999994  0.00000004  0.00000007  1
  O  O9  1  0.72992931  0.27007064  0.27007073  1
