# generated using pymatgen
data_Sn3PO4F3
_symmetry_space_group_name_H-M   'P 1'
_cell_length_a   7.19989175
_cell_length_b   7.19994232
_cell_length_c   7.19993281
_cell_angle_alpha   115.37404527
_cell_angle_beta   115.37292583
_cell_angle_gamma   115.37335510
_symmetry_Int_Tables_number   1
_chemical_formula_structural   Sn3PO4F3
_chemical_formula_sum   'Sn3 P1 O4 F3'
_cell_volume   201.59833717
_cell_formula_units_Z   1
loop_
 _symmetry_equiv_pos_site_id
 _symmetry_equiv_pos_as_xyz
  1  'x, y, z'
loop_
 _atom_site_type_symbol
 _atom_site_label
 _atom_site_symmetry_multiplicity
 _atom_site_fract_x
 _atom_site_fract_y
 _atom_site_fract_z
 _atom_site_occupancy
  F  F0  1  0.82450637  0.36114358  0.48464249  1
  Sn  Sn1  1  0.27668194  0.62841024  0.62747425  1
  O  O2  1  0.67461881  0.67461850  0.67461918  1
  O  O3  1  0.96435223  0.17540414  0.17517133  1
  F  F4  1  0.36114446  0.48464734  0.82450983  1
  P  P5  1  0.00859278  0.00859379  0.00859320  1
  O  O6  1  0.17517101  0.96434955  0.17540451  1
  Sn  Sn7  1  0.62840856  0.62747427  0.27667953  1
  Sn  Sn8  1  0.62747462  0.27668139  0.62840808  1
  O  O9  1  0.17540580  0.17516969  0.96435266  1
  F  F10  1  0.48464343  0.82450750  0.36114495  1
