# generated using pymatgen
data_BaBiIO2
_symmetry_space_group_name_H-M   'P 1'
_cell_length_a   5.92634570
_cell_length_b   6.17190331
_cell_length_c   7.89440197
_cell_angle_alpha   113.01223799
_cell_angle_beta   90.00002731
_cell_angle_gamma   89.99994412
_symmetry_Int_Tables_number   1
_chemical_formula_structural   BaBiIO2
_chemical_formula_sum   'Ba2 Bi2 I2 O4'
_cell_volume   265.77371522
_cell_formula_units_Z   2
loop_
 _symmetry_equiv_pos_site_id
 _symmetry_equiv_pos_as_xyz
  1  'x, y, z'
loop_
 _atom_site_type_symbol
 _atom_site_label
 _atom_site_symmetry_multiplicity
 _atom_site_fract_x
 _atom_site_fract_y
 _atom_site_fract_z
 _atom_site_occupancy
  Ba  Ba0  1  0.74999711  0.39869330  0.79737090  1
  Bi  Bi1  1  0.24999991  0.93262003  0.86550068  1
  I  I2  1  0.75000046  0.74803756  0.49603460  1
  O  O3  1  0.50001462  0.77645157  0.00002266  1
  Bi  Bi4  1  0.75000026  0.06737977  0.13449939  1
  I  I5  1  0.24999958  0.25196212  0.50396590  1
  O  O6  1  0.49998501  0.22354828  0.99997772  1
  O  O7  1  0.00001460  0.22354860  0.99997711  1
  Ba  Ba8  1  0.25000345  0.60130724  0.20262851  1
  O  O9  1  0.99998498  0.77645154  0.00002253  1
