# generated using pymatgen
data_KLiZnO2
_symmetry_space_group_name_H-M   'P 1'
_cell_length_a   3.38706703
_cell_length_b   5.73792464
_cell_length_c   7.52357405
_cell_angle_alpha   76.56796440
_cell_angle_beta   76.98628586
_cell_angle_gamma   72.83607440
_symmetry_Int_Tables_number   1
_chemical_formula_structural   KLiZnO2
_chemical_formula_sum   'K2 Li2 Zn2 O4'
_cell_volume   133.94123807
_cell_formula_units_Z   2
loop_
 _symmetry_equiv_pos_site_id
 _symmetry_equiv_pos_as_xyz
  1  'x, y, z'
loop_
 _atom_site_type_symbol
 _atom_site_label
 _atom_site_symmetry_multiplicity
 _atom_site_fract_x
 _atom_site_fract_y
 _atom_site_fract_z
 _atom_site_occupancy
  Li  Li0  1  0.65887963  0.62724273  0.05499258  1
  O  O1  1  0.53859831  0.22951349  0.69335493  1
  O  O2  1  0.46140201  0.77048638  0.30664495  1
  Zn  Zn3  1  0.95588058  0.90576967  0.18245868  1
  Zn  Zn4  1  0.04411959  0.09423031  0.81754131  1
  O  O5  1  0.16201507  0.73812906  0.93785059  1
  Li  Li6  1  0.34112050  0.37275718  0.94500742  1
  K  K7  1  0.16334846  0.30295727  0.37006764  1
  K  K8  1  0.83665080  0.69704300  0.62993256  1
  O  O9  1  0.83798504  0.26187090  0.06214935  1
