# generated using pymatgen
data_Sr2I2O
_symmetry_space_group_name_H-M   'P 1'
_cell_length_a   6.55072672
_cell_length_b   7.67619317
_cell_length_c   8.27341004
_cell_angle_alpha   117.63944156
_cell_angle_beta   113.32054360
_cell_angle_gamma   90.00775113
_symmetry_Int_Tables_number   1
_chemical_formula_structural   Sr2I2O
_chemical_formula_sum   'Sr4 I4 O2'
_cell_volume   329.69190632
_cell_formula_units_Z   2
loop_
 _symmetry_equiv_pos_site_id
 _symmetry_equiv_pos_as_xyz
  1  'x, y, z'
loop_
 _atom_site_type_symbol
 _atom_site_label
 _atom_site_symmetry_multiplicity
 _atom_site_fract_x
 _atom_site_fract_y
 _atom_site_fract_z
 _atom_site_occupancy
  Sr  Sr0  1  0.91157359  0.58207458  0.82312382  1
  Sr  Sr1  1  0.08842657  0.41792591  0.17687668  1
  Sr  Sr2  1  0.58845780  0.75897817  0.17687796  1
  I  I3  1  0.34939214  0.70162526  0.69881404  1
  O  O4  1  0.25000567  0.49999605  0.99999715  1
  Sr  Sr5  1  0.41154194  0.24102104  0.82312151  1
  I  I6  1  0.84946889  0.99715473  0.69890261  1
  I  I7  1  0.65060792  0.29837483  0.30118598  1
  I  I8  1  0.15053121  0.00284565  0.30109761  1
  O  O9  1  0.74999427  0.50000377  0.00000265  1
