# generated using pymatgen
data_NbTlBr4O
_symmetry_space_group_name_H-M   'P 1'
_cell_length_a   4.08294967
_cell_length_b   7.25835869
_cell_length_c   7.84046275
_cell_angle_alpha   106.29120981
_cell_angle_beta   90.00000000
_cell_angle_gamma   106.33532826
_symmetry_Int_Tables_number   1
_chemical_formula_structural   NbTlBr4O
_chemical_formula_sum   'Nb1 Tl1 Br4 O1'
_cell_volume   213.23692640
_cell_formula_units_Z   1
loop_
 _symmetry_equiv_pos_site_id
 _symmetry_equiv_pos_as_xyz
  1  'x, y, z'
loop_
 _atom_site_type_symbol
 _atom_site_label
 _atom_site_symmetry_multiplicity
 _atom_site_fract_x
 _atom_site_fract_y
 _atom_site_fract_z
 _atom_site_occupancy
  O  O0  1  0.99520759  0.00000000  0.50000000  1
  Tl  Tl1  1  1.00031261  0.00000000  0.00000000  1
  Br  Br2  1  0.62542033  0.27696032  0.79989612  1
  Br  Br3  1  0.35254435  0.73199797  0.66455904  1
  Br  Br4  1  0.34846001  0.72303968  0.20010388  1
  Br  Br5  1  0.62054637  0.26800203  0.33544096  1
  Nb  Nb6  1  0.55680875  0.00000000  0.50000000  1
