# generated using pymatgen
data_Ba2TbBiO6
_symmetry_space_group_name_H-M   'P 1'
_cell_length_a   6.16524930
_cell_length_b   6.16068176
_cell_length_c   6.17191192
_cell_angle_alpha   60.26423001
_cell_angle_beta   60.03567620
_cell_angle_gamma   59.97543693
_symmetry_Int_Tables_number   1
_chemical_formula_structural   Ba2TbBiO6
_chemical_formula_sum   'Ba2 Tb1 Bi1 O6'
_cell_volume   166.10406830
_cell_formula_units_Z   1
loop_
 _symmetry_equiv_pos_site_id
 _symmetry_equiv_pos_as_xyz
  1  'x, y, z'
loop_
 _atom_site_type_symbol
 _atom_site_label
 _atom_site_symmetry_multiplicity
 _atom_site_fract_x
 _atom_site_fract_y
 _atom_site_fract_z
 _atom_site_occupancy
  O  O0  1  0.71614979  0.27099975  0.78553858  1
  O  O1  1  0.77268749  0.72899963  0.21446215  1
  O  O2  1  0.22731260  0.27100011  0.78553803  1
  Ba  Ba3  1  0.75095549  0.25217722  0.24591072  1
  O  O4  1  0.74310546  0.81022478  0.70356442  1
  O  O5  1  0.25689469  0.18977506  0.29643586  1
  Tb  Tb6  1  0.00000007  0.49999997  0.50000004  1
  Ba  Ba7  1  0.24904404  0.74782330  0.75408884  1
  O  O8  1  0.28385026  0.72900025  0.21446142  1
  Bi  Bi9  1  0.50000010  0.99999993  0.99999994  1
