# generated using pymatgen
data_YClO
_symmetry_space_group_name_H-M   'P 1'
_cell_length_a   9.83854088
_cell_length_b   9.83854088
_cell_length_c   9.83854100
_cell_angle_alpha   22.43170619
_cell_angle_beta   22.43170613
_cell_angle_gamma   22.43170651
_symmetry_Int_Tables_number   1
_chemical_formula_structural   YClO
_chemical_formula_sum   'Y2 Cl2 O2'
_cell_volume   121.62087073
_cell_formula_units_Z   2
loop_
 _symmetry_equiv_pos_site_id
 _symmetry_equiv_pos_as_xyz
  1  'x, y, z'
loop_
 _atom_site_type_symbol
 _atom_site_label
 _atom_site_symmetry_multiplicity
 _atom_site_fract_x
 _atom_site_fract_y
 _atom_site_fract_z
 _atom_site_occupancy
  Cl  Cl0  1  0.88932551  0.88932551  0.88932551  1
  Y  Y1  1  0.71678117  0.71678117  0.71678117  1
  O  O2  1  0.36314366  0.36314366  0.36314366  1
  Y  Y3  1  0.28321878  0.28321878  0.28321878  1
  Cl  Cl4  1  0.11067459  0.11067459  0.11067459  1
  O  O5  1  0.63685630  0.63685630  0.63685630  1
