# generated using pymatgen
data_Ba2I2O
_symmetry_space_group_name_H-M   'P 1'
_cell_length_a   6.91643901
_cell_length_b   7.72003343
_cell_length_c   8.76311841
_cell_angle_alpha   116.13773168
_cell_angle_beta   113.24243718
_cell_angle_gamma   89.99942669
_symmetry_Int_Tables_number   1
_chemical_formula_structural   Ba2I2O
_chemical_formula_sum   'Ba4 I4 O2'
_cell_volume   377.30020300
_cell_formula_units_Z   2
loop_
 _symmetry_equiv_pos_site_id
 _symmetry_equiv_pos_as_xyz
  1  'x, y, z'
loop_
 _atom_site_type_symbol
 _atom_site_label
 _atom_site_symmetry_multiplicity
 _atom_site_fract_x
 _atom_site_fract_y
 _atom_site_fract_z
 _atom_site_occupancy
  I  I0  1  0.34995741  0.69289243  0.69993224  1
  I  I1  1  0.85010473  0.00692570  0.69993607  1
  Ba  Ba2  1  0.40712712  0.23286157  0.81419633  1
  I  I3  1  0.14989525  0.99307426  0.30006389  1
  Ba  Ba4  1  0.59287306  0.76713834  0.18580368  1
  O  O5  1  0.25000062  0.50000182  0.00000233  1
  Ba  Ba6  1  0.09288855  0.41865944  0.18579311  1
  I  I7  1  0.65004240  0.30710763  0.30006782  1
  Ba  Ba8  1  0.90711124  0.58134067  0.81420699  1
  O  O9  1  0.74999960  0.49999813  0.99999753  1
