# generated using pymatgen
data_SrPrO3
_symmetry_space_group_name_H-M   'P 1'
_cell_length_a   6.17982216
_cell_length_b   6.39369426
_cell_length_c   8.88746643
_cell_angle_alpha   90.00000000
_cell_angle_beta   90.00000000
_cell_angle_gamma   90.00000000
_symmetry_Int_Tables_number   1
_chemical_formula_structural   SrPrO3
_chemical_formula_sum   'Sr4 Pr4 O12'
_cell_volume   351.16062682
_cell_formula_units_Z   4
loop_
 _symmetry_equiv_pos_site_id
 _symmetry_equiv_pos_as_xyz
  1  'x, y, z'
loop_
 _atom_site_type_symbol
 _atom_site_label
 _atom_site_symmetry_multiplicity
 _atom_site_fract_x
 _atom_site_fract_y
 _atom_site_fract_z
 _atom_site_occupancy
  O  O0  1  0.70303949  0.29577434  0.42799398  1
  O  O1  1  0.20303949  0.20422566  0.57200602  1
  O  O2  1  0.79696051  0.79577434  0.07200602  1
  O  O3  1  0.29696051  0.70422566  0.92799398  1
  O  O4  1  0.29696051  0.70422566  0.57200602  1
  O  O5  1  0.79696051  0.79577434  0.42799398  1
  O  O6  1  0.20303949  0.20422566  0.92799398  1
  O  O7  1  0.70303949  0.29577434  0.07200602  1
  O  O8  1  0.13119457  0.43624041  0.25000000  1
  O  O9  1  0.63119457  0.06375959  0.75000000  1
  O  O10  1  0.36880543  0.93624041  0.25000000  1
  O  O11  1  0.86880543  0.56375959  0.75000000  1
  Sr  Sr12  1  0.97742865  0.05323505  0.25000000  1
  Sr  Sr13  1  0.47742865  0.44676495  0.75000000  1
  Sr  Sr14  1  0.52257135  0.55323505  0.25000000  1
  Sr  Sr15  1  0.02257135  0.94676495  0.75000000  1
  Pr  Pr16  1  0.00000000  0.50000000  0.00000000  1
  Pr  Pr17  1  0.50000000  0.00000000  0.00000000  1
  Pr  Pr18  1  0.50000000  0.00000000  0.50000000  1
  Pr  Pr19  1  0.00000000  0.50000000  0.50000000  1
