# generated using pymatgen
data_SrBiBrO2
_symmetry_space_group_name_H-M   'P 1'
_cell_length_a   5.73557009
_cell_length_b   5.85980666
_cell_length_c   7.21031788
_cell_angle_alpha   113.97681374
_cell_angle_beta   89.99998613
_cell_angle_gamma   90.00000435
_symmetry_Int_Tables_number   1
_chemical_formula_structural   SrBiBrO2
_chemical_formula_sum   'Sr2 Bi2 Br2 O4'
_cell_volume   221.42296351
_cell_formula_units_Z   2
loop_
 _symmetry_equiv_pos_site_id
 _symmetry_equiv_pos_as_xyz
  1  'x, y, z'
loop_
 _atom_site_type_symbol
 _atom_site_label
 _atom_site_symmetry_multiplicity
 _atom_site_fract_x
 _atom_site_fract_y
 _atom_site_fract_z
 _atom_site_occupancy
  Bi  Bi0  1  0.74999990  0.07774418  0.15536601  1
  O  O1  1  0.00002895  0.23391631  0.99996506  1
  O  O2  1  0.50002952  0.76608356  0.00003485  1
  Sr  Sr3  1  0.24999967  0.60101796  0.20203805  1
  Sr  Sr4  1  0.75000037  0.39898178  0.79796116  1
  O  O5  1  0.99997090  0.76608375  0.00003530  1
  Br  Br6  1  0.24999975  0.25478720  0.50939910  1
  Br  Br7  1  0.75000011  0.74521296  0.49060107  1
  Bi  Bi8  1  0.25000007  0.92225595  0.84463431  1
  O  O9  1  0.49997076  0.23391637  0.99996508  1
