# generated using pymatgen
data_SrBiIO2
_symmetry_space_group_name_H-M   'P 1'
_cell_length_a   5.82327017
_cell_length_b   5.95006435
_cell_length_c   7.54492975
_cell_angle_alpha   113.22356633
_cell_angle_beta   89.99991864
_cell_angle_gamma   90.00000708
_symmetry_Int_Tables_number   1
_chemical_formula_structural   SrBiIO2
_chemical_formula_sum   'Sr2 Bi2 I2 O4'
_cell_volume   240.24074329
_cell_formula_units_Z   2
loop_
 _symmetry_equiv_pos_site_id
 _symmetry_equiv_pos_as_xyz
  1  'x, y, z'
loop_
 _atom_site_type_symbol
 _atom_site_label
 _atom_site_symmetry_multiplicity
 _atom_site_fract_x
 _atom_site_fract_y
 _atom_site_fract_z
 _atom_site_occupancy
  Bi  Bi0  1  0.24999978  0.92724920  0.85434257  1
  O  O1  1  0.49998742  0.76734489  0.99998873  1
  Bi  Bi2  1  0.74999947  0.07275118  0.14565789  1
  Sr  Sr3  1  0.24999908  0.59301133  0.18599968  1
  Sr  Sr4  1  0.75000257  0.40698745  0.81399866  1
  O  O5  1  0.00001239  0.76734521  0.99998885  1
  I  I6  1  0.25000004  0.25516656  0.51035146  1
  I  I7  1  0.75000007  0.74483420  0.48964911  1
  O  O8  1  0.99998704  0.23265482  0.00001178  1
  O  O9  1  0.50001214  0.23265516  0.00001127  1
