# generated using pymatgen
data_LaCuSeO
_symmetry_space_group_name_H-M   'P 1'
_cell_length_a   4.06950405
_cell_length_b   4.06951946
_cell_length_c   8.82454033
_cell_angle_alpha   90.00000000
_cell_angle_beta   90.00000000
_cell_angle_gamma   90.00000000
_symmetry_Int_Tables_number   1
_chemical_formula_structural   LaCuSeO
_chemical_formula_sum   'La2 Cu2 Se2 O2'
_cell_volume   146.14255872
_cell_formula_units_Z   2
loop_
 _symmetry_equiv_pos_site_id
 _symmetry_equiv_pos_as_xyz
  1  'x, y, z'
loop_
 _atom_site_type_symbol
 _atom_site_label
 _atom_site_symmetry_multiplicity
 _atom_site_fract_x
 _atom_site_fract_y
 _atom_site_fract_z
 _atom_site_occupancy
  O  O0  1  0.25000000  0.75000000  0.00000248  1
  O  O1  1  0.75000000  0.25000000  1.00000200  1
  La  La2  1  0.75000000  0.75000000  0.85997853  1
  La  La3  1  0.25000000  0.25000000  0.14003138  1
  Cu  Cu4  1  0.25000000  0.75000000  0.49999218  1
  Se  Se5  1  0.75000000  0.75000000  0.33079407  1
  Cu  Cu6  1  0.75000000  0.25000000  0.50000227  1
  Se  Se7  1  0.25000000  0.25000000  0.66919708  1
