# generated using pymatgen
data_YBi2ClO4
_symmetry_space_group_name_H-M   'P 1'
_cell_length_a   3.90122948
_cell_length_b   3.90122948
_cell_length_c   9.04341699
_cell_angle_alpha   90.00000000
_cell_angle_beta   90.00000000
_cell_angle_gamma   90.00000000
_symmetry_Int_Tables_number   1
_chemical_formula_structural   YBi2ClO4
_chemical_formula_sum   'Y1 Bi2 Cl1 O4'
_cell_volume   137.63711195
_cell_formula_units_Z   1
loop_
 _symmetry_equiv_pos_site_id
 _symmetry_equiv_pos_as_xyz
  1  'x, y, z'
loop_
 _atom_site_type_symbol
 _atom_site_label
 _atom_site_symmetry_multiplicity
 _atom_site_fract_x
 _atom_site_fract_y
 _atom_site_fract_z
 _atom_site_occupancy
  Bi  Bi0  1  0.50000000  0.50000000  0.27862738  1
  O  O1  1  0.00000000  0.50000000  0.15409120  1
  O  O2  1  0.50000000  0.00000000  0.84590853  1
  O  O3  1  0.50000000  0.00000000  0.15409120  1
  O  O4  1  0.00000000  0.50000000  0.84590853  1
  Y  Y5  1  0.00000000  0.00000000  0.99999944  1
  Cl  Cl6  1  0.00000000  0.00000000  0.50000165  1
  Bi  Bi7  1  0.50000000  0.50000000  0.72137206  1
