# generated using pymatgen
data_ZnH7C4N3O7
_symmetry_space_group_name_H-M   'P 1'
_cell_length_a   7.09966156
_cell_length_b   10.90897088
_cell_length_c   12.40168716
_cell_angle_alpha   108.20127949
_cell_angle_beta   90.00000000
_cell_angle_gamma   90.00000000
_symmetry_Int_Tables_number   1
_chemical_formula_structural   ZnH7C4N3O7
_chemical_formula_sum   'Zn4 H28 C16 N12 O28'
_cell_volume   912.45160641
_cell_formula_units_Z   4
loop_
 _symmetry_equiv_pos_site_id
 _symmetry_equiv_pos_as_xyz
  1  'x, y, z'
loop_
 _atom_site_type_symbol
 _atom_site_label
 _atom_site_symmetry_multiplicity
 _atom_site_fract_x
 _atom_site_fract_y
 _atom_site_fract_z
 _atom_site_occupancy
  Zn  Zn0  1  0.19153294  0.16959595  0.95257154  1
  Zn  Zn1  1  0.80846706  0.83040405  0.04742846  1
  Zn  Zn2  1  0.69153294  0.33040405  0.54742846  1
  Zn  Zn3  1  0.30846706  0.66959595  0.45257154  1
  H  H4  1  0.84643978  0.95197281  0.89800047  1
  H  H5  1  0.15356022  0.04802719  0.10199953  1
  H  H6  1  0.34643978  0.54802719  0.60199953  1
  H  H7  1  0.65356022  0.45197281  0.39800047  1
  H  H8  1  0.60210471  0.71685037  0.60316437  1
  H  H9  1  0.39789529  0.28314963  0.39683563  1
  H  H10  1  0.10210471  0.78314963  0.89683563  1
  H  H11  1  0.89789529  0.21685037  0.10316437  1
  H  H12  1  0.52324759  0.09394193  0.81146173  1
  H  H13  1  0.47675241  0.90605807  0.18853827  1
  H  H14  1  0.02324759  0.40605807  0.68853827  1
  H  H15  1  0.97675241  0.59394193  0.31146173  1
  H  H16  1  0.54190597  0.07339331  0.93084977  1
  H  H17  1  0.45809403  0.92660669  0.06915023  1
  H  H18  1  0.04190597  0.42660669  0.56915023  1
  H  H19  1  0.95809403  0.57339331  0.43084977  1
  H  H20  1  0.15546236  0.71929629  0.99225596  1
  H  H21  1  0.84453764  0.28070371  0.00774404  1
  H  H22  1  0.65546236  0.78070371  0.50774404  1
  H  H23  1  0.34453764  0.21929629  0.49225596  1
  H  H24  1  0.19696403  0.66466313  0.64503442  1
  H  H25  1  0.80303597  0.33533687  0.35496558  1
  H  H26  1  0.69696403  0.83533687  0.85496558  1
  H  H27  1  0.30303597  0.16466313  0.14503442  1
  H  H28  1  0.14565156  0.15364100  0.71093211  1
  H  H29  1  0.85434844  0.84635900  0.28906789  1
  H  H30  1  0.64565156  0.34635900  0.78906789  1
  H  H31  1  0.35434844  0.65364100  0.21093211  1
  C  C32  1  0.16416778  0.39257267  0.86752575  1
  C  C33  1  0.83583222  0.60742733  0.13247425  1
  C  C34  1  0.66416778  0.10742733  0.63247425  1
  C  C35  1  0.33583222  0.89257267  0.36752575  1
  C  C36  1  0.23650198  0.44563252  0.98622251  1
  C  C37  1  0.76349802  0.55436748  0.01377749  1
  C  C38  1  0.73650198  0.05436748  0.51377749  1
  C  C39  1  0.26349802  0.94563252  0.48622251  1
  C  C40  1  0.11981308  0.91027766  0.75329855  1
  C  C41  1  0.88018692  0.08972234  0.24670145  1
  C  C42  1  0.61981308  0.58972234  0.74670145  1
  C  C43  1  0.38018692  0.41027766  0.25329855  1
  C  C44  1  0.17420995  0.94583654  0.65001912  1
  C  C45  1  0.82579005  0.05416346  0.34998088  1
  C  C46  1  0.67420995  0.55416346  0.84998088  1
  C  C47  1  0.32579005  0.44583654  0.15001912  1
  N  N48  1  0.23197124  0.07029322  0.54217380  1
  N  N49  1  0.76802876  0.92970678  0.45782620  1
  N  N50  1  0.73197124  0.42970678  0.95782620  1
  N  N51  1  0.26802876  0.57029322  0.04217380  1
  N  N52  1  0.22960054  0.86637285  0.54940566  1
  N  N53  1  0.77039946  0.13362715  0.45059434  1
  N  N54  1  0.72960054  0.63362715  0.95059434  1
  N  N55  1  0.27039946  0.36637285  0.04940566  1
  N  N56  1  0.17413641  0.06795554  0.64472051  1
  N  N57  1  0.82586359  0.93204446  0.35527949  1
  N  N58  1  0.67413641  0.43204446  0.85527949  1
  N  N59  1  0.32586359  0.56795554  0.14472051  1
  O  O60  1  0.12963702  0.46790374  0.81177756  1
  O  O61  1  0.87036298  0.53209626  0.18822244  1
  O  O62  1  0.62963702  0.03209626  0.68822244  1
  O  O63  1  0.37036298  0.96790374  0.31177756  1
  O  O64  1  0.13971792  0.26926018  0.83399113  1
  O  O65  1  0.86028208  0.73073982  0.16600887  1
  O  O66  1  0.63971792  0.23073982  0.66600887  1
  O  O67  1  0.36028208  0.76926018  0.33399113  1
  O  O68  1  0.23504498  0.58842003  0.57847709  1
  O  O69  1  0.76495502  0.41157997  0.42152291  1
  O  O70  1  0.73504498  0.91157997  0.92152291  1
  O  O71  1  0.26495502  0.08842003  0.07847709  1
  O  O72  1  0.06385937  0.00186994  0.83960949  1
  O  O73  1  0.93614063  0.99813006  0.16039051  1
  O  O74  1  0.56385937  0.49813006  0.66039051  1
  O  O75  1  0.43614063  0.50186994  0.33960949  1
  O  O76  1  0.58999460  0.70716825  0.52126471  1
  O  O77  1  0.41000540  0.29283175  0.47873529  1
  O  O78  1  0.08999460  0.79283175  0.97873529  1
  O  O79  1  0.91000540  0.20716825  0.02126471  1
  O  O80  1  0.46939348  0.12191716  0.89073672  1
  O  O81  1  0.53060652  0.87808284  0.10926328  1
  O  O82  1  0.96939348  0.37808284  0.60926328  1
  O  O83  1  0.03060652  0.62191716  0.39073672  1
  O  O84  1  0.12738797  0.79318111  0.74849753  1
  O  O85  1  0.87261203  0.20681889  0.25150247  1
  O  O86  1  0.62738797  0.70681889  0.75150247  1
  O  O87  1  0.37261203  0.29318111  0.24849753  1
