# generated using pymatgen
data_Sr2CuBrO2
_symmetry_space_group_name_H-M   'P 1'
_cell_length_a   9.83491836
_cell_length_b   9.83491837
_cell_length_c   9.83491883
_cell_angle_alpha   23.91360421
_cell_angle_beta   23.91360408
_cell_angle_gamma   23.91360098
_symmetry_Int_Tables_number   1
_chemical_formula_structural   Sr2CuBrO2
_chemical_formula_sum   'Sr2 Cu1 Br1 O2'
_cell_volume   137.33377584
_cell_formula_units_Z   1
loop_
 _symmetry_equiv_pos_site_id
 _symmetry_equiv_pos_as_xyz
  1  'x, y, z'
loop_
 _atom_site_type_symbol
 _atom_site_label
 _atom_site_symmetry_multiplicity
 _atom_site_fract_x
 _atom_site_fract_y
 _atom_site_fract_z
 _atom_site_occupancy
  Sr  Sr0  1  0.25299946  0.25299946  0.25299946  1
  Sr  Sr1  1  0.74700054  0.74700054  0.74700054  1
  O  O2  1  0.43638810  0.43638810  0.43638810  1
  O  O3  1  0.56361190  0.56361190  0.56361190  1
  Br  Br4  1  0.00000000  0.00000000  0.00000000  1
  Cu  Cu5  1  0.50000000  0.50000000  0.50000000  1
