# generated using pymatgen
data_KAlO2
_symmetry_space_group_name_H-M   'P 1'
_cell_length_a   5.49875877
_cell_length_b   11.03734426
_cell_length_c   15.63495622
_cell_angle_alpha   90.00000000
_cell_angle_beta   90.00000000
_cell_angle_gamma   90.00000000
_symmetry_Int_Tables_number   1
_chemical_formula_structural   KAlO2
_chemical_formula_sum   'K16 Al16 O32'
_cell_volume   948.91197153
_cell_formula_units_Z   16
loop_
 _symmetry_equiv_pos_site_id
 _symmetry_equiv_pos_as_xyz
  1  'x, y, z'
loop_
 _atom_site_type_symbol
 _atom_site_label
 _atom_site_symmetry_multiplicity
 _atom_site_fract_x
 _atom_site_fract_y
 _atom_site_fract_z
 _atom_site_occupancy
  O  O0  1  0.55052556  0.48509091  0.22223908  1
  O  O1  1  0.05052556  0.01490909  0.77776092  1
  O  O2  1  0.44947444  0.98509091  0.27776092  1
  O  O3  1  0.94947444  0.51490909  0.72223908  1
  O  O4  1  0.44947444  0.51490909  0.77776092  1
  O  O5  1  0.94947444  0.98509091  0.22223908  1
  O  O6  1  0.55052556  0.01490909  0.72223908  1
  O  O7  1  0.05052556  0.48509091  0.27776092  1
  O  O8  1  0.79932117  0.15760588  0.35079590  1
  O  O9  1  0.29932117  0.34239412  0.64920410  1
  O  O10  1  0.20067883  0.65760588  0.14920410  1
  O  O11  1  0.70067883  0.84239412  0.85079590  1
  O  O12  1  0.20067883  0.84239412  0.64920410  1
  O  O13  1  0.70067883  0.65760588  0.35079590  1
  O  O14  1  0.79932117  0.34239412  0.85079590  1
  O  O15  1  0.56923069  0.28510465  0.01591887  1
  O  O16  1  0.67754931  0.40359525  0.39460951  1
  O  O17  1  0.17754931  0.09640475  0.60539049  1
  O  O18  1  0.32245069  0.90359525  0.10539049  1
  O  O19  1  0.82245069  0.59640475  0.89460951  1
  O  O20  1  0.32245069  0.59640475  0.60539049  1
  O  O21  1  0.82245069  0.90359525  0.39460951  1
  O  O22  1  0.67754931  0.09640475  0.89460951  1
  O  O23  1  0.17754931  0.40359525  0.10539049  1
  O  O24  1  0.06923069  0.28510465  0.48408113  1
  O  O25  1  0.56923069  0.21489535  0.51591887  1
  O  O26  1  0.93076931  0.78510465  0.01591887  1
  O  O27  1  0.43076931  0.71489535  0.98408113  1
  O  O28  1  0.93076931  0.71489535  0.51591887  1
  O  O29  1  0.43076931  0.78510465  0.48408113  1
  O  O30  1  0.06923069  0.21489535  0.98408113  1
  O  O31  1  0.29932117  0.15760588  0.14920410  1
  Al  Al32  1  0.25478815  0.00823335  0.18851122  1
  Al  Al33  1  0.75478815  0.49176665  0.81148878  1
  Al  Al34  1  0.74521185  0.50823335  0.31148878  1
  Al  Al35  1  0.24521185  0.99176665  0.68851122  1
  Al  Al36  1  0.74521185  0.99176665  0.81148878  1
  Al  Al37  1  0.24521185  0.50823335  0.18851122  1
  Al  Al38  1  0.25478815  0.49176665  0.68851122  1
  Al  Al39  1  0.75478815  0.00823335  0.31148878  1
  Al  Al40  1  0.27966715  0.26238122  0.06354468  1
  Al  Al41  1  0.77966715  0.23761878  0.93645532  1
  Al  Al42  1  0.72033285  0.76238122  0.43645532  1
  Al  Al43  1  0.22033285  0.73761878  0.56354468  1
  Al  Al44  1  0.72033285  0.73761878  0.93645532  1
  Al  Al45  1  0.22033285  0.76238122  0.06354468  1
  Al  Al46  1  0.27966715  0.23761878  0.56354468  1
  Al  Al47  1  0.77966715  0.26238122  0.43645532  1
  K  K48  1  0.75342986  0.00735582  0.06193170  1
  K  K49  1  0.25342986  0.49264418  0.93806830  1
  K  K50  1  0.24657014  0.50735582  0.43806830  1
  K  K51  1  0.74657014  0.99264418  0.56193170  1
  K  K52  1  0.24657014  0.99264418  0.93806830  1
  K  K53  1  0.74657014  0.50735582  0.06193170  1
  K  K54  1  0.75342986  0.49264418  0.56193170  1
  K  K55  1  0.25342986  0.00735582  0.43806830  1
  K  K56  1  0.79520424  0.26098272  0.18526053  1
  K  K57  1  0.29520424  0.23901728  0.81473947  1
  K  K58  1  0.20479576  0.76098272  0.31473947  1
  K  K59  1  0.70479576  0.73901728  0.68526053  1
  K  K60  1  0.20479576  0.73901728  0.81473947  1
  K  K61  1  0.70479576  0.76098272  0.18526053  1
  K  K62  1  0.79520424  0.23901728  0.68526053  1
  K  K63  1  0.29520424  0.26098272  0.31473947  1
