# generated using pymatgen
data_BaBiClO2
_symmetry_space_group_name_H-M   'P 1'
_cell_length_a   5.78393049
_cell_length_b   5.99401588
_cell_length_c   7.33661281
_cell_angle_alpha   114.12275282
_cell_angle_beta   89.99998300
_cell_angle_gamma   90.00002872
_symmetry_Int_Tables_number   1
_chemical_formula_structural   BaBiClO2
_chemical_formula_sum   'Ba2 Bi2 Cl2 O4'
_cell_volume   232.14068303
_cell_formula_units_Z   2
loop_
 _symmetry_equiv_pos_site_id
 _symmetry_equiv_pos_as_xyz
  1  'x, y, z'
loop_
 _atom_site_type_symbol
 _atom_site_label
 _atom_site_symmetry_multiplicity
 _atom_site_fract_x
 _atom_site_fract_y
 _atom_site_fract_z
 _atom_site_occupancy
  Ba  Ba0  1  0.75000018  0.38257366  0.76513059  1
  Cl  Cl1  1  0.74999993  0.74581537  0.49173201  1
  O  O2  1  0.50003270  0.77241589  0.00006663  1
  O  O3  1  0.49996736  0.22758444  0.99993379  1
  Bi  Bi4  1  0.75000000  0.07420485  0.14815302  1
  Cl  Cl5  1  0.25000000  0.25418395  0.50826714  1
  Bi  Bi6  1  0.24999993  0.92579522  0.85184720  1
  O  O7  1  0.99996757  0.77241592  0.00006682  1
  O  O8  1  0.00003232  0.22758414  0.99993375  1
  Ba  Ba9  1  0.25000000  0.61742655  0.23486904  1
