# generated using pymatgen
data_TbBi2IO4
_symmetry_space_group_name_H-M   'P 1'
_cell_length_a   3.95448939
_cell_length_b   3.95449148
_cell_length_c   9.73719336
_cell_angle_alpha   90.00000000
_cell_angle_beta   90.00000000
_cell_angle_gamma   90.00000000
_symmetry_Int_Tables_number   1
_chemical_formula_structural   TbBi2IO4
_chemical_formula_sum   'Tb1 Bi2 I1 O4'
_cell_volume   152.27017719
_cell_formula_units_Z   1
loop_
 _symmetry_equiv_pos_site_id
 _symmetry_equiv_pos_as_xyz
  1  'x, y, z'
loop_
 _atom_site_type_symbol
 _atom_site_label
 _atom_site_symmetry_multiplicity
 _atom_site_fract_x
 _atom_site_fract_y
 _atom_site_fract_z
 _atom_site_occupancy
  O  O0  1  0.00000000  0.50000000  0.85737408  1
  Bi  Bi1  1  0.50000000  0.50000000  0.25622353  1
  O  O2  1  0.50000000  0.00000000  0.85737391  1
  Bi  Bi3  1  0.50000000  0.50000000  0.74377614  1
  O  O4  1  0.00000000  0.50000000  0.14262590  1
  Tb  Tb5  1  0.00000000  0.00000000  -0.00000027  1
  O  O6  1  0.50000000  0.00000000  0.14262609  1
  I  I7  1  0.00000000  0.00000000  0.50000062  1
