# generated using pymatgen
data_CaBiClO2
_symmetry_space_group_name_H-M   'P 1'
_cell_length_a   4.17146236
_cell_length_b   6.51339761
_cell_length_c   7.82548682
_cell_angle_alpha   104.78454585
_cell_angle_beta   90.00000000
_cell_angle_gamma   90.00000000
_symmetry_Int_Tables_number   1
_chemical_formula_structural   CaBiClO2
_chemical_formula_sum   'Ca2 Bi2 Cl2 O4'
_cell_volume   205.58213158
_cell_formula_units_Z   2
loop_
 _symmetry_equiv_pos_site_id
 _symmetry_equiv_pos_as_xyz
  1  'x, y, z'
loop_
 _atom_site_type_symbol
 _atom_site_label
 _atom_site_symmetry_multiplicity
 _atom_site_fract_x
 _atom_site_fract_y
 _atom_site_fract_z
 _atom_site_occupancy
  Ca  Ca0  1  0.25000000  0.32934984  0.07875782  1
  Ca  Ca1  1  0.75000000  0.67065016  0.92124218  1
  Cl  Cl2  1  0.25000000  0.94444952  0.18496872  1
  Cl  Cl3  1  0.75000000  0.05555048  0.81503128  1
  Bi  Bi4  1  0.25000000  0.32425659  0.59285111  1
  Bi  Bi5  1  0.75000000  0.67574341  0.40714889  1
  O  O6  1  0.75000000  0.47089613  0.59805836  1
  O  O7  1  0.25000000  0.52910387  0.40194164  1
  O  O8  1  0.75000000  0.48864422  0.14280468  1
  O  O9  1  0.25000000  0.51135578  0.85719532  1
