# generated using pymatgen
data_Yb2EuO4
_symmetry_space_group_name_H-M   'P 1'
_cell_length_a   3.34541192
_cell_length_b   9.70245882
_cell_length_c   11.79215087
_cell_angle_alpha   90.00000000
_cell_angle_beta   90.00000000
_cell_angle_gamma   90.00000000
_symmetry_Int_Tables_number   1
_chemical_formula_structural   Yb2EuO4
_chemical_formula_sum   'Yb8 Eu4 O16'
_cell_volume   382.75813968
_cell_formula_units_Z   4
loop_
 _symmetry_equiv_pos_site_id
 _symmetry_equiv_pos_as_xyz
  1  'x, y, z'
loop_
 _atom_site_type_symbol
 _atom_site_label
 _atom_site_symmetry_multiplicity
 _atom_site_fract_x
 _atom_site_fract_y
 _atom_site_fract_z
 _atom_site_occupancy
  Yb  Yb0  1  0.75000000  0.91774534  0.60601851  1
  Yb  Yb1  1  0.25000000  0.08225466  0.39398149  1
  Yb  Yb2  1  0.25000000  0.58225466  0.10601851  1
  Yb  Yb3  1  0.75000000  0.41774534  0.89398149  1
  Yb  Yb4  1  0.75000000  0.42256529  0.39158552  1
  Yb  Yb5  1  0.25000000  0.57743471  0.60841448  1
  Yb  Yb6  1  0.25000000  0.07743471  0.89158552  1
  Yb  Yb7  1  0.75000000  0.92256529  0.10841448  1
  Eu  Eu8  1  0.75000000  0.75327409  0.33832368  1
  Eu  Eu9  1  0.25000000  0.24672591  0.66167632  1
  Eu  Eu10  1  0.25000000  0.74672591  0.83832368  1
  Eu  Eu11  1  0.75000000  0.25327409  0.16167632  1
  O  O12  1  0.75000000  0.52396227  0.22138930  1
  O  O13  1  0.25000000  0.47603773  0.77861070  1
  O  O14  1  0.25000000  0.97603773  0.72138930  1
  O  O15  1  0.75000000  0.02396227  0.27861070  1
  O  O16  1  0.75000000  0.71071088  0.69377764  1
  O  O17  1  0.25000000  0.28928912  0.30622236  1
  O  O18  1  0.25000000  0.78928912  0.19377764  1
  O  O19  1  0.75000000  0.21071088  0.80622236  1
  O  O20  1  0.75000000  0.63842887  0.96502845  1
  O  O21  1  0.25000000  0.36157113  0.03497155  1
  O  O22  1  0.25000000  0.86157113  0.46502845  1
  O  O23  1  0.75000000  0.13842887  0.53497155  1
  O  O24  1  0.75000000  0.90874920  0.91356614  1
  O  O25  1  0.25000000  0.09125080  0.08643386  1
  O  O26  1  0.25000000  0.59125080  0.41356614  1
  O  O27  1  0.75000000  0.40874920  0.58643386  1
