# generated using pymatgen
data_PrBi2ClO4
_symmetry_space_group_name_H-M   'P 1'
_cell_length_a   3.97285357
_cell_length_b   3.97284492
_cell_length_c   9.16192653
_cell_angle_alpha   90.00000000
_cell_angle_beta   90.00000000
_cell_angle_gamma   90.00000000
_symmetry_Int_Tables_number   1
_chemical_formula_structural   PrBi2ClO4
_chemical_formula_sum   'Pr1 Bi2 Cl1 O4'
_cell_volume   144.60755254
_cell_formula_units_Z   1
loop_
 _symmetry_equiv_pos_site_id
 _symmetry_equiv_pos_as_xyz
  1  'x, y, z'
loop_
 _atom_site_type_symbol
 _atom_site_label
 _atom_site_symmetry_multiplicity
 _atom_site_fract_x
 _atom_site_fract_y
 _atom_site_fract_z
 _atom_site_occupancy
  Bi  Bi0  1  0.50000000  0.50000000  0.71751595  1
  O  O1  1  0.50000000  0.00000000  0.16323698  1
  O  O2  1  0.00000000  0.50000000  0.16323698  1
  Pr  Pr3  1  0.00000000  0.00000000  0.99999981  1
  Bi  Bi4  1  0.50000000  0.50000000  0.28248378  1
  O  O5  1  0.00000000  0.50000000  0.83676262  1
  Cl  Cl6  1  0.00000000  0.00000000  0.50000047  1
  O  O7  1  0.50000000  0.00000000  0.83676340  1
