# generated using pymatgen
data_NdBi2BrO4
_symmetry_space_group_name_H-M   'P 1'
_cell_length_a   3.97920437
_cell_length_b   3.97924658
_cell_length_c   9.39901845
_cell_angle_alpha   90.00000000
_cell_angle_beta   90.00000000
_cell_angle_gamma   90.00000000
_symmetry_Int_Tables_number   1
_chemical_formula_structural   NdBi2BrO4
_chemical_formula_sum   'Nd1 Bi2 Br1 O4'
_cell_volume   148.82627048
_cell_formula_units_Z   1
loop_
 _symmetry_equiv_pos_site_id
 _symmetry_equiv_pos_as_xyz
  1  'x, y, z'
loop_
 _atom_site_type_symbol
 _atom_site_label
 _atom_site_symmetry_multiplicity
 _atom_site_fract_x
 _atom_site_fract_y
 _atom_site_fract_z
 _atom_site_occupancy
  Bi  Bi0  1  0.50000000  0.50000000  0.72728423  1
  O  O1  1  0.50000000  0.00000000  0.15653025  1
  Bi  Bi2  1  0.50000000  0.50000000  0.27271475  1
  O  O3  1  0.00000000  0.50000000  0.15652771  1
  Nd  Nd4  1  0.00000000  0.00000000  0.99999892  1
  O  O5  1  0.00000000  0.50000000  0.84347245  1
  Br  Br6  1  0.00000000  0.00000000  0.50000236  1
  O  O7  1  0.50000000  0.00000000  0.84346933  1
