# generated using pymatgen
data_Eu2B5ClO9
_symmetry_space_group_name_H-M   'P 1'
_cell_length_a   6.56968180
_cell_length_b   11.40592394
_cell_length_c   11.49806442
_cell_angle_alpha   90.00000000
_cell_angle_beta   90.00000000
_cell_angle_gamma   90.00000000
_symmetry_Int_Tables_number   1
_chemical_formula_structural   Eu2B5ClO9
_chemical_formula_sum   'Eu8 B20 Cl4 O36'
_cell_volume   861.58780621
_cell_formula_units_Z   4
loop_
 _symmetry_equiv_pos_site_id
 _symmetry_equiv_pos_as_xyz
  1  'x, y, z'
loop_
 _atom_site_type_symbol
 _atom_site_label
 _atom_site_symmetry_multiplicity
 _atom_site_fract_x
 _atom_site_fract_y
 _atom_site_fract_z
 _atom_site_occupancy
  Eu  Eu0  1  0.33191670  0.75890629  0.97374286  1
  Eu  Eu1  1  0.49448827  0.54653370  0.24732380  1
  Eu  Eu2  1  0.99448827  0.95346630  0.74732380  1
  Eu  Eu3  1  0.99448827  0.04653370  0.25267620  1
  Eu  Eu4  1  0.49448827  0.45346630  0.75267620  1
  Eu  Eu5  1  0.83191670  0.74109371  0.47374286  1
  Eu  Eu6  1  0.83191670  0.25890629  0.52625714  1
  Eu  Eu7  1  0.33191670  0.24109371  0.02625714  1
  B  B8  1  0.19016443  0.32313517  0.27305478  1
  B  B9  1  0.33853454  0.20167148  0.68611347  1
  B  B10  1  0.96474121  0.49654228  0.25319235  1
  B  B11  1  0.29859843  0.76788987  0.53773586  1
  B  B12  1  0.79859843  0.26788987  0.96226414  1
  B  B13  1  0.46474121  0.99654228  0.24680765  1
  B  B14  1  0.96474121  0.50345772  0.74680765  1
  B  B15  1  0.83853454  0.70167148  0.81388653  1
  B  B16  1  0.33853454  0.79832852  0.31388653  1
  B  B17  1  0.83853454  0.29832852  0.18611347  1
  B  B18  1  0.02153756  0.71793786  0.20845890  1
  B  B19  1  0.02153756  0.28206214  0.79154110  1
  B  B20  1  0.46474121  0.00345772  0.75319235  1
  B  B21  1  0.69016443  0.17686483  0.77305478  1
  B  B22  1  0.19016443  0.67686483  0.72694522  1
  B  B23  1  0.52153756  0.78206214  0.70845890  1
  B  B24  1  0.69016443  0.82313517  0.22694522  1
  B  B25  1  0.29859843  0.23211013  0.46226414  1
  B  B26  1  0.79859843  0.73211013  0.03773586  1
  B  B27  1  0.52153756  0.21793786  0.29154110  1
  Cl  Cl28  1  0.88878354  0.00000000  0.50000000  1
  Cl  Cl29  1  0.13978547  0.00000000  0.00000000  1
  Cl  Cl30  1  0.63978547  0.50000000  0.50000000  1
  Cl  Cl31  1  0.38878354  0.50000000  0.00000000  1
  O  O32  1  0.64945869  0.04869080  0.78510102  1
  O  O33  1  0.14945869  0.54869080  0.71489898  1
  O  O34  1  0.23743779  0.22934803  0.57539967  1
  O  O35  1  0.48989134  0.20814842  0.42139458  1
  O  O36  1  0.48989134  0.79185158  0.57860542  1
  O  O37  1  0.31144814  0.92646431  0.28921945  1
  O  O38  1  0.73743779  0.72934803  0.92460033  1
  O  O39  1  0.42241180  0.88613137  0.76798970  1
  O  O40  1  0.14383852  0.26278548  0.38514898  1
  O  O41  1  0.24132334  0.27413365  0.77740725  1
  O  O42  1  0.64383852  0.23721452  0.88514898  1
  O  O43  1  0.92241180  0.38613137  0.73201030  1
  O  O44  1  0.90708298  0.18215453  0.74370493  1
  O  O45  1  0.24132334  0.72586635  0.22259275  1
  O  O46  1  0.90708298  0.81784547  0.25629507  1
  O  O47  1  0.23743779  0.77065197  0.42460033  1
  O  O48  1  0.31144814  0.07353569  0.71078055  1
  O  O49  1  0.81144814  0.57353569  0.78921945  1
  O  O50  1  0.64945869  0.95130920  0.21489898  1
  O  O51  1  0.14945869  0.45130920  0.28510102  1
  O  O52  1  0.55894175  0.76994949  0.31766488  1
  O  O53  1  0.74132334  0.77413365  0.72259275  1
  O  O54  1  0.98989134  0.70814842  0.07860542  1
  O  O55  1  0.73743779  0.27065197  0.07539967  1
  O  O56  1  0.40708298  0.31784547  0.24370493  1
  O  O57  1  0.64383852  0.76278548  0.11485102  1
  O  O58  1  0.05894175  0.26994949  0.18233512  1
  O  O59  1  0.55894175  0.23005051  0.68233512  1
  O  O60  1  0.40708298  0.68215453  0.75629507  1
  O  O61  1  0.81144814  0.42646431  0.21078055  1
  O  O62  1  0.05894175  0.73005051  0.81766488  1
  O  O63  1  0.74132334  0.22586635  0.27740725  1
  O  O64  1  0.14383852  0.73721452  0.61485102  1
  O  O65  1  0.42241180  0.11386863  0.23201030  1
  O  O66  1  0.98989134  0.29185158  0.92139458  1
  O  O67  1  0.92241180  0.61386863  0.26798970  1
