# generated using pymatgen
data_Rb5B19O31
_symmetry_space_group_name_H-M   'P 1'
_cell_length_a   10.89759734
_cell_length_b   10.89759718
_cell_length_c   13.47025877
_cell_angle_alpha   85.23583639
_cell_angle_beta   85.23583648
_cell_angle_gamma   64.96833146
_symmetry_Int_Tables_number   1
_chemical_formula_structural   Rb5B19O31
_chemical_formula_sum   'Rb10 B38 O62'
_cell_volume   1442.40024039
_cell_formula_units_Z   2
loop_
 _symmetry_equiv_pos_site_id
 _symmetry_equiv_pos_as_xyz
  1  'x, y, z'
loop_
 _atom_site_type_symbol
 _atom_site_label
 _atom_site_symmetry_multiplicity
 _atom_site_fract_x
 _atom_site_fract_y
 _atom_site_fract_z
 _atom_site_occupancy
  Rb  Rb0  1  0.40746493  0.94026159  0.32992213  1
  Rb  Rb1  1  0.59253507  0.05973841  0.67007787  1
  Rb  Rb2  1  0.72668591  0.60239277  0.31610891  1
  Rb  Rb3  1  0.94026159  0.40746493  0.82992213  1
  Rb  Rb4  1  0.00000000  0.00000000  0.00000000  1
  Rb  Rb5  1  0.60239277  0.72668591  0.81610891  1
  Rb  Rb6  1  0.00000000  0.00000000  0.50000000  1
  Rb  Rb7  1  0.27331409  0.39760723  0.68389109  1
  Rb  Rb8  1  0.39760723  0.27331409  0.18389109  1
  Rb  Rb9  1  0.05973841  0.59253507  0.17007787  1
  B  B10  1  0.27323765  0.24287871  0.46736490  1
  B  B11  1  0.95907668  0.70418354  0.46869719  1
  B  B12  1  0.56091431  0.47197987  0.12061132  1
  B  B13  1  0.61206523  0.38793477  0.75000000  1
  B  B14  1  0.71190475  0.32232821  0.99841652  1
  B  B15  1  0.38793477  0.61206523  0.25000000  1
  B  B16  1  0.09845561  0.03462051  0.75720680  1
  B  B17  1  0.51950146  0.21556022  0.42568902  1
  B  B18  1  0.96537949  0.90154439  0.74279320  1
  B  B19  1  0.10226048  0.24476786  0.35174406  1
  B  B20  1  0.97089588  0.33063636  0.19775603  1
  B  B21  1  0.43908569  0.52802013  0.87938868  1
  B  B22  1  0.89773952  0.75523214  0.64825594  1
  B  B23  1  0.29581646  0.04092332  0.03130281  1
  B  B24  1  0.24287871  0.27323765  0.96736490  1
  B  B25  1  0.02910412  0.66936364  0.80224397  1
  B  B26  1  0.90154439  0.96537949  0.24279320  1
  B  B27  1  0.24476786  0.10226048  0.85174406  1
  B  B28  1  0.72676235  0.75712129  0.53263510  1
  B  B29  1  0.32268786  0.82188173  0.12961970  1
  B  B30  1  0.03462051  0.09845561  0.25720680  1
  B  B31  1  0.32232821  0.71190475  0.49841652  1
  B  B32  1  0.67767179  0.28809525  0.50158348  1
  B  B33  1  0.17811827  0.67731214  0.37038030  1
  B  B34  1  0.04092332  0.29581646  0.53130281  1
  B  B35  1  0.78443978  0.48049854  0.07431098  1
  B  B36  1  0.52802013  0.43908569  0.37938868  1
  B  B37  1  0.28809525  0.67767179  0.00158348  1
  B  B38  1  0.33063636  0.97089588  0.69775603  1
  B  B39  1  0.48049854  0.78443978  0.57431098  1
  B  B40  1  0.75523214  0.89773952  0.14825594  1
  B  B41  1  0.66936364  0.02910412  0.30224397  1
  B  B42  1  0.47197987  0.56091431  0.62061132  1
  B  B43  1  0.75712129  0.72676235  0.03263510  1
  B  B44  1  0.21556022  0.51950146  0.92568902  1
  B  B45  1  0.70418354  0.95907668  0.96869719  1
  B  B46  1  0.82188173  0.32268786  0.62961970  1
  B  B47  1  0.67731214  0.17811827  0.87038030  1
  O  O48  1  0.67790798  0.04857619  0.88512948  1
  O  O49  1  0.00424491  0.28768638  0.43922806  1
  O  O50  1  0.48360690  0.34295261  0.36386112  1
  O  O51  1  0.48278655  0.56460544  0.33129843  1
  O  O52  1  0.11238480  0.10840665  0.32718289  1
  O  O53  1  0.34370815  0.04992542  0.76741056  1
  O  O54  1  0.82693758  0.72418534  0.45267305  1
  O  O55  1  0.20528327  0.96489876  0.69043919  1
  O  O56  1  0.28768638  0.00424491  0.93922806  1
  O  O57  1  0.51721345  0.43539456  0.66870157  1
  O  O58  1  0.95007458  0.65629185  0.73258944  1
  O  O59  1  0.80719658  0.36967890  0.00841779  1
  O  O60  1  0.03510124  0.79471673  0.80956081  1
  O  O61  1  0.63032110  0.19280342  0.49158221  1
  O  O62  1  0.04857619  0.67790798  0.38512948  1
  O  O63  1  0.25653958  0.78231244  0.06418727  1
  O  O64  1  0.74346042  0.21768756  0.93581273  1
  O  O65  1  0.21768756  0.74346042  0.43581273  1
  O  O66  1  0.88761520  0.89159335  0.67281711  1
  O  O67  1  0.10134628  0.55767044  0.86001747  1
  O  O68  1  0.72418534  0.82693758  0.95267305  1
  O  O69  1  0.96489876  0.20528327  0.19043919  1
  O  O70  1  0.44232956  0.89865372  0.63998253  1
  O  O71  1  0.19280342  0.63032110  0.99158221  1
  O  O72  1  0.77008654  0.76166678  0.12579839  1
  O  O73  1  0.78231244  0.25653958  0.56418727  1
  O  O74  1  0.99575509  0.71231362  0.56077194  1
  O  O75  1  0.76166678  0.77008654  0.62579839  1
  O  O76  1  0.32209202  0.95142381  0.11487052  1
  O  O77  1  0.97767320  0.02232680  0.75000000  1
  O  O78  1  0.22418406  0.39896485  0.99126146  1
  O  O79  1  0.37907326  0.74839886  0.21301631  1
  O  O80  1  0.79471673  0.03510124  0.30956081  1
  O  O81  1  0.23833322  0.22991346  0.37420161  1
  O  O82  1  0.43539456  0.51721345  0.16870157  1
  O  O83  1  0.74839886  0.37907326  0.71301631  1
  O  O84  1  0.27581466  0.17306242  0.04732695  1
  O  O85  1  0.25160114  0.62092674  0.28698369  1
  O  O86  1  0.63178594  0.41059842  0.44569245  1
  O  O87  1  0.56460544  0.48278655  0.83129843  1
  O  O88  1  0.65704739  0.51639310  0.13613888  1
  O  O89  1  0.77581594  0.60103515  0.00873854  1
  O  O90  1  0.22991346  0.23833322  0.87420161  1
  O  O91  1  0.39896485  0.22418406  0.49126146  1
  O  O92  1  0.95142381  0.32209202  0.61487052  1
  O  O93  1  0.89865372  0.44232956  0.13998253  1
  O  O94  1  0.34295261  0.48360690  0.86386112  1
  O  O95  1  0.04992542  0.34370815  0.26741056  1
  O  O96  1  0.55767044  0.10134628  0.36001747  1
  O  O97  1  0.02232680  0.97767320  0.25000000  1
  O  O98  1  0.89159335  0.88761520  0.17281711  1
  O  O99  1  0.71231362  0.99575509  0.06077194  1
  O  O100  1  0.10840665  0.11238480  0.82718289  1
  O  O101  1  0.36821406  0.58940158  0.55430755  1
  O  O102  1  0.65629185  0.95007458  0.23258944  1
  O  O103  1  0.51639310  0.65704739  0.63613888  1
  O  O104  1  0.62092674  0.25160114  0.78698369  1
  O  O105  1  0.60103515  0.77581594  0.50873854  1
  O  O106  1  0.36967890  0.80719658  0.50841779  1
  O  O107  1  0.17306242  0.27581466  0.54732695  1
  O  O108  1  0.41059842  0.63178594  0.94569245  1
  O  O109  1  0.58940158  0.36821406  0.05430755  1
