# generated using pymatgen
data_Ba5Si(Br3O2)2
_symmetry_space_group_name_H-M   'P 1'
_cell_length_a   9.22536830
_cell_length_b   9.22536781
_cell_length_c   12.17178239
_cell_angle_alpha   97.95149623
_cell_angle_beta   97.95149584
_cell_angle_gamma   114.43551215
_symmetry_Int_Tables_number   1
_chemical_formula_structural   Ba5Si(Br3O2)2
_chemical_formula_sum   'Ba10 Si2 Br12 O8'
_cell_volume   911.81925871
_cell_formula_units_Z   2
loop_
 _symmetry_equiv_pos_site_id
 _symmetry_equiv_pos_as_xyz
  1  'x, y, z'
loop_
 _atom_site_type_symbol
 _atom_site_label
 _atom_site_symmetry_multiplicity
 _atom_site_fract_x
 _atom_site_fract_y
 _atom_site_fract_z
 _atom_site_occupancy
  Ba  Ba0  1  0.67625559  0.43365654  0.48322186  1
  Ba  Ba1  1  0.79015057  0.20984943  0.75000000  1
  Ba  Ba2  1  0.24189468  0.08775142  0.63614214  1
  Ba  Ba3  1  0.75810532  0.91224858  0.36385786  1
  Ba  Ba4  1  0.43365654  0.67625559  0.98322186  1
  Ba  Ba5  1  0.91224858  0.75810532  0.86385786  1
  Ba  Ba6  1  0.20984943  0.79015057  0.25000000  1
  Ba  Ba7  1  0.32374441  0.56634346  0.51677814  1
  Ba  Ba8  1  0.08775142  0.24189468  0.13614214  1
  Ba  Ba9  1  0.56634346  0.32374441  0.01677814  1
  Si  Si10  1  0.57540075  0.42459925  0.75000000  1
  Si  Si11  1  0.42459925  0.57540075  0.25000000  1
  Br  Br12  1  0.75569618  0.24430382  0.25000000  1
  Br  Br13  1  0.98151744  0.28026703  0.54886742  1
  Br  Br14  1  0.21711759  0.15155603  0.36652650  1
  Br  Br15  1  0.15155603  0.21711759  0.86652650  1
  Br  Br16  1  0.71973297  0.01848256  0.95113258  1
  Br  Br17  1  0.01848256  0.71973297  0.45113258  1
  Br  Br18  1  0.78288241  0.84844397  0.63347350  1
  Br  Br19  1  0.24430382  0.75569618  0.75000000  1
  Br  Br20  1  0.00000000  0.50000000  0.00000000  1
  Br  Br21  1  0.28026703  0.98151744  0.04886742  1
  Br  Br22  1  0.84844397  0.78288241  0.13347350  1
  Br  Br23  1  0.50000000  0.00000000  0.50000000  1
  O  O24  1  0.47630140  0.75600227  0.21492312  1
  O  O25  1  0.40391684  0.44473551  0.13441081  1
  O  O26  1  0.75600227  0.47630140  0.71492312  1
  O  O27  1  0.44473551  0.40391684  0.63441081  1
  O  O28  1  0.59608316  0.55526449  0.86558919  1
  O  O29  1  0.52369860  0.24399773  0.78507688  1
  O  O30  1  0.55526449  0.59608316  0.36558919  1
  O  O31  1  0.24399773  0.52369860  0.28507688  1
