# generated using pymatgen
data_Tl2(SeO3)3
_symmetry_space_group_name_H-M   'P 1'
_cell_length_a   4.79986888
_cell_length_b   11.54893560
_cell_length_c   17.60857546
_cell_angle_alpha   90.00000000
_cell_angle_beta   95.56399214
_cell_angle_gamma   90.00000000
_symmetry_Int_Tables_number   1
_chemical_formula_structural   Tl2(SeO3)3
_chemical_formula_sum   'Tl8 Se12 O36'
_cell_volume   971.50391543
_cell_formula_units_Z   4
loop_
 _symmetry_equiv_pos_site_id
 _symmetry_equiv_pos_as_xyz
  1  'x, y, z'
loop_
 _atom_site_type_symbol
 _atom_site_label
 _atom_site_symmetry_multiplicity
 _atom_site_fract_x
 _atom_site_fract_y
 _atom_site_fract_z
 _atom_site_occupancy
  Tl  Tl0  1  0.82701413  0.06126408  0.70422320  1
  Tl  Tl1  1  0.67298587  0.56126408  0.79577680  1
  Tl  Tl2  1  0.25750101  0.85164160  0.87281935  1
  Tl  Tl3  1  0.75750101  0.64835840  0.37281935  1
  Tl  Tl4  1  0.17298587  0.93873592  0.29577680  1
  Tl  Tl5  1  0.24249899  0.35164160  0.62718065  1
  Tl  Tl6  1  0.32701413  0.43873592  0.20422320  1
  Tl  Tl7  1  0.74249899  0.14835840  0.12718065  1
  Se  Se8  1  0.17815489  0.32170261  0.80675461  1
  Se  Se9  1  0.72001285  0.05406052  0.90648697  1
  Se  Se10  1  0.67815489  0.17829739  0.30675461  1
  Se  Se11  1  0.77944175  0.39460381  0.05179344  1
  Se  Se12  1  0.72055825  0.89460381  0.44820656  1
  Se  Se13  1  0.22055825  0.60539619  0.94820656  1
  Se  Se14  1  0.27998715  0.94593948  0.09351303  1
  Se  Se15  1  0.82184511  0.67829739  0.19324539  1
  Se  Se16  1  0.77998715  0.55406052  0.59351303  1
  Se  Se17  1  0.32184511  0.82170261  0.69324539  1
  Se  Se18  1  0.22001285  0.44593948  0.40648697  1
  Se  Se19  1  0.27944175  0.10539619  0.55179344  1
  O  O20  1  0.72595857  0.12133355  0.81829372  1
  O  O21  1  0.99059939  0.33582345  0.12972520  1
  O  O22  1  0.50940061  0.83582345  0.37027480  1
  O  O23  1  0.47380700  0.52891590  0.90677250  1
  O  O24  1  0.59721339  0.89413849  0.66242865  1
  O  O25  1  0.36569986  0.03062609  0.91371447  1
  O  O26  1  0.40278661  0.10586151  0.33757135  1
  O  O27  1  0.37261555  0.73700991  0.97431277  1
  O  O28  1  0.00940061  0.66417655  0.87027480  1
  O  O29  1  0.22595857  0.37866645  0.31829372  1
  O  O30  1  0.19703597  0.08944182  0.11013541  1
  O  O31  1  0.13430014  0.53062609  0.58628553  1
  O  O32  1  0.49059939  0.16417655  0.62972520  1
  O  O33  1  0.16774357  0.92676947  0.74967818  1
  O  O34  1  0.12738445  0.23700991  0.52568723  1
  O  O35  1  0.09721339  0.60586151  0.16242865  1
  O  O36  1  0.87261555  0.76299009  0.47431277  1
  O  O37  1  0.94385939  0.75503619  0.27703826  1
  O  O38  1  0.33225643  0.42676947  0.75032182  1
  O  O39  1  0.02619300  0.02891590  0.59322750  1
  O  O40  1  0.77404143  0.62133355  0.68170628  1
  O  O41  1  0.66774357  0.57323053  0.24967818  1
  O  O42  1  0.30296403  0.58944182  0.38986459  1
  O  O43  1  0.90278661  0.39413849  0.83757135  1
  O  O44  1  0.97380700  0.97108410  0.40677250  1
  O  O45  1  0.27404143  0.87866645  0.18170628  1
  O  O46  1  0.05614061  0.24496381  0.72296174  1
  O  O47  1  0.63430014  0.96937391  0.08628553  1
  O  O48  1  0.69703597  0.41055818  0.61013541  1
  O  O49  1  0.80296403  0.91055818  0.88986459  1
  O  O50  1  0.52619300  0.47108410  0.09322750  1
  O  O51  1  0.55614061  0.25503619  0.22296174  1
  O  O52  1  0.86569986  0.46937391  0.41371447  1
  O  O53  1  0.83225643  0.07323053  0.25032182  1
  O  O54  1  0.44385939  0.74496381  0.77703826  1
  O  O55  1  0.62738445  0.26299009  0.02568723  1
