# generated using pymatgen
data_Cs4Sb2O5
_symmetry_space_group_name_H-M   'P 1'
_cell_length_a   6.48202958
_cell_length_b   6.48203859
_cell_length_c   8.30319535
_cell_angle_alpha   83.52054929
_cell_angle_beta   83.52062411
_cell_angle_gamma   65.98084647
_symmetry_Int_Tables_number   1
_chemical_formula_structural   Cs4Sb2O5
_chemical_formula_sum   'Cs4 Sb2 O5'
_cell_volume   315.76706640
_cell_formula_units_Z   1
loop_
 _symmetry_equiv_pos_site_id
 _symmetry_equiv_pos_as_xyz
  1  'x, y, z'
loop_
 _atom_site_type_symbol
 _atom_site_label
 _atom_site_symmetry_multiplicity
 _atom_site_fract_x
 _atom_site_fract_y
 _atom_site_fract_z
 _atom_site_occupancy
  O  O0  1  0.19706215  0.62563498  0.78714188  1
  O  O1  1  0.83550829  0.40864170  0.19123797  1
  Cs  Cs2  1  0.99493853  0.99493832  0.00470940  1
  O  O3  1  0.40864194  0.83550811  0.19123800  1
  Sb  Sb4  1  0.35322231  0.35322232  0.67179260  1
  O  O5  1  0.62563514  0.19706199  0.78714194  1
  Cs  Cs6  1  1.00049324  1.00049322  0.50033796  1
  Cs  Cs7  1  0.33683067  0.33683046  0.15333177  1
  O  O8  1  0.47690718  0.47690705  0.46521916  1
  Cs  Cs9  1  0.66575352  0.66575385  0.84661336  1
  Sb  Sb10  1  0.64808703  0.64808800  0.32995595  1
