# generated using pymatgen
data_NaZr2(AsO4)3
_symmetry_space_group_name_H-M   'P 1'
_cell_length_a   9.50381942
_cell_length_b   9.50381975
_cell_length_c   9.50381948
_cell_angle_alpha   58.86155450
_cell_angle_beta   58.86155330
_cell_angle_gamma   58.86155324
_symmetry_Int_Tables_number   1
_chemical_formula_structural   NaZr2(AsO4)3
_chemical_formula_sum   'Na2 Zr4 As6 O24'
_cell_volume   591.21199836
_cell_formula_units_Z   2
loop_
 _symmetry_equiv_pos_site_id
 _symmetry_equiv_pos_as_xyz
  1  'x, y, z'
loop_
 _atom_site_type_symbol
 _atom_site_label
 _atom_site_symmetry_multiplicity
 _atom_site_fract_x
 _atom_site_fract_y
 _atom_site_fract_z
 _atom_site_occupancy
  Na  Na0  1  0.00000000  0.00000000  0.00000000  1
  Na  Na1  1  0.50000000  0.50000000  0.50000000  1
  Zr  Zr2  1  0.85680845  0.85680845  0.85680845  1
  Zr  Zr3  1  0.64319155  0.64319155  0.64319155  1
  Zr  Zr4  1  0.35680845  0.35680845  0.35680845  1
  Zr  Zr5  1  0.14319155  0.14319155  0.14319155  1
  As  As6  1  0.04092584  0.75000000  0.45907416  1
  As  As7  1  0.54092584  0.95907416  0.25000000  1
  As  As8  1  0.45907416  0.04092584  0.75000000  1
  As  As9  1  0.95907416  0.25000000  0.54092584  1
  As  As10  1  0.75000000  0.45907416  0.04092584  1
  As  As11  1  0.25000000  0.54092584  0.95907416  1
  O  O12  1  0.49688149  0.87001664  0.70439285  1
  O  O13  1  0.92312639  0.26771888  0.06054306  1
  O  O14  1  0.00311851  0.79560715  0.62998336  1
  O  O15  1  0.23228112  0.57687361  0.43945694  1
  O  O16  1  0.50311851  0.12998336  0.29560715  1
  O  O17  1  0.06054306  0.92312639  0.26771888  1
  O  O18  1  0.07687361  0.73228112  0.93945694  1
  O  O19  1  0.56054306  0.76771888  0.42312639  1
  O  O20  1  0.76771888  0.42312639  0.56054306  1
  O  O21  1  0.70439285  0.49688149  0.87001664  1
  O  O22  1  0.93945694  0.07687361  0.73228112  1
  O  O23  1  0.99688149  0.20439285  0.37001664  1
  O  O24  1  0.37001664  0.99688149  0.20439285  1
  O  O25  1  0.20439285  0.37001664  0.99688149  1
  O  O26  1  0.73228112  0.93945694  0.07687361  1
  O  O27  1  0.29560715  0.50311851  0.12998336  1
  O  O28  1  0.43945694  0.23228112  0.57687361  1
  O  O29  1  0.79560715  0.62998336  0.00311851  1
  O  O30  1  0.62998336  0.00311851  0.79560715  1
  O  O31  1  0.57687361  0.43945694  0.23228112  1
  O  O32  1  0.42312639  0.56054306  0.76771888  1
  O  O33  1  0.87001664  0.70439285  0.49688149  1
  O  O34  1  0.12998336  0.29560715  0.50311851  1
  O  O35  1  0.26771888  0.06054306  0.92312639  1
