# generated using pymatgen
data_Rb3AgO2
_symmetry_space_group_name_H-M   'P 1'
_cell_length_a   12.99647333
_cell_length_b   13.03424678
_cell_length_c   14.75043545
_cell_angle_alpha   90.00000000
_cell_angle_beta   90.00000000
_cell_angle_gamma   90.00000000
_symmetry_Int_Tables_number   1
_chemical_formula_structural   Rb3AgO2
_chemical_formula_sum   'Rb48 Ag16 O32'
_cell_volume   2498.71256453
_cell_formula_units_Z   16
loop_
 _symmetry_equiv_pos_site_id
 _symmetry_equiv_pos_as_xyz
  1  'x, y, z'
loop_
 _atom_site_type_symbol
 _atom_site_label
 _atom_site_symmetry_multiplicity
 _atom_site_fract_x
 _atom_site_fract_y
 _atom_site_fract_z
 _atom_site_occupancy
  Rb  Rb0  1  0.79334088  0.51166679  0.48960463  1
  Rb  Rb1  1  0.20336663  0.30161996  0.14435805  1
  Rb  Rb2  1  0.71678283  0.02120662  0.50884114  1
  Rb  Rb3  1  0.51493814  0.79954564  0.50596429  1
  Rb  Rb4  1  0.25499973  0.04364800  0.76315977  1
  Rb  Rb5  1  0.56222339  0.57736905  0.36907730  1
  Rb  Rb6  1  0.48506186  0.29954564  0.99403571  1
  Rb  Rb7  1  0.02187133  0.78338471  0.00463029  1
  Rb  Rb8  1  0.51062054  0.99605996  0.92490389  1
  Rb  Rb9  1  0.26409375  0.54397112  0.25419174  1
  Rb  Rb10  1  0.78321717  0.97879338  0.00884114  1
  Rb  Rb11  1  0.69849874  0.29956689  0.63944934  1
  Rb  Rb12  1  0.76409375  0.95602888  0.74580826  1
  Rb  Rb13  1  0.73590625  0.04397112  0.24580826  1
  Rb  Rb14  1  0.99581432  0.71104195  0.77467361  1
  Rb  Rb15  1  0.48937946  0.49605996  0.57509611  1
  Rb  Rb16  1  0.29334088  0.98833321  0.51039537  1
  Rb  Rb17  1  0.24500027  0.95635200  0.26315977  1
  Rb  Rb18  1  0.50418568  0.28895805  0.27467361  1
  Rb  Rb19  1  0.00418568  0.21104195  0.72532639  1
  Rb  Rb20  1  0.93777661  0.42263095  0.86907730  1
  Rb  Rb21  1  0.23590625  0.45602888  0.75419174  1
  Rb  Rb22  1  0.01493814  0.70045436  0.49403571  1
  Rb  Rb23  1  0.05273232  0.74863092  0.25530053  1
  Rb  Rb24  1  0.19849874  0.20043311  0.36055066  1
  Rb  Rb25  1  0.70665912  0.48833321  0.98960463  1
  Rb  Rb26  1  0.28321717  0.52120662  0.99115886  1
  Rb  Rb27  1  0.20665912  0.01166679  0.01039537  1
  Rb  Rb28  1  0.21678283  0.47879338  0.49115886  1
  Rb  Rb29  1  0.44726768  0.25136908  0.75530053  1
  Rb  Rb30  1  0.74500027  0.54364800  0.73684023  1
  Rb  Rb31  1  0.29663337  0.69838004  0.64435805  1
  Rb  Rb32  1  0.79663337  0.80161996  0.35564195  1
  Rb  Rb33  1  0.49581432  0.78895805  0.22532639  1
  Rb  Rb34  1  0.80150126  0.70043311  0.13944934  1
  Rb  Rb35  1  0.47812867  0.21661529  0.50463029  1
  Rb  Rb36  1  0.75499973  0.45635200  0.23684023  1
  Rb  Rb37  1  0.94726768  0.24863092  0.24469947  1
  Rb  Rb38  1  0.06222339  0.92263095  0.63092270  1
  Rb  Rb39  1  0.52187133  0.71661529  0.99536971  1
  Rb  Rb40  1  0.43777661  0.07736905  0.13092270  1
  Rb  Rb41  1  0.55273232  0.75136908  0.74469947  1
  Rb  Rb42  1  0.98937946  0.00394004  0.42490389  1
  Rb  Rb43  1  0.97812867  0.28338471  0.49536971  1
  Rb  Rb44  1  0.70336663  0.19838004  0.85564195  1
  Rb  Rb45  1  0.01062054  0.50394004  0.07509611  1
  Rb  Rb46  1  0.30150126  0.79956689  0.86055066  1
  Rb  Rb47  1  0.98506186  0.20045436  0.00596429  1
  Ag  Ag48  1  0.27182192  0.76640880  0.09219164  1
  Ag  Ag49  1  0.72817808  0.26640880  0.40780836  1
  Ag  Ag50  1  0.49918818  0.50298634  0.82420681  1
  Ag  Ag51  1  0.99932057  0.98980035  0.85015741  1
  Ag  Ag52  1  0.26669793  0.74313344  0.42053424  1
  Ag  Ag53  1  0.00067943  0.48980035  0.64984259  1
  Ag  Ag54  1  0.76669793  0.75686656  0.57946576  1
  Ag  Ag55  1  0.50067943  0.01019965  0.35015741  1
  Ag  Ag56  1  0.99918818  0.99701366  0.17579319  1
  Ag  Ag57  1  0.50081182  0.00298634  0.67579319  1
  Ag  Ag58  1  0.73330207  0.24313344  0.07946576  1
  Ag  Ag59  1  0.49932057  0.51019965  0.14984259  1
  Ag  Ag60  1  0.23330207  0.25686656  0.92053424  1
  Ag  Ag61  1  0.22817808  0.23359120  0.59219164  1
  Ag  Ag62  1  0.00081182  0.49701366  0.32420681  1
  Ag  Ag63  1  0.77182192  0.73359120  0.90780836  1
  O  O64  1  0.11949478  0.12029930  0.56881703  1
  O  O65  1  0.66081780  0.84396579  0.89351454  1
  O  O66  1  0.83918220  0.15603421  0.39351454  1
  O  O67  1  0.61405843  0.90186086  0.35647941  1
  O  O68  1  0.11117500  0.10923772  0.17752162  1
  O  O69  1  0.61949478  0.37970070  0.43118297  1
  O  O70  1  0.16081780  0.65603421  0.10648546  1
  O  O71  1  0.88594157  0.09813914  0.85647941  1
  O  O72  1  0.38050522  0.87970070  0.06881703  1
  O  O73  1  0.38569622  0.11667532  0.33778479  1
  O  O74  1  0.38882500  0.89076228  0.67752162  1
  O  O75  1  0.38594157  0.40186086  0.14352059  1
  O  O76  1  0.87670759  0.86805043  0.55758728  1
  O  O77  1  0.15326297  0.85393519  0.41468553  1
  O  O78  1  0.34673703  0.14606481  0.91468553  1
  O  O79  1  0.65326297  0.64606481  0.58531447  1
  O  O80  1  0.38888622  0.61544969  0.82292889  1
  O  O81  1  0.37670759  0.63194957  0.44241272  1
  O  O82  1  0.84673703  0.35393519  0.08531447  1
  O  O83  1  0.11430378  0.88332468  0.83778479  1
  O  O84  1  0.61430378  0.61667532  0.16221521  1
  O  O85  1  0.88888622  0.88455031  0.17707111  1
  O  O86  1  0.33918220  0.34396579  0.60648546  1
  O  O87  1  0.11405843  0.59813914  0.64352059  1
  O  O88  1  0.88050522  0.62029930  0.93118297  1
  O  O89  1  0.11111378  0.38455031  0.32292889  1
  O  O90  1  0.12329241  0.36805043  0.94241272  1
  O  O91  1  0.61111378  0.11544969  0.67707111  1
  O  O92  1  0.88569622  0.38332468  0.66221521  1
  O  O93  1  0.61117500  0.39076228  0.82247838  1
  O  O94  1  0.62329241  0.13194957  0.05758728  1
  O  O95  1  0.88882500  0.60923772  0.32247838  1
