# generated using pymatgen
data_Ba2LaAg5S6
_symmetry_space_group_name_H-M   'P 1'
_cell_length_a   4.28924786
_cell_length_b   7.39357710
_cell_length_c   11.34352479
_cell_angle_alpha   94.95026232
_cell_angle_beta   90.00000000
_cell_angle_gamma   106.86189600
_symmetry_Int_Tables_number   1
_chemical_formula_structural   Ba2LaAg5S6
_chemical_formula_sum   'Ba2 La1 Ag5 S6'
_cell_volume   342.86731796
_cell_formula_units_Z   1
loop_
 _symmetry_equiv_pos_site_id
 _symmetry_equiv_pos_as_xyz
  1  'x, y, z'
loop_
 _atom_site_type_symbol
 _atom_site_label
 _atom_site_symmetry_multiplicity
 _atom_site_fract_x
 _atom_site_fract_y
 _atom_site_fract_z
 _atom_site_occupancy
  Ba  Ba0  1  0.25085658  0.50171316  0.70729213  1
  Ba  Ba1  1  0.74914342  0.49828684  0.29270787  1
  La  La2  1  0.50000000  0.00000000  0.50000000  1
  Ag  Ag3  1  0.35136193  0.70272386  0.03515008  1
  Ag  Ag4  1  0.64863807  0.29727614  0.96484992  1
  Ag  Ag5  1  0.98092806  0.96185612  0.74447888  1
  Ag  Ag6  1  0.01907194  0.03814388  0.25552112  1
  Ag  Ag7  1  0.00000000  0.00000000  0.00000000  1
  S  S8  1  0.58634291  0.17268582  0.74218934  1
  S  S9  1  0.84263777  0.68527554  0.89878097  1
  S  S10  1  0.15736223  0.31472446  0.10121903  1
  S  S11  1  0.41365709  0.82731418  0.25781066  1
  S  S12  1  0.13117834  0.26235668  0.44880260  1
  S  S13  1  0.86882166  0.73764332  0.55119740  1
