# generated using pymatgen
data_Sr2CaCu2Bi2IO8
_symmetry_space_group_name_H-M   'P 1'
_cell_length_a   5.21492958
_cell_length_b   5.48161461
_cell_length_c   19.12035316
_cell_angle_alpha   90.00000000
_cell_angle_beta   90.00000000
_cell_angle_gamma   90.00000000
_symmetry_Int_Tables_number   1
_chemical_formula_structural   Sr2CaCu2Bi2IO8
_chemical_formula_sum   'Sr4 Ca2 Cu4 Bi4 I2 O16'
_cell_volume   546.57889296
_cell_formula_units_Z   2
loop_
 _symmetry_equiv_pos_site_id
 _symmetry_equiv_pos_as_xyz
  1  'x, y, z'
loop_
 _atom_site_type_symbol
 _atom_site_label
 _atom_site_symmetry_multiplicity
 _atom_site_fract_x
 _atom_site_fract_y
 _atom_site_fract_z
 _atom_site_occupancy
  Sr  Sr0  1  0.25000000  0.74614376  0.90487750  1
  Sr  Sr1  1  0.75000000  0.25385624  0.90487750  1
  Sr  Sr2  1  0.25000000  0.75385624  0.26912250  1
  Sr  Sr3  1  0.75000000  0.24614376  0.26912250  1
  Ca  Ca4  1  0.25000000  0.75000000  0.08700000  1
  Ca  Ca5  1  0.75000000  0.25000000  0.08700000  1
  Cu  Cu6  1  0.25000000  0.24986414  0.00339369  1
  Cu  Cu7  1  0.75000000  0.75013586  0.00339369  1
  Cu  Cu8  1  0.25000000  0.25013586  0.17060631  1
  Cu  Cu9  1  0.75000000  0.74986414  0.17060631  1
  Bi  Bi10  1  0.25000000  0.28276514  0.41749108  1
  Bi  Bi11  1  0.75000000  0.71723486  0.41749108  1
  Bi  Bi12  1  0.25000000  0.21723486  0.75650892  1
  Bi  Bi13  1  0.75000000  0.78276514  0.75650892  1
  I  I14  1  0.25000000  0.75000000  0.58700000  1
  I  I15  1  0.75000000  0.25000000  0.58700000  1
  O  O16  1  0.00000000  0.00000000  0.00278090  1
  O  O17  1  0.50000000  0.00000000  0.00278090  1
  O  O18  1  0.25000000  0.67029694  0.40342402  1
  O  O19  1  0.75000000  0.32970306  0.40342402  1
  O  O20  1  0.25000000  0.23027054  0.30900151  1
  O  O21  1  0.75000000  0.76972946  0.30900151  1
  O  O22  1  -0.00000000  0.50000000  0.17121910  1
  O  O23  1  0.50000000  0.50000000  0.17121910  1
  O  O24  1  0.25000000  0.82970306  0.77057598  1
  O  O25  1  0.75000000  0.17029694  0.77057598  1
  O  O26  1  0.25000000  0.26972946  0.86499849  1
  O  O27  1  0.75000000  0.73027054  0.86499849  1
  O  O28  1  0.00000000  0.50000000  0.00419408  1
  O  O29  1  0.50000000  0.50000000  0.00419408  1
  O  O30  1  0.00000000  0.00000000  0.16980592  1
  O  O31  1  0.50000000  0.00000000  0.16980592  1
