# generated using pymatgen
data_Ag4PIO4
_symmetry_space_group_name_H-M   'P 1'
_cell_length_a   6.92830755
_cell_length_b   9.31627111
_cell_length_c   11.31477632
_cell_angle_alpha   108.52057866
_cell_angle_beta   90.00000000
_cell_angle_gamma   90.00000000
_symmetry_Int_Tables_number   1
_chemical_formula_structural   Ag4PIO4
_chemical_formula_sum   'Ag16 P4 I4 O16'
_cell_volume   692.49973384
_cell_formula_units_Z   4
loop_
 _symmetry_equiv_pos_site_id
 _symmetry_equiv_pos_as_xyz
  1  'x, y, z'
loop_
 _atom_site_type_symbol
 _atom_site_label
 _atom_site_symmetry_multiplicity
 _atom_site_fract_x
 _atom_site_fract_y
 _atom_site_fract_z
 _atom_site_occupancy
  Ag  Ag0  1  0.03586668  0.64357360  0.92425302  1
  Ag  Ag1  1  0.53785593  0.00560776  0.78154121  1
  Ag  Ag2  1  0.75000000  0.37916675  0.30766427  1
  Ag  Ag3  1  0.03785593  0.99439224  0.21845879  1
  Ag  Ag4  1  0.53586668  0.35642640  0.07574698  1
  Ag  Ag5  1  0.46214407  0.99439224  0.21845879  1
  Ag  Ag6  1  0.25000000  0.62083325  0.69233573  1
  Ag  Ag7  1  0.01821625  0.70999864  0.46023951  1
  Ag  Ag8  1  0.46413332  0.64357360  0.92425302  1
  Ag  Ag9  1  0.48178375  0.70999864  0.46023951  1
  Ag  Ag10  1  0.96413332  0.35642640  0.07574698  1
  Ag  Ag11  1  0.96214407  0.00560776  0.78154121  1
  Ag  Ag12  1  0.25000000  0.68582880  0.21955061  1
  Ag  Ag13  1  0.98178375  0.29000136  0.53976049  1
  Ag  Ag14  1  0.75000000  0.31417120  0.78044939  1
  Ag  Ag15  1  0.51821625  0.29000136  0.53976049  1
  P  P16  1  0.25000000  0.36342863  0.32352124  1
  P  P17  1  0.75000000  0.63657137  0.67647876  1
  P  P18  1  0.25000000  0.30700869  0.79873123  1
  P  P19  1  0.75000000  0.69299131  0.20126877  1
  I  I20  1  0.75000000  0.05209663  0.57042735  1
  I  I21  1  0.25000000  0.90439757  0.97600070  1
  I  I22  1  0.75000000  0.09560243  0.02399930  1
  I  I23  1  0.25000000  0.94790337  0.42957265  1
  O  O24  1  0.43502817  0.37675143  0.87525057  1
  O  O25  1  0.25000000  0.50601596  0.44160637  1
  O  O26  1  0.75000000  0.64914699  0.32476600  1
  O  O27  1  0.25000000  0.13239741  0.77008178  1
  O  O28  1  0.25000000  0.35085301  0.67523400  1
  O  O29  1  0.93612933  0.73329354  0.67434467  1
  O  O30  1  0.75000000  0.86760259  0.22991822  1
  O  O31  1  0.56497183  0.62324857  0.12474943  1
  O  O32  1  0.06497183  0.37675143  0.87525057  1
  O  O33  1  0.75000000  0.59174103  0.79882208  1
  O  O34  1  0.25000000  0.40825897  0.20117792  1
  O  O35  1  0.93502817  0.62324857  0.12474943  1
  O  O36  1  0.43612933  0.26670646  0.32565533  1
  O  O37  1  0.75000000  0.49398404  0.55839363  1
  O  O38  1  0.56387067  0.73329354  0.67434467  1
  O  O39  1  0.06387067  0.26670646  0.32565533  1
