# generated using pymatgen
data_Na6Nb8(PO7)5
_symmetry_space_group_name_H-M   'P 1'
_cell_length_a   11.43941456
_cell_length_b   11.43941448
_cell_length_c   11.43941437
_cell_angle_alpha   46.70442659
_cell_angle_beta   46.70442699
_cell_angle_gamma   46.70442885
_symmetry_Int_Tables_number   1
_chemical_formula_structural   Na6Nb8(PO7)5
_chemical_formula_sum   'Na6 Nb8 P5 O35'
_cell_volume   724.40879615
_cell_formula_units_Z   1
loop_
 _symmetry_equiv_pos_site_id
 _symmetry_equiv_pos_as_xyz
  1  'x, y, z'
loop_
 _atom_site_type_symbol
 _atom_site_label
 _atom_site_symmetry_multiplicity
 _atom_site_fract_x
 _atom_site_fract_y
 _atom_site_fract_z
 _atom_site_occupancy
  Na  Na0  1  0.58128329  0.41871671  0.00000000  1
  Na  Na1  1  0.00000000  0.58128329  0.41871671  1
  Na  Na2  1  0.50000000  0.28589187  0.71410813  1
  Na  Na3  1  0.41871671  1.00000000  0.58128329  1
  Na  Na4  1  0.28589187  0.71410813  0.50000000  1
  Na  Na5  1  0.71410813  0.50000000  0.28589187  1
  Nb  Nb6  1  0.23610952  0.23610952  0.23610952  1
  Nb  Nb7  1  0.82038289  0.07254841  0.29727611  1
  Nb  Nb8  1  0.29727611  0.82038289  0.07254841  1
  Nb  Nb9  1  0.17961711  0.70272389  0.92745159  1
  Nb  Nb10  1  0.07254841  0.29727611  0.82038289  1
  Nb  Nb11  1  0.70272389  0.92745159  0.17961711  1
  Nb  Nb12  1  0.76389048  0.76389048  0.76389048  1
  Nb  Nb13  1  0.92745159  0.17961711  0.70272389  1
  P  P14  1  0.40453964  0.40453964  0.40453964  1
  P  P15  1  0.93993743  0.06006257  0.50000000  1
  P  P16  1  0.06006257  0.50000000  0.93993743  1
  P  P17  1  0.50000000  0.93993743  0.06006257  1
  P  P18  1  0.59546036  0.59546036  0.59546036  1
  O  O19  1  0.38396862  0.84225191  0.16878634  1
  O  O20  1  0.71222578  0.92538107  0.55979794  1
  O  O21  1  0.12995304  0.04777345  0.38985538  1
  O  O22  1  0.44020206  0.07461893  0.28777422  1
  O  O23  1  0.72427051  0.43372853  0.68841525  1
  O  O24  1  0.95222655  0.87004696  0.61014462  1
  O  O25  1  0.09997204  0.94548282  0.74718880  1
  O  O26  1  0.76786147  1.00000000  0.23213853  1
  O  O27  1  0.45410115  0.45410115  0.45410115  1
  O  O28  1  0.61603138  0.83121366  0.15774809  1
  O  O29  1  0.87004696  0.61014462  0.95222655  1
  O  O30  1  0.04777345  0.38985538  0.12995304  1
  O  O31  1  0.05451718  0.90002796  0.25281120  1
  O  O32  1  0.56627147  0.27572949  0.31158475  1
  O  O33  1  0.43372853  0.68841525  0.72427051  1
  O  O34  1  0.84225191  0.16878634  0.38396862  1
  O  O35  1  0.83121366  0.15774809  0.61603138  1
  O  O36  1  0.07461893  0.28777422  0.44020206  1
  O  O37  1  0.68841525  0.72427051  0.43372853  1
  O  O38  1  0.25281120  0.05451718  0.90002796  1
  O  O39  1  0.31158475  0.56627147  0.27572949  1
  O  O40  1  0.90002796  0.25281120  0.05451718  1
  O  O41  1  0.00000000  0.23213853  0.76786147  1
  O  O42  1  0.92538107  0.55979794  0.71222578  1
  O  O43  1  0.55979794  0.71222578  0.92538107  1
  O  O44  1  0.74718880  0.09997204  0.94548282  1
  O  O45  1  0.27572949  0.31158475  0.56627147  1
  O  O46  1  0.61014462  0.95222655  0.87004696  1
  O  O47  1  0.16878634  0.38396862  0.84225191  1
  O  O48  1  0.28777422  0.44020206  0.07461893  1
  O  O49  1  0.54589885  0.54589885  0.54589885  1
  O  O50  1  0.23213853  0.76786147  0.00000000  1
  O  O51  1  0.15774809  0.61603138  0.83121366  1
  O  O52  1  0.94548282  0.74718880  0.09997204  1
  O  O53  1  0.38985538  0.12995304  0.04777345  1
