# generated using pymatgen
data_K4NpS2ClO10
_symmetry_space_group_name_H-M   'P 1'
_cell_length_a   4.58222923
_cell_length_b   10.23804134
_cell_length_c   14.53522017
_cell_angle_alpha   103.34220793
_cell_angle_beta   90.00000000
_cell_angle_gamma   90.00000000
_symmetry_Int_Tables_number   1
_chemical_formula_structural   K4NpS2ClO10
_chemical_formula_sum   'K8 Np2 S4 Cl2 O20'
_cell_volume   663.48670377
_cell_formula_units_Z   2
loop_
 _symmetry_equiv_pos_site_id
 _symmetry_equiv_pos_as_xyz
  1  'x, y, z'
loop_
 _atom_site_type_symbol
 _atom_site_label
 _atom_site_symmetry_multiplicity
 _atom_site_fract_x
 _atom_site_fract_y
 _atom_site_fract_z
 _atom_site_occupancy
  K  K0  1  0.76421377  0.56105515  0.39346476  1
  K  K1  1  0.22818419  0.56489905  0.13007584  1
  K  K2  1  0.23578623  0.06105515  0.89346476  1
  K  K3  1  0.23578623  0.43894485  0.60653524  1
  K  K4  1  0.77181581  0.43510095  0.86992416  1
  K  K5  1  0.22818419  0.93510095  0.36992416  1
  K  K6  1  0.76421377  0.93894485  0.10653524  1
  K  K7  1  0.77181581  0.06489905  0.63007584  1
  Np  Np8  1  0.26179890  0.25000000  0.25000000  1
  Np  Np9  1  0.73820110  0.75000000  0.75000000  1
  S  S10  1  0.65664983  0.22688754  0.43111114  1
  S  S11  1  0.34335017  0.77311246  0.56888886  1
  S  S12  1  0.34335017  0.72688754  0.93111114  1
  S  S13  1  0.65664983  0.27311246  0.06888886  1
  Cl  Cl14  1  0.73303369  0.75000000  0.25000000  1
  Cl  Cl15  1  0.26696631  0.25000000  0.75000000  1
  O  O16  1  0.74512046  0.16234506  0.98949959  1
  O  O17  1  0.66930591  0.72928537  0.91871476  1
  O  O18  1  0.73882725  0.93572638  0.78491191  1
  O  O19  1  0.66930591  0.77071463  0.58128524  1
  O  O20  1  0.22869971  0.75190387  0.83806061  1
  O  O21  1  0.25487954  0.66234506  0.48949959  1
  O  O22  1  0.33069409  0.22928537  0.41871476  1
  O  O23  1  0.25487954  0.83765494  0.01050041  1
  O  O24  1  0.77130029  0.24809613  0.16193939  1
  O  O25  1  0.25064734  0.59451887  0.94410084  1
  O  O26  1  0.74935266  0.40548113  0.05589916  1
  O  O27  1  0.25064734  0.90548113  0.55589916  1
  O  O28  1  0.22869971  0.74809613  0.66193939  1
  O  O29  1  0.77130029  0.25190387  0.33806061  1
  O  O30  1  0.74512046  0.33765494  0.51050041  1
  O  O31  1  0.26117275  0.43572638  0.28491191  1
  O  O32  1  0.74935266  0.09451887  0.44410084  1
  O  O33  1  0.26117275  0.06427362  0.21508809  1
  O  O34  1  0.73882725  0.56427362  0.71508809  1
  O  O35  1  0.33069409  0.27071463  0.08128524  1
