# generated using pymatgen
data_K4In2Si8O21
_symmetry_space_group_name_H-M   'P 1'
_cell_length_a   8.54499102
_cell_length_b   10.63780902
_cell_length_c   11.67418229
_cell_angle_alpha   90.00000000
_cell_angle_beta   90.00000000
_cell_angle_gamma   90.25588843
_symmetry_Int_Tables_number   1
_chemical_formula_structural   K4In2Si8O21
_chemical_formula_sum   'K8 In4 Si16 O42'
_cell_volume   1061.17238303
_cell_formula_units_Z   2
loop_
 _symmetry_equiv_pos_site_id
 _symmetry_equiv_pos_as_xyz
  1  'x, y, z'
loop_
 _atom_site_type_symbol
 _atom_site_label
 _atom_site_symmetry_multiplicity
 _atom_site_fract_x
 _atom_site_fract_y
 _atom_site_fract_z
 _atom_site_occupancy
  K  K0  1  0.98407370  0.20458129  0.64212079  1
  K  K1  1  0.50616297  0.30822011  0.53247850  1
  K  K2  1  0.01592630  0.79541871  0.35787921  1
  K  K3  1  0.51592630  0.29541871  0.14212079  1
  K  K4  1  0.00616297  0.80822011  0.96752150  1
  K  K5  1  0.99383703  0.19177989  0.03247850  1
  K  K6  1  0.49383703  0.69177989  0.46752150  1
  K  K7  1  0.48407370  0.70458129  0.85787921  1
  In  In8  1  0.19788656  0.46007579  0.33382720  1
  In  In9  1  0.69788656  0.96007579  0.16617280  1
  In  In10  1  0.30211344  0.03992421  0.83382720  1
  In  In11  1  0.80211344  0.53992421  0.66617280  1
  Si  Si12  1  0.31809313  0.00443642  0.54288053  1
  Si  Si13  1  0.68190687  0.99556358  0.45711947  1
  Si  Si14  1  0.17297616  0.78864174  0.67345476  1
  Si  Si15  1  0.18190687  0.49556358  0.04288053  1
  Si  Si16  1  0.20663899  0.50282349  0.63195727  1
  Si  Si17  1  0.81103985  0.83573306  0.66298357  1
  Si  Si18  1  0.18896015  0.16426694  0.33701643  1
  Si  Si19  1  0.68896015  0.66426694  0.16298357  1
  Si  Si20  1  0.70663899  0.00282349  0.86804273  1
  Si  Si21  1  0.67297616  0.28864174  0.82654524  1
  Si  Si22  1  0.32702384  0.71135826  0.17345476  1
  Si  Si23  1  0.79336101  0.49717651  0.36804273  1
  Si  Si24  1  0.82702384  0.21135826  0.32654524  1
  Si  Si25  1  0.29336101  0.99717651  0.13195727  1
  Si  Si26  1  0.81809313  0.50443642  0.95711947  1
  Si  Si27  1  0.31103985  0.33573306  0.83701643  1
  O  O28  1  0.29037552  0.44484572  0.93605378  1
  O  O29  1  0.47431814  0.03565812  0.14955290  1
  O  O30  1  0.51384563  0.72677380  0.13993752  1
  O  O31  1  0.25903593  0.85697863  0.56167026  1
  O  O32  1  0.81314239  0.77837366  0.15270763  1
  O  O33  1  0.68370920  0.59153719  0.28661026  1
  O  O34  1  0.02568186  0.46434188  0.64955290  1
  O  O35  1  0.22220837  0.00824997  0.00420581  1
  O  O36  1  0.24096407  0.64302137  0.06167026  1
  O  O37  1  0.75903593  0.35697863  0.93832974  1
  O  O38  1  0.52568186  0.96434188  0.85044710  1
  O  O39  1  0.98615437  0.77322620  0.63993752  1
  O  O40  1  0.79848911  0.13879255  0.20828267  1
  O  O41  1  0.74096407  0.14302137  0.43832974  1
  O  O42  1  0.79543222  0.59088632  0.84605103  1
  O  O43  1  0.31314239  0.27837366  0.34729237  1
  O  O44  1  0.72220837  0.50824997  0.49579419  1
  O  O45  1  0.27779163  0.49175003  0.50420581  1
  O  O46  1  0.20151089  0.86120745  0.79171733  1
  O  O47  1  0.20456778  0.40911368  0.15394897  1
  O  O48  1  0.81629080  0.90846281  0.78661026  1
  O  O49  1  0.48615437  0.27322620  0.86006248  1
  O  O50  1  0.25288952  0.85315524  0.18185286  1
  O  O51  1  0.20962448  0.05515428  0.43605378  1
  O  O52  1  0.29543222  0.09088632  0.65394897  1
  O  O53  1  0.70151089  0.36120745  0.70828267  1
  O  O54  1  0.29848911  0.63879255  0.29171733  1
  O  O55  1  0.77779163  0.99175003  0.99579419  1
  O  O56  1  0.18685761  0.22162634  0.84729237  1
  O  O57  1  0.31629080  0.40846281  0.71338974  1
  O  O58  1  0.50000000  0.00000000  0.50000000  1
  O  O59  1  0.70962448  0.55515428  0.06394622  1
  O  O60  1  0.24711048  0.64684476  0.68185286  1
  O  O61  1  0.75288952  0.35315524  0.31814714  1
  O  O62  1  0.18370920  0.09153719  0.21338974  1
  O  O63  1  0.68685761  0.72162634  0.65270763  1
  O  O64  1  0.74711048  0.14684476  0.81814714  1
  O  O65  1  0.01384563  0.22677380  0.36006248  1
  O  O66  1  0.70456778  0.90911368  0.34605103  1
  O  O67  1  0.97431814  0.53565812  0.35044710  1
  O  O68  1  0.79037552  0.94484572  0.56394622  1
  O  O69  1  0.00000000  0.50000000  0.00000000  1
