# generated using pymatgen
data_SClO2F
_symmetry_space_group_name_H-M   'P 1'
_cell_length_a   7.97947805
_cell_length_b   9.34626956
_cell_length_c   11.19383348
_cell_angle_alpha   90.00000000
_cell_angle_beta   90.00000000
_cell_angle_gamma   90.00000000
_symmetry_Int_Tables_number   1
_chemical_formula_structural   SClO2F
_chemical_formula_sum   'S8 Cl8 O16 F8'
_cell_volume   834.81766249
_cell_formula_units_Z   8
loop_
 _symmetry_equiv_pos_site_id
 _symmetry_equiv_pos_as_xyz
  1  'x, y, z'
loop_
 _atom_site_type_symbol
 _atom_site_label
 _atom_site_symmetry_multiplicity
 _atom_site_fract_x
 _atom_site_fract_y
 _atom_site_fract_z
 _atom_site_occupancy
  S  S0  1  0.00578911  0.19179624  0.55379845  1
  S  S1  1  0.51591387  0.09986362  0.19559283  1
  S  S2  1  0.48408613  0.09986362  0.69559283  1
  S  S3  1  0.51591387  0.59986362  0.30440717  1
  S  S4  1  0.99421089  0.69179624  0.44620155  1
  S  S5  1  0.99421089  0.19179624  0.05379845  1
  S  S6  1  0.00578911  0.69179624  0.94620155  1
  S  S7  1  0.48408613  0.59986362  0.80440717  1
  Cl  Cl8  1  0.51289413  0.44261943  0.92402133  1
  Cl  Cl9  1  0.51289413  0.94261943  0.57597867  1
  Cl  Cl10  1  0.00494203  0.34622244  0.17747628  1
  Cl  Cl11  1  0.99505797  0.84622244  0.82252372  1
  Cl  Cl12  1  0.99505797  0.34622244  0.67747628  1
  Cl  Cl13  1  0.48710587  0.44261943  0.42402133  1
  Cl  Cl14  1  0.00494203  0.84622244  0.32252372  1
  Cl  Cl15  1  0.48710587  0.94261943  0.07597867  1
  O  O16  1  0.53783943  0.73185997  0.85558155  1
  O  O17  1  0.93975783  0.06242035  0.60221710  1
  O  O18  1  0.93975783  0.56242035  0.89778290  1
  O  O19  1  0.83807390  0.69859926  0.50771655  1
  O  O20  1  0.46216057  0.23185997  0.14441845  1
  O  O21  1  0.16192610  0.19859926  0.49228345  1
  O  O22  1  0.06024217  0.06242035  0.10221710  1
  O  O23  1  0.53783943  0.23185997  0.64441845  1
  O  O24  1  0.67220734  0.08353348  0.25560184  1
  O  O25  1  0.32779266  0.58353348  0.74439816  1
  O  O26  1  0.46216057  0.73185997  0.35558155  1
  O  O27  1  0.67220734  0.58353348  0.24439816  1
  O  O28  1  0.83807390  0.19859926  0.99228345  1
  O  O29  1  0.06024217  0.56242035  0.39778290  1
  O  O30  1  0.16192610  0.69859926  0.00771655  1
  O  O31  1  0.32779266  0.08353348  0.75560184  1
  F  F32  1  0.86769464  0.25271062  0.46502472  1
  F  F33  1  0.62557845  0.05312460  0.78739936  1
  F  F34  1  0.37442155  0.05312460  0.28739936  1
  F  F35  1  0.86769464  0.75271062  0.03497528  1
  F  F36  1  0.13230536  0.75271062  0.53497528  1
  F  F37  1  0.37442155  0.55312460  0.21260064  1
  F  F38  1  0.13230536  0.25271062  0.96502472  1
  F  F39  1  0.62557845  0.55312460  0.71260064  1
