# generated using pymatgen
data_Sm4MnS7
_symmetry_space_group_name_H-M   'P 1'
_cell_length_a   6.75108556
_cell_length_b   9.78183787
_cell_length_c   9.78183788
_cell_angle_alpha   119.99999989
_cell_angle_beta   90.00000000
_cell_angle_gamma   90.00000000
_symmetry_Int_Tables_number   1
_chemical_formula_structural   Sm4MnS7
_chemical_formula_sum   'Sm8 Mn2 S14'
_cell_volume   559.42924390
_cell_formula_units_Z   2
loop_
 _symmetry_equiv_pos_site_id
 _symmetry_equiv_pos_as_xyz
  1  'x, y, z'
loop_
 _atom_site_type_symbol
 _atom_site_label
 _atom_site_symmetry_multiplicity
 _atom_site_fract_x
 _atom_site_fract_y
 _atom_site_fract_z
 _atom_site_occupancy
  Sm  Sm0  1  0.83039240  0.66666700  0.33333300  1
  Sm  Sm1  1  0.33039240  0.33333300  0.66666700  1
  Sm  Sm2  1  0.77940759  0.62220633  0.84243331  1
  Sm  Sm3  1  0.77940759  0.22022698  0.37779367  1
  Sm  Sm4  1  0.27940759  0.37779367  0.15756669  1
  Sm  Sm5  1  0.77940759  0.15756669  0.77977302  1
  Sm  Sm6  1  0.27940759  0.77977302  0.62220633  1
  Sm  Sm7  1  0.27940759  0.84243331  0.22022698  1
  Mn  Mn8  1  0.97098055  0.00000000  0.00000000  1
  Mn  Mn9  1  0.47098055  0.00000000  0.00000000  1
  S  S10  1  0.54673044  0.48776974  0.56185098  1
  S  S11  1  0.54673044  0.07408124  0.51223026  1
  S  S12  1  0.04673044  0.51223026  0.43814902  1
  S  S13  1  0.54673044  0.43814902  0.92591876  1
  S  S14  1  0.04673044  0.92591876  0.48776974  1
  S  S15  1  0.04673044  0.56185098  0.07408124  1
  S  S16  1  0.44124438  0.66666700  0.33333300  1
  S  S17  1  0.94124438  0.33333300  0.66666700  1
  S  S18  1  0.69432287  0.89432262  0.13431134  1
  S  S19  1  0.69432287  0.23998872  0.10567738  1
  S  S20  1  0.19432287  0.10567738  0.86568866  1
  S  S21  1  0.69432287  0.86568866  0.76001128  1
  S  S22  1  0.19432287  0.76001128  0.89432262  1
  S  S23  1  0.19432287  0.13431134  0.23998872  1
