# generated using pymatgen
data_KGdCO3F2
_symmetry_space_group_name_H-M   'P 1'
_cell_length_a   6.67499838
_cell_length_b   6.67499375
_cell_length_c   11.59189244
_cell_angle_alpha   99.28056414
_cell_angle_beta   99.28048974
_cell_angle_gamma   116.09283370
_symmetry_Int_Tables_number   1
_chemical_formula_structural   KGdCO3F2
_chemical_formula_sum   'K4 Gd4 C4 O12 F8'
_cell_volume   441.78498688
_cell_formula_units_Z   4
loop_
 _symmetry_equiv_pos_site_id
 _symmetry_equiv_pos_as_xyz
  1  'x, y, z'
loop_
 _atom_site_type_symbol
 _atom_site_label
 _atom_site_symmetry_multiplicity
 _atom_site_fract_x
 _atom_site_fract_y
 _atom_site_fract_z
 _atom_site_occupancy
  K  K0  1  0.20722474  0.95733112  0.91468909  1
  K  K1  1  0.04266657  0.79277311  0.58531005  1
  K  K2  1  0.95733343  0.20722689  0.41468995  1
  K  K3  1  0.79277526  0.04266888  0.08531091  1
  Gd  Gd4  1  0.80757899  0.19242074  0.74999973  1
  Gd  Gd5  1  0.55759410  0.44240612  0.24999974  1
  Gd  Gd6  1  0.44240590  0.55759388  0.75000026  1
  Gd  Gd7  1  0.19242101  0.80757926  0.25000027  1
  C  C8  1  0.49723004  0.74721419  0.49439943  1
  C  C9  1  0.25278580  0.50276994  0.00560045  1
  C  C10  1  0.50276996  0.25278581  0.50560057  1
  C  C11  1  0.74721420  0.49723006  0.99439955  1
  O  O12  1  0.56236291  0.31230913  0.62471639  1
  O  O13  1  0.43763709  0.68769087  0.37528361  1
  O  O14  1  0.63332104  0.38504836  0.44849796  1
  O  O15  1  0.61495143  0.36667868  0.05150187  1
  O  O16  1  0.06347886  0.31507179  0.94849668  1
  O  O17  1  0.68769091  0.43763733  0.87528364  1
  O  O18  1  0.31507173  0.06347905  0.44849703  1
  O  O19  1  0.93652114  0.68492821  0.05150332  1
  O  O20  1  0.36667896  0.61495164  0.55150204  1
  O  O21  1  0.38504857  0.63332132  0.94849813  1
  O  O22  1  0.31230909  0.56236267  0.12471636  1
  O  O23  1  0.68492827  0.93652095  0.55150297  1
  F  F24  1  0.06807848  0.52695936  0.71759660  1
  F  F25  1  0.14950305  0.19069035  0.71754534  1
  F  F26  1  0.47304095  0.93192184  0.78240370  1
  F  F27  1  0.93192152  0.47304064  0.28240340  1
  F  F28  1  0.80930930  0.85049702  0.78245482  1
  F  F29  1  0.19069070  0.14950298  0.21754518  1
  F  F30  1  0.85049695  0.80930965  0.28245466  1
  F  F31  1  0.52695905  0.06807816  0.21759630  1
