# generated using pymatgen
data_Nd3S3N
_symmetry_space_group_name_H-M   'P 1'
_cell_length_a   4.03582679
_cell_length_b   12.25745575
_cell_length_c   13.17380689
_cell_angle_alpha   90.00000000
_cell_angle_beta   90.00000000
_cell_angle_gamma   90.00000000
_symmetry_Int_Tables_number   1
_chemical_formula_structural   Nd3S3N
_chemical_formula_sum   'Nd12 S12 N4'
_cell_volume   651.69463534
_cell_formula_units_Z   4
loop_
 _symmetry_equiv_pos_site_id
 _symmetry_equiv_pos_as_xyz
  1  'x, y, z'
loop_
 _atom_site_type_symbol
 _atom_site_label
 _atom_site_symmetry_multiplicity
 _atom_site_fract_x
 _atom_site_fract_y
 _atom_site_fract_z
 _atom_site_occupancy
  Nd  Nd0  1  0.75000000  0.27799029  0.36633517  1
  Nd  Nd1  1  0.75000000  0.45967152  0.64863008  1
  Nd  Nd2  1  0.25000000  0.54032848  0.35136992  1
  Nd  Nd3  1  0.25000000  0.72200971  0.63366483  1
  Nd  Nd4  1  0.25000000  0.08283056  0.62823725  1
  Nd  Nd5  1  0.25000000  0.04032848  0.14863008  1
  Nd  Nd6  1  0.75000000  0.77799029  0.13366483  1
  Nd  Nd7  1  0.25000000  0.22200971  0.86633517  1
  Nd  Nd8  1  0.75000000  0.91716944  0.37176275  1
  Nd  Nd9  1  0.25000000  0.58283056  0.87176275  1
  Nd  Nd10  1  0.75000000  0.95967152  0.85136992  1
  Nd  Nd11  1  0.75000000  0.41716944  0.12823725  1
  S  S12  1  0.75000000  0.23101711  0.69801612  1
  S  S13  1  0.25000000  0.26898289  0.19801612  1
  S  S14  1  0.75000000  0.73101711  0.80198388  1
  S  S15  1  0.75000000  0.91877183  0.60682779  1
  S  S16  1  0.75000000  0.13922850  0.99599965  1
  S  S17  1  0.75000000  0.63922850  0.50400035  1
  S  S18  1  0.25000000  0.86077150  0.00400035  1
  S  S19  1  0.25000000  0.58122817  0.10682779  1
  S  S20  1  0.75000000  0.41877183  0.89317221  1
  S  S21  1  0.25000000  0.36077150  0.49599965  1
  S  S22  1  0.25000000  0.76898289  0.30198388  1
  S  S23  1  0.25000000  0.08122817  0.39317221  1
  N  N24  1  0.25000000  0.04638236  0.79828245  1
  N  N25  1  0.25000000  0.54638236  0.70171755  1
  N  N26  1  0.75000000  0.45361764  0.29828245  1
  N  N27  1  0.75000000  0.95361764  0.20171755  1
