# generated using pymatgen
data_Rb2LiNbS4
_symmetry_space_group_name_H-M   'P 1'
_cell_length_a   7.18801642
_cell_length_b   11.56855397
_cell_length_c   12.07045825
_cell_angle_alpha   71.52782887
_cell_angle_beta   87.68498994
_cell_angle_gamma   83.71963224
_symmetry_Int_Tables_number   1
_chemical_formula_structural   Rb2LiNbS4
_chemical_formula_sum   'Rb8 Li4 Nb4 S16'
_cell_volume   946.27354814
_cell_formula_units_Z   4
loop_
 _symmetry_equiv_pos_site_id
 _symmetry_equiv_pos_as_xyz
  1  'x, y, z'
loop_
 _atom_site_type_symbol
 _atom_site_label
 _atom_site_symmetry_multiplicity
 _atom_site_fract_x
 _atom_site_fract_y
 _atom_site_fract_z
 _atom_site_occupancy
  Rb  Rb0  1  0.26388383  0.37607921  0.27668794  1
  Rb  Rb1  1  0.73611617  0.62392079  0.72331206  1
  Rb  Rb2  1  0.75207497  0.15460977  0.85728009  1
  Rb  Rb3  1  0.75148050  0.65037669  0.34918857  1
  Rb  Rb4  1  0.24792503  0.84539023  0.14271991  1
  Rb  Rb5  1  0.68438011  0.09728002  0.24961506  1
  Rb  Rb6  1  0.31561989  0.90271998  0.75038494  1
  Rb  Rb7  1  0.24851950  0.34962331  0.65081143  1
  Li  Li8  1  0.17678382  0.01130256  0.41529806  1
  Li  Li9  1  0.77821004  0.47818788  0.07093944  1
  Li  Li10  1  0.82321618  0.98869744  0.58470194  1
  Li  Li11  1  0.22178996  0.52181212  0.92906056  1
  Nb  Nb12  1  0.21776020  0.23082904  0.01435937  1
  Nb  Nb13  1  0.78223980  0.76917096  0.98564063  1
  Nb  Nb14  1  0.77568469  0.27261360  0.48558498  1
  Nb  Nb15  1  0.22431531  0.72738640  0.51441502  1
  S  S16  1  0.76196749  0.37878810  0.28969157  1
  S  S17  1  0.25273009  0.59973029  0.40293127  1
  S  S18  1  0.74726991  0.40026971  0.59706873  1
  S  S19  1  0.94713004  0.85345746  0.46774259  1
  S  S20  1  0.23803251  0.62121190  0.71030843  1
  S  S21  1  0.54552555  0.14375337  0.53142806  1
  S  S22  1  0.03194733  0.62631539  0.05968980  1
  S  S23  1  0.73215019  0.89463771  0.09905408  1
  S  S24  1  0.53196538  0.65992719  0.99421665  1
  S  S25  1  0.96805267  0.37368461  0.94031020  1
  S  S26  1  0.05286996  0.14654254  0.53225741  1
  S  S27  1  0.17084488  0.11752155  0.20532799  1
  S  S28  1  0.45447445  0.85624663  0.46857194  1
  S  S29  1  0.26784981  0.10536229  0.90094592  1
  S  S30  1  0.46803462  0.34007281  0.00578335  1
  S  S31  1  0.82915512  0.88247845  0.79467201  1
