# generated using pymatgen
data_K3Na2InO4
_symmetry_space_group_name_H-M   'P 1'
_cell_length_a   7.35206390
_cell_length_b   9.81555613
_cell_length_c   10.27983824
_cell_angle_alpha   90.00000000
_cell_angle_beta   90.84645181
_cell_angle_gamma   90.00000000
_symmetry_Int_Tables_number   1
_chemical_formula_structural   K3Na2InO4
_chemical_formula_sum   'K12 Na8 In4 O16'
_cell_volume   741.75941924
_cell_formula_units_Z   4
loop_
 _symmetry_equiv_pos_site_id
 _symmetry_equiv_pos_as_xyz
  1  'x, y, z'
loop_
 _atom_site_type_symbol
 _atom_site_label
 _atom_site_symmetry_multiplicity
 _atom_site_fract_x
 _atom_site_fract_y
 _atom_site_fract_z
 _atom_site_occupancy
  K  K0  1  0.73635561  0.99304544  0.51803627  1
  K  K1  1  0.32675473  0.66215811  0.39770118  1
  K  K2  1  0.89629904  0.25472843  0.33755210  1
  K  K3  1  0.17324527  0.16215811  0.10229882  1
  K  K4  1  0.67324527  0.33784189  0.60229882  1
  K  K5  1  0.23635561  0.50695456  0.01803627  1
  K  K6  1  0.82675473  0.83784189  0.89770118  1
  K  K7  1  0.26364439  0.00695456  0.48196373  1
  K  K8  1  0.76364439  0.49304544  0.98196373  1
  K  K9  1  0.60370096  0.75472843  0.16244790  1
  K  K10  1  0.10370096  0.74527157  0.66244790  1
  K  K11  1  0.39629904  0.24527157  0.83755210  1
  Na  Na12  1  0.24415384  0.83467845  0.99245770  1
  Na  Na13  1  0.54037630  0.06761379  0.22522600  1
  Na  Na14  1  0.45962370  0.93238621  0.77477400  1
  Na  Na15  1  0.04037630  0.43238621  0.72522600  1
  Na  Na16  1  0.95962370  0.56761379  0.27477400  1
  Na  Na17  1  0.74415384  0.66532155  0.49245770  1
  Na  Na18  1  0.75584616  0.16532155  0.00754230  1
  Na  Na19  1  0.25584616  0.33467845  0.50754230  1
  In  In20  1  0.47614778  0.36645990  0.27085669  1
  In  In21  1  0.97614778  0.13354010  0.77085669  1
  In  In22  1  0.52385222  0.63354010  0.72914331  1
  In  In23  1  0.02385222  0.86645990  0.22914331  1
  O  O24  1  0.34251819  0.47565210  0.68236458  1
  O  O25  1  0.30135189  0.91816439  0.20989182  1
  O  O26  1  0.98704079  0.70553939  0.09177819  1
  O  O27  1  0.84251819  0.02434790  0.18236458  1
  O  O28  1  0.48687221  0.71264040  0.91720991  1
  O  O29  1  0.01312779  0.21264040  0.58279009  1
  O  O30  1  0.48704079  0.79446061  0.59177819  1
  O  O31  1  0.51295921  0.20553939  0.40822181  1
  O  O32  1  0.15748181  0.97565210  0.81763542  1
  O  O33  1  0.19864811  0.41816439  0.29010818  1
  O  O34  1  0.65748181  0.52434790  0.31763542  1
  O  O35  1  0.80135189  0.58183561  0.70989182  1
  O  O36  1  0.69864811  0.08183561  0.79010818  1
  O  O37  1  0.98687221  0.78735960  0.41720991  1
  O  O38  1  0.51312779  0.28735960  0.08279009  1
  O  O39  1  0.01295921  0.29446061  0.90822181  1
