# generated using pymatgen
data_NaLiB4O7
_symmetry_space_group_name_H-M   'P 1'
_cell_length_a   8.51312852
_cell_length_b   8.51312801
_cell_length_c   8.85085343
_cell_angle_alpha   111.26450772
_cell_angle_beta   111.26450613
_cell_angle_gamma   104.23364325
_symmetry_Int_Tables_number   1
_chemical_formula_structural   NaLiB4O7
_chemical_formula_sum   'Na4 Li4 B16 O28'
_cell_volume   501.72720575
_cell_formula_units_Z   4
loop_
 _symmetry_equiv_pos_site_id
 _symmetry_equiv_pos_as_xyz
  1  'x, y, z'
loop_
 _atom_site_type_symbol
 _atom_site_label
 _atom_site_symmetry_multiplicity
 _atom_site_fract_x
 _atom_site_fract_y
 _atom_site_fract_z
 _atom_site_occupancy
  Na  Na0  1  0.96525059  0.26279573  0.97950150  1
  Na  Na1  1  0.28329422  0.98574909  0.02049850  1
  Na  Na2  1  0.23574909  0.03329422  0.52049850  1
  Na  Na3  1  0.51279573  0.71525059  0.47950150  1
  Li  Li4  1  0.49095334  0.49584869  0.72948358  1
  Li  Li5  1  0.74584869  0.24095334  0.22948358  1
  Li  Li6  1  0.01146977  0.51636512  0.77051642  1
  Li  Li7  1  0.76636512  0.76146977  0.27051642  1
  B  B8  1  0.94167682  0.77050437  0.05485104  1
  B  B9  1  0.13682577  0.46565333  0.44514896  1
  B  B10  1  0.02050437  0.69167682  0.55485104  1
  B  B11  1  0.63999329  0.21092824  0.65303134  1
  B  B12  1  0.55789690  0.98696195  0.34696866  1
  B  B13  1  0.71565333  0.88682577  0.94514896  1
  B  B14  1  0.36148942  0.76963439  0.73995384  1
  B  B15  1  0.54515145  0.29629965  0.40970957  1
  B  B16  1  0.88659008  0.13544188  0.59029043  1
  B  B17  1  0.02968055  0.62153558  0.26004616  1
  B  B18  1  0.87153558  0.77968055  0.76004616  1
  B  B19  1  0.54629965  0.29515145  0.90970957  1
  B  B20  1  0.01963439  0.11148942  0.23995384  1
  B  B21  1  0.38544188  0.63659008  0.09029043  1
  B  B22  1  0.23696195  0.30789690  0.84696866  1
  B  B23  1  0.46092824  0.38999329  0.15303134  1
  O  O24  1  0.75285245  0.85890798  0.78485745  1
  O  O25  1  0.58982063  0.32845714  0.08861514  1
  O  O26  1  0.83851989  0.26058560  0.69433683  1
  O  O27  1  0.10890798  0.50285245  0.28485745  1
  O  O28  1  0.33293514  0.60047122  0.60600949  1
  O  O29  1  0.06813139  0.16168405  0.66878265  1
  O  O30  1  0.85047122  0.08293514  0.10600949  1
  O  O31  1  0.51058560  0.58851989  0.19433683  1
  O  O32  1  0.88446160  0.73648454  0.60237939  1
  O  O33  1  0.75120549  0.98984200  0.41138486  1
  O  O34  1  0.74656882  0.74656882  0.00000000  1
  O  O35  1  0.99446173  0.72692565  0.39399051  1
  O  O36  1  0.99656882  0.49656882  0.50000000  1
  O  O37  1  0.57845714  0.33982063  0.58861514  1
  O  O38  1  0.07405053  0.96799500  0.21514255  1
  O  O39  1  0.23984200  0.50120549  0.91138486  1
  O  O40  1  0.26680538  0.26680538  0.00000000  1
  O  O41  1  0.41168405  0.81813139  0.16878265  1
  O  O42  1  0.49290140  0.39934874  0.33121735  1
  O  O43  1  0.13410515  0.28208220  0.39762061  1
  O  O44  1  0.53208220  0.88410515  0.89762061  1
  O  O45  1  0.51680538  0.01680538  0.50000000  1
  O  O46  1  0.97692565  0.74446173  0.89399051  1
  O  O47  1  0.98648454  0.63446160  0.10237939  1
  O  O48  1  0.21799500  0.82405053  0.71514255  1
  O  O49  1  0.39418306  0.31624878  0.80566317  1
  O  O50  1  0.64934874  0.24290140  0.83121735  1
  O  O51  1  0.56624878  0.14418306  0.30566317  1
