# generated using pymatgen
data_SmSeClO3
_symmetry_space_group_name_H-M   'P 1'
_cell_length_a   7.18494473
_cell_length_b   7.40724928
_cell_length_c   9.05496722
_cell_angle_alpha   90.00000000
_cell_angle_beta   90.00000000
_cell_angle_gamma   90.00000000
_symmetry_Int_Tables_number   1
_chemical_formula_structural   SmSeClO3
_chemical_formula_sum   'Sm4 Se4 Cl4 O12'
_cell_volume   481.91148275
_cell_formula_units_Z   4
loop_
 _symmetry_equiv_pos_site_id
 _symmetry_equiv_pos_as_xyz
  1  'x, y, z'
loop_
 _atom_site_type_symbol
 _atom_site_label
 _atom_site_symmetry_multiplicity
 _atom_site_fract_x
 _atom_site_fract_y
 _atom_site_fract_z
 _atom_site_occupancy
  Sm  Sm0  1  0.25000000  0.10973566  0.46084741  1
  Sm  Sm1  1  0.75000000  0.39026434  0.96084741  1
  Sm  Sm2  1  0.75000000  0.89026434  0.53915259  1
  Sm  Sm3  1  0.25000000  0.60973566  0.03915259  1
  Se  Se4  1  0.75000000  0.78816658  0.13127120  1
  Se  Se5  1  0.25000000  0.71183342  0.63127120  1
  Se  Se6  1  0.75000000  0.28816658  0.36872880  1
  Se  Se7  1  0.25000000  0.21183342  0.86872880  1
  Cl  Cl8  1  0.75000000  0.55079468  0.67984394  1
  Cl  Cl9  1  0.25000000  0.94920532  0.17984394  1
  Cl  Cl10  1  0.25000000  0.44920532  0.32015606  1
  Cl  Cl11  1  0.75000000  0.05079468  0.82015606  1
  O  O12  1  0.42510452  0.85694270  0.56722490  1
  O  O13  1  0.57489548  0.14305730  0.43277510  1
  O  O14  1  0.25000000  0.75294399  0.81608354  1
  O  O15  1  0.75000000  0.24705601  0.18391646  1
  O  O16  1  0.57489548  0.64305730  0.06722490  1
  O  O17  1  0.92510452  0.14305730  0.43277510  1
  O  O18  1  0.07489548  0.35694270  0.93277510  1
  O  O19  1  0.75000000  0.74705601  0.31608354  1
  O  O20  1  0.92510452  0.64305730  0.06722490  1
  O  O21  1  0.07489548  0.85694270  0.56722490  1
  O  O22  1  0.42510452  0.35694270  0.93277510  1
  O  O23  1  0.25000000  0.25294399  0.68391646  1
