# generated using pymatgen
data_KPr(SO4)2
_symmetry_space_group_name_H-M   'P 1'
_cell_length_a   5.50169992
_cell_length_b   7.06333783
_cell_length_c   8.63155183
_cell_angle_alpha   85.82502092
_cell_angle_beta   88.62857546
_cell_angle_gamma   88.39206030
_symmetry_Int_Tables_number   1
_chemical_formula_structural   KPr(SO4)2
_chemical_formula_sum   'K2 Pr2 S4 O16'
_cell_volume   334.32280835
_cell_formula_units_Z   2
loop_
 _symmetry_equiv_pos_site_id
 _symmetry_equiv_pos_as_xyz
  1  'x, y, z'
loop_
 _atom_site_type_symbol
 _atom_site_label
 _atom_site_symmetry_multiplicity
 _atom_site_fract_x
 _atom_site_fract_y
 _atom_site_fract_z
 _atom_site_occupancy
  K  K0  1  0.24742932  0.65277246  0.31317619  1
  K  K1  1  0.75257068  0.34722754  0.68682381  1
  Pr  Pr2  1  0.81203947  0.18119660  0.20571053  1
  Pr  Pr3  1  0.18796053  0.81880340  0.79428947  1
  S  S4  1  0.72093010  0.70073430  0.04650375  1
  S  S5  1  0.27906990  0.29926570  0.95349625  1
  S  S6  1  0.25727947  0.17316147  0.43018732  1
  S  S7  1  0.74272053  0.82683853  0.56981268  1
  O  O8  1  0.27170227  0.07730782  0.58736827  1
  O  O9  1  0.22332078  0.03805674  0.30744566  1
  O  O10  1  0.77667922  0.96194326  0.69255434  1
  O  O11  1  0.72829773  0.92269218  0.41263173  1
  O  O12  1  0.53191404  0.22807809  0.98791462  1
  O  O13  1  0.84009016  0.62778935  0.90518364  1
  O  O14  1  0.15990984  0.37221065  0.09481636  1
  O  O15  1  0.96152975  0.69395618  0.57721033  1
  O  O16  1  0.71167535  0.55074350  0.17548054  1
  O  O17  1  0.03847025  0.30604382  0.42278967  1
  O  O18  1  0.48179078  0.28384988  0.39435838  1
  O  O19  1  0.87046584  0.86263000  0.08997177  1
  O  O20  1  0.12953416  0.13737000  0.91002823  1
  O  O21  1  0.28832465  0.44925650  0.82451946  1
  O  O22  1  0.46808596  0.77192191  0.01208538  1
  O  O23  1  0.51820922  0.71615012  0.60564162  1
