# generated using pymatgen
data_Y7C3I6O
_symmetry_space_group_name_H-M   'P 1'
_cell_length_a   3.86192532
_cell_length_b   11.52909444
_cell_length_c   22.65131931
_cell_angle_alpha   90.00000000
_cell_angle_beta   90.00000000
_cell_angle_gamma   90.00000000
_symmetry_Int_Tables_number   1
_chemical_formula_structural   Y7C3I6O
_chemical_formula_sum   'Y14 C6 I12 O2'
_cell_volume   1008.53870591
_cell_formula_units_Z   2
loop_
 _symmetry_equiv_pos_site_id
 _symmetry_equiv_pos_as_xyz
  1  'x, y, z'
loop_
 _atom_site_type_symbol
 _atom_site_label
 _atom_site_symmetry_multiplicity
 _atom_site_fract_x
 _atom_site_fract_y
 _atom_site_fract_z
 _atom_site_occupancy
  Y  Y0  1  0.50000000  0.63721129  0.96947796  1
  Y  Y1  1  0.00000000  0.70195555  0.66483141  1
  Y  Y2  1  0.50000000  0.51622615  0.75000000  1
  Y  Y3  1  0.00000000  0.43761390  0.60500772  1
  Y  Y4  1  0.00000000  0.29804445  0.16483141  1
  Y  Y5  1  0.50000000  0.48377385  0.25000000  1
  Y  Y6  1  0.50000000  0.36278871  0.46947796  1
  Y  Y7  1  0.00000000  0.43761390  0.89499228  1
  Y  Y8  1  0.00000000  0.56238610  0.10500772  1
  Y  Y9  1  0.00000000  0.70195555  0.83516859  1
  Y  Y10  1  0.50000000  0.63721129  0.53052204  1
  Y  Y11  1  0.50000000  0.36278871  0.03052204  1
  Y  Y12  1  0.00000000  0.29804445  0.33516859  1
  Y  Y13  1  0.00000000  0.56238610  0.39499228  1
  C  C14  1  0.50000000  0.42395443  0.13656293  1
  C  C15  1  0.50000000  0.57604557  0.63656293  1
  C  C16  1  0.00000000  0.50000000  0.00000000  1
  C  C17  1  0.50000000  0.57604557  0.86343707  1
  C  C18  1  0.00000000  0.50000000  0.50000000  1
  C  C19  1  0.50000000  0.42395443  0.36343707  1
  I  I20  1  0.50000000  0.12995905  0.25000000  1
  I  I21  1  0.00000000  0.69290062  0.25000000  1
  I  I22  1  0.00000000  0.14260747  0.05807751  1
  I  I23  1  0.50000000  0.22795242  0.90813125  1
  I  I24  1  0.50000000  0.77204758  0.40813125  1
  I  I25  1  0.00000000  0.85739253  0.94192249  1
  I  I26  1  0.00000000  0.14260747  0.44192249  1
  I  I27  1  0.50000000  0.77204758  0.09186875  1
  I  I28  1  0.00000000  0.85739253  0.55807751  1
  I  I29  1  0.00000000  0.30709938  0.75000000  1
  I  I30  1  0.50000000  0.22795242  0.59186875  1
  I  I31  1  0.50000000  0.87004095  0.75000000  1
  O  O32  1  0.00000000  0.61281234  0.75000000  1
  O  O33  1  0.00000000  0.38718766  0.25000000  1
