# generated using pymatgen
data_Na2Al2B2O7
_symmetry_space_group_name_H-M   'P 1'
_cell_length_a   4.87257090
_cell_length_b   4.87257088
_cell_length_c   15.59450910
_cell_angle_alpha   90.00000000
_cell_angle_beta   90.00000000
_cell_angle_gamma   120.00000012
_symmetry_Int_Tables_number   1
_chemical_formula_structural   Na2Al2B2O7
_chemical_formula_sum   'Na4 Al4 B4 O14'
_cell_volume   320.64071776
_cell_formula_units_Z   2
loop_
 _symmetry_equiv_pos_site_id
 _symmetry_equiv_pos_as_xyz
  1  'x, y, z'
loop_
 _atom_site_type_symbol
 _atom_site_label
 _atom_site_symmetry_multiplicity
 _atom_site_fract_x
 _atom_site_fract_y
 _atom_site_fract_z
 _atom_site_occupancy
  Na  Na0  1  0.00000000  0.00000000  0.25000000  1
  Na  Na1  1  0.00000000  0.00000000  0.50000000  1
  Na  Na2  1  0.00000000  0.00000000  0.00000000  1
  Na  Na3  1  0.00000000  0.00000000  0.75000000  1
  Al  Al4  1  0.33333300  0.66666700  0.63880267  1
  Al  Al5  1  0.66666700  0.33333300  0.13880267  1
  Al  Al6  1  0.33333300  0.66666700  0.86119733  1
  Al  Al7  1  0.66666700  0.33333300  0.36119733  1
  B  B8  1  0.66666700  0.33333300  0.89588116  1
  B  B9  1  0.33333300  0.66666700  0.39588116  1
  B  B10  1  0.33333300  0.66666700  0.10411884  1
  B  B11  1  0.66666700  0.33333300  0.60411884  1
  O  O12  1  0.96070139  0.60558530  0.89592996  1
  O  O13  1  0.39441470  0.03929861  0.60407004  1
  O  O14  1  0.96070139  0.35511609  0.60407004  1
  O  O15  1  0.35511609  0.39441470  0.39592996  1
  O  O16  1  0.03929861  0.64488391  0.39592996  1
  O  O17  1  0.64488391  0.03929861  0.89592996  1
  O  O18  1  0.60558530  0.64488391  0.10407004  1
  O  O19  1  0.03929861  0.39441470  0.10407004  1
  O  O20  1  0.35511609  0.96070139  0.10407004  1
  O  O21  1  0.64488391  0.60558530  0.60407004  1
  O  O22  1  0.39441470  0.35511609  0.89592996  1
  O  O23  1  0.60558530  0.96070139  0.39592996  1
  O  O24  1  0.66666700  0.33333300  0.25000000  1
  O  O25  1  0.33333300  0.66666700  0.75000000  1
