# generated using pymatgen
data_KLa2NbO6
_symmetry_space_group_name_H-M   'P 1'
_cell_length_a   5.82889441
_cell_length_b   7.05114729
_cell_length_c   8.97140040
_cell_angle_alpha   104.49767212
_cell_angle_beta   90.00000000
_cell_angle_gamma   114.41416135
_symmetry_Int_Tables_number   1
_chemical_formula_structural   KLa2NbO6
_chemical_formula_sum   'K2 La4 Nb2 O12'
_cell_volume   322.81891354
_cell_formula_units_Z   2
loop_
 _symmetry_equiv_pos_site_id
 _symmetry_equiv_pos_as_xyz
  1  'x, y, z'
loop_
 _atom_site_type_symbol
 _atom_site_label
 _atom_site_symmetry_multiplicity
 _atom_site_fract_x
 _atom_site_fract_y
 _atom_site_fract_z
 _atom_site_occupancy
  K  K0  1  0.11542290  0.23084580  0.48085956  1
  K  K1  1  0.88457710  0.76915420  0.51914044  1
  La  La2  1  0.12973608  0.25947217  0.92828442  1
  La  La3  1  0.87026392  0.74052783  0.07171558  1
  La  La4  1  0.58841130  0.17682260  0.20492888  1
  La  La5  1  0.41158870  0.82317740  0.79507112  1
  Nb  Nb6  1  0.34071648  0.68143296  0.29694186  1
  Nb  Nb7  1  0.65928352  0.31856704  0.70305814  1
  O  O8  1  0.77966210  0.09682711  0.70750488  1
  O  O9  1  0.68283499  0.90317289  0.29249512  1
  O  O10  1  0.74771370  0.00000000  0.00000000  1
  O  O11  1  0.00417941  0.47277322  0.16781371  1
  O  O12  1  0.22033790  0.90317289  0.29249512  1
  O  O13  1  0.99582059  0.52722678  0.83218629  1
  O  O14  1  0.53140619  0.52722678  0.83218629  1
  O  O15  1  0.67705566  0.35411133  0.50390207  1
  O  O16  1  0.32294434  0.64588867  0.49609793  1
  O  O17  1  0.25228630  0.00000000  0.00000000  1
  O  O18  1  0.46859381  0.47277322  0.16781371  1
  O  O19  1  0.31716501  0.09682711  0.70750488  1
