# generated using pymatgen
data_Sn2P2O7
_symmetry_space_group_name_H-M   'P 1'
_cell_length_a   5.39058367
_cell_length_b   11.76963613
_cell_length_c   11.88075924
_cell_angle_alpha   102.18048311
_cell_angle_beta   99.13600030
_cell_angle_gamma   98.73572792
_symmetry_Int_Tables_number   1
_chemical_formula_structural   Sn2P2O7
_chemical_formula_sum   'Sn8 P8 O28'
_cell_volume   713.91464245
_cell_formula_units_Z   4
loop_
 _symmetry_equiv_pos_site_id
 _symmetry_equiv_pos_as_xyz
  1  'x, y, z'
loop_
 _atom_site_type_symbol
 _atom_site_label
 _atom_site_symmetry_multiplicity
 _atom_site_fract_x
 _atom_site_fract_y
 _atom_site_fract_z
 _atom_site_occupancy
  Sn  Sn0  1  0.26879253  0.49940555  0.14275400  1
  Sn  Sn1  1  0.83102896  0.15102631  0.02350426  1
  Sn  Sn2  1  0.73120747  0.50059445  0.85724600  1
  Sn  Sn3  1  0.16897104  0.84897369  0.97649574  1
  Sn  Sn4  1  0.22829619  0.36384410  0.46796229  1
  Sn  Sn5  1  0.68529062  0.94441458  0.36847626  1
  Sn  Sn6  1  0.31470938  0.05558542  0.63152374  1
  Sn  Sn7  1  0.77170381  0.63615590  0.53203771  1
  P  P8  1  0.82454067  0.27952866  0.64925431  1
  P  P9  1  0.79538670  0.73060192  0.14523623  1
  P  P10  1  0.31281667  0.67320976  0.74399375  1
  P  P11  1  0.68718333  0.32679024  0.25600625  1
  P  P12  1  0.71297155  0.88386213  0.74570657  1
  P  P13  1  0.28702845  0.11613787  0.25429343  1
  P  P14  1  0.17545933  0.72047134  0.35074569  1
  P  P15  1  0.20461330  0.26939808  0.85476377  1
  O  O16  1  0.58777543  0.18410234  0.58661100  1
  O  O17  1  0.43906310  0.81151543  0.75740439  1
  O  O18  1  0.33921648  0.17134761  0.80181418  1
  O  O19  1  0.88723533  0.91667478  0.86863483  1
  O  O20  1  0.41222457  0.81589766  0.41338900  1
  O  O21  1  0.82632212  0.80869383  0.65370625  1
  O  O22  1  0.17367788  0.19130617  0.34629375  1
  O  O23  1  0.35303473  0.00405690  0.28705234  1
  O  O24  1  0.14782638  0.25633310  0.97518087  1
  O  O25  1  0.04527082  0.27026532  0.58317103  1
  O  O26  1  0.95472918  0.72973468  0.41682897  1
  O  O27  1  0.34384235  0.39433278  0.86130041  1
  O  O28  1  0.75841537  0.40338789  0.67852102  1
  O  O29  1  0.84344904  0.37475335  0.38127350  1
  O  O30  1  0.66078352  0.82865239  0.19818582  1
  O  O31  1  0.64696527  0.99594310  0.71294766  1
  O  O32  1  0.53399151  0.60725999  0.76172056  1
  O  O33  1  0.65615765  0.60566722  0.13869959  1
  O  O34  1  0.14887901  0.68075966  0.83933461  1
  O  O35  1  0.85112099  0.31924034  0.16066539  1
  O  O36  1  0.24158463  0.59661211  0.32147898  1
  O  O37  1  0.91906364  0.24934855  0.77506703  1
  O  O38  1  0.56093690  0.18848457  0.24259561  1
  O  O39  1  0.08093636  0.75065145  0.22493297  1
  O  O40  1  0.11276467  0.08332522  0.13136517  1
  O  O41  1  0.15655096  0.62524665  0.61872650  1
  O  O42  1  0.46600849  0.39274001  0.23827944  1
  O  O43  1  0.85217362  0.74366690  0.02481913  1
