# generated using pymatgen
data_K4Ti2PO4F9
_symmetry_space_group_name_H-M   'P 1'
_cell_length_a   5.93705187
_cell_length_b   11.16271521
_cell_length_c   19.71319247
_cell_angle_alpha   90.00000000
_cell_angle_beta   90.98260239
_cell_angle_gamma   90.00000000
_symmetry_Int_Tables_number   1
_chemical_formula_structural   K4Ti2PO4F9
_chemical_formula_sum   'K16 Ti8 P4 O16 F36'
_cell_volume   1306.27249457
_cell_formula_units_Z   4
loop_
 _symmetry_equiv_pos_site_id
 _symmetry_equiv_pos_as_xyz
  1  'x, y, z'
loop_
 _atom_site_type_symbol
 _atom_site_label
 _atom_site_symmetry_multiplicity
 _atom_site_fract_x
 _atom_site_fract_y
 _atom_site_fract_z
 _atom_site_occupancy
  K  K0  1  0.51020728  0.04626959  0.16728187  1
  K  K1  1  0.01020728  0.45373041  0.66728187  1
  K  K2  1  0.02786723  0.26891837  0.48424448  1
  K  K3  1  0.97213277  0.73108163  0.51575552  1
  K  K4  1  0.01223957  0.75602027  0.14019005  1
  K  K5  1  0.47213277  0.76891837  0.01575552  1
  K  K6  1  0.51079265  0.45588762  0.15148921  1
  K  K7  1  0.01079265  0.04411238  0.65148921  1
  K  K8  1  0.98776043  0.24397973  0.85980995  1
  K  K9  1  0.98920735  0.95588762  0.34851079  1
  K  K10  1  0.48920735  0.54411238  0.84851079  1
  K  K11  1  0.98979272  0.54626959  0.33271813  1
  K  K12  1  0.48776043  0.25602027  0.35980995  1
  K  K13  1  0.52786723  0.23108163  0.98424448  1
  K  K14  1  0.51223957  0.74397973  0.64019005  1
  K  K15  1  0.48979272  0.95373041  0.83271813  1
  Ti  Ti16  1  0.50000000  0.00000000  0.50000000  1
  Ti  Ti17  1  0.52581209  0.74615770  0.24508229  1
  Ti  Ti18  1  0.47418791  0.25384230  0.75491771  1
  Ti  Ti19  1  0.97418791  0.24615770  0.25491771  1
  Ti  Ti20  1  0.00000000  0.50000000  0.00000000  1
  Ti  Ti21  1  0.00000000  0.00000000  0.00000000  1
  Ti  Ti22  1  0.02581209  0.75384230  0.74508229  1
  Ti  Ti23  1  0.50000000  0.50000000  0.50000000  1
  P  P24  1  0.45317262  0.75249672  0.40844153  1
  P  P25  1  0.04682738  0.25249672  0.09155847  1
  P  P26  1  0.95317262  0.74750328  0.90844153  1
  P  P27  1  0.54682738  0.24750328  0.59155847  1
  O  O28  1  0.95877498  0.16121900  0.03670037  1
  O  O29  1  0.94898068  0.37704760  0.06939016  1
  O  O30  1  0.69995233  0.74918783  0.90016459  1
  O  O31  1  0.05101932  0.62295240  0.93060984  1
  O  O32  1  0.04122502  0.83878100  0.96329963  1
  O  O33  1  0.80004767  0.24918783  0.59983541  1
  O  O34  1  0.45877498  0.33878100  0.53670037  1
  O  O35  1  0.92291050  0.21978327  0.15895784  1
  O  O36  1  0.57708950  0.71978327  0.34104216  1
  O  O37  1  0.42291050  0.28021673  0.65895784  1
  O  O38  1  0.44898068  0.12295240  0.56939016  1
  O  O39  1  0.30004767  0.25081217  0.09983541  1
  O  O40  1  0.54122502  0.66121900  0.46329963  1
  O  O41  1  0.19995233  0.75081217  0.40016459  1
  O  O42  1  0.55101932  0.87704760  0.43060984  1
  O  O43  1  0.07708950  0.78021673  0.84104216  1
  F  F44  1  0.21627557  0.96075460  0.06833205  1
  F  F45  1  0.72963409  0.44177065  0.44218323  1
  F  F46  1  0.48488301  0.77038746  0.14879970  1
  F  F47  1  0.68673777  0.13208572  0.74227844  1
  F  F48  1  0.75566697  0.12712242  0.27606741  1
  F  F49  1  0.23917453  0.13801016  0.76005284  1
  F  F50  1  0.78372443  0.03924540  0.93166795  1
  F  F51  1  0.18673777  0.36791428  0.24227844  1
  F  F52  1  0.28588769  0.90183989  0.54375981  1
  F  F53  1  0.77036591  0.94177065  0.05781677  1
  F  F54  1  0.28372443  0.46075460  0.43166795  1
  F  F55  1  0.31326223  0.86791428  0.25772156  1
  F  F56  1  0.25566697  0.37287758  0.77606741  1
  F  F57  1  0.73917453  0.36198984  0.26005284  1
  F  F58  1  0.72852269  0.92836168  0.55595504  1
  F  F59  1  0.79328786  0.86889969  0.73776400  1
  F  F60  1  0.98488301  0.72961254  0.64879970  1
  F  F61  1  0.71411231  0.09816011  0.45624019  1
  F  F62  1  0.27147731  0.07163832  0.44404496  1
  F  F63  1  0.21411231  0.40183989  0.95624019  1
  F  F64  1  0.71627557  0.53924540  0.56833205  1
  F  F65  1  0.27036591  0.55822935  0.55781677  1
  F  F66  1  0.81326223  0.63208572  0.75772156  1
  F  F67  1  0.01511699  0.27038746  0.35120030  1
  F  F68  1  0.77147731  0.42836168  0.94404496  1
  F  F69  1  0.76082547  0.86198984  0.23994716  1
  F  F70  1  0.20671214  0.13110031  0.26223600  1
  F  F71  1  0.22963409  0.05822935  0.94218323  1
  F  F72  1  0.51511699  0.22961254  0.85120030  1
  F  F73  1  0.24433303  0.87287758  0.72393259  1
  F  F74  1  0.29328786  0.63110031  0.23776400  1
  F  F75  1  0.26082547  0.63801016  0.73994716  1
  F  F76  1  0.78588769  0.59816011  0.04375981  1
  F  F77  1  0.70671214  0.36889969  0.76223600  1
  F  F78  1  0.22852269  0.57163832  0.05595504  1
  F  F79  1  0.74433303  0.62712242  0.22393259  1
