# generated using pymatgen
data_SrGaBO4
_symmetry_space_group_name_H-M   'P 1'
_cell_length_a   5.98458910
_cell_length_b   9.12746635
_cell_length_c   15.56912644
_cell_angle_alpha   90.00000000
_cell_angle_beta   90.00000000
_cell_angle_gamma   90.00000000
_symmetry_Int_Tables_number   1
_chemical_formula_structural   SrGaBO4
_chemical_formula_sum   'Sr8 Ga8 B8 O32'
_cell_volume   850.45007428
_cell_formula_units_Z   8
loop_
 _symmetry_equiv_pos_site_id
 _symmetry_equiv_pos_as_xyz
  1  'x, y, z'
loop_
 _atom_site_type_symbol
 _atom_site_label
 _atom_site_symmetry_multiplicity
 _atom_site_fract_x
 _atom_site_fract_y
 _atom_site_fract_z
 _atom_site_occupancy
  Sr  Sr0  1  0.00386006  0.71380132  0.47909608  1
  Sr  Sr1  1  0.99613994  0.21380132  0.02090392  1
  Sr  Sr2  1  0.00386006  0.28619868  0.52090392  1
  Sr  Sr3  1  0.50003003  0.92655060  0.12092259  1
  Sr  Sr4  1  0.99613994  0.78619868  0.97909608  1
  Sr  Sr5  1  0.50003003  0.07344940  0.87907741  1
  Sr  Sr6  1  0.49996997  0.42655060  0.37907741  1
  Sr  Sr7  1  0.49996997  0.57344940  0.62092259  1
  Ga  Ga8  1  0.24796786  0.53636012  0.15331607  1
  Ga  Ga9  1  0.24796786  0.46363988  0.84668393  1
  Ga  Ga10  1  0.74678175  0.53769299  0.15462412  1
  Ga  Ga11  1  0.25321825  0.03769299  0.34537588  1
  Ga  Ga12  1  0.75203214  0.03636012  0.34668393  1
  Ga  Ga13  1  0.25321825  0.96230701  0.65462412  1
  Ga  Ga14  1  0.74678175  0.46230701  0.84537588  1
  Ga  Ga15  1  0.75203214  0.96363988  0.65331607  1
  B  B16  1  0.50157733  0.79294097  0.42457236  1
  B  B17  1  0.00066403  0.48086612  0.31315429  1
  B  B18  1  0.50157733  0.20705903  0.57542764  1
  B  B19  1  0.99933597  0.01913388  0.81315429  1
  B  B20  1  0.00066403  0.51913388  0.68684571  1
  B  B21  1  0.99933597  0.98086612  0.18684571  1
  B  B22  1  0.49842267  0.70705903  0.92457236  1
  B  B23  1  0.49842267  0.29294097  0.07542764  1
  O  O24  1  0.50314664  0.15393946  0.35378505  1
  O  O25  1  0.99709501  0.62209801  0.10783404  1
  O  O26  1  0.99715563  0.03005068  0.90113134  1
  O  O27  1  0.79671348  0.01575028  0.76896557  1
  O  O28  1  0.79671348  0.98424972  0.23103443  1
  O  O29  1  0.70086818  0.35768569  0.09826674  1
  O  O30  1  0.70086818  0.64231431  0.90173326  1
  O  O31  1  0.00290499  0.87790199  0.60783404  1
  O  O32  1  0.79578623  0.50870822  0.72920162  1
  O  O33  1  0.20421377  0.00870822  0.77079838  1
  O  O34  1  0.99715563  0.96994932  0.09886866  1
  O  O35  1  0.29446084  0.64149956  0.90507643  1
  O  O36  1  0.29913182  0.85768569  0.40173326  1
  O  O37  1  0.49685336  0.34606054  0.85378505  1
  O  O38  1  0.20421377  0.99129178  0.22920162  1
  O  O39  1  0.79578623  0.49129178  0.27079838  1
  O  O40  1  0.00284437  0.46994932  0.40113134  1
  O  O41  1  0.49936594  0.33934370  0.53322721  1
  O  O42  1  0.70553916  0.14149956  0.59492357  1
  O  O43  1  0.70553916  0.85850044  0.40507643  1
  O  O44  1  0.50063406  0.16065630  0.03322721  1
  O  O45  1  0.00284437  0.53005068  0.59886866  1
  O  O46  1  0.49936594  0.66065630  0.46677279  1
  O  O47  1  0.29913182  0.14231431  0.59826674  1
  O  O48  1  0.20328652  0.48424972  0.26896557  1
  O  O49  1  0.00290499  0.12209801  0.39216596  1
  O  O50  1  0.99709501  0.37790199  0.89216596  1
  O  O51  1  0.50314664  0.84606054  0.64621495  1
  O  O52  1  0.49685336  0.65393946  0.14621495  1
  O  O53  1  0.50063406  0.83934370  0.96677279  1
  O  O54  1  0.29446084  0.35850044  0.09492357  1
  O  O55  1  0.20328652  0.51575028  0.73103443  1
