# generated using pymatgen
data_Ca2B5BrO9
_symmetry_space_group_name_H-M   'P 1'
_cell_length_a   6.33787846
_cell_length_b   11.38144135
_cell_length_c   11.52693498
_cell_angle_alpha   90.00000000
_cell_angle_beta   90.00000000
_cell_angle_gamma   90.00000000
_symmetry_Int_Tables_number   1
_chemical_formula_structural   Ca2B5BrO9
_chemical_formula_sum   'Ca8 B20 Br4 O36'
_cell_volume   831.48614074
_cell_formula_units_Z   4
loop_
 _symmetry_equiv_pos_site_id
 _symmetry_equiv_pos_as_xyz
  1  'x, y, z'
loop_
 _atom_site_type_symbol
 _atom_site_label
 _atom_site_symmetry_multiplicity
 _atom_site_fract_x
 _atom_site_fract_y
 _atom_site_fract_z
 _atom_site_occupancy
  Ca  Ca0  1  0.79249916  0.03759626  0.75296022  1
  Ca  Ca1  1  0.29249916  0.46240374  0.25296022  1
  Ca  Ca2  1  0.46040428  0.24519535  0.53400674  1
  Ca  Ca3  1  0.96040428  0.25480465  0.03400674  1
  Ca  Ca4  1  0.46040428  0.75480465  0.46599326  1
  Ca  Ca5  1  0.79249916  0.96240374  0.24703978  1
  Ca  Ca6  1  0.96040428  0.74519535  0.96599326  1
  Ca  Ca7  1  0.29249916  0.53759626  0.74703978  1
  B  B8  1  0.59945689  0.32072698  0.77439984  1
  B  B9  1  0.33422300  0.01321664  0.23555585  1
  B  B10  1  0.99874768  0.75161182  0.52703262  1
  B  B11  1  0.09945689  0.17927302  0.27439984  1
  B  B12  1  0.09945689  0.82072698  0.72560016  1
  B  B13  1  0.95826072  0.72055042  0.30586142  1
  B  B14  1  0.95826072  0.27944958  0.69413858  1
  B  B15  1  0.99874768  0.24838818  0.47296738  1
  B  B16  1  0.83422300  0.51321664  0.26444415  1
  B  B17  1  0.83422300  0.48678336  0.73555585  1
  B  B18  1  0.45826072  0.77944958  0.80586142  1
  B  B19  1  0.77233272  0.70898968  0.69332499  1
  B  B20  1  0.77233272  0.29101032  0.30667501  1
  B  B21  1  0.27233272  0.79101032  0.19332499  1
  B  B22  1  0.27233272  0.20898968  0.80667501  1
  B  B23  1  0.45826072  0.22055042  0.19413858  1
  B  B24  1  0.59945689  0.67927302  0.22560016  1
  B  B25  1  0.33422300  0.98678336  0.76444415  1
  B  B26  1  0.49874768  0.74838818  0.02703262  1
  B  B27  1  0.49874768  0.25161182  0.97296738  1
  Br  Br28  1  0.87716634  0.00000000  0.00000000  1
  Br  Br29  1  0.37716634  0.50000000  0.50000000  1
  Br  Br30  1  0.13871304  0.50000000  0.00000000  1
  Br  Br31  1  0.63871304  0.00000000  0.50000000  1
  O  O32  1  0.80065496  0.71886971  0.56303299  1
  O  O33  1  0.04647231  0.20600589  0.78748103  1
  O  O34  1  0.37733980  0.30758901  0.74808506  1
  O  O35  1  0.04647231  0.79399411  0.21251897  1
  O  O36  1  0.65496997  0.28310546  0.89456637  1
  O  O37  1  0.13516869  0.04977043  0.26394433  1
  O  O38  1  0.22899459  0.24529647  0.18864747  1
  O  O39  1  0.89256139  0.39765376  0.26687816  1
  O  O40  1  0.49376057  0.90779750  0.78613021  1
  O  O41  1  0.54647231  0.29399411  0.28748103  1
  O  O42  1  0.56596360  0.74478472  0.91453426  1
  O  O43  1  0.37733980  0.69241099  0.25191494  1
  O  O44  1  0.30065496  0.21886971  0.93696701  1
  O  O45  1  0.99376057  0.59220250  0.28613021  1
  O  O46  1  0.56596360  0.25521528  0.08546574  1
  O  O47  1  0.72899459  0.74529647  0.31135253  1
  O  O48  1  0.63516869  0.54977043  0.23605567  1
  O  O49  1  0.99376057  0.40779750  0.71386979  1
  O  O50  1  0.06596360  0.24478472  0.58546574  1
  O  O51  1  0.06596360  0.75521528  0.41453426  1
  O  O52  1  0.72899459  0.25470353  0.68864747  1
  O  O53  1  0.65496997  0.71689454  0.10543363  1
  O  O54  1  0.15496997  0.78310546  0.60543363  1
  O  O55  1  0.87733980  0.19241099  0.24808506  1
  O  O56  1  0.54647231  0.70600589  0.71251897  1
  O  O57  1  0.87733980  0.80758901  0.75191494  1
  O  O58  1  0.89256139  0.60234624  0.73312184  1
  O  O59  1  0.22899459  0.75470353  0.81135253  1
  O  O60  1  0.49376057  0.09220250  0.21386979  1
  O  O61  1  0.30065496  0.78113029  0.06303299  1
  O  O62  1  0.39256139  0.10234624  0.76687816  1
  O  O63  1  0.63516869  0.45022957  0.76394433  1
  O  O64  1  0.80065496  0.28113029  0.43696701  1
  O  O65  1  0.13516869  0.95022957  0.73605567  1
  O  O66  1  0.39256139  0.89765376  0.23312184  1
  O  O67  1  0.15496997  0.21689454  0.39456637  1
