# generated using pymatgen
data_BaLiBS3
_symmetry_space_group_name_H-M   'P 1'
_cell_length_a   7.66384290
_cell_length_b   8.72936009
_cell_length_c   8.77522422
_cell_angle_alpha   90.00000000
_cell_angle_beta   90.00000000
_cell_angle_gamma   115.51403822
_symmetry_Int_Tables_number   1
_chemical_formula_structural   BaLiBS3
_chemical_formula_sum   'Ba4 Li4 B4 S12'
_cell_volume   529.81555311
_cell_formula_units_Z   4
loop_
 _symmetry_equiv_pos_site_id
 _symmetry_equiv_pos_as_xyz
  1  'x, y, z'
loop_
 _atom_site_type_symbol
 _atom_site_label
 _atom_site_symmetry_multiplicity
 _atom_site_fract_x
 _atom_site_fract_y
 _atom_site_fract_z
 _atom_site_occupancy
  Ba  Ba0  1  0.62534797  0.31168774  0.86853273  1
  Ba  Ba1  1  0.12534797  0.81168774  0.63146727  1
  Ba  Ba2  1  0.37465203  0.68831226  0.13146727  1
  Ba  Ba3  1  0.87465203  0.18831226  0.36853273  1
  Li  Li4  1  0.09272019  0.20457961  0.92596948  1
  Li  Li5  1  0.40727981  0.29542039  0.42596948  1
  Li  Li6  1  0.59272019  0.70457961  0.57403052  1
  Li  Li7  1  0.90727981  0.79542039  0.07403052  1
  B  B8  1  0.30862974  0.07962988  0.15903045  1
  B  B9  1  0.80862974  0.57962988  0.34096955  1
  B  B10  1  0.19137026  0.42037012  0.65903045  1
  B  B11  1  0.69137026  0.92037012  0.84096955  1
  S  S12  1  0.10800712  0.49078105  0.82752166  1
  S  S13  1  0.30276026  0.28781134  0.15660743  1
  S  S14  1  0.69723974  0.71218866  0.84339257  1
  S  S15  1  0.89199288  0.50921895  0.17247834  1
  S  S16  1  0.19723974  0.21218866  0.65660743  1
  S  S17  1  0.76047136  0.04612720  0.01520069  1
  S  S18  1  0.23952864  0.95387280  0.98479931  1
  S  S19  1  0.26047136  0.54612720  0.48479931  1
  S  S20  1  0.60800712  0.99078105  0.67247834  1
  S  S21  1  0.73952864  0.45387280  0.51520069  1
  S  S22  1  0.39199288  0.00921895  0.32752166  1
  S  S23  1  0.80276026  0.78781134  0.34339257  1
