# generated using pymatgen
data_NdMoO5
_symmetry_space_group_name_H-M   'P 1'
_cell_length_a   5.50614067
_cell_length_b   7.15172971
_cell_length_c   12.88478309
_cell_angle_alpha   90.00000000
_cell_angle_beta   90.00000000
_cell_angle_gamma   115.45968679
_symmetry_Int_Tables_number   1
_chemical_formula_structural   NdMoO5
_chemical_formula_sum   'Nd4 Mo4 O20'
_cell_volume   458.10957889
_cell_formula_units_Z   4
loop_
 _symmetry_equiv_pos_site_id
 _symmetry_equiv_pos_as_xyz
  1  'x, y, z'
loop_
 _atom_site_type_symbol
 _atom_site_label
 _atom_site_symmetry_multiplicity
 _atom_site_fract_x
 _atom_site_fract_y
 _atom_site_fract_z
 _atom_site_occupancy
  Nd  Nd0  1  0.64941562  0.78694122  0.55776309  1
  Nd  Nd1  1  0.35058438  0.21305878  0.44223691  1
  Nd  Nd2  1  0.35058438  0.71305878  0.05776309  1
  Nd  Nd3  1  0.64941562  0.28694122  0.94223691  1
  Mo  Mo4  1  0.91124231  0.85372799  0.86343418  1
  Mo  Mo5  1  0.08875769  0.14627201  0.13656582  1
  Mo  Mo6  1  0.08875769  0.64627201  0.36343418  1
  Mo  Mo7  1  0.91124231  0.35372799  0.63656582  1
  O  O8  1  0.49766375  0.54906276  0.92358356  1
  O  O9  1  0.50233625  0.45093724  0.07641644  1
  O  O10  1  0.50233625  0.95093724  0.42358356  1
  O  O11  1  0.49766375  0.04906276  0.57641644  1
  O  O12  1  0.99218786  0.83759368  0.42778406  1
  O  O13  1  0.00781214  0.16240632  0.57221594  1
  O  O14  1  0.00781214  0.66240632  0.92778406  1
  O  O15  1  0.99218786  0.33759368  0.07221594  1
  O  O16  1  0.70686454  0.95899702  0.93506397  1
  O  O17  1  0.29313546  0.04100298  0.06493603  1
  O  O18  1  0.29313546  0.54100298  0.43506397  1
  O  O19  1  0.70686454  0.45899702  0.56493603  1
  O  O20  1  0.79253475  0.78405947  0.73506961  1
  O  O21  1  0.20746525  0.21594053  0.26493039  1
  O  O22  1  0.20746525  0.71594053  0.23506961  1
  O  O23  1  0.79253475  0.28405947  0.76493039  1
  O  O24  1  0.77505884  0.92742345  0.15032522  1
  O  O25  1  0.22494116  0.07257655  0.84967478  1
  O  O26  1  0.22494116  0.57257655  0.65032522  1
  O  O27  1  0.77505884  0.42742345  0.34967478  1
