# generated using pymatgen
data_DyCuS2
_symmetry_space_group_name_H-M   'P 1'
_cell_length_a   3.96055754
_cell_length_b   6.25766837
_cell_length_c   13.47608963
_cell_angle_alpha   90.00000000
_cell_angle_beta   90.00000000
_cell_angle_gamma   90.00000000
_symmetry_Int_Tables_number   1
_chemical_formula_structural   DyCuS2
_chemical_formula_sum   'Dy4 Cu4 S8'
_cell_volume   333.98946006
_cell_formula_units_Z   4
loop_
 _symmetry_equiv_pos_site_id
 _symmetry_equiv_pos_as_xyz
  1  'x, y, z'
loop_
 _atom_site_type_symbol
 _atom_site_label
 _atom_site_symmetry_multiplicity
 _atom_site_fract_x
 _atom_site_fract_y
 _atom_site_fract_z
 _atom_site_occupancy
  Dy  Dy0  1  0.74226272  0.74830922  0.36691719  1
  Dy  Dy1  1  0.75773728  0.25169078  0.86691719  1
  Dy  Dy2  1  0.25773728  0.24830922  0.13308281  1
  Dy  Dy3  1  0.24226272  0.75169078  0.63308281  1
  Cu  Cu4  1  0.72688733  0.37393087  0.54745781  1
  Cu  Cu5  1  0.77311267  0.62606913  0.04745781  1
  Cu  Cu6  1  0.27311267  0.87393087  0.95254219  1
  Cu  Cu7  1  0.22688733  0.12606913  0.45254219  1
  S  S8  1  0.26035445  0.49727930  0.96137246  1
  S  S9  1  0.73964555  0.99727930  0.53862754  1
  S  S10  1  0.23964555  0.50272070  0.46137246  1
  S  S11  1  0.24295928  0.98723495  0.29490730  1
  S  S12  1  0.76035445  0.00272070  0.03862754  1
  S  S13  1  0.25704072  0.01276505  0.79490730  1
  S  S14  1  0.75704072  0.48723495  0.20509270  1
  S  S15  1  0.74295928  0.51276505  0.70509270  1
