# generated using pymatgen
data_LuP5O14
_symmetry_space_group_name_H-M   'P 1'
_cell_length_a   9.11242510
_cell_length_b   9.11242552
_cell_length_c   12.46922965
_cell_angle_alpha   88.95750903
_cell_angle_beta   88.95750899
_cell_angle_gamma   89.44360700
_symmetry_Int_Tables_number   1
_chemical_formula_structural   LuP5O14
_chemical_formula_sum   'Lu4 P20 O56'
_cell_volume   1035.01033421
_cell_formula_units_Z   4
loop_
 _symmetry_equiv_pos_site_id
 _symmetry_equiv_pos_as_xyz
  1  'x, y, z'
loop_
 _atom_site_type_symbol
 _atom_site_label
 _atom_site_symmetry_multiplicity
 _atom_site_fract_x
 _atom_site_fract_y
 _atom_site_fract_z
 _atom_site_occupancy
  Lu  Lu0  1  0.98060628  0.01939372  0.75000000  1
  Lu  Lu1  1  0.01939372  0.98060628  0.25000000  1
  Lu  Lu2  1  0.53176785  0.46823215  0.75000000  1
  Lu  Lu3  1  0.46823215  0.53176785  0.25000000  1
  P  P4  1  0.81848043  0.54745322  0.10982031  1
  P  P5  1  0.68258407  0.01920954  0.10439301  1
  P  P6  1  0.98079046  0.31741593  0.39560699  1
  P  P7  1  0.57782840  0.07375179  0.75944724  1
  P  P8  1  0.82260497  0.88936980  0.49936939  1
  P  P9  1  0.92624821  0.42217160  0.74055276  1
  P  P10  1  0.42217160  0.92624821  0.24055276  1
  P  P11  1  0.37519374  0.67251508  0.96581343  1
  P  P12  1  0.31741593  0.98079046  0.89560699  1
  P  P13  1  0.62480626  0.32748492  0.03418657  1
  P  P14  1  0.67251508  0.37519374  0.46581343  1
  P  P15  1  0.07375179  0.57782840  0.25944724  1
  P  P16  1  0.45254678  0.18151957  0.39017969  1
  P  P17  1  0.18151957  0.45254678  0.89017969  1
  P  P18  1  0.88936980  0.82260497  0.99936939  1
  P  P19  1  0.54745322  0.81848043  0.60982031  1
  P  P20  1  0.01920954  0.68258407  0.60439301  1
  P  P21  1  0.17739503  0.11063020  0.50063061  1
  P  P22  1  0.32748492  0.62480626  0.53418657  1
  P  P23  1  0.11063020  0.17739503  0.00063061  1
  O  O24  1  0.42440521  0.62481206  0.07347828  1
  O  O25  1  0.32807183  0.84461563  0.97569808  1
  O  O26  1  0.46553991  0.65179220  0.86587972  1
  O  O27  1  0.14735524  0.35198715  0.99259985  1
  O  O28  1  0.48259481  0.02927138  0.33577554  1
  O  O29  1  0.22473511  0.52696485  0.23135581  1
  O  O30  1  0.01112645  0.14010914  0.91154689  1
  O  O31  1  0.47303515  0.77526489  0.26864419  1
  O  O32  1  0.21630716  0.96313546  0.80598838  1
  O  O33  1  0.51735354  0.99070905  0.13733055  1
  O  O34  1  0.98887355  0.85989086  0.08845311  1
  O  O35  1  0.73354044  0.04052035  0.78376925  1
  O  O36  1  0.67192817  0.15538437  0.02430192  1
  O  O37  1  0.52696485  0.22473511  0.73135581  1
  O  O38  1  0.99070905  0.51735354  0.63733055  1
  O  O39  1  0.04052035  0.73354044  0.28376925  1
  O  O40  1  0.14800262  0.07277646  0.61475852  1
  O  O41  1  0.30057764  0.39507212  0.82056679  1
  O  O42  1  0.26645956  0.95947965  0.21623075  1
  O  O43  1  0.85199738  0.92722354  0.38524148  1
  O  O44  1  0.14010914  0.01112645  0.41154689  1
  O  O45  1  0.85989086  0.98887355  0.58845311  1
  O  O46  1  0.39507212  0.30057764  0.32056679  1
  O  O47  1  0.92722354  0.85199738  0.88524148  1
  O  O48  1  0.64801285  0.85264476  0.50740015  1
  O  O49  1  0.02927138  0.48259481  0.83577554  1
  O  O50  1  0.60492788  0.69942236  0.67943321  1
  O  O51  1  0.21028903  0.60538268  0.94377696  1
  O  O52  1  0.00929095  0.48264646  0.36266945  1
  O  O53  1  0.34820780  0.53446009  0.63412028  1
  O  O54  1  0.57559479  0.37518794  0.92652172  1
  O  O55  1  0.62481206  0.42440521  0.57347828  1
  O  O56  1  0.72356803  0.89023674  0.02583224  1
  O  O57  1  0.53446009  0.34820780  0.13412028  1
  O  O58  1  0.78971097  0.39461732  0.05622304  1
  O  O59  1  0.15538437  0.67192817  0.52430192  1
  O  O60  1  0.51740519  0.97072862  0.66422446  1
  O  O61  1  0.65179220  0.46553991  0.36587972  1
  O  O62  1  0.84461563  0.32807183  0.47569808  1
  O  O63  1  0.39461732  0.78971097  0.55622304  1
  O  O64  1  0.85264476  0.64801285  0.00740015  1
  O  O65  1  0.95947965  0.26645956  0.71623075  1
  O  O66  1  0.60538268  0.21028903  0.44377696  1
  O  O67  1  0.77526489  0.47303515  0.76864419  1
  O  O68  1  0.69942236  0.60492788  0.17943321  1
  O  O69  1  0.35198715  0.14735524  0.49259985  1
  O  O70  1  0.97072862  0.51740519  0.16422446  1
  O  O71  1  0.10976326  0.27643197  0.47416776  1
  O  O72  1  0.89023674  0.72356803  0.52583224  1
  O  O73  1  0.78369284  0.03686454  0.19401162  1
  O  O74  1  0.96313546  0.21630716  0.30598838  1
  O  O75  1  0.37518794  0.57559479  0.42652172  1
  O  O76  1  0.27643197  0.10976326  0.97416776  1
  O  O77  1  0.07277646  0.14800262  0.11475852  1
  O  O78  1  0.48264646  0.00929095  0.86266945  1
  O  O79  1  0.03686454  0.78369284  0.69401162  1
