# generated using pymatgen
data_Na8Nb2Cu4S21
_symmetry_space_group_name_H-M   'P 1'
_cell_length_a   6.82453982
_cell_length_b   7.86123459
_cell_length_c   30.12153459
_cell_angle_alpha   90.00000000
_cell_angle_beta   90.00000000
_cell_angle_gamma   90.00000000
_symmetry_Int_Tables_number   1
_chemical_formula_structural   Na8Nb2Cu4S21
_chemical_formula_sum   'Na16 Nb4 Cu8 S42'
_cell_volume   1615.99950153
_cell_formula_units_Z   2
loop_
 _symmetry_equiv_pos_site_id
 _symmetry_equiv_pos_as_xyz
  1  'x, y, z'
loop_
 _atom_site_type_symbol
 _atom_site_label
 _atom_site_symmetry_multiplicity
 _atom_site_fract_x
 _atom_site_fract_y
 _atom_site_fract_z
 _atom_site_occupancy
  Na  Na0  1  0.44249763  0.23931360  0.75906383  1
  Na  Na1  1  0.85738372  0.24834756  0.85276860  1
  Na  Na2  1  0.83650614  0.23501677  0.14239116  1
  Na  Na3  1  0.24028303  0.00000000  0.50000000  1
  Na  Na4  1  0.14261628  0.74834756  0.64723140  1
  Na  Na5  1  0.16349386  0.26498323  0.64239116  1
  Na  Na6  1  0.55750237  0.26068640  0.25906383  1
  Na  Na7  1  0.16349386  0.73501677  0.35760884  1
  Na  Na8  1  0.14261628  0.25165244  0.35276860  1
  Na  Na9  1  0.75971697  0.50000000  0.00000000  1
  Na  Na10  1  0.54002717  0.50000000  0.50000000  1
  Na  Na11  1  0.83650614  0.76498323  0.85760884  1
  Na  Na12  1  0.55750237  0.73931360  0.74093617  1
  Na  Na13  1  0.45997283  0.00000000  0.00000000  1
  Na  Na14  1  0.44249763  0.76068640  0.24093617  1
  Na  Na15  1  0.85738372  0.75165244  0.14723140  1
  Nb  Nb16  1  0.46001067  0.50057421  0.10726107  1
  Nb  Nb17  1  0.46001067  0.49942579  0.89273893  1
  Nb  Nb18  1  0.53998933  0.99942579  0.60726107  1
  Nb  Nb19  1  0.53998933  0.00057421  0.39273893  1
  Cu  Cu20  1  0.22567782  0.75134241  0.06893687  1
  Cu  Cu21  1  0.22376147  0.25174520  0.06731109  1
  Cu  Cu22  1  0.77432218  0.74865759  0.56893687  1
  Cu  Cu23  1  0.22567782  0.24865759  0.93106313  1
  Cu  Cu24  1  0.77432218  0.25134241  0.43106313  1
  Cu  Cu25  1  0.22376147  0.74825480  0.93268891  1
  Cu  Cu26  1  0.77623853  0.75174520  0.43268891  1
  Cu  Cu27  1  0.77623853  0.24825480  0.56731109  1
  S  S28  1  0.41394324  0.99622027  0.32179158  1
  S  S29  1  0.19569791  0.84854934  0.79157074  1
  S  S30  1  0.00473030  0.01229802  0.24761053  1
  S  S31  1  0.07856002  0.21912026  0.99924972  1
  S  S32  1  0.68634950  0.49152178  0.33917462  1
  S  S33  1  0.88141659  0.99980249  0.39595395  1
  S  S34  1  0.92143998  0.28087974  0.49924972  1
  S  S35  1  0.43770754  0.23374104  0.56738077  1
  S  S36  1  0.87617904  0.49945204  0.60620842  1
  S  S37  1  0.19569791  0.15145066  0.20842926  1
  S  S38  1  0.56542662  0.25985680  0.92987450  1
  S  S39  1  0.25392760  0.49958046  0.71093481  1
  S  S40  1  0.92143998  0.71912026  0.50075028  1
  S  S41  1  0.43457338  0.75985680  0.57012550  1
  S  S42  1  0.58605676  0.49622027  0.17820842  1
  S  S43  1  0.09402572  0.50000000  0.50000000  1
  S  S44  1  0.31365050  0.00847822  0.83917462  1
  S  S45  1  0.41394324  0.00377973  0.67820842  1
  S  S46  1  0.90597428  0.00000000  0.00000000  1
  S  S47  1  0.07856002  0.78087974  0.00075028  1
  S  S48  1  0.11858341  0.49980249  0.10404605  1
  S  S49  1  0.43457338  0.24014320  0.42987450  1
  S  S50  1  0.74607240  -0.00041954  0.78906519  1
  S  S51  1  0.12382096  1.00054796  0.10620842  1
  S  S52  1  0.11858341  0.50019751  0.89595395  1
  S  S53  1  0.99526970  0.48770198  0.74761053  1
  S  S54  1  0.87617904  0.50054796  0.39379158  1
  S  S55  1  0.80430209  0.34854934  0.70842926  1
  S  S56  1  0.99526970  0.51229802  0.25238947  1
  S  S57  1  0.56542662  0.74014320  0.07012550  1
  S  S58  1  0.80430209  0.65145066  0.29157074  1
  S  S59  1  0.68634950  0.50847822  0.66082538  1
  S  S60  1  0.43770754  0.76625896  0.43261923  1
  S  S61  1  0.25392760  0.50041954  0.28906519  1
  S  S62  1  0.00473030  0.98770198  0.75238947  1
  S  S63  1  0.88141659  0.00019751  0.60404605  1
  S  S64  1  0.56229246  0.26625896  0.06738077  1
  S  S65  1  0.12382096  -0.00054796  0.89379158  1
  S  S66  1  0.58605676  0.50377973  0.82179158  1
  S  S67  1  0.56229246  0.73374104  0.93261923  1
  S  S68  1  0.31365050  0.99152178  0.16082538  1
  S  S69  1  0.74607240  1.00041954  0.21093481  1
