# generated using pymatgen
data_BaBi6(PO5)4
_symmetry_space_group_name_H-M   'P 1'
_cell_length_a   7.14766406
_cell_length_b   7.80564190
_cell_length_c   9.27921529
_cell_angle_alpha   107.35319530
_cell_angle_beta   92.37456057
_cell_angle_gamma   111.75214035
_symmetry_Int_Tables_number   1
_chemical_formula_structural   BaBi6(PO5)4
_chemical_formula_sum   'Ba1 Bi6 P4 O20'
_cell_volume   452.16476841
_cell_formula_units_Z   1
loop_
 _symmetry_equiv_pos_site_id
 _symmetry_equiv_pos_as_xyz
  1  'x, y, z'
loop_
 _atom_site_type_symbol
 _atom_site_label
 _atom_site_symmetry_multiplicity
 _atom_site_fract_x
 _atom_site_fract_y
 _atom_site_fract_z
 _atom_site_occupancy
  Ba  Ba0  1  0.00000000  0.50000000  0.00000000  1
  Bi  Bi1  1  0.44178031  0.29658306  0.09017783  1
  Bi  Bi2  1  0.55821969  0.70341694  0.90982217  1
  Bi  Bi3  1  0.79837256  0.80646368  0.32715515  1
  Bi  Bi4  1  0.20162744  0.19353632  0.67284485  1
  Bi  Bi5  1  0.67356280  0.38012249  0.49068211  1
  Bi  Bi6  1  0.32643720  0.61987751  0.50931789  1
  P  P7  1  0.64640508  0.09501409  0.73818114  1
  P  P8  1  0.95869081  0.23028760  0.24900683  1
  P  P9  1  0.04130919  0.76971240  0.75099317  1
  P  P10  1  0.35359492  0.90498591  0.26181886  1
  O  O11  1  0.63622565  0.16778562  0.91108119  1
  O  O12  1  0.86731468  0.67965192  0.83557362  1
  O  O13  1  0.95457008  0.71343445  0.57806365  1
  O  O14  1  0.19760642  0.67317670  0.75650329  1
  O  O15  1  0.36377435  0.83221438  0.08891881  1
  O  O16  1  0.51272090  0.87026407  0.35780524  1
  O  O17  1  0.80239358  0.32682330  0.24349671  1
  O  O18  1  0.85468929  0.00345018  0.17364834  1
  O  O19  1  0.44480333  0.47260835  0.63683707  1
  O  O20  1  0.67181859  0.59745863  0.09852291  1
  O  O21  1  0.60337898  0.87254152  0.68452312  1
  O  O22  1  0.86204011  0.21375944  0.71144741  1
  O  O23  1  0.04542992  0.28656555  0.42193635  1
  O  O24  1  0.13268532  0.32034808  0.16442638  1
  O  O25  1  0.14531071  0.99654982  0.82635166  1
  O  O26  1  0.13795989  0.78624056  0.28855259  1
  O  O27  1  0.32818141  0.40254137  0.90147709  1
  O  O28  1  0.39662102  0.12745848  0.31547688  1
  O  O29  1  0.48727910  0.12973593  0.64219476  1
  O  O30  1  0.55519667  0.52739165  0.36316293  1
