# generated using pymatgen
data_Ca2PClO4
_symmetry_space_group_name_H-M   'P 1'
_cell_length_a   6.25266539
_cell_length_b   7.05198983
_cell_length_c   10.91156191
_cell_angle_alpha   90.00000000
_cell_angle_beta   90.00000000
_cell_angle_gamma   90.00000000
_symmetry_Int_Tables_number   1
_chemical_formula_structural   Ca2PClO4
_chemical_formula_sum   'Ca8 P4 Cl4 O16'
_cell_volume   481.13149464
_cell_formula_units_Z   4
loop_
 _symmetry_equiv_pos_site_id
 _symmetry_equiv_pos_as_xyz
  1  'x, y, z'
loop_
 _atom_site_type_symbol
 _atom_site_label
 _atom_site_symmetry_multiplicity
 _atom_site_fract_x
 _atom_site_fract_y
 _atom_site_fract_z
 _atom_site_occupancy
  Ca  Ca0  1  0.36663160  0.75000000  0.50000000  1
  Ca  Ca1  1  0.12959441  0.02822987  0.75000000  1
  Ca  Ca2  1  0.63336840  0.25000000  0.50000000  1
  Ca  Ca3  1  0.12959441  0.47177013  0.25000000  1
  Ca  Ca4  1  0.63336840  0.25000000  0.00000000  1
  Ca  Ca5  1  0.87040559  0.52822987  0.75000000  1
  Ca  Ca6  1  0.36663160  0.75000000  0.00000000  1
  Ca  Ca7  1  0.87040559  0.97177013  0.25000000  1
  P  P8  1  0.86244701  0.75000000  0.00000000  1
  P  P9  1  0.13755299  0.25000000  0.50000000  1
  P  P10  1  0.13755299  0.25000000  0.00000000  1
  P  P11  1  0.86244701  0.75000000  0.50000000  1
  Cl  Cl12  1  0.51907274  0.21712375  0.25000000  1
  Cl  Cl13  1  0.51907274  0.28287625  0.75000000  1
  Cl  Cl14  1  0.48092726  0.71712375  0.25000000  1
  Cl  Cl15  1  0.48092726  0.78287625  0.75000000  1
  O  O16  1  0.98999727  0.22812377  0.11491535  1
  O  O17  1  0.28416432  0.42363852  0.47666782  1
  O  O18  1  0.01000273  0.72812377  0.38508465  1
  O  O19  1  0.71583568  0.92363852  0.47666782  1
  O  O20  1  0.01000273  0.77187623  0.61491535  1
  O  O21  1  0.71583568  0.57636148  0.52333218  1
  O  O22  1  0.98999727  0.22812377  0.38508465  1
  O  O23  1  0.98999727  0.27187623  0.88508465  1
  O  O24  1  0.71583568  0.92363852  0.02333218  1
  O  O25  1  0.98999727  0.27187623  0.61491535  1
  O  O26  1  0.71583568  0.57636148  0.97666782  1
  O  O27  1  0.28416432  0.42363852  0.02333218  1
  O  O28  1  0.01000273  0.72812377  0.11491535  1
  O  O29  1  0.01000273  0.77187623  0.88508465  1
  O  O30  1  0.28416432  0.07636148  0.52333218  1
  O  O31  1  0.28416432  0.07636148  0.97666782  1
