# generated using pymatgen
data_KSnAsS5
_symmetry_space_group_name_H-M   'P 1'
_cell_length_a   7.59662381
_cell_length_b   8.33849035
_cell_length_c   14.15302663
_cell_angle_alpha   90.00000000
_cell_angle_beta   90.00000000
_cell_angle_gamma   90.00000000
_symmetry_Int_Tables_number   1
_chemical_formula_structural   KSnAsS5
_chemical_formula_sum   'K4 Sn4 As4 S20'
_cell_volume   896.51461679
_cell_formula_units_Z   4
loop_
 _symmetry_equiv_pos_site_id
 _symmetry_equiv_pos_as_xyz
  1  'x, y, z'
loop_
 _atom_site_type_symbol
 _atom_site_label
 _atom_site_symmetry_multiplicity
 _atom_site_fract_x
 _atom_site_fract_y
 _atom_site_fract_z
 _atom_site_occupancy
  K  K0  1  0.50000000  0.89419290  0.83954783  1
  K  K1  1  0.50000000  0.60580710  0.33954783  1
  K  K2  1  0.50000000  0.39419290  0.66045217  1
  K  K3  1  0.50000000  0.10580710  0.16045217  1
  Sn  Sn4  1  0.73213121  0.00000000  0.50000000  1
  Sn  Sn5  1  0.73213121  0.50000000  0.00000000  1
  Sn  Sn6  1  0.26786879  0.50000000  0.00000000  1
  Sn  Sn7  1  0.26786879  0.00000000  0.50000000  1
  As  As8  1  0.00000000  0.69673474  0.77792010  1
  As  As9  1  0.00000000  0.80326526  0.27792010  1
  As  As10  1  0.00000000  0.30326526  0.22207990  1
  As  As11  1  0.00000000  0.19673474  0.72207990  1
  S  S12  1  0.00000000  0.71381909  0.02282719  1
  S  S13  1  0.23475997  0.54799854  0.81805502  1
  S  S14  1  0.00000000  0.78618091  0.52282719  1
  S  S15  1  0.50000000  0.20811621  0.46309736  1
  S  S16  1  0.76524003  0.04799854  0.68194498  1
  S  S17  1  0.23475997  0.95200146  0.31805502  1
  S  S18  1  0.76524003  0.54799854  0.81805502  1
  S  S19  1  0.00000000  0.86468828  0.91044718  1
  S  S20  1  0.00000000  0.36468828  0.58955282  1
  S  S21  1  0.00000000  0.28618091  0.97717281  1
  S  S22  1  0.76524003  0.95200146  0.31805502  1
  S  S23  1  0.00000000  0.13531172  0.08955282  1
  S  S24  1  0.76524003  0.45200146  0.18194498  1
  S  S25  1  0.50000000  0.29188379  0.96309736  1
  S  S26  1  0.23475997  0.45200146  0.18194498  1
  S  S27  1  0.00000000  0.21381909  0.47717281  1
  S  S28  1  0.50000000  0.70811621  0.03690264  1
  S  S29  1  0.23475997  0.04799854  0.68194498  1
  S  S30  1  0.50000000  0.79188379  0.53690264  1
  S  S31  1  0.00000000  0.63531172  0.41044718  1
