# generated using pymatgen
data_Ti3Tl3(PO4)5
_symmetry_space_group_name_H-M   'P 1'
_cell_length_a   6.40304599
_cell_length_b   14.94300463
_cell_length_c   18.52174970
_cell_angle_alpha   90.00000000
_cell_angle_beta   90.00000000
_cell_angle_gamma   90.00000000
_symmetry_Int_Tables_number   1
_chemical_formula_structural   Ti3Tl3(PO4)5
_chemical_formula_sum   'Ti12 Tl12 P20 O80'
_cell_volume   1772.17482620
_cell_formula_units_Z   4
loop_
 _symmetry_equiv_pos_site_id
 _symmetry_equiv_pos_as_xyz
  1  'x, y, z'
loop_
 _atom_site_type_symbol
 _atom_site_label
 _atom_site_symmetry_multiplicity
 _atom_site_fract_x
 _atom_site_fract_y
 _atom_site_fract_z
 _atom_site_occupancy
  Ti  Ti0  1  0.74414453  0.37752315  0.54374231  1
  Ti  Ti1  1  0.25585547  0.37752315  0.04374231  1
  Ti  Ti2  1  0.24683957  0.74788752  0.14735735  1
  Ti  Ti3  1  0.75316043  0.74788752  0.64735735  1
  Ti  Ti4  1  0.74422679  0.63962123  0.94840925  1
  Ti  Ti5  1  0.25577321  0.13962123  0.05159075  1
  Ti  Ti6  1  0.25585547  0.87752315  0.45625769  1
  Ti  Ti7  1  0.24683957  0.24788752  0.35264265  1
  Ti  Ti8  1  0.74414453  0.87752315  0.95625769  1
  Ti  Ti9  1  0.25577321  0.63962123  0.44840925  1
  Ti  Ti10  1  0.74422679  0.13962123  0.55159075  1
  Ti  Ti11  1  0.75316043  0.24788752  0.85264265  1
  Tl  Tl12  1  0.85483576  0.47556040  0.34496602  1
  Tl  Tl13  1  0.14377007  0.02722426  0.85065176  1
  Tl  Tl14  1  0.85622993  0.52722426  0.14934824  1
  Tl  Tl15  1  0.82772593  0.24955298  0.17766360  1
  Tl  Tl16  1  0.82772593  0.74955298  0.32233640  1
  Tl  Tl17  1  0.14516424  0.97556040  0.65503398  1
  Tl  Tl18  1  0.85483576  0.97556040  0.15503398  1
  Tl  Tl19  1  0.14516424  0.47556040  0.84496602  1
  Tl  Tl20  1  0.85622993  0.02722426  0.35065176  1
  Tl  Tl21  1  0.14377007  0.52722426  0.64934824  1
  Tl  Tl22  1  0.17227407  0.24955298  0.67766360  1
  Tl  Tl23  1  0.17227407  0.74955298  0.82233640  1
  P  P24  1  0.64298979  0.39991353  0.72184944  1
  P  P25  1  0.25485207  0.75152304  0.60338023  1
  P  P26  1  0.64298979  0.89991353  0.77815056  1
  P  P27  1  0.64439875  0.59167760  0.77312268  1
  P  P28  1  0.35701021  0.89991353  0.27815056  1
  P  P29  1  0.75326882  0.10991450  0.00303588  1
  P  P30  1  0.25485207  0.25152304  0.89661977  1
  P  P31  1  0.64439875  0.09167760  0.72687732  1
  P  P32  1  0.35560125  0.09167760  0.22687732  1
  P  P33  1  0.74514793  0.75152304  0.10338023  1
  P  P34  1  0.74514793  0.25152304  0.39661977  1
  P  P35  1  0.35560125  0.59167760  0.27312268  1
  P  P36  1  0.24641407  0.40618027  0.48919064  1
  P  P37  1  0.75358593  0.40618027  0.98919064  1
  P  P38  1  0.24641407  0.90618027  0.01080936  1
  P  P39  1  0.75326882  0.60991450  0.49696412  1
  P  P40  1  0.35701021  0.39991353  0.22184944  1
  P  P41  1  0.24673118  0.60991450  0.99696412  1
  P  P42  1  0.75358593  0.90618027  0.51080936  1
  P  P43  1  0.24673118  0.10991450  0.50303588  1
  O  O44  1  0.23814277  0.85123842  0.08227845  1
  O  O45  1  0.44069785  0.13490273  0.54864992  1
  O  O46  1  0.06522537  0.24829441  0.84468004  1
  O  O47  1  0.75340205  0.51008295  0.51519906  1
  O  O48  1  0.75496376  0.82415482  0.73669811  1
  O  O49  1  0.55930215  0.13490273  0.04864992  1
  O  O50  1  0.05578434  0.63356636  0.94904422  1
  O  O51  1  0.75238278  0.11731392  0.65554594  1
  O  O52  1  0.23997416  0.66709361  0.06674045  1
  O  O53  1  0.24698712  0.50630669  0.47075720  1
  O  O54  1  0.05624242  0.38323822  0.53805046  1
  O  O55  1  0.75769407  0.13958149  0.78934711  1
  O  O56  1  0.59052754  0.59875795  0.27267037  1
  O  O57  1  0.93477463  0.24829441  0.34468004  1
  O  O58  1  0.74970816  0.34032581  0.43931676  1
  O  O59  1  0.05624242  0.88323822  0.96194954  1
  O  O60  1  0.28274686  0.48751380  0.26726641  1
  O  O61  1  0.25050194  0.26044335  0.06900354  1
  O  O62  1  0.24230593  0.63958149  0.21065289  1
  O  O63  1  0.76185723  0.85123842  0.58227845  1
  O  O64  1  0.44069785  0.63490273  0.95135008  1
  O  O65  1  0.25029184  0.34032581  0.93931676  1
  O  O66  1  0.55930215  0.63490273  0.45135008  1
  O  O67  1  0.54668563  0.74948055  0.15093222  1
  O  O68  1  0.94421566  0.13356636  0.05095578  1
  O  O69  1  0.75496376  0.32415482  0.76330189  1
  O  O70  1  0.24659795  0.01008295  0.48480094  1
  O  O71  1  0.25200068  0.66763642  0.55436333  1
  O  O72  1  0.25029184  0.84032581  0.56068324  1
  O  O73  1  0.74799932  0.16763642  0.44563667  1
  O  O74  1  0.75238278  0.61731392  0.84445406  1
  O  O75  1  0.76185723  0.35123842  0.91772155  1
  O  O76  1  0.71725314  0.98751380  0.73273359  1
  O  O77  1  0.59052754  0.09875795  0.22732963  1
  O  O78  1  0.74949806  0.76044335  0.93099646  1
  O  O79  1  0.28274686  0.98751380  0.23273359  1
  O  O80  1  0.24230593  0.13958149  0.28934711  1
  O  O81  1  0.24761722  0.11731392  0.15554594  1
  O  O82  1  0.25050194  0.76044335  0.43099646  1
  O  O83  1  0.25315578  0.41362041  0.14719536  1
  O  O84  1  0.25200068  0.16763642  0.94563667  1
  O  O85  1  0.54668563  0.24948055  0.34906778  1
  O  O86  1  0.75769407  0.63958149  0.71065289  1
  O  O87  1  0.93477463  0.74829441  0.15531996  1
  O  O88  1  0.75301288  0.00630669  0.52924280  1
  O  O89  1  0.05578434  0.13356636  0.55095578  1
  O  O90  1  0.44090917  0.38151110  0.53476195  1
  O  O91  1  0.40947246  0.59875795  0.77267037  1
  O  O92  1  0.74684422  0.41362041  0.64719536  1
  O  O93  1  0.23814277  0.35123842  0.41772155  1
  O  O94  1  0.24503624  0.32415482  0.26330189  1
  O  O95  1  0.25315578  0.91362041  0.35280464  1
  O  O96  1  0.94375758  0.38323822  0.03805046  1
  O  O97  1  0.24761722  0.61731392  0.34445406  1
  O  O98  1  0.23997416  0.16709361  0.43325955  1
  O  O99  1  0.75340205  0.01008295  0.98480094  1
  O  O100  1  0.74684422  0.91362041  0.85280464  1
  O  O101  1  0.24659795  0.51008295  0.01519906  1
  O  O102  1  0.74799932  0.66763642  0.05436333  1
  O  O103  1  0.40947246  0.09875795  0.72732963  1
  O  O104  1  0.94375758  0.88323822  0.46194954  1
  O  O105  1  0.24503624  0.82415482  0.23669811  1
  O  O106  1  0.59230530  0.39488851  0.22003223  1
  O  O107  1  0.06522537  0.74829441  0.65531996  1
  O  O108  1  0.71725314  0.48751380  0.76726641  1
  O  O109  1  0.75301288  0.50630669  0.97075720  1
  O  O110  1  0.44090917  0.88151110  0.96523805  1
  O  O111  1  0.55909083  0.38151110  0.03476195  1
  O  O112  1  0.40769470  0.39488851  0.72003223  1
  O  O113  1  0.45331437  0.74948055  0.65093222  1
  O  O114  1  0.74949806  0.26044335  0.56900354  1
  O  O115  1  0.24698712  0.00630669  0.02924280  1
  O  O116  1  0.76002584  0.66709361  0.56674045  1
  O  O117  1  0.59230530  0.89488851  0.27996777  1
  O  O118  1  0.94421566  0.63356636  0.44904422  1
  O  O119  1  0.74970816  0.84032581  0.06068324  1
  O  O120  1  0.40769470  0.89488851  0.77996777  1
  O  O121  1  0.76002584  0.16709361  0.93325955  1
  O  O122  1  0.55909083  0.88151110  0.46523805  1
  O  O123  1  0.45331437  0.24948055  0.84906778  1
