# generated using pymatgen
data_Ge(TeO3)2
_symmetry_space_group_name_H-M   'P 1'
_cell_length_a   5.31228893
_cell_length_b   7.13230142
_cell_length_c   7.47295889
_cell_angle_alpha   90.00000000
_cell_angle_beta   91.52150698
_cell_angle_gamma   90.00000000
_symmetry_Int_Tables_number   1
_chemical_formula_structural   Ge(TeO3)2
_chemical_formula_sum   'Ge2 Te4 O12'
_cell_volume   283.04196009
_cell_formula_units_Z   2
loop_
 _symmetry_equiv_pos_site_id
 _symmetry_equiv_pos_as_xyz
  1  'x, y, z'
loop_
 _atom_site_type_symbol
 _atom_site_label
 _atom_site_symmetry_multiplicity
 _atom_site_fract_x
 _atom_site_fract_y
 _atom_site_fract_z
 _atom_site_occupancy
  Ge  Ge0  1  0.00000000  0.00000000  0.50000000  1
  Ge  Ge1  1  0.50000000  0.50000000  0.00000000  1
  Te  Te2  1  0.47906605  0.84211371  0.28450678  1
  Te  Te3  1  0.52093395  0.15788629  0.71549322  1
  Te  Te4  1  0.97906605  0.65788629  0.78450678  1
  Te  Te5  1  0.02093395  0.34211371  0.21549322  1
  O  O6  1  0.44376372  0.41601712  0.75923042  1
  O  O7  1  0.55623628  0.58398288  0.24076958  1
  O  O8  1  0.31591508  0.28621102  0.08582256  1
  O  O9  1  0.18408492  0.78621102  0.41417744  1
  O  O10  1  0.94376372  0.08398288  0.25923042  1
  O  O11  1  0.19885973  0.64903115  0.99478310  1
  O  O12  1  0.30114027  0.14903115  0.50521690  1
  O  O13  1  0.80114027  0.35096885  0.00521690  1
  O  O14  1  0.69885973  0.85096885  0.49478310  1
  O  O15  1  0.68408492  0.71378898  0.91417744  1
  O  O16  1  0.81591508  0.21378898  0.58582256  1
  O  O17  1  0.05623628  0.91601712  0.74076958  1
