# generated using pymatgen
data_Na3Nd(AsO4)2
_symmetry_space_group_name_H-M   'P 1'
_cell_length_a   5.92127951
_cell_length_b   5.92127951
_cell_length_c   7.42598263
_cell_angle_alpha   90.00000000
_cell_angle_beta   90.00000000
_cell_angle_gamma   120.00000703
_symmetry_Int_Tables_number   1
_chemical_formula_structural   Na3Nd(AsO4)2
_chemical_formula_sum   'Na3 Nd1 As2 O8'
_cell_volume   225.48396041
_cell_formula_units_Z   1
loop_
 _symmetry_equiv_pos_site_id
 _symmetry_equiv_pos_as_xyz
  1  'x, y, z'
loop_
 _atom_site_type_symbol
 _atom_site_label
 _atom_site_symmetry_multiplicity
 _atom_site_fract_x
 _atom_site_fract_y
 _atom_site_fract_z
 _atom_site_occupancy
  Na  Na0  1  0.66666700  0.33333300  0.29894286  1
  Na  Na1  1  0.33333300  0.66666700  0.70105714  1
  Na  Na2  1  -0.00000000  -0.00000000  0.00000000  1
  Nd  Nd3  1  -0.00000000  -0.00000000  0.50000000  1
  As  As4  1  0.66666700  0.33333300  0.78352934  1
  As  As5  1  0.33333300  0.66666700  0.21647066  1
  O  O6  1  0.66666700  0.33333300  0.00860818  1
  O  O7  1  0.33333300  0.66666700  0.99139182  1
  O  O8  1  0.82251089  0.64502179  0.69371973  1
  O  O9  1  0.17748911  0.35497821  0.30628027  1
  O  O10  1  0.82251089  0.17748911  0.69371973  1
  O  O11  1  0.17748911  0.82251089  0.30628027  1
  O  O12  1  0.35497821  0.17748911  0.69371973  1
  O  O13  1  0.64502179  0.82251089  0.30628027  1
