# generated using pymatgen
data_KLiZnP2O7
_symmetry_space_group_name_H-M   'P 1'
_cell_length_a   5.15802217
_cell_length_b   10.44247720
_cell_length_c   12.60045065
_cell_angle_alpha   90.00000000
_cell_angle_beta   90.00000000
_cell_angle_gamma   90.00000000
_symmetry_Int_Tables_number   1
_chemical_formula_structural   KLiZnP2O7
_chemical_formula_sum   'K4 Li4 Zn4 P8 O28'
_cell_volume   678.69213738
_cell_formula_units_Z   4
loop_
 _symmetry_equiv_pos_site_id
 _symmetry_equiv_pos_as_xyz
  1  'x, y, z'
loop_
 _atom_site_type_symbol
 _atom_site_label
 _atom_site_symmetry_multiplicity
 _atom_site_fract_x
 _atom_site_fract_y
 _atom_site_fract_z
 _atom_site_occupancy
  K  K0  1  0.00874864  0.75642854  0.00000000  1
  K  K1  1  0.49793951  0.49047582  0.50000000  1
  K  K2  1  0.50206049  0.99047582  0.50000000  1
  K  K3  1  0.99125136  0.25642854  0.00000000  1
  Li  Li4  1  0.03848447  0.47487203  0.24989784  1
  Li  Li5  1  0.96151553  0.97487203  0.24989784  1
  Li  Li6  1  0.03848447  0.47487203  0.75010216  1
  Li  Li7  1  0.96151553  0.97487203  0.75010216  1
  Zn  Zn8  1  0.53233896  0.27306373  0.74873121  1
  Zn  Zn9  1  0.53233896  0.27306373  0.25126879  1
  Zn  Zn10  1  0.46766104  0.77306373  0.25126879  1
  Zn  Zn11  1  0.46766104  0.77306373  0.74873121  1
  P  P12  1  0.98104875  0.71938218  0.38262637  1
  P  P13  1  0.01895125  0.21938218  0.61737363  1
  P  P14  1  0.98104875  0.71938218  0.61737363  1
  P  P15  1  0.01895125  0.21938218  0.38262637  1
  P  P16  1  0.53468910  0.52452265  0.11780190  1
  P  P17  1  0.53468910  0.52452265  0.88219810  1
  P  P18  1  0.46531090  0.02452265  0.88219810  1
  P  P19  1  0.46531090  0.02452265  0.11780190  1
  O  O20  1  0.82574782  0.51351936  0.87273207  1
  O  O21  1  0.61622854  0.93348109  0.80746851  1
  O  O22  1  0.31640193  0.23199578  0.62554930  1
  O  O23  1  0.57029479  0.16248091  0.12706712  1
  O  O24  1  0.57029479  0.16248091  0.87293288  1
  O  O25  1  0.91881122  0.08396089  0.62651435  1
  O  O26  1  0.11782873  0.81488453  0.30696779  1
  O  O27  1  0.94469778  0.27582500  0.50000000  1
  O  O28  1  0.91881122  0.08396089  0.37348565  1
  O  O29  1  0.61622854  0.93348109  0.19253149  1
  O  O30  1  0.82574782  0.51351936  0.12726793  1
  O  O31  1  0.31640193  0.23199578  0.37445070  1
  O  O32  1  0.17425218  0.01351936  0.12726793  1
  O  O33  1  0.38377146  0.43348109  0.80746851  1
  O  O34  1  0.08118878  0.58396089  0.37348565  1
  O  O35  1  0.17425218  0.01351936  0.87273207  1
  O  O36  1  0.88217127  0.31488453  0.69303221  1
  O  O37  1  0.44478883  0.47584436  0.00000000  1
  O  O38  1  0.42970521  0.66248091  0.12706712  1
  O  O39  1  0.55521117  0.97584436  0.00000000  1
  O  O40  1  0.11782873  0.81488453  0.69303221  1
  O  O41  1  0.88217127  0.31488453  0.30696779  1
  O  O42  1  0.08118878  0.58396089  0.62651435  1
  O  O43  1  0.42970521  0.66248091  0.87293288  1
  O  O44  1  0.68359807  0.73199578  0.62554930  1
  O  O45  1  0.68359807  0.73199578  0.37445070  1
  O  O46  1  0.05530222  0.77582500  0.50000000  1
  O  O47  1  0.38377146  0.43348109  0.19253149  1
