# generated using pymatgen
data_Br3N(O2F5)2
_symmetry_space_group_name_H-M   'P 1'
_cell_length_a   8.51180861
_cell_length_b   9.10060033
_cell_length_c   15.52359601
_cell_angle_alpha   90.00000000
_cell_angle_beta   90.00000000
_cell_angle_gamma   90.00000000
_symmetry_Int_Tables_number   1
_chemical_formula_structural   Br3N(O2F5)2
_chemical_formula_sum   'Br12 N4 O16 F40'
_cell_volume   1202.49761533
_cell_formula_units_Z   4
loop_
 _symmetry_equiv_pos_site_id
 _symmetry_equiv_pos_as_xyz
  1  'x, y, z'
loop_
 _atom_site_type_symbol
 _atom_site_label
 _atom_site_symmetry_multiplicity
 _atom_site_fract_x
 _atom_site_fract_y
 _atom_site_fract_z
 _atom_site_occupancy
  Br  Br0  1  0.60199717  0.27895867  0.43671651  1
  Br  Br1  1  0.39800283  0.77895867  0.06328349  1
  Br  Br2  1  0.98009412  0.50000000  0.50000000  1
  Br  Br3  1  0.60199717  0.72104133  0.56328349  1
  Br  Br4  1  0.81498731  0.77288932  0.30075869  1
  Br  Br5  1  0.18501269  0.27288932  0.19924131  1
  Br  Br6  1  0.18501269  0.72711068  0.80075869  1
  Br  Br7  1  0.81498731  0.22711068  0.69924131  1
  Br  Br8  1  0.00371075  0.50000000  0.00000000  1
  Br  Br9  1  0.99628925  0.00000000  0.50000000  1
  Br  Br10  1  0.39800283  0.22104133  0.93671651  1
  Br  Br11  1  0.01990588  0.00000000  0.00000000  1
  N  N12  1  0.68525410  0.28042766  0.17101250  1
  N  N13  1  0.31474590  0.78042766  0.32898750  1
  N  N14  1  0.68525410  0.71957234  0.82898750  1
  N  N15  1  0.31474590  0.21957234  0.67101250  1
  O  O16  1  0.46834104  0.37467096  0.39136261  1
  O  O17  1  0.71945130  0.83961232  0.83747586  1
  O  O18  1  0.28054870  0.33961232  0.66252414  1
  O  O19  1  0.64958808  0.59989053  0.81966006  1
  O  O20  1  0.26990983  0.57628357  0.77589826  1
  O  O21  1  0.71945130  0.16038768  0.16252414  1
  O  O22  1  0.64958808  0.40010947  0.18033994  1
  O  O23  1  0.26990983  0.42371643  0.22410174  1
  O  O24  1  0.53165896  0.87467096  0.10863739  1
  O  O25  1  0.53165896  0.12532904  0.89136261  1
  O  O26  1  0.73009017  0.07628357  0.72410174  1
  O  O27  1  0.35041192  0.90010947  0.31966006  1
  O  O28  1  0.46834104  0.62532904  0.60863739  1
  O  O29  1  0.28054870  0.66038768  0.33747586  1
  O  O30  1  0.35041192  0.09989053  0.68033994  1
  O  O31  1  0.73009017  0.92371643  0.27589826  1
  F  F32  1  0.62714306  0.34014044  0.70400834  1
  F  F33  1  0.27014434  0.00000000  0.00000000  1
  F  F34  1  0.01869967  0.05165441  0.11993245  1
  F  F35  1  0.86216724  0.68733988  0.19831270  1
  F  F36  1  0.84632569  0.36488195  0.02884088  1
  F  F37  1  0.83344454  0.85114527  0.46337106  1
  F  F38  1  0.01994244  0.14893861  0.70291673  1
  F  F39  1  0.84632569  0.63511805  0.97115912  1
  F  F40  1  0.45657012  0.59183008  0.08888767  1
  F  F41  1  0.26446511  0.23157073  0.83851184  1
  F  F42  1  0.80516765  0.00000000  0.00000000  1
  F  F43  1  0.37285694  0.84014044  0.79599166  1
  F  F44  1  0.98130033  0.55165441  0.38006755  1
  F  F45  1  0.83344454  0.14885473  0.53662894  1
  F  F46  1  0.49521955  0.25287366  0.54250683  1
  F  F47  1  0.54342988  0.09183008  0.41111233  1
  F  F48  1  0.86216724  0.31266012  0.80168730  1
  F  F49  1  0.50478045  0.24712634  0.04250683  1
  F  F50  1  0.45657012  0.40816992  0.91111233  1
  F  F51  1  0.15367431  0.86488195  0.47115912  1
  F  F52  1  0.98005756  0.35106139  0.20291673  1
  F  F53  1  0.72985566  0.50000000  0.50000000  1
  F  F54  1  0.62714306  0.65985956  0.29599166  1
  F  F55  1  0.01994244  0.85106139  0.29708327  1
  F  F56  1  0.50478045  0.75287366  0.95749317  1
  F  F57  1  0.16655546  0.35114527  0.03662894  1
  F  F58  1  0.01869967  0.94834559  0.88006755  1
  F  F59  1  0.49521955  0.74712634  0.45749317  1
  F  F60  1  0.54342988  0.90816992  0.58888767  1
  F  F61  1  0.37285694  0.15985956  0.20400834  1
  F  F62  1  0.16655546  0.64885473  0.96337106  1
  F  F63  1  0.15367431  0.13511805  0.52884088  1
  F  F64  1  0.13783276  0.18733988  0.30168730  1
  F  F65  1  0.26446511  0.76842927  0.16148816  1
  F  F66  1  0.98005756  0.64893861  0.79708327  1
  F  F67  1  0.19483235  0.50000000  0.50000000  1
  F  F68  1  0.98130033  0.44834559  0.61993245  1
  F  F69  1  0.73553489  0.26842927  0.33851184  1
  F  F70  1  0.13783276  0.81266012  0.69831270  1
  F  F71  1  0.73553489  0.73157073  0.66148816  1
