# generated using pymatgen
data_KNaZnP2O7
_symmetry_space_group_name_H-M   'P 1'
_cell_length_a   7.37343188
_cell_length_b   7.54654158
_cell_length_c   12.77157493
_cell_angle_alpha   89.95842860
_cell_angle_beta   90.00000000
_cell_angle_gamma   90.00000000
_symmetry_Int_Tables_number   1
_chemical_formula_structural   KNaZnP2O7
_chemical_formula_sum   'K4 Na4 Zn4 P8 O28'
_cell_volume   710.66018300
_cell_formula_units_Z   4
loop_
 _symmetry_equiv_pos_site_id
 _symmetry_equiv_pos_as_xyz
  1  'x, y, z'
loop_
 _atom_site_type_symbol
 _atom_site_label
 _atom_site_symmetry_multiplicity
 _atom_site_fract_x
 _atom_site_fract_y
 _atom_site_fract_z
 _atom_site_occupancy
  K  K0  1  0.20737694  0.59992527  0.39703723  1
  K  K1  1  0.29262306  0.09992527  0.89703723  1
  K  K2  1  0.79262306  0.40007473  0.60296277  1
  K  K3  1  0.70737694  0.90007473  0.10296277  1
  Na  Na4  1  0.47679656  0.37221966  0.11241740  1
  Na  Na5  1  0.97679656  0.12778034  0.38758260  1
  Na  Na6  1  0.52320344  0.62778034  0.88758260  1
  Na  Na7  1  0.02320344  0.87221966  0.61241740  1
  Zn  Zn8  1  0.48025135  0.16947638  0.37878918  1
  Zn  Zn9  1  0.51974865  0.83052362  0.62121082  1
  Zn  Zn10  1  0.01974865  0.66947638  0.87878918  1
  Zn  Zn11  1  0.98025135  0.33052362  0.12121082  1
  P  P12  1  0.28552339  0.17477261  0.59902420  1
  P  P13  1  0.21447661  0.67477261  0.09902420  1
  P  P14  1  0.21863451  0.02476706  0.20277994  1
  P  P15  1  0.28136549  0.52476706  0.70277994  1
  P  P16  1  0.78552339  0.32522739  0.90097580  1
  P  P17  1  0.71447661  0.82522739  0.40097580  1
  P  P18  1  0.78136549  0.97523294  0.79722006  1
  P  P19  1  0.71863451  0.47523294  0.29722006  1
  O  O20  1  0.52339094  0.40747095  0.31765636  1
  O  O21  1  0.90214436  0.81454635  0.44862249  1
  O  O22  1  0.09785564  0.18545365  0.55137751  1
  O  O23  1  0.18317557  0.49151232  0.15076205  1
  O  O24  1  0.59785564  0.31454635  0.94862249  1
  O  O25  1  0.44391964  0.23013969  0.52726576  1
  O  O26  1  0.31682443  0.99151232  0.65076205  1
  O  O27  1  0.40214436  0.68545365  0.05137751  1
  O  O28  1  0.81682443  0.50848768  0.84923795  1
  O  O29  1  0.47660906  0.59252905  0.68234364  1
  O  O30  1  0.55608036  0.76986031  0.47273424  1
  O  O31  1  0.73696273  0.94077627  0.68068252  1
  O  O32  1  0.64046651  0.91350971  0.87519125  1
  O  O33  1  0.94391964  0.26986031  0.97273424  1
  O  O34  1  0.70331524  0.69192461  0.29993816  1
  O  O35  1  0.26303727  0.05922373  0.31931748  1
  O  O36  1  0.05608036  0.73013969  0.02726576  1
  O  O37  1  0.76303727  0.44077627  0.18068252  1
  O  O38  1  0.23696273  0.55922373  0.81931748  1
  O  O39  1  0.29668476  0.30807539  0.70006184  1
  O  O40  1  0.85953349  0.41350971  0.37519125  1
  O  O41  1  0.14046651  0.58649029  0.62480875  1
  O  O42  1  0.02339094  0.09252905  0.18234364  1
  O  O43  1  0.35953349  0.08649029  0.12480875  1
  O  O44  1  0.97660906  0.90747095  0.81765636  1
  O  O45  1  0.68317557  0.00848768  0.34923795  1
  O  O46  1  0.20331524  0.80807539  0.20006184  1
  O  O47  1  0.79668476  0.19192461  0.79993816  1
