# generated using pymatgen
data_Rb2Nb2P2S11
_symmetry_space_group_name_H-M   'P 1'
_cell_length_a   7.13492010
_cell_length_b   7.14772115
_cell_length_c   18.88364547
_cell_angle_alpha   90.00000000
_cell_angle_beta   98.59422047
_cell_angle_gamma   90.00000000
_symmetry_Int_Tables_number   1
_chemical_formula_structural   Rb2Nb2P2S11
_chemical_formula_sum   'Rb4 Nb4 P4 S22'
_cell_volume   952.22258124
_cell_formula_units_Z   2
loop_
 _symmetry_equiv_pos_site_id
 _symmetry_equiv_pos_as_xyz
  1  'x, y, z'
loop_
 _atom_site_type_symbol
 _atom_site_label
 _atom_site_symmetry_multiplicity
 _atom_site_fract_x
 _atom_site_fract_y
 _atom_site_fract_z
 _atom_site_occupancy
  Rb  Rb0  1  0.25166262  0.75000000  0.99607525  1
  Rb  Rb1  1  0.74833738  0.25000000  0.00392475  1
  Rb  Rb2  1  0.22754137  0.75000000  0.50768800  1
  Rb  Rb3  1  0.77245863  0.25000000  0.49231200  1
  Nb  Nb4  1  0.69733765  0.04908281  0.75547366  1
  Nb  Nb5  1  0.30266235  0.54908281  0.24452634  1
  Nb  Nb6  1  0.30266235  0.95091719  0.24452634  1
  Nb  Nb7  1  0.69733765  0.45091719  0.75547366  1
  P  P8  1  0.68733087  0.75000000  0.89240505  1
  P  P9  1  0.79189850  0.75000000  0.62645832  1
  P  P10  1  0.31266913  0.25000000  0.10759495  1
  P  P11  1  0.20810150  0.25000000  0.37354168  1
  S  S12  1  0.40024391  0.25000000  0.73266743  1
  S  S13  1  0.26293959  0.25000000  0.48101096  1
  S  S14  1  0.47996420  0.47785038  0.14246390  1
  S  S15  1  0.06398505  0.75000000  0.18725004  1
  S  S16  1  0.22982422  0.25000000  0.00216367  1
  S  S17  1  0.56082979  0.25000000  0.65386329  1
  S  S18  1  0.43917021  0.75000000  0.34613671  1
  S  S19  1  0.77017578  0.75000000  0.99783633  1
  S  S20  1  0.54591444  0.75000000  0.67600731  1
  S  S21  1  0.10857268  0.25000000  0.17487527  1
  S  S22  1  0.93601495  0.25000000  0.81274996  1
  S  S23  1  0.93834761  0.98353215  0.66692227  1
  S  S24  1  0.47996420  0.02214962  0.14246390  1
  S  S25  1  0.59975609  0.75000000  0.26733257  1
  S  S26  1  0.73706041  0.75000000  0.51898904  1
  S  S27  1  0.93834761  0.51646785  0.66692227  1
  S  S28  1  0.52003580  0.97785038  0.85753610  1
  S  S29  1  0.52003580  0.52214962  0.85753610  1
  S  S30  1  0.06165239  0.01646785  0.33307773  1
  S  S31  1  0.89142732  0.75000000  0.82512473  1
  S  S32  1  0.45408556  0.25000000  0.32399269  1
  S  S33  1  0.06165239  0.48353215  0.33307773  1
