# generated using pymatgen
data_KSb(PO4)2
_symmetry_space_group_name_H-M   'P 1'
_cell_length_a   9.05986543
_cell_length_b   9.05986557
_cell_length_c   9.05986589
_cell_angle_alpha   31.07678214
_cell_angle_beta   31.07678066
_cell_angle_gamma   31.07678307
_symmetry_Int_Tables_number   1
_chemical_formula_structural   KSb(PO4)2
_chemical_formula_sum   'K1 Sb1 P2 O8'
_cell_volume   175.79637235
_cell_formula_units_Z   1
loop_
 _symmetry_equiv_pos_site_id
 _symmetry_equiv_pos_as_xyz
  1  'x, y, z'
loop_
 _atom_site_type_symbol
 _atom_site_label
 _atom_site_symmetry_multiplicity
 _atom_site_fract_x
 _atom_site_fract_y
 _atom_site_fract_z
 _atom_site_occupancy
  K  K0  1  0.50000000  0.50000000  0.50000000  1
  Sb  Sb1  1  0.00000000  0.00000000  0.00000000  1
  P  P2  1  0.73516570  0.73516570  0.73516570  1
  P  P3  1  0.26483430  0.26483430  0.26483430  1
  O  O4  1  0.79282825  0.79282825  0.79282825  1
  O  O5  1  -0.00148272  0.39650750  0.74307808  1
  O  O6  1  0.20717175  0.20717175  0.20717175  1
  O  O7  1  0.74307808  -0.00148272  0.39650750  1
  O  O8  1  0.25692192  1.00148272  0.60349250  1
  O  O9  1  0.39650750  0.74307808  -0.00148272  1
  O  O10  1  0.60349250  0.25692192  1.00148272  1
  O  O11  1  1.00148272  0.60349250  0.25692192  1
