# generated using pymatgen
data_Ba7Ru4Cl2O15
_symmetry_space_group_name_H-M   'P 1'
_cell_length_a   17.74166467
_cell_length_b   17.74166447
_cell_length_c   17.74166480
_cell_angle_alpha   19.09695401
_cell_angle_beta   19.09695596
_cell_angle_gamma   19.09695498
_symmetry_Int_Tables_number   1
_chemical_formula_structural   Ba7Ru4Cl2O15
_chemical_formula_sum   'Ba7 Ru4 Cl2 O15'
_cell_volume   522.46314339
_cell_formula_units_Z   1
loop_
 _symmetry_equiv_pos_site_id
 _symmetry_equiv_pos_as_xyz
  1  'x, y, z'
loop_
 _atom_site_type_symbol
 _atom_site_label
 _atom_site_symmetry_multiplicity
 _atom_site_fract_x
 _atom_site_fract_y
 _atom_site_fract_z
 _atom_site_occupancy
  Ba  Ba0  1  0.71377693  0.71377693  0.71377693  1
  Ba  Ba1  1  0.08382238  0.08382238  0.08382238  1
  Ba  Ba2  1  0.20599624  0.20599624  0.20599624  1
  Ba  Ba3  1  0.91617762  0.91617762  0.91617762  1
  Ba  Ba4  1  0.28622307  0.28622307  0.28622307  1
  Ba  Ba5  1  0.00000000  0.00000000  0.00000000  1
  Ba  Ba6  1  0.79400376  0.79400376  0.79400376  1
  Ru  Ru7  1  0.40607510  0.40607510  0.40607510  1
  Ru  Ru8  1  0.64577987  0.64577987  0.64577987  1
  Ru  Ru9  1  0.59392490  0.59392490  0.59392490  1
  Ru  Ru10  1  0.35422013  0.35422013  0.35422013  1
  Cl  Cl11  1  0.85569096  0.85569096  0.85569096  1
  Cl  Cl12  1  0.14430904  0.14430904  0.14430904  1
  O  O13  1  0.77356514  0.31626693  0.77356514  1
  O  O14  1  0.58520518  0.58520518  0.10440188  1
  O  O15  1  0.41479482  0.89559812  0.41479482  1
  O  O16  1  0.10440188  0.58520518  0.58520518  1
  O  O17  1  0.41479482  0.41479482  0.89559812  1
  O  O18  1  0.22643486  0.68373307  0.22643486  1
  O  O19  1  0.58520518  0.10440188  0.58520518  1
  O  O20  1  0.00000000  0.50000000  0.50000000  1
  O  O21  1  0.68373307  0.22643486  0.22643486  1
  O  O22  1  0.31626693  0.77356514  0.77356514  1
  O  O23  1  0.22643486  0.22643486  0.68373307  1
  O  O24  1  0.89559812  0.41479482  0.41479482  1
  O  O25  1  0.77356514  0.77356514  0.31626693  1
  O  O26  1  0.50000000  0.00000000  0.50000000  1
  O  O27  1  0.50000000  0.50000000  0.00000000  1
