# generated using pymatgen
data_Cu5Se2(ClO4)2
_symmetry_space_group_name_H-M   'P 1'
_cell_length_a   5.49140041
_cell_length_b   8.25471015
_cell_length_c   11.23731106
_cell_angle_alpha   90.00000000
_cell_angle_beta   99.06430641
_cell_angle_gamma   90.00000000
_symmetry_Int_Tables_number   1
_chemical_formula_structural   Cu5Se2(ClO4)2
_chemical_formula_sum   'Cu10 Se4 Cl4 O16'
_cell_volume   503.02525242
_cell_formula_units_Z   2
loop_
 _symmetry_equiv_pos_site_id
 _symmetry_equiv_pos_as_xyz
  1  'x, y, z'
loop_
 _atom_site_type_symbol
 _atom_site_label
 _atom_site_symmetry_multiplicity
 _atom_site_fract_x
 _atom_site_fract_y
 _atom_site_fract_z
 _atom_site_occupancy
  Cu  Cu0  1  0.48204322  0.71440896  0.11594113  1
  Cu  Cu1  1  0.51970933  0.07583125  0.11987632  1
  Cu  Cu2  1  0.48029067  0.92416875  0.88012368  1
  Cu  Cu3  1  0.51795678  0.28559104  0.88405887  1
  Cu  Cu4  1  0.48029067  0.57583125  0.38012368  1
  Cu  Cu5  1  0.51970933  0.42416875  0.61987632  1
  Cu  Cu6  1  0.48204322  0.78559104  0.61594113  1
  Cu  Cu7  1  0.51795678  0.21440896  0.38405887  1
  Cu  Cu8  1  0.00000000  0.50000000  0.50000000  1
  Cu  Cu9  1  0.00000000  0.00000000  0.00000000  1
  Se  Se10  1  0.13532638  0.90891264  0.28497818  1
  Se  Se11  1  0.13532638  0.59108736  0.78497818  1
  Se  Se12  1  0.86467362  0.09108736  0.71502182  1
  Se  Se13  1  0.86467362  0.40891264  0.21502182  1
  Cl  Cl14  1  0.28087620  0.34825343  0.02216753  1
  Cl  Cl15  1  0.71912380  0.65174657  0.97783247  1
  Cl  Cl16  1  0.28087620  0.15174657  0.52216753  1
  Cl  Cl17  1  0.71912380  0.84825343  0.47783247  1
  O  O18  1  0.35257948  0.44086441  0.76111543  1
  O  O19  1  0.07768663  0.43219465  0.34291933  1
  O  O20  1  0.29128962  0.76830005  0.75165456  1
  O  O21  1  0.64742052  0.94086441  0.73888457  1
  O  O22  1  0.92231337  0.93219465  0.15708067  1
  O  O23  1  0.35257948  0.05913559  0.26111543  1
  O  O24  1  0.32972355  0.60051854  0.52680539  1
  O  O25  1  0.67027645  0.39948146  0.47319461  1
  O  O26  1  0.92231337  0.56780535  0.65708067  1
  O  O27  1  0.07768663  0.06780535  0.84291933  1
  O  O28  1  0.29128962  0.73169995  0.25165456  1
  O  O29  1  0.64742052  0.55913559  0.23888457  1
  O  O30  1  0.70871038  0.23169995  0.24834544  1
  O  O31  1  0.70871038  0.26830005  0.74834544  1
  O  O32  1  0.67027645  0.10051854  0.97319461  1
  O  O33  1  0.32972355  0.89948146  0.02680539  1
