# generated using pymatgen
data_K14In4O13
_symmetry_space_group_name_H-M   'P 1'
_cell_length_a   6.92984829
_cell_length_b   6.92610550
_cell_length_c   31.86390368
_cell_angle_alpha   90.00000000
_cell_angle_beta   90.00000000
_cell_angle_gamma   119.23123174
_symmetry_Int_Tables_number   1
_chemical_formula_structural   K14In4O13
_chemical_formula_sum   'K28 In8 O26'
_cell_volume   1334.61160783
_cell_formula_units_Z   2
loop_
 _symmetry_equiv_pos_site_id
 _symmetry_equiv_pos_as_xyz
  1  'x, y, z'
loop_
 _atom_site_type_symbol
 _atom_site_label
 _atom_site_symmetry_multiplicity
 _atom_site_fract_x
 _atom_site_fract_y
 _atom_site_fract_z
 _atom_site_occupancy
  K  K0  1  0.94606394  0.71165856  0.78152279  1
  K  K1  1  0.44606394  0.71165856  0.71847721  1
  K  K2  1  0.03951021  0.26991238  0.99912703  1
  K  K3  1  0.55930117  0.27886213  0.72483688  1
  K  K4  1  0.99958695  0.15755426  0.55280561  1
  K  K5  1  0.95964766  0.74765451  0.88915385  1
  K  K6  1  0.46048979  0.73008762  0.49912703  1
  K  K7  1  0.50041305  0.84244574  0.05280561  1
  K  K8  1  0.46047418  0.71678614  0.38716376  1
  K  K9  1  0.55393606  0.28834144  0.28152279  1
  K  K10  1  0.03952582  0.28321386  0.88716376  1
  K  K11  1  0.99510719  0.13319770  0.34191330  1
  K  K12  1  0.00041305  0.84244574  0.44719439  1
  K  K13  1  0.54035234  0.25234549  0.38915385  1
  K  K14  1  0.94069883  0.72113787  0.22483688  1
  K  K15  1  0.96048979  0.73008762  0.00087297  1
  K  K16  1  0.53951021  0.26991238  0.50087297  1
  K  K17  1  0.45964766  0.74765451  0.61084615  1
  K  K18  1  0.50489281  0.86680230  0.84191330  1
  K  K19  1  0.44069883  0.72113787  0.27516312  1
  K  K20  1  0.49958695  0.15755426  0.94719439  1
  K  K21  1  0.96047418  0.71678614  0.11283624  1
  K  K22  1  0.04035234  0.25234549  0.11084615  1
  K  K23  1  0.49510719  0.13319770  0.15808670  1
  K  K24  1  0.05393606  0.28834144  0.21847721  1
  K  K25  1  0.05930117  0.27886213  0.77516312  1
  K  K26  1  0.00489281  0.86680230  0.65808670  1
  K  K27  1  0.53952582  0.28321386  0.61283624  1
  In  In28  1  0.99878133  0.34257139  0.66593443  1
  In  In29  1  0.50060738  0.32882700  0.05527128  1
  In  In30  1  0.00121867  0.65742861  0.33406557  1
  In  In31  1  0.00060738  0.32882700  0.44472872  1
  In  In32  1  0.49939262  0.67117300  0.94472872  1
  In  In33  1  0.49878133  0.34257139  0.83406557  1
  In  In34  1  0.99939262  0.67117300  0.55527128  1
  In  In35  1  0.50121867  0.65742861  0.16593443  1
  O  O36  1  0.29331993  0.95738946  0.32957682  1
  O  O37  1  0.78710424  0.32059043  0.82776649  1
  O  O38  1  0.99714033  0.53473561  0.39614266  1
  O  O39  1  0.21057734  0.02968518  0.05766801  1
  O  O40  1  0.50285967  0.46526439  0.89614266  1
  O  O41  1  0.50154915  0.56816698  0.78991062  1
  O  O42  1  0.79323241  0.31955621  0.05705759  1
  O  O43  1  0.99845085  0.43183302  0.28991062  1
  O  O44  1  0.28942266  0.97031482  0.55766801  1
  O  O45  1  0.28710424  0.32059043  0.67223351  1
  O  O46  1  0.29323241  0.31955621  0.44294241  1
  O  O47  1  0.78942266  0.97031482  0.94233199  1
  O  O48  1  0.70676759  0.68044379  0.55705759  1
  O  O49  1  0.20668007  0.04261054  0.82957682  1
  O  O50  1  0.71057734  0.02968518  0.44233199  1
  O  O51  1  0.49714033  0.53473561  0.10385734  1
  O  O52  1  0.70668007  0.04261054  0.67042318  1
  O  O53  1  0.50000000  0.50000000  0.00000000  1
  O  O54  1  0.79331993  0.95738946  0.17042318  1
  O  O55  1  0.21289576  0.67940957  0.17223351  1
  O  O56  1  0.00154915  0.56816698  0.71008938  1
  O  O57  1  0.00285967  0.46526439  0.60385734  1
  O  O58  1  0.20676759  0.68044379  0.94294241  1
  O  O59  1  0.00000000  0.50000000  0.50000000  1
  O  O60  1  0.49845085  0.43183302  0.21008938  1
  O  O61  1  0.71289576  0.67940957  0.32776649  1
