# generated using pymatgen
data_Ti4P6PbO24
_symmetry_space_group_name_H-M   'P 1'
_cell_length_a   9.07382894
_cell_length_b   9.07382869
_cell_length_c   9.07382910
_cell_angle_alpha   55.47130341
_cell_angle_beta   55.47130452
_cell_angle_gamma   55.47130382
_symmetry_Int_Tables_number   1
_chemical_formula_structural   Ti4P6PbO24
_chemical_formula_sum   'Ti4 P6 Pb1 O24'
_cell_volume   472.71740105
_cell_formula_units_Z   1
loop_
 _symmetry_equiv_pos_site_id
 _symmetry_equiv_pos_as_xyz
  1  'x, y, z'
loop_
 _atom_site_type_symbol
 _atom_site_label
 _atom_site_symmetry_multiplicity
 _atom_site_fract_x
 _atom_site_fract_y
 _atom_site_fract_z
 _atom_site_occupancy
  Ti  Ti0  1  0.15008899  0.15008899  0.15008899  1
  Ti  Ti1  1  0.84991101  0.84991101  0.84991101  1
  Ti  Ti2  1  0.64547984  0.64547984  0.64547984  1
  Ti  Ti3  1  0.35452016  0.35452016  0.35452016  1
  P  P4  1  0.53617075  0.96975211  0.24950027  1
  P  P5  1  0.75049973  0.46382925  0.03024789  1
  P  P6  1  0.46382925  0.03024789  0.75049973  1
  P  P7  1  0.24950027  0.53617075  0.96975211  1
  P  P8  1  0.03024789  0.75049973  0.46382925  1
  P  P9  1  0.96975211  0.24950027  0.53617075  1
  Pb  Pb10  1  0.00000000  0.00000000  0.00000000  1
  O  O11  1  0.90654035  0.27073960  0.09830484  1
  O  O12  1  0.77050533  0.48221570  0.84080015  1
  O  O13  1  0.27073960  0.09830484  0.90654035  1
  O  O14  1  0.81535401  0.44969195  0.53494524  1
  O  O15  1  0.00271939  0.78502239  0.62801296  1
  O  O16  1  0.37198704  0.99728061  0.21497761  1
  O  O17  1  0.09830484  0.90654035  0.27073960  1
  O  O18  1  0.62801296  0.00271939  0.78502239  1
  O  O19  1  0.72926040  0.90169516  0.09345965  1
  O  O20  1  0.51778430  0.15919985  0.22949467  1
  O  O21  1  0.78502239  0.62801296  0.00271939  1
  O  O22  1  0.21497761  0.37198704  0.99728061  1
  O  O23  1  0.46505476  0.18464599  0.55030805  1
  O  O24  1  0.09345965  0.72926040  0.90169516  1
  O  O25  1  0.53494524  0.81535401  0.44969195  1
  O  O26  1  0.99728061  0.21497761  0.37198704  1
  O  O27  1  0.15919985  0.22949467  0.51778430  1
  O  O28  1  0.44969195  0.53494524  0.81535401  1
  O  O29  1  0.55030805  0.46505476  0.18464599  1
  O  O30  1  0.48221570  0.84080015  0.77050533  1
  O  O31  1  0.22949467  0.51778430  0.15919985  1
  O  O32  1  0.90169516  0.09345965  0.72926040  1
  O  O33  1  0.84080015  0.77050533  0.48221570  1
  O  O34  1  0.18464599  0.55030805  0.46505476  1
