# generated using pymatgen
data_CsAs3O8
_symmetry_space_group_name_H-M   'P 1'
_cell_length_a   7.39539877
_cell_length_b   7.39539802
_cell_length_c   7.77673316
_cell_angle_alpha   103.16565143
_cell_angle_beta   103.16565004
_cell_angle_gamma   107.83990581
_symmetry_Int_Tables_number   1
_chemical_formula_structural   CsAs3O8
_chemical_formula_sum   'Cs2 As6 O16'
_cell_volume   373.36663744
_cell_formula_units_Z   2
loop_
 _symmetry_equiv_pos_site_id
 _symmetry_equiv_pos_as_xyz
  1  'x, y, z'
loop_
 _atom_site_type_symbol
 _atom_site_label
 _atom_site_symmetry_multiplicity
 _atom_site_fract_x
 _atom_site_fract_y
 _atom_site_fract_z
 _atom_site_occupancy
  Cs  Cs0  1  0.42422060  0.57577940  0.25000000  1
  Cs  Cs1  1  0.57577940  0.42422060  0.75000000  1
  As  As2  1  0.70489574  0.05105260  0.07222297  1
  As  As3  1  0.94894740  0.29510426  0.42777703  1
  As  As4  1  0.06844967  0.93155033  0.25000000  1
  As  As5  1  0.05105260  0.70489574  0.57222297  1
  As  As6  1  0.29510426  0.94894740  0.92777703  1
  As  As7  1  0.93155033  0.06844967  0.75000000  1
  O  O8  1  0.82324623  0.47644931  0.47084762  1
  O  O9  1  0.13222728  0.15225638  0.42824726  1
  O  O10  1  0.15225638  0.13222728  0.92824726  1
  O  O11  1  0.04569710  0.72800305  0.32900481  1
  O  O12  1  0.17675377  0.52355069  0.52915238  1
  O  O13  1  0.84774362  0.86777272  0.07175274  1
  O  O14  1  0.72800305  0.04569710  0.82900481  1
  O  O15  1  0.92893176  0.27953590  0.18040962  1
  O  O16  1  0.47644931  0.82324623  0.97084762  1
  O  O17  1  0.95430290  0.27199695  0.67099519  1
  O  O18  1  0.27199695  0.95430290  0.17099519  1
  O  O19  1  0.07106824  0.72046410  0.81959038  1
  O  O20  1  0.86777272  0.84774362  0.57175274  1
  O  O21  1  0.27953590  0.92893176  0.68040962  1
  O  O22  1  0.72046410  0.07106824  0.31959038  1
  O  O23  1  0.52355069  0.17675377  0.02915238  1
