# generated using pymatgen
data_Na2UO4
_symmetry_space_group_name_H-M   'P 1'
_cell_length_a   3.52553286
_cell_length_b   5.76803049
_cell_length_c   9.90968767
_cell_angle_alpha   90.00000000
_cell_angle_beta   90.00000000
_cell_angle_gamma   90.00000000
_symmetry_Int_Tables_number   1
_chemical_formula_structural   Na2UO4
_chemical_formula_sum   'Na4 U2 O8'
_cell_volume   201.51727466
_cell_formula_units_Z   2
loop_
 _symmetry_equiv_pos_site_id
 _symmetry_equiv_pos_as_xyz
  1  'x, y, z'
loop_
 _atom_site_type_symbol
 _atom_site_label
 _atom_site_symmetry_multiplicity
 _atom_site_fract_x
 _atom_site_fract_y
 _atom_site_fract_z
 _atom_site_occupancy
  Na  Na0  1  0.50000000  0.44303371  0.18286705  1
  Na  Na1  1  0.50000000  0.05696629  0.68286705  1
  Na  Na2  1  0.50000000  0.94303371  0.31713295  1
  Na  Na3  1  0.50000000  0.55696629  0.81713295  1
  U  U4  1  0.00000000  0.00000000  0.00000000  1
  U  U5  1  0.00000000  0.50000000  0.50000000  1
  O  O6  1  0.00000000  0.35542218  0.67701385  1
  O  O7  1  0.50000000  0.29137373  0.44691743  1
  O  O8  1  0.00000000  0.85542218  0.82298615  1
  O  O9  1  0.50000000  0.70862627  0.55308257  1
  O  O10  1  0.00000000  0.64457782  0.32298615  1
  O  O11  1  0.50000000  0.20862627  0.94691743  1
  O  O12  1  0.00000000  0.14457782  0.17701385  1
  O  O13  1  0.50000000  0.79137373  0.05308257  1
