# generated using pymatgen
data_TaBi4BrO8
_symmetry_space_group_name_H-M   'P 1'
_cell_length_a   5.54644266
_cell_length_b   5.61040546
_cell_length_c   29.89981025
_cell_angle_alpha   90.00000000
_cell_angle_beta   90.00000000
_cell_angle_gamma   90.00000000
_symmetry_Int_Tables_number   1
_chemical_formula_structural   TaBi4BrO8
_chemical_formula_sum   'Ta4 Bi16 Br4 O32'
_cell_volume   930.41608168
_cell_formula_units_Z   4
loop_
 _symmetry_equiv_pos_site_id
 _symmetry_equiv_pos_as_xyz
  1  'x, y, z'
loop_
 _atom_site_type_symbol
 _atom_site_label
 _atom_site_symmetry_multiplicity
 _atom_site_fract_x
 _atom_site_fract_y
 _atom_site_fract_z
 _atom_site_occupancy
  Ta  Ta0  1  0.98721995  0.76603612  0.24988849  1
  Ta  Ta1  1  0.98721995  0.73396388  0.74988849  1
  Ta  Ta2  1  0.48721995  0.26603612  0.25011151  1
  Ta  Ta3  1  0.48721995  0.23396388  0.75011151  1
  Bi  Bi4  1  0.01210996  0.30645306  0.65885185  1
  Bi  Bi5  1  0.47893004  0.26150588  0.92759110  1
  Bi  Bi6  1  0.51210996  0.69354694  0.34114815  1
  Bi  Bi7  1  0.01210996  0.19354694  0.15885185  1
  Bi  Bi8  1  0.51210996  0.80645306  0.84114815  1
  Bi  Bi9  1  0.49862979  0.26151296  0.57237881  1
  Bi  Bi10  1  0.97893004  0.73849412  0.07240890  1
  Bi  Bi11  1  0.96579122  0.30806621  0.84068527  1
  Bi  Bi12  1  0.99862979  0.76151296  0.92762119  1
  Bi  Bi13  1  0.46579122  0.80806621  0.65931473  1
  Bi  Bi14  1  0.49862979  0.23848704  0.07237881  1
  Bi  Bi15  1  0.96579122  0.19193379  0.34068527  1
  Bi  Bi16  1  0.46579122  0.69193379  0.15931473  1
  Bi  Bi17  1  0.99862979  0.73848704  0.42762119  1
  Bi  Bi18  1  0.97893004  0.76150588  0.57240890  1
  Bi  Bi19  1  0.47893004  0.23849412  0.42759110  1
  Br  Br20  1  0.48848388  0.74962704  0.49996461  1
  Br  Br21  1  0.48848388  0.75037296  0.99996461  1
  Br  Br22  1  0.98848388  0.24962704  0.00003539  1
  Br  Br23  1  0.98848388  0.25037296  0.50003539  1
  O  O24  1  0.74411378  0.50784094  0.60973937  1
  O  O25  1  0.39138417  0.18203705  0.68624671  1
  O  O26  1  0.23654700  0.00243040  0.60828076  1
  O  O27  1  0.23465329  0.45243481  0.76467092  1
  O  O28  1  0.73306816  0.00776888  0.60990522  1
  O  O29  1  0.08580312  0.68041476  0.68634754  1
  O  O30  1  0.24411378  0.49215906  0.39026063  1
  O  O31  1  0.23654700  0.49756960  0.10828076  1
  O  O32  1  0.58580312  0.18041476  0.81365246  1
  O  O33  1  0.24025510  0.50199740  0.60805446  1
  O  O34  1  0.23901055  0.95337890  0.76415705  1
  O  O35  1  0.73901055  0.45337890  0.73584295  1
  O  O36  1  0.73465329  0.95243481  0.73532908  1
  O  O37  1  0.23306816  0.50776888  0.89009478  1
  O  O38  1  0.23465329  0.04756519  0.26467092  1
  O  O39  1  0.24025510  -0.00199740  0.10805446  1
  O  O40  1  0.73654700  0.99756960  0.39171924  1
  O  O41  1  0.73306816  0.49223112  0.10990522  1
  O  O42  1  0.73901055  0.04662110  0.23584295  1
  O  O43  1  0.89138417  0.81796295  0.31375329  1
  O  O44  1  0.89138417  0.68203705  0.81375329  1
  O  O45  1  0.58580312  0.31958524  0.31365246  1
  O  O46  1  0.73654700  0.50243040  0.89171924  1
  O  O47  1  0.08580312  0.81958524  0.18634754  1
  O  O48  1  0.74411378  0.99215906  0.10973937  1
  O  O49  1  0.39138417  0.31796295  0.18624671  1
  O  O50  1  0.73465329  0.54756519  0.23532908  1
  O  O51  1  0.24411378  0.00784094  0.89026063  1
  O  O52  1  0.74025510  0.49800260  0.39194554  1
  O  O53  1  0.23306816  0.99223112  0.39009478  1
  O  O54  1  0.74025510  1.00199740  0.89194554  1
  O  O55  1  0.23901055  0.54662110  0.26415705  1
