# generated using pymatgen
data_ZrHg3(SCl3)2
_symmetry_space_group_name_H-M   'P 1'
_cell_length_a   6.78409000
_cell_length_b   7.54457640
_cell_length_c   13.28434362
_cell_angle_alpha   90.00000000
_cell_angle_beta   91.47257671
_cell_angle_gamma   90.00000000
_symmetry_Int_Tables_number   1
_chemical_formula_structural   ZrHg3(SCl3)2
_chemical_formula_sum   'Zr2 Hg6 S4 Cl12'
_cell_volume   679.70913725
_cell_formula_units_Z   2
loop_
 _symmetry_equiv_pos_site_id
 _symmetry_equiv_pos_as_xyz
  1  'x, y, z'
loop_
 _atom_site_type_symbol
 _atom_site_label
 _atom_site_symmetry_multiplicity
 _atom_site_fract_x
 _atom_site_fract_y
 _atom_site_fract_z
 _atom_site_occupancy
  Zr  Zr0  1  0.50000000  0.50000000  0.50000000  1
  Zr  Zr1  1  0.50000000  0.00000000  0.00000000  1
  Hg  Hg2  1  0.00843448  0.20527473  0.75952411  1
  Hg  Hg3  1  0.99156552  0.79472527  0.24047589  1
  Hg  Hg4  1  0.99156552  0.70527473  0.74047589  1
  Hg  Hg5  1  0.00843448  0.29472527  0.25952411  1
  Hg  Hg6  1  0.00000000  0.00000000  0.50000000  1
  Hg  Hg7  1  0.00000000  0.50000000  0.00000000  1
  S  S8  1  0.84739242  0.03904248  0.33200687  1
  S  S9  1  0.15260758  0.53904248  0.16799313  1
  S  S10  1  0.84739242  0.46095752  0.83200687  1
  S  S11  1  0.15260758  0.96095752  0.66799313  1
  Cl  Cl12  1  0.35248419  0.04944121  0.16726767  1
  Cl  Cl13  1  0.63305290  0.71300049  0.06376784  1
  Cl  Cl14  1  0.36694710  0.28699951  0.93623216  1
  Cl  Cl15  1  0.35248419  0.45055879  0.66726767  1
  Cl  Cl16  1  0.36694710  0.21300049  0.43623216  1
  Cl  Cl17  1  0.81345068  0.14682831  0.05941729  1
  Cl  Cl18  1  0.64751581  0.54944121  0.33273233  1
  Cl  Cl19  1  0.64751581  0.95055879  0.83273233  1
  Cl  Cl20  1  0.18654932  0.85317169  0.94058271  1
  Cl  Cl21  1  0.63305290  0.78699951  0.56376784  1
  Cl  Cl22  1  0.81345068  0.35317169  0.55941729  1
  Cl  Cl23  1  0.18654932  0.64682831  0.44058271  1
