# generated using pymatgen
data_Sb3As2S14(IF8)3
_symmetry_space_group_name_H-M   'P 1'
_cell_length_a   8.47230454
_cell_length_b   9.54615015
_cell_length_c   13.46502812
_cell_angle_alpha   71.59999355
_cell_angle_beta   85.04888181
_cell_angle_gamma   85.32118722
_symmetry_Int_Tables_number   1
_chemical_formula_structural   Sb3As2S14(IF8)3
_chemical_formula_sum   'Sb3 As2 S14 I3 F24'
_cell_volume   1027.79064138
_cell_formula_units_Z   1
loop_
 _symmetry_equiv_pos_site_id
 _symmetry_equiv_pos_as_xyz
  1  'x, y, z'
loop_
 _atom_site_type_symbol
 _atom_site_label
 _atom_site_symmetry_multiplicity
 _atom_site_fract_x
 _atom_site_fract_y
 _atom_site_fract_z
 _atom_site_occupancy
  Sb  Sb0  1  0.46828466  0.21602547  0.66456580  1
  Sb  Sb1  1  0.53171534  0.78397453  0.33543420  1
  Sb  Sb2  1  0.00000000  0.00000000  0.00000000  1
  As  As3  1  0.51920483  0.23036617  0.00287848  1
  As  As4  1  0.48079517  0.76963383  0.99712152  1
  S  S5  1  0.91016309  0.93393802  0.69320398  1
  S  S6  1  0.74209835  0.62784777  0.70936451  1
  S  S7  1  0.25790165  0.37215223  0.29063549  1
  S  S8  1  0.96408152  0.40655688  0.13531729  1
  S  S9  1  0.03591848  0.59344312  0.86468271  1
  S  S10  1  0.15847497  0.17997754  0.39605002  1
  S  S11  1  0.88400568  0.45518600  0.69616238  1
  S  S12  1  0.87180918  0.16869665  0.24438993  1
  S  S13  1  0.08983691  0.06606198  0.30679602  1
  S  S14  1  0.11599432  0.54481400  0.30383762  1
  S  S15  1  0.84152503  0.82002246  0.60394998  1
  S  S16  1  0.12819082  0.83130335  0.75561007  1
  S  S17  1  0.89856605  0.54173614  0.21042593  1
  S  S18  1  0.10143395  0.45826386  0.78957407  1
  I  I19  1  0.28365934  0.76015149  0.62517129  1
  I  I20  1  0.00000000  0.50000000  0.50000000  1
  I  I21  1  0.71634066  0.23984851  0.37482871  1
  F  F22  1  0.44233008  0.25304580  0.51641431  1
  F  F23  1  0.43829447  0.42339528  0.64694967  1
  F  F24  1  0.24369696  0.19641700  0.69157386  1
  F  F25  1  0.50206910  0.00865283  0.68270500  1
  F  F26  1  0.65331703  0.35854665  0.92249953  1
  F  F27  1  0.30799220  0.76220924  0.37151608  1
  F  F28  1  0.56170553  0.57660472  0.35305033  1
  F  F29  1  0.49793090  0.99134717  0.31729500  1
  F  F30  1  0.50114374  0.82241254  0.18914370  1
  F  F31  1  0.34668297  0.64145335  0.07750047  1
  F  F32  1  0.65075755  0.64556986  0.02230598  1
  F  F33  1  0.96040815  0.10494995  0.85654874  1
  F  F34  1  0.55775393  0.26808810  0.11976933  1
  F  F35  1  0.34924245  0.35443014  0.97769402  1
  F  F36  1  0.22492818  0.00116570  0.96503932  1
  F  F37  1  0.03959185  0.89505005  0.14345126  1
  F  F38  1  0.44224607  0.73191190  0.88023067  1
  F  F39  1  0.49885626  0.17758746  0.81085630  1
  F  F40  1  0.00472041  0.18399567  0.03037783  1
  F  F41  1  0.55766992  0.74695420  0.48358569  1
  F  F42  1  0.69200780  0.23779076  0.62848392  1
  F  F43  1  0.75630304  0.80358300  0.30842614  1
  F  F44  1  0.77507182  0.99883430  0.03496068  1
  F  F45  1  0.99527959  0.81600433  0.96962217  1
