# generated using pymatgen
data_Na4Sn2Ge5HO16
_symmetry_space_group_name_H-M   'P 1'
_cell_length_a   5.45086608
_cell_length_b   7.05531467
_cell_length_c   20.46337461
_cell_angle_alpha   93.29231146
_cell_angle_beta   90.00000000
_cell_angle_gamma   90.00000000
_symmetry_Int_Tables_number   1
_chemical_formula_structural   Na4Sn2Ge5HO16
_chemical_formula_sum   'Na8 Sn4 Ge10 H2 O32'
_cell_volume   785.67290022
_cell_formula_units_Z   2
loop_
 _symmetry_equiv_pos_site_id
 _symmetry_equiv_pos_as_xyz
  1  'x, y, z'
loop_
 _atom_site_type_symbol
 _atom_site_label
 _atom_site_symmetry_multiplicity
 _atom_site_fract_x
 _atom_site_fract_y
 _atom_site_fract_z
 _atom_site_occupancy
  Na  Na0  1  0.92639724  0.88613854  0.77822841  1
  Na  Na1  1  0.92639724  0.11386146  0.22177159  1
  Na  Na2  1  0.69310373  0.70823589  0.45814174  1
  Na  Na3  1  0.69310373  0.29176411  0.54185826  1
  Na  Na4  1  0.66896241  0.21180135  0.95763534  1
  Na  Na5  1  0.66896241  0.78819865  0.04236466  1
  Na  Na6  1  0.43956430  0.61142856  0.72090194  1
  Na  Na7  1  0.43956430  0.38857144  0.27909806  1
  Sn  Sn8  1  0.92257169  0.45298321  0.83914228  1
  Sn  Sn9  1  0.92257169  0.54701679  0.16085772  1
  Sn  Sn10  1  0.43922503  0.95144176  0.34026404  1
  Sn  Sn11  1  0.43922503  0.04855824  0.65973596  1
  Ge  Ge12  1  0.17936575  0.00000000  0.50000000  1
  Ge  Ge13  1  0.92741766  0.76845526  0.61526737  1
  Ge  Ge14  1  0.92741766  0.23154474  0.38473263  1
  Ge  Ge15  1  0.39928045  0.85959904  0.17474557  1
  Ge  Ge16  1  0.39928045  0.14040096  0.82525443  1
  Ge  Ge17  1  0.43215077  0.73301047  0.88414209  1
  Ge  Ge18  1  0.43215077  0.26698953  0.11585791  1
  Ge  Ge19  1  0.96408486  0.36156151  0.67317979  1
  Ge  Ge20  1  0.96408486  0.63843849  0.32682021  1
  Ge  Ge21  1  0.18131924  0.50000000  -0.00000000  1
  H  H22  1  0.01706910  0.00000000  -0.00000000  1
  H  H23  1  0.34756647  0.50000000  0.50000000  1
  O  O24  1  0.97523461  0.82830711  0.53187178  1
  O  O25  1  0.97523461  0.17169289  0.46812822  1
  O  O26  1  0.00229422  0.39654569  0.93692634  1
  O  O27  1  0.00229422  0.60345431  0.06307366  1
  O  O28  1  0.74312601  0.70677591  0.86297630  1
  O  O29  1  0.74312601  0.29322409  0.13702370  1
  O  O30  1  0.84082552  0.49772481  0.74093138  1
  O  O31  1  0.84082552  0.50227519  0.25906862  1
  O  O32  1  0.96084428  0.51464566  0.60423245  1
  O  O33  1  0.96084428  0.48535434  0.39576755  1
  O  O34  1  0.08691645  0.19525444  0.81325646  1
  O  O35  1  0.08691645  0.80474556  0.18674354  1
  O  O36  1  0.13776398  0.86468668  0.67328408  1
  O  O37  1  0.13776398  0.13531332  0.32671592  1
  O  O38  1  0.52172925  0.99663061  0.24249176  1
  O  O39  1  0.52172925  0.00336939  0.75750824  1
  O  O40  1  0.35827516  0.89382868  0.43746427  1
  O  O41  1  0.35827516  0.10617132  0.56253573  1
  O  O42  1  0.38645256  0.67088082  0.96746589  1
  O  O43  1  0.38645256  0.32911918  0.03253411  1
  O  O44  1  0.22157254  0.63720501  0.82599370  1
  O  O45  1  0.22157254  0.36279499  0.17400630  1
  O  O46  1  0.77852769  0.82550498  0.35872980  1
  O  O47  1  0.77852769  0.17449502  0.64127020  1
  O  O48  1  0.27574678  0.69375961  0.31368056  1
  O  O49  1  0.27574678  0.30624039  0.68631944  1
  O  O50  1  0.58500223  0.32682169  0.85701145  1
  O  O51  1  0.58500223  0.67317831  0.14298855  1
  O  O52  1  0.40416079  0.98718819  0.89416146  1
  O  O53  1  0.40416079  0.01281181  0.10583854  1
  O  O54  1  0.61525949  0.79319715  0.63548556  1
  O  O55  1  0.61525949  0.20680285  0.36451444  1
