# generated using pymatgen
data_K3Bi(PS4)2
_symmetry_space_group_name_H-M   'P 1'
_cell_length_a   6.95283522
_cell_length_b   9.26403041
_cell_length_c   24.37786138
_cell_angle_alpha   90.00000000
_cell_angle_beta   90.00000000
_cell_angle_gamma   90.00000000
_symmetry_Int_Tables_number   1
_chemical_formula_structural   K3Bi(PS4)2
_chemical_formula_sum   'K12 Bi4 P8 S32'
_cell_volume   1570.20917991
_cell_formula_units_Z   4
loop_
 _symmetry_equiv_pos_site_id
 _symmetry_equiv_pos_as_xyz
  1  'x, y, z'
loop_
 _atom_site_type_symbol
 _atom_site_label
 _atom_site_symmetry_multiplicity
 _atom_site_fract_x
 _atom_site_fract_y
 _atom_site_fract_z
 _atom_site_occupancy
  K  K0  1  0.99242966  0.75548557  0.92229790  1
  K  K1  1  0.00757034  0.25548557  0.57770210  1
  K  K2  1  0.49276288  0.48044827  0.81280659  1
  K  K3  1  0.50723712  0.98044827  0.68719341  1
  K  K4  1  0.00294969  0.08828461  0.78796804  1
  K  K5  1  0.49705031  0.91171539  0.28796804  1
  K  K6  1  0.49242966  0.74451443  0.07770210  1
  K  K7  1  0.99705031  0.58828461  0.71203196  1
  K  K8  1  0.99276288  0.01955173  0.18719341  1
  K  K9  1  0.50294969  0.41171539  0.21203196  1
  K  K10  1  0.00723712  0.51955173  0.31280659  1
  K  K11  1  0.50757034  0.24451443  0.42229790  1
  Bi  Bi12  1  0.06176460  0.35032392  0.05263770  1
  Bi  Bi13  1  0.43823540  0.64967608  0.55263770  1
  Bi  Bi14  1  0.56176460  0.14967608  0.94736230  1
  Bi  Bi15  1  0.93823540  0.85032392  0.44736230  1
  P  P16  1  0.50537916  0.38977352  0.65457016  1
  P  P17  1  0.03545988  0.85426073  0.59213438  1
  P  P18  1  0.96454012  0.35426073  0.90786562  1
  P  P19  1  0.00537916  0.11022648  0.34542984  1
  P  P20  1  0.46454012  0.14573927  0.09213438  1
  P  P21  1  0.49462084  0.88977352  0.84542984  1
  P  P22  1  0.99462084  0.61022648  0.15457016  1
  P  P23  1  0.53545988  0.64573927  0.40786562  1
  S  S24  1  0.26739586  0.94181026  0.55236674  1
  S  S25  1  0.73229486  0.81186352  0.80836802  1
  S  S26  1  0.24525792  0.20744073  0.31729669  1
  S  S27  1  0.73260414  0.44181026  0.94763326  1
  S  S28  1  0.97004551  0.38701183  0.16447747  1
  S  S29  1  0.56495454  0.86990820  0.42008941  1
  S  S30  1  0.52025623  0.59085031  0.32851059  1
  S  S31  1  0.51857992  0.86151781  0.93144405  1
  S  S32  1  0.23260414  0.05818974  0.05236674  1
  S  S33  1  0.23229486  0.68813648  0.19163198  1
  S  S34  1  0.78585727  0.91828866  0.55313432  1
  S  S35  1  0.74525792  0.29255927  0.68270331  1
  S  S36  1  0.06495454  0.63009180  0.57991059  1
  S  S37  1  0.97974377  0.40914969  0.82851059  1
  S  S38  1  0.48142008  0.36151781  0.56855595  1
  S  S39  1  0.02995449  0.88701183  0.33552253  1
  S  S40  1  0.98142008  0.13848219  0.43144405  1
  S  S41  1  0.93504546  0.13009180  0.92008941  1
  S  S42  1  0.21414273  0.41828866  0.94686568  1
  S  S43  1  0.47004551  0.11298817  0.83552253  1
  S  S44  1  0.43504546  0.36990820  0.07991059  1
  S  S45  1  0.25474208  0.79255927  0.81729669  1
  S  S46  1  0.02025623  0.90914969  0.67148941  1
  S  S47  1  0.71414273  0.08171134  0.05313432  1
  S  S48  1  0.26770514  0.31186352  0.69163198  1
  S  S49  1  0.75474208  0.70744073  0.18270331  1
  S  S50  1  0.76770514  0.18813648  0.30836802  1
  S  S51  1  0.52995449  0.61298817  0.66447747  1
  S  S52  1  0.28585727  0.58171134  0.44686568  1
  S  S53  1  0.01857992  0.63848219  0.06855595  1
  S  S54  1  0.47974377  0.09085031  0.17148941  1
  S  S55  1  0.76739586  0.55818974  0.44763326  1
