# generated using pymatgen
data_RbScAs2O7
_symmetry_space_group_name_H-M   'P 1'
_cell_length_a   7.97333435
_cell_length_b   8.93610896
_cell_length_c   10.79834299
_cell_angle_alpha   90.00000000
_cell_angle_beta   90.00000000
_cell_angle_gamma   106.51740888
_symmetry_Int_Tables_number   1
_chemical_formula_structural   RbScAs2O7
_chemical_formula_sum   'Rb4 Sc4 As8 O28'
_cell_volume   737.63820865
_cell_formula_units_Z   4
loop_
 _symmetry_equiv_pos_site_id
 _symmetry_equiv_pos_as_xyz
  1  'x, y, z'
loop_
 _atom_site_type_symbol
 _atom_site_label
 _atom_site_symmetry_multiplicity
 _atom_site_fract_x
 _atom_site_fract_y
 _atom_site_fract_z
 _atom_site_occupancy
  Rb  Rb0  1  0.17234861  0.55003995  0.18023896  1
  Rb  Rb1  1  0.17234861  0.05003995  0.31976104  1
  Rb  Rb2  1  0.82765139  0.44996005  0.81976104  1
  Rb  Rb3  1  0.82765139  0.94996005  0.68023896  1
  Sc  Sc4  1  0.76435208  0.23571012  0.40032902  1
  Sc  Sc5  1  0.23564792  0.76428988  0.59967098  1
  Sc  Sc6  1  0.76435208  0.73571012  0.09967098  1
  Sc  Sc7  1  0.23564792  0.26428988  0.90032902  1
  As  As8  1  0.86181786  0.16531497  0.09208020  1
  As  As9  1  0.44265959  0.69059676  0.86188289  1
  As  As10  1  0.13818214  0.83468503  0.90791980  1
  As  As11  1  0.13818214  0.33468503  0.59208020  1
  As  As12  1  0.55734041  0.80940324  0.36188289  1
  As  As13  1  0.44265959  0.19059676  0.63811711  1
  As  As14  1  0.55734041  0.30940324  0.13811711  1
  As  As15  1  0.86181786  0.66531497  0.40791980  1
  O  O16  1  0.54768297  0.24817410  0.28818746  1
  O  O17  1  0.35114298  0.82016723  0.95053749  1
  O  O18  1  0.30908577  0.50967204  0.89154476  1
  O  O19  1  0.45231703  0.75182590  0.71181254  1
  O  O20  1  0.91392895  0.24537018  0.23525606  1
  O  O21  1  0.08607105  0.75462982  0.76474394  1
  O  O22  1  0.00029623  0.77829170  0.51312998  1
  O  O23  1  0.99970377  0.72170830  0.01312998  1
  O  O24  1  0.35114298  0.32016723  0.54946251  1
  O  O25  1  0.85145863  0.97504641  0.08731322  1
  O  O26  1  0.69091423  0.49032796  0.10845524  1
  O  O27  1  0.08607105  0.25462982  0.73525606  1
  O  O28  1  0.35189370  0.27797745  0.08079667  1
  O  O29  1  0.64810630  0.22202255  0.58079667  1
  O  O30  1  0.14854137  0.02495359  0.91268678  1
  O  O31  1  0.00029623  0.27829170  0.98687002  1
  O  O32  1  0.45231703  0.25182590  0.78818746  1
  O  O33  1  0.54768297  0.74817410  0.21181254  1
  O  O34  1  0.69091423  0.99032796  0.39154476  1
  O  O35  1  0.30908577  0.00967204  0.60845524  1
  O  O36  1  0.35189370  0.77797745  0.41920333  1
  O  O37  1  0.64810630  0.72202255  0.91920333  1
  O  O38  1  0.91392895  0.74537018  0.26474394  1
  O  O39  1  0.85145863  0.47504641  0.41268678  1
  O  O40  1  0.99970377  0.22170830  0.48687002  1
  O  O41  1  0.64885702  0.67983277  0.45053749  1
  O  O42  1  0.64885702  0.17983277  0.04946251  1
  O  O43  1  0.14854137  0.52495359  0.58731322  1
