# generated using pymatgen
data_NaNd(SeO5)2
_symmetry_space_group_name_H-M   'P 1'
_cell_length_a   7.22084922
_cell_length_b   11.33532793
_cell_length_c   11.21862402
_cell_angle_alpha   110.70426703
_cell_angle_beta   90.00000000
_cell_angle_gamma   90.00000000
_symmetry_Int_Tables_number   1
_chemical_formula_structural   NaNd(SeO5)2
_chemical_formula_sum   'Na4 Nd4 Se8 O40'
_cell_volume   858.94932716
_cell_formula_units_Z   4
loop_
 _symmetry_equiv_pos_site_id
 _symmetry_equiv_pos_as_xyz
  1  'x, y, z'
loop_
 _atom_site_type_symbol
 _atom_site_label
 _atom_site_symmetry_multiplicity
 _atom_site_fract_x
 _atom_site_fract_y
 _atom_site_fract_z
 _atom_site_occupancy
  Na  Na0  1  0.64361101  0.63022903  0.96373608  1
  Na  Na1  1  0.35638899  0.36977097  0.03626392  1
  Na  Na2  1  0.14361101  0.36977097  0.53626392  1
  Na  Na3  1  0.85638899  0.63022903  0.46373608  1
  Nd  Nd4  1  0.38578051  0.75125468  0.66595004  1
  Nd  Nd5  1  0.61421949  0.24874532  0.33404996  1
  Nd  Nd6  1  0.88578051  0.24874532  0.83404996  1
  Nd  Nd7  1  0.11421949  0.75125468  0.16595004  1
  Se  Se8  1  0.87225256  0.89428224  0.72090279  1
  Se  Se9  1  0.12774744  0.10571776  0.27909721  1
  Se  Se10  1  0.37225256  0.10571776  0.77909721  1
  Se  Se11  1  0.62774744  0.89428224  0.22090279  1
  Se  Se12  1  0.65447657  0.44701838  0.64057291  1
  Se  Se13  1  0.34552343  0.55298162  0.35942709  1
  Se  Se14  1  0.15447657  0.55298162  0.85942709  1
  Se  Se15  1  0.84552343  0.44701838  0.14057291  1
  O  O16  1  0.83744473  0.91488270  0.87713557  1
  O  O17  1  0.16255527  0.08511730  0.12286443  1
  O  O18  1  0.33744473  0.08511730  0.62286443  1
  O  O19  1  0.66255527  0.91488270  0.37713557  1
  O  O20  1  0.56150460  0.19288912  0.83694421  1
  O  O21  1  0.43849540  0.80711088  0.16305579  1
  O  O22  1  0.06150460  0.80711088  0.66305579  1
  O  O23  1  0.93849540  0.19288912  0.33694421  1
  O  O24  1  0.82215809  0.42885653  0.53214054  1
  O  O25  1  0.17784191  0.57114347  0.46785946  1
  O  O26  1  0.32215809  0.57114347  0.96785946  1
  O  O27  1  0.67784191  0.42885653  0.03214054  1
  O  O28  1  0.53551728  0.79834834  0.88109927  1
  O  O29  1  0.46448272  0.20165166  0.11890073  1
  O  O30  1  0.03551728  0.20165166  0.61890073  1
  O  O31  1  0.96448272  0.79834834  0.38109927  1
  O  O32  1  0.60537380  0.59993818  0.71485294  1
  O  O33  1  0.39462620  0.40006182  0.28514706  1
  O  O34  1  0.10537380  0.40006182  0.78514706  1
  O  O35  1  0.89462620  0.59993818  0.21485294  1
  O  O36  1  0.70550981  0.38951618  0.75372112  1
  O  O37  1  0.29449019  0.61048382  0.24627888  1
  O  O38  1  0.20550981  0.61048382  0.74627888  1
  O  O39  1  0.79449019  0.38951618  0.25372112  1
  O  O40  1  0.97580835  0.63030794  0.94948341  1
  O  O41  1  0.02419165  0.36969206  0.05051659  1
  O  O42  1  0.47580835  0.36969206  0.55051659  1
  O  O43  1  0.52419165  0.63030794  0.44948341  1
  O  O44  1  0.39201144  0.96807198  0.79978285  1
  O  O45  1  0.60798856  0.03192802  0.20021715  1
  O  O46  1  0.89201144  0.03192802  0.70021715  1
  O  O47  1  0.10798856  0.96807198  0.29978285  1
  O  O48  1  0.29532663  0.87898479  0.52424543  1
  O  O49  1  0.70467337  0.12101521  0.47575457  1
  O  O50  1  0.79532663  0.12101521  0.97575457  1
  O  O51  1  0.20467337  0.87898479  0.02424543  1
  O  O52  1  0.70037089  0.81006876  0.63131866  1
  O  O53  1  0.29962911  0.18993124  0.36868134  1
  O  O54  1  0.20037089  0.18993124  0.86868134  1
  O  O55  1  0.79962911  0.81006876  0.13131866  1
