# generated using pymatgen
data_Ba3(PS4)2
_symmetry_space_group_name_H-M   'P 1'
_cell_length_a   6.69420220
_cell_length_b   11.84409459
_cell_length_c   17.57235188
_cell_angle_alpha   90.03148264
_cell_angle_beta   90.00000000
_cell_angle_gamma   90.00000000
_symmetry_Int_Tables_number   1
_chemical_formula_structural   Ba3(PS4)2
_chemical_formula_sum   'Ba12 P8 S32'
_cell_volume   1393.25470710
_cell_formula_units_Z   4
loop_
 _symmetry_equiv_pos_site_id
 _symmetry_equiv_pos_as_xyz
  1  'x, y, z'
loop_
 _atom_site_type_symbol
 _atom_site_label
 _atom_site_symmetry_multiplicity
 _atom_site_fract_x
 _atom_site_fract_y
 _atom_site_fract_z
 _atom_site_occupancy
  Ba  Ba0  1  0.51152975  0.16952442  0.42816776  1
  Ba  Ba1  1  0.98847025  0.66952442  0.42816776  1
  Ba  Ba2  1  0.95869348  0.97732328  0.74877256  1
  Ba  Ba3  1  0.50419670  0.16041454  0.92792535  1
  Ba  Ba4  1  0.00419670  0.33958546  0.07207465  1
  Ba  Ba5  1  0.45869348  0.52267672  0.25122744  1
  Ba  Ba6  1  0.99580330  0.66041454  0.92792535  1
  Ba  Ba7  1  0.49580330  0.83958546  0.07207465  1
  Ba  Ba8  1  0.01152975  0.33047558  0.57183224  1
  Ba  Ba9  1  0.48847025  0.83047558  0.57183224  1
  Ba  Ba10  1  0.54130652  0.47732328  0.74877256  1
  Ba  Ba11  1  0.04130652  0.02267672  0.25122744  1
  P  P12  1  0.52855818  0.16147204  0.14046599  1
  P  P13  1  0.51574742  0.17104985  0.64014919  1
  P  P14  1  0.01574742  0.32895015  0.35985081  1
  P  P15  1  0.98425258  0.67104985  0.64014919  1
  P  P16  1  0.48425258  0.82895015  0.35985081  1
  P  P17  1  0.47144182  0.83852796  0.85953401  1
  P  P18  1  0.02855818  0.33852796  0.85953401  1
  P  P19  1  0.97144182  0.66147204  0.14046599  1
  S  S20  1  0.26429584  0.92245489  0.41227866  1
  S  S21  1  0.99090320  0.82607534  0.58625163  1
  S  S22  1  0.72838793  0.90470063  0.90744290  1
  S  S23  1  0.73445776  0.59363766  0.08162028  1
  S  S24  1  0.73570416  0.07754511  0.58772134  1
  S  S25  1  0.76429584  0.57754511  0.58772134  1
  S  S26  1  0.27161207  0.09529937  0.09255710  1
  S  S27  1  0.23570416  0.42245489  0.41227866  1
  S  S28  1  0.26554224  0.40636234  0.91837972  1
  S  S29  1  0.90485161  0.69719818  0.75057015  1
  S  S30  1  0.09514839  0.30280182  0.24942985  1
  S  S31  1  0.50909680  0.32607534  0.58625163  1
  S  S32  1  0.97352467  0.83124109  0.11706283  1
  S  S33  1  0.52647533  0.33124109  0.11706283  1
  S  S34  1  0.49090320  0.67392466  0.41374837  1
  S  S35  1  0.00909680  0.17392466  0.41374837  1
  S  S36  1  0.25099534  0.59407544  0.61618576  1
  S  S37  1  0.77161207  0.40470063  0.90744290  1
  S  S38  1  0.40485161  0.80280182  0.24942985  1
  S  S39  1  0.75099534  0.90592456  0.38381424  1
  S  S40  1  0.02647533  0.16875891  0.88293717  1
  S  S41  1  0.47352467  0.66875891  0.88293717  1
  S  S42  1  0.05320645  0.38983224  0.74934372  1
  S  S43  1  0.24900466  0.09407544  0.61618576  1
  S  S44  1  0.74900466  0.40592456  0.38381424  1
  S  S45  1  0.94679355  0.61016776  0.25065628  1
  S  S46  1  0.55320645  0.11016776  0.25065628  1
  S  S47  1  0.22838793  0.59529937  0.09255710  1
  S  S48  1  0.44679355  0.88983224  0.74934372  1
  S  S49  1  0.23445776  0.90636234  0.91837972  1
  S  S50  1  0.59514839  0.19719818  0.75057015  1
  S  S51  1  0.76554224  0.09363766  0.08162028  1
