# generated using pymatgen
data_Ca2BClO3
_symmetry_space_group_name_H-M   'P 1'
_cell_length_a   3.98374856
_cell_length_b   8.75360895
_cell_length_c   12.43682714
_cell_angle_alpha   90.00000000
_cell_angle_beta   98.05123145
_cell_angle_gamma   90.00000000
_symmetry_Int_Tables_number   1
_chemical_formula_structural   Ca2BClO3
_chemical_formula_sum   'Ca8 B4 Cl4 O12'
_cell_volume   429.42436420
_cell_formula_units_Z   4
loop_
 _symmetry_equiv_pos_site_id
 _symmetry_equiv_pos_as_xyz
  1  'x, y, z'
loop_
 _atom_site_type_symbol
 _atom_site_label
 _atom_site_symmetry_multiplicity
 _atom_site_fract_x
 _atom_site_fract_y
 _atom_site_fract_z
 _atom_site_occupancy
  Ca  Ca0  1  0.44605392  0.62086094  0.11655793  1
  Ca  Ca1  1  0.55394608  0.37913906  0.88344207  1
  Ca  Ca2  1  0.43284633  0.11798918  0.13953137  1
  Ca  Ca3  1  0.94605392  0.87913906  0.61655793  1
  Ca  Ca4  1  0.06715367  0.61798918  0.36046863  1
  Ca  Ca5  1  0.93284633  0.38201082  0.63953137  1
  Ca  Ca6  1  0.56715367  0.88201082  0.86046863  1
  Ca  Ca7  1  0.05394608  0.12086094  0.38344207  1
  B  B8  1  0.13415542  0.63359054  0.84429762  1
  B  B9  1  0.63415542  0.86640946  0.34429762  1
  B  B10  1  0.86584458  0.36640946  0.15570238  1
  B  B11  1  0.36584458  0.13359054  0.65570238  1
  Cl  Cl12  1  0.88697558  0.87480725  0.08714561  1
  Cl  Cl13  1  0.11302442  0.12519275  0.91285439  1
  Cl  Cl14  1  0.61302442  0.37480725  0.41285439  1
  Cl  Cl15  1  0.38697558  0.62519275  0.58714561  1
  O  O16  1  0.01115919  0.48956451  0.81237814  1
  O  O17  1  0.48884081  0.98956451  0.68762186  1
  O  O18  1  0.01907479  0.76959408  0.79482968  1
  O  O19  1  0.40831719  0.64099226  0.92750504  1
  O  O20  1  0.51115919  0.01043549  0.31237814  1
  O  O21  1  0.51907479  0.73040592  0.29482968  1
  O  O22  1  0.98884081  0.51043549  0.18762186  1
  O  O23  1  0.48092521  0.26959408  0.70517032  1
  O  O24  1  0.59168281  0.35900774  0.07249496  1
  O  O25  1  0.09168281  0.14099226  0.57249496  1
  O  O26  1  0.90831719  0.85900774  0.42750504  1
  O  O27  1  0.98092521  0.23040592  0.20517032  1
