# generated using pymatgen
data_Ba3Tb2(PS4)4
_symmetry_space_group_name_H-M   'P 1'
_cell_length_a   10.43538376
_cell_length_b   12.78381161
_cell_length_c   19.46190105
_cell_angle_alpha   90.00000000
_cell_angle_beta   90.00000000
_cell_angle_gamma   90.00000000
_symmetry_Int_Tables_number   1
_chemical_formula_structural   Ba3Tb2(PS4)4
_chemical_formula_sum   'Ba12 Tb8 P16 S64'
_cell_volume   2596.29505972
_cell_formula_units_Z   4
loop_
 _symmetry_equiv_pos_site_id
 _symmetry_equiv_pos_as_xyz
  1  'x, y, z'
loop_
 _atom_site_type_symbol
 _atom_site_label
 _atom_site_symmetry_multiplicity
 _atom_site_fract_x
 _atom_site_fract_y
 _atom_site_fract_z
 _atom_site_occupancy
  Tb  Tb0  1  0.37158970  0.61259152  0.92654490  1
  Tb  Tb1  1  0.62841030  0.38740848  0.07345510  1
  Tb  Tb2  1  0.12841030  0.38740848  0.42654490  1
  Tb  Tb3  1  0.12841030  0.11259152  0.57345510  1
  Tb  Tb4  1  0.87158970  0.61259152  0.57345510  1
  Tb  Tb5  1  0.62841030  0.11259152  0.92654490  1
  Tb  Tb6  1  0.37158970  0.88740848  0.07345510  1
  Tb  Tb7  1  0.87158970  0.88740848  0.42654490  1
  Ba  Ba8  1  0.28956001  0.10726146  0.27278349  1
  Ba  Ba9  1  0.11656594  0.25000000  0.00000000  1
  Ba  Ba10  1  0.21043999  0.60726146  0.22721651  1
  Ba  Ba11  1  0.61656594  0.25000000  0.50000000  1
  Ba  Ba12  1  0.71043999  0.60726146  0.27278349  1
  Ba  Ba13  1  0.21043999  0.89273854  0.77278349  1
  Ba  Ba14  1  0.78956001  0.39273854  0.77278349  1
  Ba  Ba15  1  0.78956001  0.10726146  0.22721651  1
  Ba  Ba16  1  0.88343406  0.75000000  0.00000000  1
  Ba  Ba17  1  0.71043999  0.89273854  0.72721651  1
  Ba  Ba18  1  0.28956001  0.39273854  0.72721651  1
  Ba  Ba19  1  0.38343406  0.75000000  0.50000000  1
  P  P20  1  0.99605480  0.13991394  0.39772820  1
  P  P21  1  0.49605480  0.36008606  0.89772820  1
  P  P22  1  0.99605480  0.36008606  0.60227180  1
  P  P23  1  0.50394520  0.86008606  0.89772820  1
  P  P24  1  0.43709307  0.04858945  0.63102067  1
  P  P25  1  0.00394520  0.86008606  0.60227180  1
  P  P26  1  0.00394520  0.63991394  0.39772820  1
  P  P27  1  0.06290693  0.54858945  0.86897933  1
  P  P28  1  0.93709307  0.04858945  0.86897933  1
  P  P29  1  0.43709307  0.45141055  0.36897933  1
  P  P30  1  0.50394520  0.63991394  0.10227180  1
  P  P31  1  0.56290693  0.95141055  0.36897933  1
  P  P32  1  0.06290693  0.95141055  0.13102067  1
  P  P33  1  0.49605480  0.13991394  0.10227180  1
  P  P34  1  0.93709307  0.45141055  0.13102067  1
  P  P35  1  0.56290693  0.54858945  0.63102067  1
  S  S36  1  0.56400083  0.73031313  0.84882109  1
  S  S37  1  0.00480826  0.01482169  0.33289356  1
  S  S38  1  0.38568623  0.60587464  0.64969731  1
  S  S39  1  0.56400083  0.76968687  0.15117891  1
  S  S40  1  0.70828264  0.88676045  0.30869401  1
  S  S41  1  0.61431377  0.39412536  0.35030269  1
  S  S42  1  0.88845619  0.09915217  0.48293116  1
  S  S43  1  0.93599917  0.23031313  0.65117891  1
  S  S44  1  0.17968940  0.33110742  0.56816518  1
  S  S45  1  0.50480826  0.01482169  0.16710644  1
  S  S46  1  0.88046659  0.41433387  0.03264176  1
  S  S47  1  0.38046659  0.41433387  0.46735824  1
  S  S48  1  0.20828264  0.88676045  0.19130599  1
  S  S49  1  0.88568623  0.89412536  0.14969731  1
  S  S50  1  0.56918439  0.38833709  0.64701116  1
  S  S51  1  0.06918439  0.11166291  0.14701116  1
  S  S52  1  0.93081561  0.88833709  0.85298884  1
  S  S53  1  0.43081561  0.88833709  0.64701116  1
  S  S54  1  0.61431377  0.10587464  0.64969731  1
  S  S55  1  0.99519174  0.51482169  0.33289356  1
  S  S56  1  0.61953341  0.91433387  0.46735824  1
  S  S57  1  0.88046659  0.08566613  0.96735824  1
  S  S58  1  0.67968940  0.16889258  0.06816518  1
  S  S59  1  0.43081561  0.61166291  0.35298884  1
  S  S60  1  0.29171736  0.38676045  0.30869401  1
  S  S61  1  0.79171736  0.38676045  0.19130599  1
  S  S62  1  0.88845619  0.40084783  0.51706884  1
  S  S63  1  0.67968940  0.33110742  0.93183482  1
  S  S64  1  0.17968940  0.16889258  0.43183482  1
  S  S65  1  0.70828264  0.61323955  0.69130599  1
  S  S66  1  0.49519174  0.51482169  0.16710644  1
  S  S67  1  0.99519174  0.98517831  0.66710644  1
  S  S68  1  0.11154381  0.59915217  0.48293116  1
  S  S69  1  0.61154381  0.59915217  0.01706884  1
  S  S70  1  0.06400083  0.76968687  0.34882109  1
  S  S71  1  0.50480826  0.48517831  0.83289356  1
  S  S72  1  0.11953341  0.58566613  0.96735824  1
  S  S73  1  0.11953341  0.91433387  0.03264176  1
  S  S74  1  0.11154381  0.90084783  0.51706884  1
  S  S75  1  0.11431377  0.39412536  0.14969731  1
  S  S76  1  0.43599917  0.23031313  0.84882109  1
  S  S77  1  0.88568623  0.60587464  0.85030269  1
  S  S78  1  0.20828264  0.61323955  0.80869401  1
  S  S79  1  0.82031060  0.66889258  0.43183482  1
  S  S80  1  0.93599917  0.26968687  0.34882109  1
  S  S81  1  0.38845619  0.40084783  0.98293116  1
  S  S82  1  0.00480826  0.48517831  0.66710644  1
  S  S83  1  0.38046659  0.08566613  0.53264176  1
  S  S84  1  0.49519174  0.98517831  0.83289356  1
  S  S85  1  0.93081561  0.61166291  0.14701116  1
  S  S86  1  0.32031060  0.66889258  0.06816518  1
  S  S87  1  0.38845619  0.09915217  0.01706884  1
  S  S88  1  0.61953341  0.58566613  0.53264176  1
  S  S89  1  0.61154381  0.90084783  0.98293116  1
  S  S90  1  0.29171736  0.11323955  0.69130599  1
  S  S91  1  0.56918439  0.11166291  0.35298884  1
  S  S92  1  0.43599917  0.26968687  0.15117891  1
  S  S93  1  0.06400083  0.73031313  0.65117891  1
  S  S94  1  0.11431377  0.10587464  0.85030269  1
  S  S95  1  0.06918439  0.38833709  0.85298884  1
  S  S96  1  0.38568623  0.89412536  0.35030269  1
  S  S97  1  0.79171736  0.11323955  0.80869401  1
  S  S98  1  0.32031060  0.83110742  0.93183482  1
  S  S99  1  0.82031060  0.83110742  0.56816518  1
