# generated using pymatgen
data_RbTh2(PO4)3
_symmetry_space_group_name_H-M   'P 1'
_cell_length_a   6.95874850
_cell_length_b   8.24078620
_cell_length_c   9.63582535
_cell_angle_alpha   101.68223820
_cell_angle_beta   111.16698645
_cell_angle_gamma   90.00000319
_symmetry_Int_Tables_number   1
_chemical_formula_structural   RbTh2(PO4)3
_chemical_formula_sum   'Rb2 Th4 P6 O24'
_cell_volume   502.99705282
_cell_formula_units_Z   2
loop_
 _symmetry_equiv_pos_site_id
 _symmetry_equiv_pos_as_xyz
  1  'x, y, z'
loop_
 _atom_site_type_symbol
 _atom_site_label
 _atom_site_symmetry_multiplicity
 _atom_site_fract_x
 _atom_site_fract_y
 _atom_site_fract_z
 _atom_site_occupancy
  Rb  Rb0  1  0.59423844  0.25000000  0.00000000  1
  Rb  Rb1  1  0.40576156  0.75000000  1.00000000  1
  Th  Th2  1  0.24871195  0.53351939  0.30884458  1
  Th  Th3  1  0.06013262  0.03351939  0.30884458  1
  Th  Th4  1  0.93986738  0.96648061  0.69115542  1
  Th  Th5  1  0.75128805  0.46648061  0.69115542  1
  P  P6  1  0.78345549  0.68221452  0.38376661  1
  P  P7  1  0.21654451  0.31778548  0.61623339  1
  P  P8  1  0.90519176  0.75000000  0.00000000  1
  P  P9  1  0.39968888  0.81778548  0.61623339  1
  P  P10  1  0.09480824  0.25000000  1.00000000  1
  P  P11  1  0.60031112  0.18221452  0.38376661  1
  O  O12  1  0.44912966  0.34964375  0.71073166  1
  O  O13  1  0.18822194  0.09055815  0.94527949  1
  O  O14  1  0.08754922  0.42868586  0.69038421  1
  O  O15  1  0.14350122  0.12961807  0.59159286  1
  O  O16  1  0.26160200  0.84964375  0.71073166  1
  O  O17  1  0.10231068  0.74327676  0.14299208  1
  O  O18  1  0.89768932  0.25672324  0.85700792  1
  O  O19  1  0.95931860  0.75672324  0.85700792  1
  O  O20  1  0.55190836  0.37038193  0.40840714  1
  O  O21  1  0.81177806  0.90944185  0.05472051  1
  O  O22  1  0.72382600  0.16955613  0.55277436  1
  O  O23  1  0.55087034  0.65035625  0.28926834  1
  O  O24  1  0.39716501  0.07131414  0.30961579  1
  O  O25  1  0.75705755  0.59055815  0.94527949  1
  O  O26  1  0.24294245  0.40944185  0.05472051  1
  O  O27  1  0.60283499  0.92868586  0.69038421  1
  O  O28  1  0.85649878  0.87038193  0.40840714  1
  O  O29  1  0.44809164  0.62961807  0.59159286  1
  O  O30  1  0.27617400  0.83044387  0.44722564  1
  O  O31  1  0.73839800  0.15035625  0.28926834  1
  O  O32  1  0.17105164  0.33044387  0.44722564  1
  O  O33  1  0.04068140  0.24327676  0.14299208  1
  O  O34  1  0.91245078  0.57131414  0.30961579  1
  O  O35  1  0.82894836  0.66955613  0.55277436  1
