# generated using pymatgen
data_La3U(ClO2)3
_symmetry_space_group_name_H-M   'P 1'
_cell_length_a   9.60504102
_cell_length_b   9.60504126
_cell_length_c   5.65228665
_cell_angle_alpha   90.00000000
_cell_angle_beta   90.00000000
_cell_angle_gamma   119.99999915
_symmetry_Int_Tables_number   1
_chemical_formula_structural   La3U(ClO2)3
_chemical_formula_sum   'La6 U2 Cl6 O12'
_cell_volume   451.59931327
_cell_formula_units_Z   2
loop_
 _symmetry_equiv_pos_site_id
 _symmetry_equiv_pos_as_xyz
  1  'x, y, z'
loop_
 _atom_site_type_symbol
 _atom_site_label
 _atom_site_symmetry_multiplicity
 _atom_site_fract_x
 _atom_site_fract_y
 _atom_site_fract_z
 _atom_site_occupancy
  La  La0  1  0.08929048  0.68386567  0.75000000  1
  La  La1  1  0.31613433  0.40542481  0.75000000  1
  La  La2  1  0.68386567  0.59457519  0.25000000  1
  La  La3  1  0.40542481  0.08929048  0.25000000  1
  La  La4  1  0.91070952  0.31613433  0.25000000  1
  La  La5  1  0.59457519  0.91070952  0.75000000  1
  U  U6  1  0.66666700  0.33333300  0.75000000  1
  U  U7  1  0.33333300  0.66666700  0.25000000  1
  Cl  Cl8  1  0.80874088  0.75056475  0.75000000  1
  Cl  Cl9  1  0.24943525  0.05817613  0.75000000  1
  Cl  Cl10  1  0.94182387  0.19125912  0.75000000  1
  Cl  Cl11  1  0.19125912  0.24943525  0.25000000  1
  Cl  Cl12  1  0.75056475  0.94182387  0.25000000  1
  Cl  Cl13  1  0.05817613  0.80874088  0.25000000  1
  O  O14  1  0.15261995  0.51920512  0.00906916  1
  O  O15  1  0.48079488  0.63341483  0.00906916  1
  O  O16  1  0.36658517  0.84738005  0.49093084  1
  O  O17  1  0.51920512  0.36658517  0.50906916  1
  O  O18  1  0.63341483  0.15261995  0.50906916  1
  O  O19  1  0.48079488  0.63341483  0.49093084  1
  O  O20  1  0.84738005  0.48079488  0.99093084  1
  O  O21  1  0.15261995  0.51920512  0.49093084  1
  O  O22  1  0.84738005  0.48079488  0.50906916  1
  O  O23  1  0.36658517  0.84738005  0.00906916  1
  O  O24  1  0.51920512  0.36658517  0.99093084  1
  O  O25  1  0.63341483  0.15261995  0.99093084  1
