# generated using pymatgen
data_Ba9(RhO3)8
_symmetry_space_group_name_H-M   'P 1'
_cell_length_a   15.40532767
_cell_length_b   15.40532756
_cell_length_c   15.40532755
_cell_angle_alpha   38.75621923
_cell_angle_beta   38.75621972
_cell_angle_gamma   38.75621980
_symmetry_Int_Tables_number   1
_chemical_formula_structural   Ba9(RhO3)8
_chemical_formula_sum   'Ba18 Rh16 O48'
_cell_volume   1287.91255116
_cell_formula_units_Z   2
loop_
 _symmetry_equiv_pos_site_id
 _symmetry_equiv_pos_as_xyz
  1  'x, y, z'
loop_
 _atom_site_type_symbol
 _atom_site_label
 _atom_site_symmetry_multiplicity
 _atom_site_fract_x
 _atom_site_fract_y
 _atom_site_fract_z
 _atom_site_occupancy
  Ba  Ba0  1  0.53462959  0.19759273  0.85117167  1
  Ba  Ba1  1  0.30240727  0.96537041  0.64882833  1
  Ba  Ba2  1  0.80240727  0.14882833  0.46537041  1
  Ba  Ba3  1  0.03462959  0.35117167  0.69759273  1
  Ba  Ba4  1  0.14882833  0.46537041  0.80240727  1
  Ba  Ba5  1  0.69759273  0.03462959  0.35117167  1
  Ba  Ba6  1  0.46537041  0.80240727  0.14882833  1
  Ba  Ba7  1  0.35117167  0.69759273  0.03462959  1
  Ba  Ba8  1  0.60193762  0.89806238  0.25000000  1
  Ba  Ba9  1  0.96537041  0.64882833  0.30240727  1
  Ba  Ba10  1  0.89806238  0.25000000  0.60193762  1
  Ba  Ba11  1  0.10193762  0.75000000  0.39806238  1
  Ba  Ba12  1  0.19759273  0.85117167  0.53462959  1
  Ba  Ba13  1  0.39806238  0.10193762  0.75000000  1
  Ba  Ba14  1  0.85117167  0.53462959  0.19759273  1
  Ba  Ba15  1  0.64882833  0.30240727  0.96537041  1
  Ba  Ba16  1  0.75000000  0.39806238  0.10193762  1
  Ba  Ba17  1  0.25000000  0.60193762  0.89806238  1
  Rh  Rh18  1  0.62073471  0.62073471  0.62073471  1
  Rh  Rh19  1  0.05973244  0.05973244  0.05973244  1
  Rh  Rh20  1  0.25000000  0.25000000  0.25000000  1
  Rh  Rh21  1  0.94026756  0.94026756  0.94026756  1
  Rh  Rh22  1  0.37926529  0.37926529  0.37926529  1
  Rh  Rh23  1  0.81569316  0.81569316  0.81569316  1
  Rh  Rh24  1  0.18430684  0.18430684  0.18430684  1
  Rh  Rh25  1  0.55973244  0.55973244  0.55973244  1
  Rh  Rh26  1  0.50000000  0.50000000  0.50000000  1
  Rh  Rh27  1  0.68430684  0.68430684  0.68430684  1
  Rh  Rh28  1  0.31569316  0.31569316  0.31569316  1
  Rh  Rh29  1  0.44026756  0.44026756  0.44026756  1
  Rh  Rh30  1  0.87926529  0.87926529  0.87926529  1
  Rh  Rh31  1  0.12073471  0.12073471  0.12073471  1
  Rh  Rh32  1  0.00000000  0.00000000  0.00000000  1
  Rh  Rh33  1  0.75000000  0.75000000  0.75000000  1
  O  O34  1  0.39399710  0.11861508  0.33758994  1
  O  O35  1  0.41816974  0.56304552  0.24993679  1
  O  O36  1  0.74993679  0.06304552  0.91816974  1
  O  O37  1  0.75006321  0.58183026  0.43695448  1
  O  O38  1  0.16241006  0.38138492  0.10600290  1
  O  O39  1  0.66241006  0.60600290  0.88138492  1
  O  O40  1  0.62766122  0.47278838  0.31032743  1
  O  O41  1  0.11861508  0.33758994  0.39399710  1
  O  O42  1  0.20752613  0.50789954  0.32915334  1
  O  O43  1  0.32915334  0.20752613  0.50789954  1
  O  O44  1  0.43695448  0.75006321  0.58183026  1
  O  O45  1  0.97278838  0.12766122  0.81032743  1
  O  O46  1  0.25006321  0.93695448  0.08183026  1
  O  O47  1  0.37233878  0.52721162  0.68967257  1
  O  O48  1  0.70752613  0.82915334  0.00789954  1
  O  O49  1  0.49210046  0.67084666  0.79247387  1
  O  O50  1  0.83758994  0.61861508  0.89399710  1
  O  O51  1  0.06304552  0.91816974  0.74993679  1
  O  O52  1  0.02721162  0.87233878  0.18967257  1
  O  O53  1  0.82915334  0.00789954  0.70752613  1
  O  O54  1  0.56304552  0.24993679  0.41816974  1
  O  O55  1  0.67084666  0.79247387  0.49210046  1
  O  O56  1  0.87233878  0.18967257  0.02721162  1
  O  O57  1  0.58183026  0.43695448  0.75006321  1
  O  O58  1  0.79247387  0.49210046  0.67084666  1
  O  O59  1  0.10600290  0.16241006  0.38138492  1
  O  O60  1  0.31032743  0.62766122  0.47278838  1
  O  O61  1  0.29247387  0.17084666  0.99210046  1
  O  O62  1  0.24993679  0.41816974  0.56304552  1
  O  O63  1  0.33758994  0.39399710  0.11861508  1
  O  O64  1  0.00789954  0.70752613  0.82915334  1
  O  O65  1  0.47278838  0.31032743  0.62766122  1
  O  O66  1  0.18967257  0.02721162  0.87233878  1
  O  O67  1  0.93695448  0.08183026  0.25006321  1
  O  O68  1  0.50789954  0.32915334  0.20752613  1
  O  O69  1  0.08183026  0.25006321  0.93695448  1
  O  O70  1  0.89399710  0.83758994  0.61861508  1
  O  O71  1  0.68967257  0.37233878  0.52721162  1
  O  O72  1  0.60600290  0.88138492  0.66241006  1
  O  O73  1  0.12766122  0.81032743  0.97278838  1
  O  O74  1  0.17084666  0.99210046  0.29247387  1
  O  O75  1  0.38138492  0.10600290  0.16241006  1
  O  O76  1  0.91816974  0.74993679  0.06304552  1
  O  O77  1  0.88138492  0.66241006  0.60600290  1
  O  O78  1  0.61861508  0.89399710  0.83758994  1
  O  O79  1  0.81032743  0.97278838  0.12766122  1
  O  O80  1  0.99210046  0.29247387  0.17084666  1
  O  O81  1  0.52721162  0.68967257  0.37233878  1
