# generated using pymatgen
data_Bi6Cl3O7F
_symmetry_space_group_name_H-M   'P 1'
_cell_length_a   3.85596445
_cell_length_b   15.65218453
_cell_length_c   20.62387887
_cell_angle_alpha   90.00000000
_cell_angle_beta   90.00000000
_cell_angle_gamma   90.00000000
_symmetry_Int_Tables_number   1
_chemical_formula_structural   Bi6Cl3O7F
_chemical_formula_sum   'Bi24 Cl12 O28 F4'
_cell_volume   1244.73909422
_cell_formula_units_Z   4
loop_
 _symmetry_equiv_pos_site_id
 _symmetry_equiv_pos_as_xyz
  1  'x, y, z'
loop_
 _atom_site_type_symbol
 _atom_site_label
 _atom_site_symmetry_multiplicity
 _atom_site_fract_x
 _atom_site_fract_y
 _atom_site_fract_z
 _atom_site_occupancy
  Bi  Bi0  1  0.75000000  0.56061873  0.56307709  1
  Bi  Bi1  1  0.75000000  0.08808961  0.24168895  1
  Bi  Bi2  1  0.25000000  0.06233557  0.55602133  1
  Bi  Bi3  1  0.25000000  0.58808961  0.25831105  1
  Bi  Bi4  1  0.75000000  0.27048743  0.92213025  1
  Bi  Bi5  1  0.25000000  0.28609719  0.27000471  1
  Bi  Bi6  1  0.25000000  0.43938127  0.43692291  1
  Bi  Bi7  1  0.25000000  0.21390281  0.77000471  1
  Bi  Bi8  1  0.75000000  0.93938127  0.06307709  1
  Bi  Bi9  1  0.25000000  0.72951257  0.07786975  1
  Bi  Bi10  1  0.75000000  0.93766443  0.44397867  1
  Bi  Bi11  1  0.75000000  0.41191039  0.74168895  1
  Bi  Bi12  1  0.25000000  0.06061873  0.93692291  1
  Bi  Bi13  1  0.75000000  0.22951257  0.42213025  1
  Bi  Bi14  1  0.25000000  0.34320461  0.59768807  1
  Bi  Bi15  1  0.75000000  0.71390281  0.72999529  1
  Bi  Bi16  1  0.75000000  0.65679539  0.40231193  1
  Bi  Bi17  1  0.75000000  0.78609719  0.22999529  1
  Bi  Bi18  1  0.75000000  0.56233557  0.94397867  1
  Bi  Bi19  1  0.75000000  0.84320461  0.90231193  1
  Bi  Bi20  1  0.25000000  0.43766443  0.05602133  1
  Bi  Bi21  1  0.25000000  0.77048743  0.57786975  1
  Bi  Bi22  1  0.25000000  0.15679539  0.09768807  1
  Bi  Bi23  1  0.25000000  0.91191039  0.75831105  1
  Cl  Cl24  1  0.75000000  0.94738573  0.63955143  1
  Cl  Cl25  1  0.25000000  0.44738573  0.86044857  1
  Cl  Cl26  1  0.75000000  0.31267053  0.14308083  1
  Cl  Cl27  1  0.25000000  0.56273767  0.69726048  1
  Cl  Cl28  1  0.25000000  0.81267053  0.35691917  1
  Cl  Cl29  1  0.75000000  0.43726233  0.30273952  1
  Cl  Cl30  1  0.25000000  0.93726233  0.19726048  1
  Cl  Cl31  1  0.75000000  0.18732947  0.64308083  1
  Cl  Cl32  1  0.75000000  0.55261427  0.13955143  1
  Cl  Cl33  1  0.25000000  0.68732947  0.85691917  1
  Cl  Cl34  1  0.75000000  0.06273767  0.80273952  1
  Cl  Cl35  1  0.25000000  0.05261427  0.36044857  1
  O  O36  1  0.75000000  0.53422389  0.45697358  1
  O  O37  1  0.25000000  0.03422389  0.04302642  1
  O  O38  1  0.75000000  0.35224543  0.47088975  1
  O  O39  1  0.25000000  0.90488238  0.86793471  1
  O  O40  1  0.25000000  0.15585628  0.21263892  1
  O  O41  1  0.75000000  0.71401764  0.62178890  1
  O  O42  1  0.75000000  0.09511762  0.13206529  1
  O  O43  1  0.25000000  0.78363695  0.70407074  1
  O  O44  1  0.25000000  0.93855148  0.50138183  1
  O  O45  1  0.25000000  0.71636305  0.20407074  1
  O  O46  1  0.75000000  0.84414372  0.78736108  1
  O  O47  1  0.75000000  0.28363695  0.79592926  1
  O  O48  1  0.75000000  0.14775457  0.97088975  1
  O  O49  1  0.25000000  0.59511762  0.36793471  1
  O  O50  1  0.75000000  0.40488238  0.63206529  1
  O  O51  1  0.25000000  0.56144852  0.00138183  1
  O  O52  1  0.25000000  0.85224543  0.02911025  1
  O  O53  1  0.25000000  0.64775457  0.52911025  1
  O  O54  1  0.75000000  0.65585628  0.28736108  1
  O  O55  1  0.75000000  0.78598236  0.12178890  1
  O  O56  1  0.25000000  0.21401764  0.87821110  1
  O  O57  1  0.75000000  0.06144852  0.49861817  1
  O  O58  1  0.25000000  0.46577611  0.54302642  1
  O  O59  1  0.75000000  0.43855148  0.99861817  1
  O  O60  1  0.25000000  0.34414372  0.71263892  1
  O  O61  1  0.75000000  0.96577611  0.95697358  1
  O  O62  1  0.75000000  0.21636305  0.29592926  1
  O  O63  1  0.25000000  0.28598236  0.37821110  1
  F  F64  1  0.75000000  0.69745882  0.99577856  1
  F  F65  1  0.25000000  0.30254118  0.00422144  1
  F  F66  1  0.25000000  0.19745882  0.50422144  1
  F  F67  1  0.75000000  0.80254118  0.49577856  1
