# generated using pymatgen
data_SrAgB7O12
_symmetry_space_group_name_H-M   'P 1'
_cell_length_a   6.71889210
_cell_length_b   6.74918734
_cell_length_c   22.37051226
_cell_angle_alpha   88.76360126
_cell_angle_beta   87.51546697
_cell_angle_gamma   60.14838011
_symmetry_Int_Tables_number   1
_chemical_formula_structural   SrAgB7O12
_chemical_formula_sum   'Sr4 Ag4 B28 O48'
_cell_volume   879.01173081
_cell_formula_units_Z   4
loop_
 _symmetry_equiv_pos_site_id
 _symmetry_equiv_pos_as_xyz
  1  'x, y, z'
loop_
 _atom_site_type_symbol
 _atom_site_label
 _atom_site_symmetry_multiplicity
 _atom_site_fract_x
 _atom_site_fract_y
 _atom_site_fract_z
 _atom_site_occupancy
  Sr  Sr0  1  0.16960216  0.66977692  0.94186230  1
  Sr  Sr1  1  0.83039784  0.33022308  0.05813770  1
  Sr  Sr2  1  0.16062093  0.66977692  0.55813770  1
  Sr  Sr3  1  0.83937907  0.33022308  0.44186230  1
  Ag  Ag4  1  0.73568706  0.80551830  0.19977631  1
  Ag  Ag5  1  0.26431294  0.19448170  0.80022369  1
  Ag  Ag6  1  0.54120536  0.19448170  0.69977631  1
  Ag  Ag7  1  0.45879464  0.80551830  0.30022369  1
  B  B8  1  0.29271563  0.54482431  0.19169047  1
  B  B9  1  0.65532668  0.76197269  0.56339366  1
  B  B10  1  0.41729937  0.23802731  0.06339366  1
  B  B11  1  0.58270063  0.76197269  0.93660634  1
  B  B12  1  0.34467332  0.23802731  0.43660634  1
  B  B13  1  0.23031223  0.90679872  0.69207985  1
  B  B14  1  0.66736927  0.07147445  0.90743684  1
  B  B15  1  0.83990517  0.33506295  0.91596526  1
  B  B16  1  0.72345607  0.31306317  0.21130746  1
  B  B17  1  0.57332398  0.15791461  0.56376620  1
  B  B18  1  0.26115628  0.07147445  0.59256316  1
  B  B19  1  0.76968777  0.09320128  0.30792015  1
  B  B20  1  0.86288905  0.90679872  0.80792015  1
  B  B21  1  0.73884372  0.92852555  0.40743684  1
  B  B22  1  0.26876141  0.15791461  0.93623380  1
  B  B23  1  0.16246006  0.54482431  0.30830953  1
  B  B24  1  0.17496812  0.66493705  0.41596526  1
  B  B25  1  0.13711095  0.09320128  0.19207985  1
  B  B26  1  0.16009483  0.66493705  0.08403474  1
  B  B27  1  0.96348076  0.31306317  0.28869254  1
  B  B28  1  0.82503188  0.33506295  0.58403474  1
  B  B29  1  0.70728437  0.45517569  0.80830953  1
  B  B30  1  0.83753994  0.45517569  0.69169047  1
  B  B31  1  0.27654393  0.68693683  0.78869254  1
  B  B32  1  0.42667602  0.84208539  0.43623380  1
  B  B33  1  0.03651924  0.68693683  0.71130746  1
  B  B34  1  0.33263073  0.92852555  0.09256316  1
  B  B35  1  0.73123859  0.84208539  0.06376620  1
  O  O36  1  0.42671031  0.83582220  0.56795997  1
  O  O37  1  0.71085186  0.13035091  0.24866207  1
  O  O38  1  0.17517497  0.86667585  0.06923414  1
  O  O39  1  0.65604125  0.76733713  0.42716577  1
  O  O40  1  0.04185082  0.13332415  0.56923414  1
  O  O41  1  0.07680791  0.80016526  0.83269497  1
  O  O42  1  0.36210662  0.68079907  0.44642378  1
  O  O43  1  0.79141861  0.41716278  0.75000000  1
  O  O44  1  0.47858587  0.56715627  0.82409642  1
  O  O45  1  0.95814918  0.86667585  0.43076586  1
  O  O46  1  0.63789338  0.31920093  0.55357622  1
  O  O47  1  0.27907168  0.05292457  0.65880739  1
  O  O48  1  0.42337838  0.23266287  0.92716577  1
  O  O49  1  0.04290569  0.31920093  0.94642378  1
  O  O50  1  0.73024737  0.92398645  0.56350916  1
  O  O51  1  0.73746749  0.83582220  0.93204003  1
  O  O52  1  0.26975263  0.07601355  0.43649084  1
  O  O53  1  0.36670536  0.45939881  0.05616215  1
  O  O54  1  0.15879722  0.13035091  0.25133793  1
  O  O55  1  0.12302683  0.80016526  0.66730503  1
  O  O56  1  0.52141413  0.43284373  0.17590358  1
  O  O57  1  0.12909108  0.63156883  0.14840124  1
  O  O58  1  0.82610417  0.54060119  0.55616215  1
  O  O59  1  0.63329464  0.54060119  0.94383785  1
  O  O60  1  0.95709431  0.68079907  0.05357622  1
  O  O61  1  0.34576618  0.92398645  0.93649084  1
  O  O62  1  0.17389583  0.45939881  0.44383785  1
  O  O63  1  0.20858139  0.58283722  0.25000000  1
  O  O64  1  0.04574214  0.43284373  0.32409642  1
  O  O65  1  0.65423382  0.07601355  0.06350916  1
  O  O66  1  0.66800376  0.05292457  0.84119261  1
  O  O67  1  0.28914814  0.86964909  0.75133793  1
  O  O68  1  0.76939105  0.46121791  0.25000000  1
  O  O69  1  0.92319209  0.19983474  0.16730503  1
  O  O70  1  0.72092832  0.94707543  0.34119261  1
  O  O71  1  0.57662162  0.76733713  0.07283423  1
  O  O72  1  0.82482503  0.13332415  0.93076586  1
  O  O73  1  0.57328969  0.16417780  0.43204003  1
  O  O74  1  0.87697317  0.19983474  0.33269497  1
  O  O75  1  0.76065990  0.36843117  0.64840124  1
  O  O76  1  0.84120278  0.86964909  0.74866207  1
  O  O77  1  0.33199624  0.94707543  0.15880739  1
  O  O78  1  0.87090892  0.36843117  0.85159876  1
  O  O79  1  0.34395875  0.23266287  0.57283423  1
  O  O80  1  0.95425786  0.56715627  0.67590358  1
  O  O81  1  0.26253251  0.16417780  0.06795997  1
  O  O82  1  0.23934010  0.63156883  0.35159876  1
  O  O83  1  0.23060895  0.53878209  0.75000000  1
