# generated using pymatgen
data_Ba3SrIr2O9
_symmetry_space_group_name_H-M   'P 1'
_cell_length_a   6.05654201
_cell_length_b   6.05654218
_cell_length_c   15.06945751
_cell_angle_alpha   91.56879402
_cell_angle_beta   91.56879396
_cell_angle_gamma   119.42507633
_symmetry_Int_Tables_number   1
_chemical_formula_structural   Ba3SrIr2O9
_chemical_formula_sum   'Ba6 Sr2 Ir4 O18'
_cell_volume   480.75508296
_cell_formula_units_Z   2
loop_
 _symmetry_equiv_pos_site_id
 _symmetry_equiv_pos_as_xyz
  1  'x, y, z'
loop_
 _atom_site_type_symbol
 _atom_site_label
 _atom_site_symmetry_multiplicity
 _atom_site_fract_x
 _atom_site_fract_y
 _atom_site_fract_z
 _atom_site_occupancy
  Ba  Ba0  1  0.98849767  0.01150233  0.25000000  1
  Ba  Ba1  1  0.01150233  0.98849767  0.75000000  1
  Ba  Ba2  1  0.34100819  0.67322770  0.09143864  1
  Ba  Ba3  1  0.65899181  0.32677230  0.90856136  1
  Ba  Ba4  1  0.67322770  0.34100819  0.59143864  1
  Ba  Ba5  1  0.32677230  0.65899181  0.40856136  1
  Sr  Sr6  1  0.00000000  0.00000000  0.00000000  1
  Sr  Sr7  1  0.00000000  0.00000000  0.50000000  1
  Ir  Ir8  1  0.63928226  0.31020788  0.33403845  1
  Ir  Ir9  1  0.36071774  0.68979212  0.66596155  1
  Ir  Ir10  1  0.31020788  0.63928226  0.83403845  1
  Ir  Ir11  1  0.68979212  0.36071774  0.16596155  1
  O  O12  1  0.13273140  0.31730998  0.89191165  1
  O  O13  1  0.50940200  0.49059800  0.25000000  1
  O  O14  1  0.22966283  0.87010499  0.59592948  1
  O  O15  1  0.96625485  0.48887693  0.26665342  1
  O  O16  1  0.12989501  0.77033717  0.90407052  1
  O  O17  1  0.51112307  0.03374515  0.23334658  1
  O  O18  1  0.86726860  0.68269002  0.10808835  1
  O  O19  1  0.77033717  0.12989501  0.40407052  1
  O  O20  1  0.03374515  0.51112307  0.73334658  1
  O  O21  1  0.49059800  0.50940200  0.75000000  1
  O  O22  1  0.31730998  0.13273140  0.39191165  1
  O  O23  1  0.41891835  0.23446435  0.07394095  1
  O  O24  1  0.23446435  0.41891835  0.57394095  1
  O  O25  1  0.58108165  0.76553565  0.92605905  1
  O  O26  1  0.48887693  0.96625485  0.76665342  1
  O  O27  1  0.76553565  0.58108165  0.42605905  1
  O  O28  1  0.68269002  0.86726860  0.60808835  1
  O  O29  1  0.87010499  0.22966283  0.09592948  1
