# generated using pymatgen
data_Ba2Fe2S2OF2
_symmetry_space_group_name_H-M   'P 1'
_cell_length_a   4.19685185
_cell_length_b   4.19641919
_cell_length_c   10.14811623
_cell_angle_alpha   101.93605612
_cell_angle_beta   101.93860995
_cell_angle_gamma   89.98635932
_symmetry_Int_Tables_number   1
_chemical_formula_structural   Ba2Fe2S2OF2
_chemical_formula_sum   'Ba2 Fe2 S2 O1 F2'
_cell_volume   170.91048464
_cell_formula_units_Z   1
loop_
 _symmetry_equiv_pos_site_id
 _symmetry_equiv_pos_as_xyz
  1  'x, y, z'
loop_
 _atom_site_type_symbol
 _atom_site_label
 _atom_site_symmetry_multiplicity
 _atom_site_fract_x
 _atom_site_fract_y
 _atom_site_fract_z
 _atom_site_occupancy
  Ba  Ba0  1  0.33321611  0.33321406  0.66644635  1
  Ba  Ba1  1  0.66677665  0.66678286  0.33355765  1
  Fe  Fe2  1  0.50003434  0.99998734  0.99997953  1
  Fe  Fe3  1  0.99999102  0.50001987  0.00000464  1
  S  S4  1  0.91271143  0.91271798  0.82528436  1
  S  S5  1  0.08728132  0.08728060  0.17471764  1
  O  O6  1  0.49999154  0.49999778  0.00000021  1
  F  F7  1  0.74999314  0.25001940  0.50001847  1
  F  F8  1  0.25000446  0.74998112  0.49999214  1
