# generated using pymatgen
data_MgSb2F12
_symmetry_space_group_name_H-M   'P 1'
_cell_length_a   5.91355711
_cell_length_b   5.91355711
_cell_length_c   7.31117628
_cell_angle_alpha   90.00000000
_cell_angle_beta   90.00000000
_cell_angle_gamma   90.00000000
_symmetry_Int_Tables_number   1
_chemical_formula_structural   MgSb2F12
_chemical_formula_sum   'Mg1 Sb2 F12'
_cell_volume   255.67298743
_cell_formula_units_Z   1
loop_
 _symmetry_equiv_pos_site_id
 _symmetry_equiv_pos_as_xyz
  1  'x, y, z'
loop_
 _atom_site_type_symbol
 _atom_site_label
 _atom_site_symmetry_multiplicity
 _atom_site_fract_x
 _atom_site_fract_y
 _atom_site_fract_z
 _atom_site_occupancy
  Mg  Mg0  1  -0.00000000  -0.00000000  -0.00000000  1
  Sb  Sb1  1  0.00000000  0.50000000  0.22229711  1
  Sb  Sb2  1  0.50000000  -0.00000000  0.77770289  1
  F  F3  1  0.24900728  0.20940765  0.79936546  1
  F  F4  1  0.75099272  0.79059235  0.79936546  1
  F  F5  1  0.20940765  0.75099272  0.20063454  1
  F  F6  1  0.79059235  0.24900728  0.20063454  1
  F  F7  1  -0.00000000  0.50000000  0.47967569  1
  F  F8  1  0.50000000  -0.00000000  0.52032431  1
  F  F9  1  -0.00000000  0.50000000  0.96307675  1
  F  F10  1  0.50000000  -0.00000000  0.03692325  1
  F  F11  1  0.20940765  0.24900728  0.20063454  1
  F  F12  1  0.79059235  0.75099272  0.20063454  1
  F  F13  1  0.24900728  0.79059235  0.79936546  1
  F  F14  1  0.75099272  0.20940765  0.79936546  1
