# generated using pymatgen
data_RePCl8O
_symmetry_space_group_name_H-M   'P 1'
_cell_length_a   8.39701403
_cell_length_b   9.10644640
_cell_length_c   17.11422575
_cell_angle_alpha   90.00000000
_cell_angle_beta   90.00000000
_cell_angle_gamma   90.00000000
_symmetry_Int_Tables_number   1
_chemical_formula_structural   RePCl8O
_chemical_formula_sum   'Re4 P4 Cl32 O4'
_cell_volume   1308.67278478
_cell_formula_units_Z   4
loop_
 _symmetry_equiv_pos_site_id
 _symmetry_equiv_pos_as_xyz
  1  'x, y, z'
loop_
 _atom_site_type_symbol
 _atom_site_label
 _atom_site_symmetry_multiplicity
 _atom_site_fract_x
 _atom_site_fract_y
 _atom_site_fract_z
 _atom_site_occupancy
  Re  Re0  1  0.25000000  0.92309678  0.14803888  1
  Re  Re1  1  0.75000000  0.07690322  0.85196112  1
  Re  Re2  1  0.75000000  0.42309678  0.35196112  1
  Re  Re3  1  0.25000000  0.57690322  0.64803888  1
  P  P4  1  0.75000000  0.78245182  0.42289599  1
  P  P5  1  0.25000000  0.28245182  0.07710401  1
  P  P6  1  0.75000000  0.71754818  0.92289599  1
  P  P7  1  0.25000000  0.21754818  0.57710401  1
  Cl  Cl8  1  0.06093284  0.13267871  0.62961718  1
  Cl  Cl9  1  0.56093284  0.86732129  0.37038282  1
  Cl  Cl10  1  0.75000000  0.21149287  0.96715779  1
  Cl  Cl11  1  0.47831371  0.44515004  0.35908575  1
  Cl  Cl12  1  0.52168629  0.55484996  0.64091425  1
  Cl  Cl13  1  0.43906716  0.13267871  0.62961718  1
  Cl  Cl14  1  0.56093284  0.63267871  0.87038282  1
  Cl  Cl15  1  0.93906716  0.86732129  0.37038282  1
  Cl  Cl16  1  0.52168629  0.94515004  0.14091425  1
  Cl  Cl17  1  0.25000000  0.14037209  0.46892135  1
  Cl  Cl18  1  0.75000000  0.21924614  0.27766667  1
  Cl  Cl19  1  0.75000000  0.57468854  0.24113027  1
  Cl  Cl20  1  0.02168629  0.44515004  0.35908575  1
  Cl  Cl21  1  0.02168629  0.05484996  0.85908575  1
  Cl  Cl22  1  0.97831371  0.55484996  0.64091425  1
  Cl  Cl23  1  0.75000000  0.85962791  0.53107865  1
  Cl  Cl24  1  0.43906716  0.36732129  0.12961718  1
  Cl  Cl25  1  0.06093284  0.36732129  0.12961718  1
  Cl  Cl26  1  0.75000000  0.28850713  0.46715779  1
  Cl  Cl27  1  0.93906716  0.63267871  0.87038282  1
  Cl  Cl28  1  0.25000000  0.78850713  0.03284221  1
  Cl  Cl29  1  0.25000000  0.35962791  0.96892135  1
  Cl  Cl30  1  0.25000000  0.71924614  0.22233333  1
  Cl  Cl31  1  0.75000000  0.92531146  0.74113027  1
  Cl  Cl32  1  0.97831371  0.94515004  0.14091425  1
  Cl  Cl33  1  0.75000000  0.64037209  0.03107865  1
  Cl  Cl34  1  0.25000000  0.78075386  0.72233333  1
  Cl  Cl35  1  0.25000000  0.42531146  0.75886973  1
  Cl  Cl36  1  0.47831371  0.05484996  0.85908575  1
  Cl  Cl37  1  0.25000000  0.07468854  0.25886973  1
  Cl  Cl38  1  0.25000000  0.71149287  0.53284221  1
  Cl  Cl39  1  0.75000000  0.28075386  0.77766667  1
  O  O40  1  0.25000000  0.11815633  0.07512672  1
  O  O41  1  0.75000000  0.88184367  0.92487328  1
  O  O42  1  0.25000000  0.38184367  0.57512672  1
  O  O43  1  0.75000000  0.61815633  0.42487328  1
