# generated using pymatgen
data_Hf3Cd3AgF20
_symmetry_space_group_name_H-M   'P 1'
_cell_length_a   10.68098606
_cell_length_b   10.68098585
_cell_length_c   8.47265832
_cell_angle_alpha   90.00000000
_cell_angle_beta   90.00000000
_cell_angle_gamma   120.00000068
_symmetry_Int_Tables_number   1
_chemical_formula_structural   Hf3Cd3AgF20
_chemical_formula_sum   'Hf6 Cd6 Ag2 F40'
_cell_volume   837.09164931
_cell_formula_units_Z   2
loop_
 _symmetry_equiv_pos_site_id
 _symmetry_equiv_pos_as_xyz
  1  'x, y, z'
loop_
 _atom_site_type_symbol
 _atom_site_label
 _atom_site_symmetry_multiplicity
 _atom_site_fract_x
 _atom_site_fract_y
 _atom_site_fract_z
 _atom_site_occupancy
  Hf  Hf0  1  0.86104173  0.58284527  0.75000000  1
  Hf  Hf1  1  0.41715473  0.27819646  0.75000000  1
  Hf  Hf2  1  0.58284527  0.72180354  0.25000000  1
  Hf  Hf3  1  0.72180354  0.13895827  0.75000000  1
  Hf  Hf4  1  0.13895827  0.41715473  0.25000000  1
  Hf  Hf5  1  0.27819646  0.86104173  0.25000000  1
  Cd  Cd6  1  0.43270026  0.27037633  0.25000000  1
  Cd  Cd7  1  0.72962367  0.16232393  0.25000000  1
  Cd  Cd8  1  0.27037633  0.83767607  0.75000000  1
  Cd  Cd9  1  0.83767607  0.56729974  0.25000000  1
  Cd  Cd10  1  0.16232393  0.43270026  0.75000000  1
  Cd  Cd11  1  0.56729974  0.72962367  0.75000000  1
  Ag  Ag12  1  0.00000000  0.00000000  0.25000000  1
  Ag  Ag13  1  0.00000000  0.00000000  0.75000000  1
  F  F14  1  0.05630253  0.58472701  0.75000000  1
  F  F15  1  0.79713373  0.76456632  0.25000000  1
  F  F16  1  0.94369747  0.41527299  0.25000000  1
  F  F17  1  0.36602182  0.55139055  0.25000000  1
  F  F18  1  0.81463127  0.36602182  0.75000000  1
  F  F19  1  0.58472701  0.52842448  0.25000000  1
  F  F20  1  0.14550725  0.42523864  0.48530110  1
  F  F21  1  0.23543368  0.03256740  0.25000000  1
  F  F22  1  0.05808286  0.77468428  0.25000000  1
  F  F23  1  0.71660142  0.94191714  0.25000000  1
  F  F24  1  0.20286627  0.23543368  0.75000000  1
  F  F25  1  0.55139055  0.18536873  0.75000000  1
  F  F26  1  0.94191714  0.22531572  0.75000000  1
  F  F27  1  0.14550725  0.42523864  0.01469890  1
  F  F28  1  0.96743260  0.20286627  0.25000000  1
  F  F29  1  0.42523864  0.27973139  0.98530110  1
  F  F30  1  0.77468428  0.71660142  0.75000000  1
  F  F31  1  0.85449275  0.57476136  0.98530110  1
  F  F32  1  0.85449275  0.57476136  0.51469890  1
  F  F33  1  0.57476136  0.72026861  0.48530110  1
  F  F34  1  0.76456632  0.96743260  0.75000000  1
  F  F35  1  0.27973139  0.85449275  0.01469890  1
  F  F36  1  0.41527299  0.47157552  0.75000000  1
  F  F37  1  0.22531572  0.28339858  0.25000000  1
  F  F38  1  0.47157552  0.05630253  0.25000000  1
  F  F39  1  0.52842448  0.94369747  0.75000000  1
  F  F40  1  0.72026861  0.14550725  0.51469890  1
  F  F41  1  0.27973139  0.85449275  0.48530110  1
  F  F42  1  0.42523864  0.27973139  0.51469890  1
  F  F43  1  0.44860945  0.81463127  0.25000000  1
  F  F44  1  0.28339858  0.05808286  0.75000000  1
  F  F45  1  0.00000000  0.00000000  0.50000000  1
  F  F46  1  0.57476136  0.72026861  0.01469890  1
  F  F47  1  0.03256740  0.79713373  0.75000000  1
  F  F48  1  0.18536873  0.63397818  0.25000000  1
  F  F49  1  0.63397818  0.44860945  0.75000000  1
  F  F50  1  0.66666700  0.33333300  0.25000000  1
  F  F51  1  0.00000000  0.00000000  0.00000000  1
  F  F52  1  0.33333300  0.66666700  0.75000000  1
  F  F53  1  0.72026861  0.14550725  0.98530110  1
