# generated using pymatgen
data_Cs2Si3SnO9
_symmetry_space_group_name_H-M   'P 1'
_cell_length_a   8.08209157
_cell_length_b   10.52082823
_cell_length_c   11.94143033
_cell_angle_alpha   90.00000000
_cell_angle_beta   90.00000000
_cell_angle_gamma   90.00000000
_symmetry_Int_Tables_number   1
_chemical_formula_structural   Cs2Si3SnO9
_chemical_formula_sum   'Cs8 Si12 Sn4 O36'
_cell_volume   1015.38336932
_cell_formula_units_Z   4
loop_
 _symmetry_equiv_pos_site_id
 _symmetry_equiv_pos_as_xyz
  1  'x, y, z'
loop_
 _atom_site_type_symbol
 _atom_site_label
 _atom_site_symmetry_multiplicity
 _atom_site_fract_x
 _atom_site_fract_y
 _atom_site_fract_z
 _atom_site_occupancy
  Cs  Cs0  1  0.76659221  0.78753637  0.89697356  1
  Cs  Cs1  1  0.26659221  0.71246363  0.10302644  1
  Cs  Cs2  1  0.92554736  0.89230673  0.52121940  1
  Cs  Cs3  1  0.42554736  0.60769327  0.47878060  1
  Cs  Cs4  1  0.07445264  0.39230673  0.97878060  1
  Cs  Cs5  1  0.57445264  0.10769327  0.02121940  1
  Cs  Cs6  1  0.73340779  0.21246363  0.39697356  1
  Cs  Cs7  1  0.23340779  0.28753637  0.60302644  1
  Si  Si8  1  0.07913964  0.38973881  0.29173315  1
  Si  Si9  1  0.92086036  0.88973881  0.20826685  1
  Si  Si10  1  0.58436392  0.47503940  0.99283730  1
  Si  Si11  1  0.55982831  0.87332317  0.28608988  1
  Si  Si12  1  0.05982831  0.62667683  0.71391012  1
  Si  Si13  1  0.42086036  0.61026119  0.79173315  1
  Si  Si14  1  0.57913964  0.11026119  0.70826685  1
  Si  Si15  1  0.08436392  0.02496060  0.00716270  1
  Si  Si16  1  0.91563608  0.52496060  0.49283730  1
  Si  Si17  1  0.41563608  0.97503940  0.50716270  1
  Si  Si18  1  0.44017169  0.37332317  0.21391012  1
  Si  Si19  1  0.94017169  0.12667683  0.78608988  1
  Sn  Sn20  1  0.24499193  0.09023335  0.26358265  1
  Sn  Sn21  1  0.74499193  0.40976665  0.73641735  1
  Sn  Sn22  1  0.75500807  0.59023335  0.23641735  1
  Sn  Sn23  1  0.25500807  0.90976665  0.76358265  1
  O  O24  1  0.55958064  0.05530468  0.57834666  1
  O  O25  1  0.41621617  0.94908417  0.21853916  1
  O  O26  1  0.57896916  0.26461121  0.70033494  1
  O  O27  1  0.02971702  0.61600241  0.57649027  1
  O  O28  1  0.19213122  0.11198085  0.09241929  1
  O  O29  1  0.58378383  0.44908417  0.28146084  1
  O  O30  1  0.97028298  0.11600241  0.92350973  1
  O  O31  1  0.56754128  0.55106446  0.71482305  1
  O  O32  1  0.06424375  0.77632512  0.74687383  1
  O  O33  1  0.69213122  0.38801915  0.90758071  1
  O  O34  1  0.43245872  0.05106446  0.78517695  1
  O  O35  1  0.94041936  0.94469532  0.07834666  1
  O  O36  1  0.43575625  0.22367488  0.24687383  1
  O  O37  1  0.05958064  0.44469532  0.42165334  1
  O  O38  1  0.74118177  0.94166638  0.25864498  1
  O  O39  1  0.93245872  0.44893554  0.21482305  1
  O  O40  1  0.06754128  0.94893554  0.28517695  1
  O  O41  1  0.07896916  0.23538879  0.29966506  1
  O  O42  1  0.24118177  0.55833362  0.74135502  1
  O  O43  1  0.52971702  0.88399759  0.42350973  1
  O  O44  1  0.75881823  0.05833362  0.75864498  1
  O  O45  1  0.19476836  0.92711429  0.93276557  1
  O  O46  1  0.44041936  0.55530468  0.92165334  1
  O  O47  1  0.30786878  0.88801915  0.59241929  1
  O  O48  1  0.69476836  0.57288571  0.06723443  1
  O  O49  1  0.42103084  0.76461121  0.79966506  1
  O  O50  1  0.30523164  0.07288571  0.43276557  1
  O  O51  1  0.56424375  0.72367488  0.25312617  1
  O  O52  1  0.80786878  0.61198085  0.40758071  1
  O  O53  1  0.80523164  0.42711429  0.56723443  1
  O  O54  1  0.92103084  0.73538879  0.20033494  1
  O  O55  1  0.93575625  0.27632512  0.75312617  1
  O  O56  1  0.25881823  0.44166638  0.24135502  1
  O  O57  1  0.08378383  0.05091583  0.71853916  1
  O  O58  1  0.91621617  0.55091583  0.78146084  1
  O  O59  1  0.47028298  0.38399759  0.07649027  1
