# generated using pymatgen
data_Pr2Ti3(ClO4)2
_symmetry_space_group_name_H-M   'P 1'
_cell_length_a   5.07643078
_cell_length_b   11.75888914
_cell_length_c   14.96560342
_cell_angle_alpha   90.00000000
_cell_angle_beta   90.00000000
_cell_angle_gamma   90.00000000
_symmetry_Int_Tables_number   1
_chemical_formula_structural   Pr2Ti3(ClO4)2
_chemical_formula_sum   'Pr8 Ti12 Cl8 O32'
_cell_volume   893.34456006
_cell_formula_units_Z   4
loop_
 _symmetry_equiv_pos_site_id
 _symmetry_equiv_pos_as_xyz
  1  'x, y, z'
loop_
 _atom_site_type_symbol
 _atom_site_label
 _atom_site_symmetry_multiplicity
 _atom_site_fract_x
 _atom_site_fract_y
 _atom_site_fract_z
 _atom_site_occupancy
  Pr  Pr0  1  0.02132984  0.86197396  0.83790031  1
  Pr  Pr1  1  0.47867016  0.86197396  0.16209969  1
  Pr  Pr2  1  0.52132984  0.13802604  0.83790031  1
  Pr  Pr3  1  0.97867016  0.13802604  0.16209969  1
  Pr  Pr4  1  0.02132984  0.36197396  0.66209969  1
  Pr  Pr5  1  0.47867016  0.36197396  0.33790031  1
  Pr  Pr6  1  0.97867016  0.63802604  0.33790031  1
  Pr  Pr7  1  0.52132984  0.63802604  0.66209969  1
  Ti  Ti8  1  0.75000000  0.09102471  0.50000000  1
  Ti  Ti9  1  0.25000000  0.40897529  0.00000000  1
  Ti  Ti10  1  0.25000000  0.90897529  0.50000000  1
  Ti  Ti11  1  0.62762350  0.42367443  0.83749345  1
  Ti  Ti12  1  0.12762350  0.07632557  0.66250655  1
  Ti  Ti13  1  0.37237650  0.57632557  0.16250655  1
  Ti  Ti14  1  0.87237650  0.42367443  0.16250655  1
  Ti  Ti15  1  0.75000000  0.59102471  0.00000000  1
  Ti  Ti16  1  0.12762350  0.57632557  0.83749345  1
  Ti  Ti17  1  0.62762350  0.92367443  0.66250655  1
  Ti  Ti18  1  0.37237650  0.07632557  0.33749345  1
  Ti  Ti19  1  0.87237650  0.92367443  0.33749345  1
  Cl  Cl20  1  0.48299225  0.60231712  0.42387152  1
  Cl  Cl21  1  0.51700775  0.39768288  0.57612848  1
  Cl  Cl22  1  0.01700775  0.60231712  0.57612848  1
  Cl  Cl23  1  0.51700775  0.89768288  0.92387152  1
  Cl  Cl24  1  0.01700775  0.10231712  0.92387152  1
  Cl  Cl25  1  0.98299225  0.89768288  0.07612848  1
  Cl  Cl26  1  0.48299225  0.10231712  0.07612848  1
  Cl  Cl27  1  0.98299225  0.39768288  0.42387152  1
  O  O28  1  0.43750028  0.54494021  0.92328734  1
  O  O29  1  0.67246599  0.53072286  0.23726221  1
  O  O30  1  0.82753401  0.53072286  0.76273779  1
  O  O31  1  0.74702827  0.29960522  0.77935814  1
  O  O32  1  0.82753401  0.03072286  0.73726221  1
  O  O33  1  0.57520850  0.18118815  0.41891603  1
  O  O34  1  0.25297173  0.70039478  0.22064186  1
  O  O35  1  0.25297173  0.20039478  0.27935814  1
  O  O36  1  0.67246599  0.03072286  0.26273779  1
  O  O37  1  0.32753401  0.96927714  0.73726221  1
  O  O38  1  0.07520850  0.81881185  0.41891603  1
  O  O39  1  0.75297173  0.79960522  0.27935814  1
  O  O40  1  0.93750028  0.95505979  0.57671266  1
  O  O41  1  0.07520850  0.31881185  0.08108397  1
  O  O42  1  0.17246599  0.96927714  0.26273779  1
  O  O43  1  0.06249972  0.54494021  0.07671266  1
  O  O44  1  0.06249972  0.04494021  0.42328734  1
  O  O45  1  0.57520850  0.68118815  0.08108397  1
  O  O46  1  0.24702827  0.70039478  0.77935814  1
  O  O47  1  0.56249972  0.45505979  0.07671266  1
  O  O48  1  0.32753401  0.46927714  0.76273779  1
  O  O49  1  0.42479150  0.81881185  0.58108397  1
  O  O50  1  0.56249972  0.95505979  0.42328734  1
  O  O51  1  0.92479150  0.68118815  0.91891603  1
  O  O52  1  0.17246599  0.46927714  0.23726221  1
  O  O53  1  0.42479150  0.31881185  0.91891603  1
  O  O54  1  0.74702827  0.79960522  0.72064186  1
  O  O55  1  0.43750028  0.04494021  0.57671266  1
  O  O56  1  0.93750028  0.45505979  0.92328734  1
  O  O57  1  0.92479150  0.18118815  0.58108397  1
  O  O58  1  0.75297173  0.29960522  0.22064186  1
  O  O59  1  0.24702827  0.20039478  0.72064186  1
