# generated using pymatgen
data_SrHg2(ClO)2
_symmetry_space_group_name_H-M   'P 1'
_cell_length_a   7.16406124
_cell_length_b   8.45403614
_cell_length_c   10.22218918
_cell_angle_alpha   102.38491547
_cell_angle_beta   90.00000000
_cell_angle_gamma   90.00000000
_symmetry_Int_Tables_number   1
_chemical_formula_structural   SrHg2(ClO)2
_chemical_formula_sum   'Sr4 Hg8 Cl8 O8'
_cell_volume   604.70183726
_cell_formula_units_Z   4
loop_
 _symmetry_equiv_pos_site_id
 _symmetry_equiv_pos_as_xyz
  1  'x, y, z'
loop_
 _atom_site_type_symbol
 _atom_site_label
 _atom_site_symmetry_multiplicity
 _atom_site_fract_x
 _atom_site_fract_y
 _atom_site_fract_z
 _atom_site_occupancy
  Sr  Sr0  1  0.62364832  0.72391533  0.37541358  1
  Sr  Sr1  1  0.37635168  0.27608467  0.62458642  1
  Sr  Sr2  1  0.87635168  0.22391533  0.87541358  1
  Sr  Sr3  1  0.12364832  0.77608467  0.12458642  1
  Hg  Hg4  1  0.33022128  0.97245600  0.86782188  1
  Hg  Hg5  1  0.06334020  0.87160638  0.60660752  1
  Hg  Hg6  1  0.56334020  0.62839362  0.89339248  1
  Hg  Hg7  1  0.16977872  0.47245600  0.36782188  1
  Hg  Hg8  1  0.66977872  0.02754400  0.13217812  1
  Hg  Hg9  1  0.83022128  0.52754400  0.63217812  1
  Hg  Hg10  1  0.93665980  0.12839362  0.39339248  1
  Hg  Hg11  1  0.43665980  0.37160638  0.10660752  1
  Cl  Cl12  1  0.39995975  0.65793229  0.61248270  1
  Cl  Cl13  1  0.81900824  0.53902431  0.12686774  1
  Cl  Cl14  1  0.60004025  0.34206771  0.38751730  1
  Cl  Cl15  1  0.89995975  0.84206771  0.88751730  1
  Cl  Cl16  1  0.10004025  0.15793229  0.11248270  1
  Cl  Cl17  1  0.31900824  0.96097569  0.37313226  1
  Cl  Cl18  1  0.18099176  0.46097569  0.87313226  1
  Cl  Cl19  1  0.68099176  0.03902431  0.62686774  1
  O  O20  1  0.68193025  0.42108699  0.77018422  1
  O  O21  1  0.92140065  0.67033597  0.49688817  1
  O  O22  1  0.81806975  0.92108699  0.27018422  1
  O  O23  1  0.07859935  0.32966403  0.50311183  1
  O  O24  1  0.18193025  0.07891301  0.72981578  1
  O  O25  1  0.57859935  0.17033597  0.99688817  1
  O  O26  1  0.31806975  0.57891301  0.22981578  1
  O  O27  1  0.42140065  0.82966403  0.00311183  1
