# generated using pymatgen
data_KSr4(BO3)3
_symmetry_space_group_name_H-M   'P 1'
_cell_length_a   6.96157728
_cell_length_b   6.98366718
_cell_length_c   11.16525822
_cell_angle_alpha   90.00000000
_cell_angle_beta   90.00000000
_cell_angle_gamma   119.89542120
_symmetry_Int_Tables_number   1
_chemical_formula_structural   KSr4(BO3)3
_chemical_formula_sum   'K2 Sr8 B6 O18'
_cell_volume   470.59497307
_cell_formula_units_Z   2
loop_
 _symmetry_equiv_pos_site_id
 _symmetry_equiv_pos_as_xyz
  1  'x, y, z'
loop_
 _atom_site_type_symbol
 _atom_site_label
 _atom_site_symmetry_multiplicity
 _atom_site_fract_x
 _atom_site_fract_y
 _atom_site_fract_z
 _atom_site_occupancy
  K  K0  1  0.25103428  0.16583884  0.25000000  1
  K  K1  1  0.08519543  0.83416116  0.75000000  1
  Sr  Sr2  1  0.85721513  0.57016827  0.46923412  1
  Sr  Sr3  1  0.71781819  0.00000000  0.00000000  1
  Sr  Sr4  1  0.85721513  0.57016827  0.03076588  1
  Sr  Sr5  1  0.71781819  0.00000000  0.50000000  1
  Sr  Sr6  1  0.28704686  0.42983173  0.96923412  1
  Sr  Sr7  1  0.28704686  0.42983173  0.53076588  1
  Sr  Sr8  1  0.29574150  0.71059511  0.25000000  1
  Sr  Sr9  1  0.58514639  0.28940489  0.75000000  1
  B  B10  1  0.86744667  0.25100675  0.25000000  1
  B  B11  1  0.69001611  0.65930239  0.25000000  1
  B  B12  1  0.61643992  0.74899325  0.75000000  1
  B  B13  1  0.28810623  0.00000000  0.00000000  1
  B  B14  1  0.03071372  0.34069761  0.75000000  1
  B  B15  1  0.28810623  0.00000000  0.50000000  1
  O  O16  1  0.90760498  0.70534667  0.25000000  1
  O  O17  1  0.57402883  0.62869200  0.14211989  1
  O  O18  1  0.20225831  0.29465333  0.75000000  1
  O  O19  1  0.48511510  0.19418455  0.97266525  1
  O  O20  1  0.65704136  0.66833168  0.85789489  1
  O  O21  1  0.94533682  0.37130800  0.85788011  1
  O  O22  1  0.29093056  0.80581545  0.02733475  1
  O  O23  1  0.98870969  0.33166832  0.35789489  1
  O  O24  1  0.65704136  0.66833168  0.64210511  1
  O  O25  1  0.55026129  0.90438440  0.75000000  1
  O  O26  1  0.64587689  0.09561560  0.25000000  1
  O  O27  1  0.57402883  0.62869200  0.35788011  1
  O  O28  1  0.94533682  0.37130800  0.64211989  1
  O  O29  1  0.48511510  0.19418455  0.52733475  1
  O  O30  1  0.98870969  0.33166832  0.14210511  1
  O  O31  1  0.29093056  0.80581545  0.47266525  1
  O  O32  1  0.08938348  0.00000000  0.50000000  1
  O  O33  1  0.08938348  0.00000000  0.00000000  1
