# generated using pymatgen
data_Ag4TeO5
_symmetry_space_group_name_H-M   'P 1'
_cell_length_a   6.31474497
_cell_length_b   8.81618133
_cell_length_c   11.55659452
_cell_angle_alpha   105.28953895
_cell_angle_beta   90.00000000
_cell_angle_gamma   110.98563015
_symmetry_Int_Tables_number   1
_chemical_formula_structural   Ag4TeO5
_chemical_formula_sum   'Ag16 Te4 O20'
_cell_volume   576.24695941
_cell_formula_units_Z   4
loop_
 _symmetry_equiv_pos_site_id
 _symmetry_equiv_pos_as_xyz
  1  'x, y, z'
loop_
 _atom_site_type_symbol
 _atom_site_label
 _atom_site_symmetry_multiplicity
 _atom_site_fract_x
 _atom_site_fract_y
 _atom_site_fract_z
 _atom_site_occupancy
  Ag  Ag0  1  0.29484937  0.12184468  0.51989373  1
  Ag  Ag1  1  0.92542066  0.00000000  0.25000000  1
  Ag  Ag2  1  0.07457934  0.00000000  0.75000000  1
  Ag  Ag3  1  0.53262917  0.81781291  0.75054286  1
  Ag  Ag4  1  0.71481626  0.18218709  0.74945714  1
  Ag  Ag5  1  0.46737083  0.18218709  0.24945714  1
  Ag  Ag6  1  0.69945630  0.60492491  0.26932575  1
  Ag  Ag7  1  0.28518374  0.81781291  0.25054286  1
  Ag  Ag8  1  0.09453140  0.39507509  0.23067425  1
  Ag  Ag9  1  0.00000000  0.50000000  0.00000000  1
  Ag  Ag10  1  0.82699531  0.12184468  0.01989373  1
  Ag  Ag11  1  0.90546860  0.60492491  0.76932575  1
  Ag  Ag12  1  0.17300469  0.87815532  0.98010627  1
  Ag  Ag13  1  0.30054370  0.39507509  0.73067425  1
  Ag  Ag14  1  0.50000000  0.50000000  0.50000000  1
  Ag  Ag15  1  0.70515063  0.87815532  0.48010627  1
  Te  Te16  1  0.12503293  0.69784151  0.50473654  1
  Te  Te17  1  0.87496707  0.30215849  0.49526346  1
  Te  Te18  1  0.42719142  0.30215849  0.99526346  1
  Te  Te19  1  0.57280858  0.69784151  0.00473654  1
  O  O20  1  0.39083051  0.52403895  0.09386872  1
  O  O21  1  0.15195246  0.24641175  0.88992305  1
  O  O22  1  0.37726611  0.88194421  0.60848355  1
  O  O23  1  0.33614031  0.63320513  0.39582154  1
  O  O24  1  0.86679156  0.47596105  0.40613128  1
  O  O25  1  0.13320844  0.52403895  0.59386872  1
  O  O26  1  0.09445928  0.24641175  0.38992305  1
  O  O27  1  0.62273389  0.11805579  0.39151645  1
  O  O28  1  0.60916949  0.47596105  0.90613128  1
  O  O29  1  0.49532191  0.11805579  0.89151645  1
  O  O30  1  0.75904158  0.81812988  0.89878066  1
  O  O31  1  0.24095842  0.18187012  0.10121934  1
  O  O32  1  0.70293517  0.36679487  0.10417846  1
  O  O33  1  0.66385969  0.36679487  0.60417846  1
  O  O34  1  0.50467809  0.88194421  0.10848355  1
  O  O35  1  0.94091170  0.18187012  0.60121934  1
  O  O36  1  0.29706483  0.63320513  0.89582154  1
  O  O37  1  0.05908830  0.81812988  0.39878066  1
  O  O38  1  0.84804754  0.75358825  0.11007695  1
  O  O39  1  0.90554072  0.75358825  0.61007695  1
