# generated using pymatgen
data_PbC2(SN)2
_symmetry_space_group_name_H-M   'P 1'
_cell_length_a   6.00701937
_cell_length_b   6.00701937
_cell_length_c   8.35064535
_cell_angle_alpha   90.08497128
_cell_angle_beta   90.08497131
_cell_angle_gamma   66.04770746
_symmetry_Int_Tables_number   1
_chemical_formula_structural   PbC2(SN)2
_chemical_formula_sum   'Pb2 C4 S4 N4'
_cell_volume   275.37747202
_cell_formula_units_Z   2
loop_
 _symmetry_equiv_pos_site_id
 _symmetry_equiv_pos_as_xyz
  1  'x, y, z'
loop_
 _atom_site_type_symbol
 _atom_site_label
 _atom_site_symmetry_multiplicity
 _atom_site_fract_x
 _atom_site_fract_y
 _atom_site_fract_z
 _atom_site_occupancy
  C  C0  1  0.75537259  0.48273750  0.60277238  1
  C  C1  1  0.24462741  0.51726250  0.39722762  1
  C  C2  1  0.48273750  0.75537259  0.10277238  1
  C  C3  1  0.51726250  0.24462741  0.89722762  1
  N  N4  1  0.27830242  0.83746577  0.05445756  1
  N  N5  1  0.72169758  0.16253423  0.94554244  1
  N  N6  1  0.83746577  0.27830242  0.55445756  1
  N  N7  1  0.16253423  0.72169758  0.44554244  1
  S  S8  1  0.64820638  0.76033837  0.67037938  1
  S  S9  1  0.76033837  0.64820638  0.17037938  1
  S  S10  1  0.23966163  0.35179362  0.82962062  1
  S  S11  1  0.35179362  0.23966163  0.32962062  1
  Pb  Pb12  1  0.89587200  0.10412800  0.25000000  1
  Pb  Pb13  1  0.10412800  0.89587200  0.75000000  1
