# generated using pymatgen
data_Y4TiSi2(O3F2)3
_symmetry_space_group_name_H-M   'P 1'
_cell_length_a   7.12818447
_cell_length_b   9.23259554
_cell_length_c   9.23259602
_cell_angle_alpha   109.12050389
_cell_angle_beta   90.00000000
_cell_angle_gamma   90.00000000
_symmetry_Int_Tables_number   1
_chemical_formula_structural   Y4TiSi2(O3F2)3
_chemical_formula_sum   'Y8 Ti2 Si4 O18 F12'
_cell_volume   574.09141721
_cell_formula_units_Z   2
loop_
 _symmetry_equiv_pos_site_id
 _symmetry_equiv_pos_as_xyz
  1  'x, y, z'
loop_
 _atom_site_type_symbol
 _atom_site_label
 _atom_site_symmetry_multiplicity
 _atom_site_fract_x
 _atom_site_fract_y
 _atom_site_fract_z
 _atom_site_occupancy
  Y  Y0  1  0.25000000  0.28949090  0.58259371  1
  Y  Y1  1  0.75000000  0.33671608  0.07562878  1
  Y  Y2  1  0.25000000  0.58259371  0.28949090  1
  Y  Y3  1  0.75000000  0.71050910  0.41740629  1
  Y  Y4  1  0.75000000  0.07562878  0.33671608  1
  Y  Y5  1  0.25000000  0.92437122  0.66328392  1
  Y  Y6  1  0.75000000  0.41740629  0.71050910  1
  Y  Y7  1  0.25000000  0.66328392  0.92437122  1
  Ti  Ti8  1  0.50000000  0.00000000  0.00000000  1
  Ti  Ti9  1  0.00000000  0.00000000  0.00000000  1
  Si  Si10  1  0.25000000  0.96372098  0.27732705  1
  Si  Si11  1  0.75000000  0.03627902  0.72267295  1
  Si  Si12  1  0.25000000  0.27732705  0.96372098  1
  Si  Si13  1  0.75000000  0.72267295  0.03627902  1
  O  O14  1  0.44289030  0.03231246  0.22099989  1
  O  O15  1  0.25000000  0.46568236  0.02884752  1
  O  O16  1  0.75000000  0.06168753  0.06168753  1
  O  O17  1  0.75000000  0.53431764  0.97115248  1
  O  O18  1  0.75000000  0.22292819  0.80557783  1
  O  O19  1  0.94289030  0.96768754  0.77900011  1
  O  O20  1  0.75000000  0.80557783  0.22292819  1
  O  O21  1  0.05710970  0.03231246  0.22099989  1
  O  O22  1  0.44289030  0.22099989  0.03231246  1
  O  O23  1  0.55710970  0.77900011  0.96768754  1
  O  O24  1  0.05710970  0.22099989  0.03231246  1
  O  O25  1  0.75000000  0.97115248  0.53431764  1
  O  O26  1  0.94289030  0.77900011  0.96768754  1
  O  O27  1  0.25000000  0.02884752  0.46568236  1
  O  O28  1  0.25000000  0.77707181  0.19442217  1
  O  O29  1  0.55710970  0.96768754  0.77900011  1
  O  O30  1  0.25000000  0.19442217  0.77707181  1
  O  O31  1  0.25000000  0.93831247  0.93831247  1
  F  F32  1  0.93866600  0.52888037  0.24512691  1
  F  F33  1  0.43866600  0.47111963  0.75487309  1
  F  F34  1  0.25000000  0.69906544  0.69906544  1
  F  F35  1  0.75000000  0.58339139  0.58339139  1
  F  F36  1  0.75000000  0.30093456  0.30093456  1
  F  F37  1  0.06133400  0.47111963  0.75487309  1
  F  F38  1  0.25000000  0.41660861  0.41660861  1
  F  F39  1  0.93866600  0.24512691  0.52888037  1
  F  F40  1  0.06133400  0.75487309  0.47111963  1
  F  F41  1  0.56133400  0.52888037  0.24512691  1
  F  F42  1  0.43866600  0.75487309  0.47111963  1
  F  F43  1  0.56133400  0.24512691  0.52888037  1
