# generated using pymatgen
data_K2CdP2O7
_symmetry_space_group_name_H-M   'P 1'
_cell_length_a   5.64354076
_cell_length_b   5.70065988
_cell_length_c   12.83369492
_cell_angle_alpha   78.91112850
_cell_angle_beta   77.29942443
_cell_angle_gamma   60.33128223
_symmetry_Int_Tables_number   1
_chemical_formula_structural   K2CdP2O7
_chemical_formula_sum   'K4 Cd2 P4 O14'
_cell_volume   348.27567013
_cell_formula_units_Z   2
loop_
 _symmetry_equiv_pos_site_id
 _symmetry_equiv_pos_as_xyz
  1  'x, y, z'
loop_
 _atom_site_type_symbol
 _atom_site_label
 _atom_site_symmetry_multiplicity
 _atom_site_fract_x
 _atom_site_fract_y
 _atom_site_fract_z
 _atom_site_occupancy
  K  K0  1  0.94048224  0.87025174  0.83158497  1
  K  K1  1  0.05951776  0.12974826  0.16841503  1
  K  K2  1  0.64233244  0.62978857  0.66839465  1
  K  K3  1  0.35766756  0.37021143  0.33160535  1
  Cd  Cd4  1  0.50000000  0.50000000  0.00000000  1
  Cd  Cd5  1  0.00000000  0.00000000  0.50000000  1
  P  P6  1  0.68932208  0.68584706  0.36975119  1
  P  P7  1  0.25509604  0.18586581  0.86973962  1
  P  P8  1  0.74490396  0.81413419  0.13026038  1
  P  P9  1  0.31067792  0.31415294  0.63024881  1
  O  O10  1  0.15737638  0.25001922  0.74999734  1
  O  O11  1  0.55600463  0.12351729  0.12089006  1
  O  O12  1  0.84262362  0.74998078  0.25000266  1
  O  O13  1  0.44399537  0.87648271  0.87910994  1
  O  O14  1  0.58811173  0.65481052  0.13474314  1
  O  O15  1  0.01637581  0.71969695  0.05491421  1
  O  O16  1  0.80037477  0.37648658  0.37911661  1
  O  O17  1  0.20893991  0.21972210  0.55491939  1
  O  O18  1  0.19962523  0.62351342  0.62088339  1
  O  O19  1  0.37767110  0.84523370  0.36526841  1
  O  O20  1  0.79106009  0.78027790  0.44508061  1
  O  O21  1  0.41188827  0.34518948  0.86525686  1
  O  O22  1  0.98362419  0.28030305  0.94508579  1
  O  O23  1  0.62232890  0.15476630  0.63473159  1
