# generated using pymatgen
data_CsAgSb4S7
_symmetry_space_group_name_H-M   'P 1'
_cell_length_a   8.98063286
_cell_length_b   12.53954332
_cell_length_c   13.97243504
_cell_angle_alpha   96.83471528
_cell_angle_beta   108.74577627
_cell_angle_gamma   90.00000158
_symmetry_Int_Tables_number   1
_chemical_formula_structural   CsAgSb4S7
_chemical_formula_sum   'Cs4 Ag4 Sb16 S28'
_cell_volume   1478.19826295
_cell_formula_units_Z   4
loop_
 _symmetry_equiv_pos_site_id
 _symmetry_equiv_pos_as_xyz
  1  'x, y, z'
loop_
 _atom_site_type_symbol
 _atom_site_label
 _atom_site_symmetry_multiplicity
 _atom_site_fract_x
 _atom_site_fract_y
 _atom_site_fract_z
 _atom_site_occupancy
  Cs  Cs0  1  0.00000000  0.50000000  0.50000000  1
  Cs  Cs1  1  0.66450701  0.75000000  0.00000000  1
  Cs  Cs2  1  0.50000000  0.00000000  0.50000000  1
  Cs  Cs3  1  0.33549299  0.25000000  1.00000000  1
  Ag  Ag4  1  0.35931876  0.68707913  0.51574405  1
  Ag  Ag5  1  0.64068124  0.31292087  0.48425595  1
  Ag  Ag6  1  0.15642529  0.18707913  0.51574405  1
  Ag  Ag7  1  0.84357471  0.81292087  0.48425595  1
  Sb  Sb8  1  0.04477177  0.82377988  0.29551865  1
  Sb  Sb9  1  0.27276660  0.93862357  0.71701397  1
  Sb  Sb10  1  0.44424737  0.43862357  0.71701397  1
  Sb  Sb11  1  0.25074688  0.32377988  0.29551865  1
  Sb  Sb12  1  0.87290364  0.42365681  0.85364353  1
  Sb  Sb13  1  0.21330726  0.62536506  0.84085718  1
  Sb  Sb14  1  0.72723340  0.06137643  0.28298603  1
  Sb  Sb15  1  0.74925312  0.67622012  0.70448135  1
  Sb  Sb16  1  0.55575263  0.56137643  0.28298603  1
  Sb  Sb17  1  0.98073989  0.92365681  0.85364353  1
  Sb  Sb18  1  0.12709636  0.57634319  0.14635647  1
  Sb  Sb19  1  0.37245008  0.87463494  0.15914282  1
  Sb  Sb20  1  0.95522823  0.17622012  0.70448135  1
  Sb  Sb21  1  0.78669274  0.37463494  0.15914282  1
  Sb  Sb22  1  0.62754992  0.12536506  0.84085718  1
  Sb  Sb23  1  0.01926011  0.07634319  0.14635647  1
  S  S24  1  0.02761189  0.70601215  0.69797974  1
  S  S25  1  0.06672565  0.02601193  0.32845487  1
  S  S26  1  0.72855205  0.04842545  0.10093295  1
  S  S27  1  0.64675580  0.69602500  0.52301345  1
  S  S28  1  0.12374235  0.80397500  0.47698655  1
  S  S29  1  0.58393904  0.93233439  0.78051012  1
  S  S30  1  0.41606096  0.06766561  0.21948988  1
  S  S31  1  0.98826726  0.60992402  0.92250267  1
  S  S32  1  0.62761911  0.45157455  0.89906705  1
  S  S33  1  0.37238089  0.54842545  0.10093295  1
  S  S34  1  0.35324420  0.30397500  0.47698655  1
  S  S35  1  0.87625765  0.19602500  0.52301345  1
  S  S36  1  0.06576459  0.89007598  0.07749733  1
  S  S37  1  0.32963216  0.79398785  0.30202026  1
  S  S38  1  0.01173274  0.39007598  0.07749733  1
  S  S39  1  0.40345794  0.63054910  0.70289427  1
  S  S40  1  0.80342891  0.56766561  0.21948988  1
  S  S41  1  0.59654206  0.36945090  0.29710573  1
  S  S42  1  0.73827078  0.47398807  0.67154513  1
  S  S43  1  0.26172922  0.52601193  0.32845487  1
  S  S44  1  0.27144795  0.95157455  0.89906705  1
  S  S45  1  0.70056367  0.86945090  0.29710573  1
  S  S46  1  0.93423541  0.10992402  0.92250267  1
  S  S47  1  0.29943633  0.13054910  0.70289427  1
  S  S48  1  0.67036784  0.20601215  0.69797974  1
  S  S49  1  0.97238811  0.29398785  0.30202026  1
  S  S50  1  0.19657109  0.43233439  0.78051012  1
  S  S51  1  0.93327435  0.97398807  0.67154513  1
