# generated using pymatgen
data_KCu2AsS3
_symmetry_space_group_name_H-M   'P 1'
_cell_length_a   6.33851905
_cell_length_b   8.97341974
_cell_length_c   10.35405781
_cell_angle_alpha   90.70785782
_cell_angle_beta   91.33342816
_cell_angle_gamma   90.65266705
_symmetry_Int_Tables_number   1
_chemical_formula_structural   KCu2AsS3
_chemical_formula_sum   'K4 Cu8 As4 S12'
_cell_volume   588.67550265
_cell_formula_units_Z   4
loop_
 _symmetry_equiv_pos_site_id
 _symmetry_equiv_pos_as_xyz
  1  'x, y, z'
loop_
 _atom_site_type_symbol
 _atom_site_label
 _atom_site_symmetry_multiplicity
 _atom_site_fract_x
 _atom_site_fract_y
 _atom_site_fract_z
 _atom_site_occupancy
  K  K0  1  0.20563286  0.93308544  0.86853332  1
  K  K1  1  0.70211933  0.93015274  0.62915887  1
  K  K2  1  0.29788067  0.06984726  0.37084113  1
  K  K3  1  0.79436714  0.06691456  0.13146668  1
  Cu  Cu4  1  0.57213557  0.34712728  0.54473415  1
  Cu  Cu5  1  0.98507001  0.74834779  0.35570375  1
  Cu  Cu6  1  0.42786443  0.65287272  0.45526585  1
  Cu  Cu7  1  0.06716945  0.35687790  0.96116610  1
  Cu  Cu8  1  0.50085511  0.59735438  0.83490699  1
  Cu  Cu9  1  0.49914489  0.40264562  0.16509301  1
  Cu  Cu10  1  0.01492999  0.25165221  0.64429625  1
  Cu  Cu11  1  0.93283055  0.64312210  0.03883390  1
  As  As12  1  0.46785086  0.68491641  0.15311060  1
  As  As13  1  0.98204225  0.45183615  0.35524279  1
  As  As14  1  0.53214914  0.31508359  0.84688940  1
  As  As15  1  0.01795775  0.54816385  0.64475721  1
  S  S16  1  0.85431637  0.19462504  0.83475036  1
  S  S17  1  0.36486813  0.19591039  0.67105020  1
  S  S18  1  0.13892808  0.58210993  0.85645655  1
  S  S19  1  0.86107192  0.41789007  0.14354345  1
  S  S20  1  0.84951919  0.22918277  0.44412114  1
  S  S21  1  0.63513187  0.80408961  0.32894980  1
  S  S22  1  0.15048081  0.77081723  0.55587886  1
  S  S23  1  0.36346896  0.22474114  0.02617237  1
  S  S24  1  0.14568363  0.80537496  0.16524964  1
  S  S25  1  0.34627541  0.41976770  0.36058835  1
  S  S26  1  0.65372459  0.58023230  0.63941165  1
  S  S27  1  0.63653104  0.77525886  0.97382763  1
