# generated using pymatgen
data_Na5Li3(TiS4)2
_symmetry_space_group_name_H-M   'P 1'
_cell_length_a   9.70968412
_cell_length_b   10.10398927
_cell_length_c   10.09720092
_cell_angle_alpha   74.13821880
_cell_angle_beta   61.26163703
_cell_angle_gamma   61.28274480
_symmetry_Int_Tables_number   1
_chemical_formula_structural   Na5Li3(TiS4)2
_chemical_formula_sum   'Na10 Li6 Ti4 S16'
_cell_volume   760.59606811
_cell_formula_units_Z   2
loop_
 _symmetry_equiv_pos_site_id
 _symmetry_equiv_pos_as_xyz
  1  'x, y, z'
loop_
 _atom_site_type_symbol
 _atom_site_label
 _atom_site_symmetry_multiplicity
 _atom_site_fract_x
 _atom_site_fract_y
 _atom_site_fract_z
 _atom_site_occupancy
  Na  Na0  1  0.58621774  0.26554194  0.53496786  1
  Na  Na1  1  0.99185547  0.75000000  0.25000000  1
  Na  Na2  1  0.60761253  0.51597503  0.77690599  1
  Na  Na3  1  0.39238747  0.48402497  0.22309401  1
  Na  Na4  1  0.41378226  0.73445806  0.46503214  1
  Na  Na5  1  0.00814453  0.25000000  0.75000000  1
  Na  Na6  1  0.09950645  0.01597503  0.27690599  1
  Na  Na7  1  0.90049355  0.98402497  0.72309401  1
  Na  Na8  1  0.61327247  0.76554194  0.03496786  1
  Na  Na9  1  0.38672753  0.23445806  0.96503214  1
  Li  Li10  1  0.19391002  0.24184198  0.37276683  1
  Li  Li11  1  0.80851883  0.25815802  0.12723317  1
  Li  Li12  1  0.19148117  0.74184198  0.87276683  1
  Li  Li13  1  0.50000000  0.00000000  0.50000000  1
  Li  Li14  1  0.00000000  0.50000000  0.00000000  1
  Li  Li15  1  0.80608998  0.75815802  0.62723317  1
  Ti  Ti16  1  0.15146473  0.53225469  0.63512350  1
  Ti  Ti17  1  0.84853527  0.46774531  0.36487650  1
  Ti  Ti18  1  0.68115707  0.03225469  0.13512350  1
  Ti  Ti19  1  0.31884293  0.96774531  0.86487650  1
  S  S20  1  0.57472191  0.99187307  0.74994724  1
  S  S21  1  0.88192874  0.82332503  0.00508221  1
  S  S22  1  0.42527809  0.00812693  0.25005276  1
  S  S23  1  0.24182183  0.95032511  0.69230110  1
  S  S24  1  0.89491944  0.25218350  0.51927891  1
  S  S25  1  0.31654222  0.50812693  0.75005276  1
  S  S26  1  0.75817817  0.04967489  0.30769890  1
  S  S27  1  0.71033598  0.67667497  0.49491779  1
  S  S28  1  0.66638185  0.24781650  0.98072109  1
  S  S29  1  0.33361815  0.75218350  0.01927891  1
  S  S30  1  0.11555196  0.45032511  0.19230110  1
  S  S31  1  0.88444804  0.54967489  0.80769890  1
  S  S32  1  0.11807126  0.17667497  0.99491779  1
  S  S33  1  0.28966402  0.32332503  0.50508221  1
  S  S34  1  0.68345778  0.49187307  0.24994724  1
  S  S35  1  0.10508056  0.74781650  0.48072109  1
