# generated using pymatgen
data_Y(PO3)3
_symmetry_space_group_name_H-M   'P 1'
_cell_length_a   13.05359424
_cell_length_b   13.05359440
_cell_length_c   13.05359449
_cell_angle_alpha   110.46438115
_cell_angle_beta   110.46438146
_cell_angle_gamma   110.46437841
_symmetry_Int_Tables_number   1
_chemical_formula_structural   Y(PO3)3
_chemical_formula_sum   'Y8 P24 O72'
_cell_volume   1646.28973198
_cell_formula_units_Z   8
loop_
 _symmetry_equiv_pos_site_id
 _symmetry_equiv_pos_as_xyz
  1  'x, y, z'
loop_
 _atom_site_type_symbol
 _atom_site_label
 _atom_site_symmetry_multiplicity
 _atom_site_fract_x
 _atom_site_fract_y
 _atom_site_fract_z
 _atom_site_occupancy
  Y  Y0  1  0.50000000  0.50000000  0.50000000  1
  Y  Y1  1  0.73139272  0.53748487  0.02062659  1
  Y  Y2  1  0.97937341  0.26860728  0.46251513  1
  Y  Y3  1  0.46251513  0.97937341  0.26860728  1
  Y  Y4  1  0.53748487  0.02062659  0.73139272  1
  Y  Y5  1  0.00000000  0.00000000  0.00000000  1
  Y  Y6  1  0.26860728  0.46251513  0.97937341  1
  Y  Y7  1  0.02062659  0.73139272  0.53748487  1
  P  P8  1  0.93113658  0.23324918  0.71363741  1
  P  P9  1  0.62427644  0.67307334  0.21040161  1
  P  P10  1  0.48090607  0.73005299  0.73224686  1
  P  P11  1  0.51909393  0.26994701  0.26775314  1
  P  P12  1  0.32692666  0.78959839  0.37572356  1
  P  P13  1  0.26994701  0.26775314  0.51909393  1
  P  P14  1  0.73224686  0.48090607  0.73005299  1
  P  P15  1  0.23324918  0.71363741  0.93113658  1
  P  P16  1  0.01759117  0.29909638  0.20029148  1
  P  P17  1  0.28636259  0.06886342  0.76675082  1
  P  P18  1  0.29909638  0.20029148  0.01759117  1
  P  P19  1  0.78959839  0.37572356  0.32692666  1
  P  P20  1  0.21040161  0.62427644  0.67307334  1
  P  P21  1  0.73005299  0.73224686  0.48090607  1
  P  P22  1  0.76675082  0.28636259  0.06886342  1
  P  P23  1  0.06886342  0.76675082  0.28636259  1
  P  P24  1  0.71363741  0.93113658  0.23324918  1
  P  P25  1  0.26775314  0.51909393  0.26994701  1
  P  P26  1  0.67307334  0.21040161  0.62427644  1
  P  P27  1  0.79970852  0.98240883  0.70090362  1
  P  P28  1  0.37572356  0.32692666  0.78959839  1
  P  P29  1  0.20029148  0.01759117  0.29909638  1
  P  P30  1  0.70090362  0.79970852  0.98240883  1
  P  P31  1  0.98240883  0.70090362  0.79970852  1
  O  O32  1  0.56099559  0.72811883  0.85579488  1
  O  O33  1  0.33787117  0.62512932  0.68673397  1
  O  O34  1  0.12000174  0.91289309  0.32252727  1
  O  O35  1  0.39665173  0.06088407  0.76300441  1
  O  O36  1  0.60214190  0.17807728  0.68852777  1
  O  O37  1  0.27188117  0.14420512  0.43900441  1
  O  O38  1  0.51329667  0.38032917  0.88814480  1
  O  O39  1  0.99874879  0.28735765  0.30332759  1
  O  O40  1  0.87999826  0.08710691  0.67747273  1
  O  O41  1  0.60334827  0.93911593  0.23699559  1
  O  O42  1  0.48670333  0.61967083  0.11185520  1
  O  O43  1  0.50319398  0.14058634  0.23050255  1
  O  O44  1  0.32729708  0.36865156  0.49188691  1
  O  O45  1  0.31326603  0.66212883  0.37487068  1
  O  O46  1  0.08710691  0.67747273  0.87999826  1
  O  O47  1  0.97835123  0.80572407  0.89127958  1
  O  O48  1  0.50811309  0.67270292  0.63134844  1
  O  O49  1  0.17807728  0.68852777  0.60214190  1
  O  O50  1  0.32350305  0.84660969  0.05134626  1
  O  O51  1  0.32252727  0.12000174  0.91289309  1
  O  O52  1  0.72088567  0.82121946  0.25834828  1
  O  O53  1  0.74165172  0.27911433  0.17878054  1
  O  O54  1  0.69667241  0.00125121  0.71264235  1
  O  O55  1  0.10872042  0.02164877  0.19427593  1
  O  O56  1  0.19427593  0.10872042  0.02164877  1
  O  O57  1  0.85579488  0.56099559  0.72811883  1
  O  O58  1  0.67270292  0.63134844  0.50811309  1
  O  O59  1  0.67649695  0.15339031  0.94865374  1
  O  O60  1  0.11185520  0.48670333  0.61967083  1
  O  O61  1  0.94865374  0.67649695  0.15339031  1
  O  O62  1  0.30332759  0.99874879  0.28735765  1
  O  O63  1  0.05134626  0.32350305  0.84660969  1
  O  O64  1  0.68852777  0.60214190  0.17807728  1
  O  O65  1  0.93911593  0.23699559  0.60334827  1
  O  O66  1  0.49680602  0.85941366  0.76949745  1
  O  O67  1  0.23699559  0.60334827  0.93911593  1
  O  O68  1  0.14420512  0.43900441  0.27188117  1
  O  O69  1  0.43900441  0.27188117  0.14420512  1
  O  O70  1  0.85941366  0.76949745  0.49680602  1
  O  O71  1  0.88814480  0.51329667  0.38032917  1
  O  O72  1  0.82192272  0.31147223  0.39785810  1
  O  O73  1  0.76300441  0.39665173  0.06088407  1
  O  O74  1  0.31147223  0.39785810  0.82192272  1
  O  O75  1  0.36865156  0.49188691  0.32729708  1
  O  O76  1  0.89127958  0.97835123  0.80572407  1
  O  O77  1  0.06088407  0.76300441  0.39665173  1
  O  O78  1  0.84660969  0.05134626  0.32350305  1
  O  O79  1  0.28735765  0.30332759  0.99874879  1
  O  O80  1  0.37487068  0.31326603  0.66212883  1
  O  O81  1  0.00125121  0.71264235  0.69667241  1
  O  O82  1  0.25834828  0.72088567  0.82121946  1
  O  O83  1  0.17878054  0.74165172  0.27911433  1
  O  O84  1  0.91289309  0.32252727  0.12000174  1
  O  O85  1  0.82121946  0.25834828  0.72088567  1
  O  O86  1  0.02164877  0.19427593  0.10872042  1
  O  O87  1  0.66212883  0.37487068  0.31326603  1
  O  O88  1  0.62512932  0.68673397  0.33787117  1
  O  O89  1  0.68673397  0.33787117  0.62512932  1
  O  O90  1  0.71264235  0.69667241  0.00125121  1
  O  O91  1  0.76949745  0.49680602  0.85941366  1
  O  O92  1  0.27911433  0.17878054  0.74165172  1
  O  O93  1  0.67747273  0.87999826  0.08710691  1
  O  O94  1  0.72811883  0.85579488  0.56099559  1
  O  O95  1  0.14058634  0.23050255  0.50319398  1
  O  O96  1  0.38032917  0.88814480  0.51329667  1
  O  O97  1  0.63134844  0.50811309  0.67270292  1
  O  O98  1  0.49188691  0.32729708  0.36865156  1
  O  O99  1  0.61967083  0.11185520  0.48670333  1
  O  O100  1  0.15339031  0.94865374  0.67649695  1
  O  O101  1  0.39785810  0.82192272  0.31147223  1
  O  O102  1  0.23050255  0.50319398  0.14058634  1
  O  O103  1  0.80572407  0.89127958  0.97835123  1
