# generated using pymatgen
data_LiAuF4
_symmetry_space_group_name_H-M   'P 1'
_cell_length_a   4.98771244
_cell_length_b   6.64238828
_cell_length_c   10.15660260
_cell_angle_alpha   90.00000000
_cell_angle_beta   92.82623266
_cell_angle_gamma   90.00000000
_symmetry_Int_Tables_number   1
_chemical_formula_structural   LiAuF4
_chemical_formula_sum   'Li4 Au4 F16'
_cell_volume   336.08223531
_cell_formula_units_Z   4
loop_
 _symmetry_equiv_pos_site_id
 _symmetry_equiv_pos_as_xyz
  1  'x, y, z'
loop_
 _atom_site_type_symbol
 _atom_site_label
 _atom_site_symmetry_multiplicity
 _atom_site_fract_x
 _atom_site_fract_y
 _atom_site_fract_z
 _atom_site_occupancy
  Li  Li0  1  0.50000000  0.58304173  0.25000000  1
  Li  Li1  1  0.00000000  0.10040609  0.75000000  1
  Li  Li2  1  0.50000000  0.41695827  0.75000000  1
  Li  Li3  1  0.00000000  0.89959391  0.25000000  1
  Au  Au4  1  0.50000000  0.00000000  0.50000000  1
  Au  Au5  1  0.50000000  -0.00000000  0.00000000  1
  Au  Au6  1  0.00000000  0.50000000  0.00000000  1
  Au  Au7  1  0.00000000  0.50000000  0.50000000  1
  F  F8  1  0.20437528  0.08179393  0.37606807  1
  F  F9  1  0.79562472  0.91820607  0.62393193  1
  F  F10  1  0.70651096  0.40628058  0.37857041  1
  F  F11  1  0.20437528  0.91820607  0.87606807  1
  F  F12  1  0.82220603  0.35841834  0.64195464  1
  F  F13  1  0.67705741  0.84638319  0.36275413  1
  F  F14  1  0.32294259  0.15361681  0.63724587  1
  F  F15  1  0.67705741  0.15361681  0.86275413  1
  F  F16  1  0.82220603  0.64158166  0.14195464  1
  F  F17  1  0.32294259  0.84638319  0.13724587  1
  F  F18  1  0.79562472  0.08179393  0.12393193  1
  F  F19  1  0.29348904  0.40628058  0.12142959  1
  F  F20  1  0.17779397  0.35841834  0.85804536  1
  F  F21  1  0.17779397  0.64158166  0.35804536  1
  F  F22  1  0.29348904  0.59371942  0.62142959  1
  F  F23  1  0.70651096  0.59371942  0.87857041  1
