# generated using pymatgen
data_TcBi3O8
_symmetry_space_group_name_H-M   'P 1'
_cell_length_a   11.72075703
_cell_length_b   11.72075703
_cell_length_c   11.72075703
_cell_angle_alpha   90.00000000
_cell_angle_beta   90.00000000
_cell_angle_gamma   90.00000000
_symmetry_Int_Tables_number   1
_chemical_formula_structural   TcBi3O8
_chemical_formula_sum   'Tc8 Bi24 O64'
_cell_volume   1610.15242144
_cell_formula_units_Z   8
loop_
 _symmetry_equiv_pos_site_id
 _symmetry_equiv_pos_as_xyz
  1  'x, y, z'
loop_
 _atom_site_type_symbol
 _atom_site_label
 _atom_site_symmetry_multiplicity
 _atom_site_fract_x
 _atom_site_fract_y
 _atom_site_fract_z
 _atom_site_occupancy
  Tc  Tc0  1  0.11365305  0.88634695  0.38634695  1
  Tc  Tc1  1  0.88634695  0.38634695  0.11365305  1
  Tc  Tc2  1  0.11910395  0.11910395  0.11910395  1
  Tc  Tc3  1  0.88089605  0.61910395  0.38089605  1
  Tc  Tc4  1  0.38634695  0.11365305  0.88634695  1
  Tc  Tc5  1  0.61365305  0.61365305  0.61365305  1
  Tc  Tc6  1  0.61910395  0.38089605  0.88089605  1
  Tc  Tc7  1  0.38089605  0.88089605  0.61910395  1
  Bi  Bi8  1  0.35296190  0.64166631  0.88842361  1
  Bi  Bi9  1  0.15358376  0.63483076  0.11616884  1
  Bi  Bi10  1  0.13483076  0.38383116  0.84641624  1
  Bi  Bi11  1  0.38383116  0.84641624  0.13483076  1
  Bi  Bi12  1  0.85833369  0.11157639  0.85296190  1
  Bi  Bi13  1  0.85296190  0.85833369  0.11157639  1
  Bi  Bi14  1  0.65358376  0.86516924  0.88383116  1
  Bi  Bi15  1  0.86516924  0.88383116  0.65358376  1
  Bi  Bi16  1  0.11616884  0.15358376  0.63483076  1
  Bi  Bi17  1  0.61157639  0.64703810  0.14166631  1
  Bi  Bi18  1  0.14166631  0.61157639  0.64703810  1
  Bi  Bi19  1  0.34641624  0.36516924  0.61616884  1
  Bi  Bi20  1  0.38842361  0.14703810  0.35833369  1
  Bi  Bi21  1  0.35833369  0.38842361  0.14703810  1
  Bi  Bi22  1  0.61616884  0.34641624  0.36516924  1
  Bi  Bi23  1  0.63483076  0.11616884  0.15358376  1
  Bi  Bi24  1  0.11157639  0.85296190  0.85833369  1
  Bi  Bi25  1  0.84641624  0.13483076  0.38383116  1
  Bi  Bi26  1  0.14703810  0.35833369  0.38842361  1
  Bi  Bi27  1  0.88842361  0.35296190  0.64166631  1
  Bi  Bi28  1  0.36516924  0.61616884  0.34641624  1
  Bi  Bi29  1  0.88383116  0.65358376  0.86516924  1
  Bi  Bi30  1  0.64166631  0.88842361  0.35296190  1
  Bi  Bi31  1  0.64703810  0.14166631  0.61157639  1
  O  O32  1  0.46724449  0.96724449  0.53275551  1
  O  O33  1  0.77213664  0.77213664  0.77213664  1
  O  O34  1  0.23002234  0.50255656  0.24385917  1
  O  O35  1  0.26997766  0.49744344  0.74385917  1
  O  O36  1  0.12042432  0.74997495  0.44443220  1
  O  O37  1  0.22786336  0.27213664  0.72786336  1
  O  O38  1  0.25048503  0.05336203  0.14273468  1
  O  O39  1  0.72786336  0.22786336  0.27213664  1
  O  O40  1  0.76997766  1.00255656  0.25614083  1
  O  O41  1  0.24108175  0.47086256  0.50320063  1
  O  O42  1  0.52913744  0.00320063  0.25891825  1
  O  O43  1  0.24951497  0.94663797  0.64273468  1
  O  O44  1  0.53275551  0.46724449  0.96724449  1
  O  O45  1  0.78425848  0.21574152  0.71574152  1
  O  O46  1  0.24997495  0.05556780  0.87957568  1
  O  O47  1  0.74108175  0.02913744  0.49679937  1
  O  O48  1  0.35726532  0.74951497  0.55336203  1
  O  O49  1  0.55336203  0.35726532  0.74951497  1
  O  O50  1  0.75614083  0.73002234  -0.00255656  1
  O  O51  1  0.47318196  0.02681804  0.97318196  1
  O  O52  1  0.28425848  0.28425848  0.28425848  1
  O  O53  1  0.49679937  0.74108175  0.02913744  1
  O  O54  1  0.75891825  0.97086256  0.99679937  1
  O  O55  1  0.73002234  -0.00255656  0.75614083  1
  O  O56  1  0.03275551  0.03275551  0.03275551  1
  O  O57  1  0.21574152  0.71574152  0.78425848  1
  O  O58  1  0.25891825  0.52913744  0.00320063  1
  O  O59  1  0.85726532  0.75048503  0.44663797  1
  O  O60  1  0.94443220  0.37957568  0.25002505  1
  O  O61  1  0.52681804  0.52681804  0.52681804  1
  O  O62  1  0.24385917  0.23002234  0.50255656  1
  O  O63  1  0.44443220  0.12042432  0.74997495  1
  O  O64  1  0.99679937  0.75891825  0.97086256  1
  O  O65  1  0.97086256  0.99679937  0.75891825  1
  O  O66  1  0.02913744  0.49679937  0.74108175  1
  O  O67  1  0.37957568  0.25002505  0.94443220  1
  O  O68  1  1.00255656  0.25614083  0.76997766  1
  O  O69  1  0.62042432  0.75002505  0.55556780  1
  O  O70  1  0.94663797  0.64273468  0.24951497  1
  O  O71  1  0.74951497  0.55336203  0.35726532  1
  O  O72  1  0.05556780  0.87957568  0.24997495  1
  O  O73  1  0.55556780  0.62042432  0.75002505  1
  O  O74  1  0.71574152  0.78425848  0.21574152  1
  O  O75  1  0.75048503  0.44663797  0.85726532  1
  O  O76  1  0.74997495  0.44443220  0.12042432  1
  O  O77  1  0.25614083  0.76997766  1.00255656  1
  O  O78  1  0.87957568  0.24997495  0.05556780  1
  O  O79  1  -0.00255656  0.75614083  0.73002234  1
  O  O80  1  0.02681804  0.97318196  0.47318196  1
  O  O81  1  0.97318196  0.47318196  0.02681804  1
  O  O82  1  0.44663797  0.85726532  0.75048503  1
  O  O83  1  0.27213664  0.72786336  0.22786336  1
  O  O84  1  0.25002505  0.94443220  0.37957568  1
  O  O85  1  0.49744344  0.74385917  0.26997766  1
  O  O86  1  0.75002505  0.55556780  0.62042432  1
  O  O87  1  0.96724449  0.53275551  0.46724449  1
  O  O88  1  0.14273468  0.25048503  0.05336203  1
  O  O89  1  0.64273468  0.24951497  0.94663797  1
  O  O90  1  0.47086256  0.50320063  0.24108175  1
  O  O91  1  0.50255656  0.24385917  0.23002234  1
  O  O92  1  0.74385917  0.26997766  0.49744344  1
  O  O93  1  0.00320063  0.25891825  0.52913744  1
  O  O94  1  0.50320063  0.24108175  0.47086256  1
  O  O95  1  0.05336203  0.14273468  0.25048503  1
