# generated using pymatgen
data_Ta3(BiS3)2
_symmetry_space_group_name_H-M   'P 1'
_cell_length_a   5.75920674
_cell_length_b   5.75922076
_cell_length_c   17.58442871
_cell_angle_alpha   90.00000000
_cell_angle_beta   90.00000000
_cell_angle_gamma   119.99991738
_symmetry_Int_Tables_number   1
_chemical_formula_structural   Ta3(BiS3)2
_chemical_formula_sum   'Ta6 Bi4 S12'
_cell_volume   505.10963305
_cell_formula_units_Z   2
loop_
 _symmetry_equiv_pos_site_id
 _symmetry_equiv_pos_as_xyz
  1  'x, y, z'
loop_
 _atom_site_type_symbol
 _atom_site_label
 _atom_site_symmetry_multiplicity
 _atom_site_fract_x
 _atom_site_fract_y
 _atom_site_fract_z
 _atom_site_occupancy
  Ta  Ta0  1  0.32650122  1.00000000  0.75000028  1
  Ta  Ta1  1  0.67345538  0.67348273  0.74999986  1
  Ta  Ta2  1  0.99997265  0.32651727  0.74999986  1
  Ta  Ta3  1  0.67349878  0.00000000  0.25000028  1
  Ta  Ta4  1  0.32654462  0.32651727  0.24999986  1
  Ta  Ta5  1  0.00002735  0.67348273  0.24999986  1
  Bi  Bi6  1  0.33330722  0.66667017  0.50000003  1
  Bi  Bi7  1  0.66663705  0.33332983  0.50000003  1
  Bi  Bi8  1  0.66669278  0.33332983  0.00000003  1
  Bi  Bi9  1  0.33336295  0.66667017  0.00000003  1
  S  S10  1  0.99996225  -0.00000000  0.65889928  1
  S  S11  1  0.00003873  0.00000000  0.34110090  1
  S  S12  1  0.00003775  0.00000000  0.15889928  1
  S  S13  1  0.99996127  -0.00000000  0.84110090  1
  S  S14  1  0.33331306  0.66666781  0.66239578  1
  S  S15  1  0.66664525  0.33333219  0.66239578  1
  S  S16  1  0.66668504  0.33333310  0.33760410  1
  S  S17  1  0.33335194  0.66666690  0.33760410  1
  S  S18  1  0.66668694  0.33333219  0.16239578  1
  S  S19  1  0.33335475  0.66666781  0.16239578  1
  S  S20  1  0.33331496  0.66666690  0.83760410  1
  S  S21  1  0.66664806  0.33333310  0.83760410  1
