# generated using pymatgen
data_Li2(BH)11
_symmetry_space_group_name_H-M   'P 1'
_cell_length_a   6.92349608
_cell_length_b   6.92349608
_cell_length_c   7.12110423
_cell_angle_alpha   110.10984741
_cell_angle_beta   110.10984741
_cell_angle_gamma   106.98641456
_symmetry_Int_Tables_number   1
_chemical_formula_structural   Li2(BH)11
_chemical_formula_sum   'Li2 B11 H11'
_cell_volume   266.41709240
_cell_formula_units_Z   1
loop_
 _symmetry_equiv_pos_site_id
 _symmetry_equiv_pos_as_xyz
  1  'x, y, z'
loop_
 _atom_site_type_symbol
 _atom_site_label
 _atom_site_symmetry_multiplicity
 _atom_site_fract_x
 _atom_site_fract_y
 _atom_site_fract_z
 _atom_site_occupancy
  Li  Li0  1  0.98187132  0.01812868  0.50000000  1
  Li  Li1  1  0.48107631  0.51892369  0.50000000  1
  B  B2  1  0.80875655  0.90619410  0.71520830  1
  B  B3  1  0.09380590  0.19124345  0.28479170  1
  B  B4  1  0.65112716  0.87249363  0.84414313  1
  B  B5  1  0.12750637  0.34887284  0.15585687  1
  B  B6  1  0.97115667  0.19259019  0.84344961  1
  B  B7  1  0.80740981  0.02884333  0.15655039  1
  B  B8  1  0.66593677  0.07973153  0.74597905  1
  B  B9  1  0.92026847  0.33406323  0.25402095  1
  B  B10  1  0.86681169  0.35289256  0.99978104  1
  B  B11  1  0.64710744  0.13318831  0.00021896  1
  B  B12  1  0.99737501  0.00262499  -0.00000000  1
  H  H13  1  0.08800493  0.28519273  0.77593818  1
  H  H14  1  0.71480727  0.91199507  0.22406182  1
  H  H15  1  0.49127319  0.68824704  0.77714608  1
  H  H16  1  0.31175296  0.50872681  0.22285392  1
  H  H17  1  0.86997987  0.52621164  0.99960601  1
  H  H18  1  0.47378836  0.13002013  0.00039399  1
  H  H19  1  0.24254439  0.21211724  0.45416936  1
  H  H20  1  0.78788276  0.75745561  0.54583064  1
  H  H21  1  0.10541789  0.89458211  -0.00000000  1
  H  H22  1  0.51876336  0.06092444  0.58026946  1
  H  H23  1  0.93907556  0.48123664  0.41973054  1
