# generated using pymatgen
data_K3In3(PO4)4
_symmetry_space_group_name_H-M   'P 1'
_cell_length_a   9.84603805
_cell_length_b   9.98510404
_cell_length_c   16.06728932
_cell_angle_alpha   90.00000000
_cell_angle_beta   90.36481350
_cell_angle_gamma   90.00000000
_symmetry_Int_Tables_number   1
_chemical_formula_structural   K3In3(PO4)4
_chemical_formula_sum   'K12 In12 P16 O64'
_cell_volume   1579.60287126
_cell_formula_units_Z   4
loop_
 _symmetry_equiv_pos_site_id
 _symmetry_equiv_pos_as_xyz
  1  'x, y, z'
loop_
 _atom_site_type_symbol
 _atom_site_label
 _atom_site_symmetry_multiplicity
 _atom_site_fract_x
 _atom_site_fract_y
 _atom_site_fract_z
 _atom_site_occupancy
  K  K0  1  0.02486297  0.27120314  0.78601139  1
  K  K1  1  0.52486297  0.22879686  0.28601139  1
  K  K2  1  0.67330398  0.11004662  0.63225864  1
  K  K3  1  0.82669602  0.61004662  0.86774136  1
  K  K4  1  0.67079886  0.52631596  0.10171537  1
  K  K5  1  0.17079886  0.97368404  0.60171537  1
  K  K6  1  0.32920114  0.47368404  0.89828463  1
  K  K7  1  0.97513703  0.72879686  0.21398861  1
  K  K8  1  0.32669602  0.88995338  0.36774136  1
  K  K9  1  0.82920114  0.02631596  0.39828463  1
  K  K10  1  0.17330398  0.38995338  0.13225864  1
  K  K11  1  0.47513703  0.77120314  0.71398861  1
  In  In12  1  0.74404210  0.42495163  0.50941029  1
  In  In13  1  0.82398632  0.72857497  0.63504809  1
  In  In14  1  0.24404210  0.07504837  0.00941029  1
  In  In15  1  0.75595790  0.92495163  0.99058971  1
  In  In16  1  0.18872701  0.86043922  0.83886945  1
  In  In17  1  0.17601368  0.27142503  0.36495191  1
  In  In18  1  0.81127299  0.13956078  0.16113055  1
  In  In19  1  0.68872701  0.63956078  0.33886945  1
  In  In20  1  0.32398632  0.77142503  0.13504809  1
  In  In21  1  0.25595790  0.57504837  0.49058971  1
  In  In22  1  0.67601368  0.22857497  0.86495191  1
  In  In23  1  0.31127299  0.36043922  0.66113055  1
  P  P24  1  0.55696724  0.73259943  0.49515783  1
  P  P25  1  0.63702030  0.89737371  0.20474212  1
  P  P26  1  0.86576559  0.96851113  0.78799214  1
  P  P27  1  0.63423441  0.46851113  0.71200786  1
  P  P28  1  0.36297970  0.10262629  0.79525788  1
  P  P29  1  0.94303276  0.23259943  0.00484217  1
  P  P30  1  0.55297221  0.22244604  0.02568150  1
  P  P31  1  0.36576559  0.53148887  0.28799214  1
  P  P32  1  0.13702030  0.60262629  0.70474212  1
  P  P33  1  0.05696724  0.76740057  0.99515783  1
  P  P34  1  0.94702779  0.72244604  0.47431850  1
  P  P35  1  0.13423441  0.03148887  0.21200786  1
  P  P36  1  0.44702779  0.77755396  0.97431850  1
  P  P37  1  0.86297970  0.39737371  0.29525788  1
  P  P38  1  0.44303276  0.26740057  0.50484217  1
  P  P39  1  0.05297221  0.27755396  0.52568150  1
  O  O40  1  0.39933989  0.21136842  0.04222515  1
  O  O41  1  0.61295249  0.10101061  0.97324328  1
  O  O42  1  0.80569587  0.90205601  0.70833461  1
  O  O43  1  0.68309935  0.39218498  0.63468215  1
  O  O44  1  0.42109002  0.19019174  0.58771705  1
  O  O45  1  0.81157327  0.11500744  0.78702330  1
  O  O46  1  0.29390181  0.23597952  0.76932170  1
  O  O47  1  0.51848279  0.12237372  0.79849274  1
  O  O48  1  0.92526603  0.84483784  0.53371215  1
  O  O49  1  0.07473397  0.15516216  0.46628785  1
  O  O50  1  0.29781792  0.05931780  0.88076703  1
  O  O51  1  0.07890998  0.69019174  0.91228295  1
  O  O52  1  0.89019508  0.08731328  0.02856934  1
  O  O53  1  0.10980492  0.91268672  0.97143066  1
  O  O54  1  0.52340014  0.52678820  0.28323366  1
  O  O55  1  0.68842673  0.61500744  0.71297670  1
  O  O56  1  0.10066011  0.71136842  0.45777485  1
  O  O57  1  0.13663711  0.70764347  0.06979503  1
  O  O58  1  0.18309935  0.10781502  0.13468215  1
  O  O59  1  0.79390181  0.26402048  0.26932170  1
  O  O60  1  0.31690065  0.60781502  0.36531785  1
  O  O61  1  0.47659986  0.47321180  0.71676634  1
  O  O62  1  0.86336289  0.29235653  0.93020497  1
  O  O63  1  0.59558491  0.26957733  0.47949617  1
  O  O64  1  0.63663711  0.79235653  0.56979503  1
  O  O65  1  0.48151721  0.87762628  0.20150726  1
  O  O66  1  0.20609819  0.73597952  0.73067830  1
  O  O67  1  0.42526603  0.65516216  0.03371215  1
  O  O68  1  0.81690065  0.89218498  0.86531785  1
  O  O69  1  0.38704751  0.89898939  0.02675672  1
  O  O70  1  0.32427817  0.98291022  0.73936654  1
  O  O71  1  0.92109002  0.30980826  0.08771705  1
  O  O72  1  0.01848279  0.37762628  0.29849274  1
  O  O73  1  0.88704751  0.60101061  0.52675672  1
  O  O74  1  0.12796489  0.26140534  0.61017347  1
  O  O75  1  0.30569587  0.59794399  0.20833461  1
  O  O76  1  0.62796489  0.23859466  0.11017347  1
  O  O77  1  0.09558491  0.23042267  0.97949617  1
  O  O78  1  0.17572183  0.48291022  0.76063346  1
  O  O79  1  0.69430413  0.40205601  0.79166539  1
  O  O80  1  0.31157327  0.38499256  0.28702330  1
  O  O81  1  0.36336289  0.20764347  0.43020497  1
  O  O82  1  0.79781792  0.44068220  0.38076703  1
  O  O83  1  0.97659986  0.02678820  0.21676634  1
  O  O84  1  0.70609819  0.76402048  0.23067830  1
  O  O85  1  0.11295249  0.39898939  0.47324328  1
  O  O86  1  0.70218208  0.94068220  0.11923297  1
  O  O87  1  0.19430413  0.09794399  0.29166539  1
  O  O88  1  0.89933989  0.28863158  0.54222515  1
  O  O89  1  0.37203511  0.76140534  0.88982653  1
  O  O90  1  0.18842673  0.88499256  0.21297670  1
  O  O91  1  0.98151721  0.62237372  0.70150726  1
  O  O92  1  0.90441509  0.76957733  0.02050383  1
  O  O93  1  0.39019508  0.41268672  0.52856934  1
  O  O94  1  0.60066011  0.78863158  0.95777485  1
  O  O95  1  0.82427817  0.51708978  0.23936654  1
  O  O96  1  0.87203511  0.73859466  0.38982653  1
  O  O97  1  0.40441509  0.73042267  0.52050383  1
  O  O98  1  0.02340014  0.97321180  0.78323366  1
  O  O99  1  0.20218208  0.55931780  0.61923297  1
  O  O100  1  0.60980492  0.58731328  0.47143066  1
  O  O101  1  0.67572183  0.01708978  0.26063346  1
  O  O102  1  0.57473397  0.34483784  0.96628785  1
  O  O103  1  0.57890998  0.80980826  0.41228295  1
