# generated using pymatgen
data_K9Bi(PS4)4
_symmetry_space_group_name_H-M   'P 1'
_cell_length_a   9.09294034
_cell_length_b   9.79623542
_cell_length_c   18.60766722
_cell_angle_alpha   90.00000000
_cell_angle_beta   90.00000000
_cell_angle_gamma   90.00000000
_symmetry_Int_Tables_number   1
_chemical_formula_structural   K9Bi(PS4)4
_chemical_formula_sum   'K18 Bi2 P8 S32'
_cell_volume   1657.50743646
_cell_formula_units_Z   2
loop_
 _symmetry_equiv_pos_site_id
 _symmetry_equiv_pos_as_xyz
  1  'x, y, z'
loop_
 _atom_site_type_symbol
 _atom_site_label
 _atom_site_symmetry_multiplicity
 _atom_site_fract_x
 _atom_site_fract_y
 _atom_site_fract_z
 _atom_site_occupancy
  K  K0  1  0.14291907  0.00246333  0.57622418  1
  K  K1  1  0.12885095  0.51696732  0.41458512  1
  K  K2  1  0.47973459  0.76191953  0.73237020  1
  K  K3  1  0.50297334  0.24641929  0.25074656  1
  K  K4  1  0.50000000  0.76819954  0.50000000  1
  K  K5  1  0.62885095  0.48303268  0.08541488  1
  K  K6  1  0.35708093  0.99753667  0.07622418  1
  K  K7  1  0.85708093  0.00246333  0.42377582  1
  K  K8  1  0.00297334  0.75358071  0.24925344  1
  K  K9  1  0.99702666  0.75358071  0.75074656  1
  K  K10  1  0.49702666  0.24641929  0.74925344  1
  K  K11  1  0.37114905  0.48303268  0.91458512  1
  K  K12  1  0.00000000  0.23180046  0.00000000  1
  K  K13  1  0.64291907  0.99753667  0.92377582  1
  K  K14  1  0.02026541  0.23808047  0.23237020  1
  K  K15  1  0.97973459  0.23808047  0.76762980  1
  K  K16  1  0.52026541  0.76191953  0.26762980  1
  K  K17  1  0.87114905  0.51696732  0.58541488  1
  Bi  Bi18  1  0.50000000  0.27736825  0.50000000  1
  Bi  Bi19  1  0.00000000  0.72263175  0.00000000  1
  P  P20  1  0.79128354  0.50936261  0.87784073  1
  P  P21  1  0.72901898  0.02198350  0.63539539  1
  P  P22  1  0.70871646  0.49063739  0.37784073  1
  P  P23  1  0.29128354  0.49063739  0.62215927  1
  P  P24  1  0.22901898  0.97801650  0.86460461  1
  P  P25  1  0.27098102  0.02198350  0.36460461  1
  P  P26  1  0.77098102  0.97801650  0.13539539  1
  P  P27  1  0.20871646  0.50936261  0.12215927  1
  S  S28  1  0.76770627  1.00167717  0.24478428  1
  S  S29  1  0.30659036  0.15056717  0.91379500  1
  S  S30  1  0.78609590  0.33244649  0.44242228  1
  S  S31  1  0.64727654  0.81601438  0.10313798  1
  S  S32  1  0.85272346  0.18398562  0.60313798  1
  S  S33  1  0.51931406  0.48283449  0.60908185  1
  S  S34  1  0.71390410  0.66755351  0.94242228  1
  S  S35  1  0.98068594  0.51716551  0.10908185  1
  S  S36  1  0.70387609  0.33382303  0.91788055  1
  S  S37  1  0.69340964  0.15056717  0.08620500  1
  S  S38  1  0.76228655  0.47270650  0.27231460  1
  S  S39  1  0.14727654  0.18398562  0.39686202  1
  S  S40  1  0.01931406  0.51716551  0.89091815  1
  S  S41  1  0.26228655  0.52729350  0.22768540  1
  S  S42  1  0.48068594  0.48283449  0.39091815  1
  S  S43  1  0.00952751  0.94430393  0.89599957  1
  S  S44  1  0.26770627  -0.00167717  0.25521572  1
  S  S45  1  0.73229373  -0.00167717  0.74478428  1
  S  S46  1  0.99047249  0.94430393  0.10400043  1
  S  S47  1  0.79612391  0.66617697  0.41788055  1
  S  S48  1  0.23771345  0.47270650  0.72768540  1
  S  S49  1  0.21390410  0.33244649  0.55757772  1
  S  S50  1  0.35272346  0.81601438  0.89686202  1
  S  S51  1  0.28609590  0.66755351  0.05757772  1
  S  S52  1  0.19340964  0.84943283  0.41379500  1
  S  S53  1  0.29612391  0.33382303  0.08211945  1
  S  S54  1  0.20387609  0.66617697  0.58211945  1
  S  S55  1  0.23229373  1.00167717  0.75521572  1
  S  S56  1  0.73771345  0.52729350  0.77231460  1
  S  S57  1  0.50952751  0.05569607  0.60400043  1
  S  S58  1  0.80659036  0.84943283  0.58620500  1
  S  S59  1  0.49047249  0.05569607  0.39599957  1
