# generated using pymatgen
data_Mg2Ti5(PO4)6
_symmetry_space_group_name_H-M   'P 1'
_cell_length_a   6.47527345
_cell_length_b   8.05194551
_cell_length_c   9.47215294
_cell_angle_alpha   104.72092177
_cell_angle_beta   108.48403933
_cell_angle_gamma   101.52038290
_symmetry_Int_Tables_number   1
_chemical_formula_structural   Mg2Ti5(PO4)6
_chemical_formula_sum   'Mg2 Ti5 P6 O24'
_cell_volume   431.34642906
_cell_formula_units_Z   1
loop_
 _symmetry_equiv_pos_site_id
 _symmetry_equiv_pos_as_xyz
  1  'x, y, z'
loop_
 _atom_site_type_symbol
 _atom_site_label
 _atom_site_symmetry_multiplicity
 _atom_site_fract_x
 _atom_site_fract_y
 _atom_site_fract_z
 _atom_site_occupancy
  Mg  Mg0  1  0.28386772  0.30951059  0.78919069  1
  Mg  Mg1  1  0.71613228  0.69048941  0.21080931  1
  Ti  Ti2  1  0.04909248  0.21617693  0.02399766  1
  Ti  Ti3  1  0.95090752  0.78382307  0.97600234  1
  Ti  Ti4  1  0.59971383  0.03752855  0.38395610  1
  Ti  Ti5  1  0.40028617  0.96247145  0.61604390  1
  Ti  Ti6  1  0.00000000  0.50000000  0.50000000  1
  P  P7  1  0.22636133  0.64225115  0.26970398  1
  P  P8  1  0.77363867  0.35774885  0.73029602  1
  P  P9  1  0.07790684  0.08699761  0.33217166  1
  P  P10  1  0.92209316  0.91300239  0.66782834  1
  P  P11  1  0.60782962  0.27491914  0.13237048  1
  P  P12  1  0.39217038  0.72508086  0.86762952  1
  O  O13  1  0.38418992  0.28478826  0.00994090  1
  O  O14  1  0.61581008  0.71521174  0.99005910  1
  O  O15  1  0.20583391  0.44408810  0.20384213  1
  O  O16  1  0.79416609  0.55591190  0.79615787  1
  O  O17  1  0.54457458  0.13831119  0.21070124  1
  O  O18  1  0.45542542  0.86168881  0.78929876  1
  O  O19  1  0.73572208  0.46450443  0.26626835  1
  O  O20  1  0.26427792  0.53549557  0.73373165  1
  O  O21  1  0.05668655  0.04400614  0.15602890  1
  O  O22  1  0.94331345  0.95599386  0.84397110  1
  O  O23  1  0.75549502  0.22576456  0.03997430  1
  O  O24  1  0.24450498  0.77423544  0.96002570  1
  O  O25  1  0.29574618  0.03984567  0.41707946  1
  O  O26  1  0.70425382  0.96015433  0.58292054  1
  O  O27  1  0.54508271  0.24268193  0.72613614  1
  O  O28  1  0.45491729  0.75731807  0.27386386  1
  O  O29  1  0.09656866  0.28099689  0.41361755  1
  O  O30  1  0.90343134  0.71900311  0.58638245  1
  O  O31  1  0.13208513  0.04350278  0.66620874  1
  O  O32  1  0.86791487  0.95649722  0.33379126  1
  O  O33  1  0.01907213  0.68701444  0.16543125  1
  O  O34  1  0.98092787  0.31298556  0.83456875  1
  O  O35  1  0.22971864  0.68954367  0.44222663  1
  O  O36  1  0.77028136  0.31045633  0.55777337  1
