# generated using pymatgen
data_KYP2O7
_symmetry_space_group_name_H-M   'P 1'
_cell_length_a   7.70089734
_cell_length_b   8.71626067
_cell_length_c   11.08135241
_cell_angle_alpha   90.00000000
_cell_angle_beta   90.00000000
_cell_angle_gamma   106.95318811
_symmetry_Int_Tables_number   1
_chemical_formula_structural   KYP2O7
_chemical_formula_sum   'K4 Y4 P8 O28'
_cell_volume   711.49024376
_cell_formula_units_Z   4
loop_
 _symmetry_equiv_pos_site_id
 _symmetry_equiv_pos_as_xyz
  1  'x, y, z'
loop_
 _atom_site_type_symbol
 _atom_site_label
 _atom_site_symmetry_multiplicity
 _atom_site_fract_x
 _atom_site_fract_y
 _atom_site_fract_z
 _atom_site_occupancy
  K  K0  1  0.81881362  0.42931235  0.82175860  1
  K  K1  1  0.81881362  0.92931235  0.67824140  1
  K  K2  1  0.18118638  0.07068765  0.32175860  1
  K  K3  1  0.18118638  0.57068765  0.17824140  1
  Y  Y4  1  0.23107819  0.74868598  0.59525615  1
  Y  Y5  1  0.76892181  0.75131402  0.09525615  1
  Y  Y6  1  0.23107819  0.24868598  0.90474385  1
  Y  Y7  1  0.76892181  0.25131402  0.40474385  1
  P  P8  1  0.87137963  0.19175118  0.10300719  1
  P  P9  1  0.12862037  0.30824882  0.60300719  1
  P  P10  1  0.87137963  0.69175118  0.39699281  1
  P  P11  1  0.12862037  0.80824882  0.89699281  1
  P  P12  1  0.55505545  0.80971731  0.35669212  1
  P  P13  1  0.44494455  0.69028269  0.85669212  1
  P  P14  1  0.44494455  0.19028269  0.64330788  1
  P  P15  1  0.55505545  0.30971731  0.14330788  1
  O  O16  1  0.36629212  0.25676071  0.08583642  1
  O  O17  1  0.86743908  0.01691560  0.09627596  1
  O  O18  1  0.06838997  0.23480265  0.72794037  1
  O  O19  1  0.93161003  0.26519735  0.22794037  1
  O  O20  1  0.86743908  0.51691560  0.40372404  1
  O  O21  1  0.33573822  0.30401024  0.57885080  1
  O  O22  1  0.66060023  0.98249920  0.38696329  1
  O  O23  1  0.98664515  0.79240261  0.49836329  1
  O  O24  1  0.01335485  0.70759739  0.99836329  1
  O  O25  1  0.66426178  0.69598976  0.42114920  1
  O  O26  1  0.36629212  0.75676071  0.41416358  1
  O  O27  1  0.54308943  0.26957003  0.27829943  1
  O  O28  1  0.01335485  0.20759739  0.50163671  1
  O  O29  1  0.66426178  0.19598976  0.07885080  1
  O  O30  1  0.93161003  0.76519735  0.27205963  1
  O  O31  1  0.13256092  0.98308440  0.90372404  1
  O  O32  1  0.33573822  0.80401024  0.92114920  1
  O  O33  1  0.33939977  0.51750080  0.88696329  1
  O  O34  1  0.63370788  0.24323929  0.58583642  1
  O  O35  1  0.45691057  0.73042997  0.72170057  1
  O  O36  1  0.13256092  0.48308440  0.59627596  1
  O  O37  1  0.33939977  0.01750080  0.61303671  1
  O  O38  1  0.63370788  0.74323929  0.91416358  1
  O  O39  1  0.66060023  0.48249920  0.11303671  1
  O  O40  1  0.98664515  0.29240261  0.00163671  1
  O  O41  1  0.54308943  0.76957003  0.22170057  1
  O  O42  1  0.06838997  0.73480265  0.77205963  1
  O  O43  1  0.45691057  0.23042997  0.77829943  1
