# generated using pymatgen
data_K(OsO3)2
_symmetry_space_group_name_H-M   'P 1'
_cell_length_a   5.68626117
_cell_length_b   6.52279858
_cell_length_c   7.35605866
_cell_angle_alpha   65.48243623
_cell_angle_beta   70.50012317
_cell_angle_gamma   75.77238936
_symmetry_Int_Tables_number   1
_chemical_formula_structural   K(OsO3)2
_chemical_formula_sum   'K2 Os4 O12'
_cell_volume   232.16256775
_cell_formula_units_Z   2
loop_
 _symmetry_equiv_pos_site_id
 _symmetry_equiv_pos_as_xyz
  1  'x, y, z'
loop_
 _atom_site_type_symbol
 _atom_site_label
 _atom_site_symmetry_multiplicity
 _atom_site_fract_x
 _atom_site_fract_y
 _atom_site_fract_z
 _atom_site_occupancy
  K  K0  1  0.80733688  0.29886653  0.10977328  1
  K  K1  1  0.19266312  0.70113347  0.89022672  1
  Os  Os2  1  0.81546474  0.64251787  0.54670094  1
  Os  Os3  1  0.18453526  0.35748213  0.45329906  1
  Os  Os4  1  0.36656537  0.91246040  0.23668774  1
  Os  Os5  1  0.63343463  0.08753960  0.76331226  1
  O  O6  1  0.30338648  0.03948038  0.96266702  1
  O  O7  1  0.01455389  0.89026112  0.37400346  1
  O  O8  1  0.30116966  0.21708686  0.23948198  1
  O  O9  1  0.90056794  0.52025670  0.32558185  1
  O  O10  1  0.37649737  0.60822362  0.26057569  1
  O  O11  1  0.51525713  0.81140138  0.45916571  1
  O  O12  1  0.48474287  0.18859862  0.54083429  1
  O  O13  1  0.62350263  0.39177638  0.73942431  1
  O  O14  1  0.69661352  0.96051962  0.03733298  1
  O  O15  1  0.98544611  0.10973888  0.62599654  1
  O  O16  1  0.69883034  0.78291314  0.76051802  1
  O  O17  1  0.09943206  0.47974330  0.67441815  1
