# generated using pymatgen
data_Bi5IO7
_symmetry_space_group_name_H-M   'P 1'
_cell_length_a   5.49089365
_cell_length_b   14.73707740
_cell_length_c   14.73707725
_cell_angle_alpha   68.75222502
_cell_angle_beta   79.26334534
_cell_angle_gamma   79.26334732
_symmetry_Int_Tables_number   1
_chemical_formula_structural   Bi5IO7
_chemical_formula_sum   'Bi20 I4 O28'
_cell_volume   1082.77164691
_cell_formula_units_Z   4
loop_
 _symmetry_equiv_pos_site_id
 _symmetry_equiv_pos_as_xyz
  1  'x, y, z'
loop_
 _atom_site_type_symbol
 _atom_site_label
 _atom_site_symmetry_multiplicity
 _atom_site_fract_x
 _atom_site_fract_y
 _atom_site_fract_z
 _atom_site_occupancy
  Bi  Bi0  1  0.23030699  0.38279481  0.73695747  1
  Bi  Bi1  1  0.48091218  0.48266494  0.13849166  1
  Bi  Bi2  1  0.64994072  0.88279481  0.23695747  1
  Bi  Bi3  1  0.14994072  0.73695747  0.38279481  1
  Bi  Bi4  1  0.26969301  0.76304253  0.11720519  1
  Bi  Bi5  1  0.60206878  0.86150834  0.51733506  1
  Bi  Bi6  1  0.35005928  0.11720519  0.76304253  1
  Bi  Bi7  1  0.98091218  0.63849166  0.98266494  1
  Bi  Bi8  1  0.70254587  0.54745413  0.54745413  1
  Bi  Bi9  1  0.85005928  0.26304253  0.61720519  1
  Bi  Bi10  1  0.76969301  0.61720519  0.26304253  1
  Bi  Bi11  1  0.79745413  0.95254587  0.95254587  1
  Bi  Bi12  1  0.89793122  0.98266494  0.63849166  1
  Bi  Bi13  1  0.10206878  0.01733506  0.36150834  1
  Bi  Bi14  1  0.51908782  0.51733506  0.86150834  1
  Bi  Bi15  1  0.73030699  0.23695747  0.88279481  1
  Bi  Bi16  1  0.20254587  0.04745413  0.04745413  1
  Bi  Bi17  1  0.01908782  0.36150834  0.01733506  1
  Bi  Bi18  1  0.39793122  0.13849166  0.48266494  1
  Bi  Bi19  1  0.29745413  0.45254587  0.45254587  1
  I  I20  1  0.40678448  0.84321552  0.84321552  1
  I  I21  1  0.09321552  0.65678448  0.65678448  1
  I  I22  1  0.90678448  0.34321552  0.34321552  1
  I  I23  1  0.59321552  0.15678448  0.15678448  1
  O  O24  1  0.47619507  0.42342650  0.58437715  1
  O  O25  1  0.97619507  0.08437715  0.92342650  1
  O  O26  1  0.72496192  0.79049251  0.40932757  1
  O  O27  1  0.96684629  0.90609006  0.49442375  1
  O  O28  1  0.92478200  0.70950749  0.09067243  1
  O  O29  1  0.27503808  0.20950749  0.59067243  1
  O  O30  1  0.51600128  0.92342650  0.08437715  1
  O  O31  1  0.46684629  0.99442375  0.40609006  1
  O  O32  1  0.77503808  0.09067243  0.70950749  1
  O  O33  1  0.86736011  0.50557625  0.09390994  1
  O  O34  1  0.50135208  0.25000000  0.75000000  1
  O  O35  1  0.52380493  0.57657350  0.41562285  1
  O  O36  1  0.07521800  0.29049251  0.90932757  1
  O  O37  1  0.13263989  0.49442375  0.90609006  1
  O  O38  1  0.36736011  0.59390994  0.00557625  1
  O  O39  1  0.57521800  0.40932757  0.79049251  1
  O  O40  1  0.00135208  0.25000000  0.75000000  1
  O  O41  1  0.42478200  0.59067243  0.20950749  1
  O  O42  1  0.48399872  0.07657350  0.91562285  1
  O  O43  1  0.01600128  0.58437715  0.42342650  1
  O  O44  1  0.03315371  0.09390994  0.50557625  1
  O  O45  1  0.53315371  0.00557625  0.59390994  1
  O  O46  1  0.99864792  0.75000000  0.25000000  1
  O  O47  1  0.63263989  0.40609006  0.99442375  1
  O  O48  1  0.49864792  0.75000000  0.25000000  1
  O  O49  1  0.98399872  0.41562285  0.57657350  1
  O  O50  1  0.22496192  0.90932757  0.29049251  1
  O  O51  1  0.02380493  0.91562285  0.07657350  1
