# generated using pymatgen
data_Gd4Ti(SeO)4
_symmetry_space_group_name_H-M   'P 1'
_cell_length_a   3.77731670
_cell_length_b   8.20491489
_cell_length_c   9.47675935
_cell_angle_alpha   66.69814427
_cell_angle_beta   78.50433792
_cell_angle_gamma   76.69196380
_symmetry_Int_Tables_number   1
_chemical_formula_structural   Gd4Ti(SeO)4
_chemical_formula_sum   'Gd4 Ti1 Se4 O4'
_cell_volume   260.57642956
_cell_formula_units_Z   1
loop_
 _symmetry_equiv_pos_site_id
 _symmetry_equiv_pos_as_xyz
  1  'x, y, z'
loop_
 _atom_site_type_symbol
 _atom_site_label
 _atom_site_symmetry_multiplicity
 _atom_site_fract_x
 _atom_site_fract_y
 _atom_site_fract_z
 _atom_site_occupancy
  Gd  Gd0  1  0.47520769  0.71902423  0.33056038  1
  Gd  Gd1  1  0.52479231  0.28097577  0.66943962  1
  Gd  Gd2  1  0.77641852  0.12123144  0.32593151  1
  Gd  Gd3  1  0.22358148  0.87876856  0.67406849  1
  Ti  Ti4  1  0.00000000  0.00000000  0.00000000  1
  Se  Se5  1  0.11551610  0.40073635  0.36823145  1
  Se  Se6  1  0.62146100  0.77318286  0.98389514  1
  Se  Se7  1  0.88448390  0.59926365  0.63176855  1
  Se  Se8  1  0.37853900  0.22681714  0.01610486  1
  O  O9  1  0.68291529  0.04411715  0.59005226  1
  O  O10  1  0.05158318  0.11740789  0.77942576  1
  O  O11  1  0.94841682  0.88259211  0.22057424  1
  O  O12  1  0.31708471  0.95588285  0.40994774  1
