# generated using pymatgen
data_Ba5Os3ClO15
_symmetry_space_group_name_H-M   'P 1'
_cell_length_a   11.11547649
_cell_length_b   11.11547685
_cell_length_c   7.97483510
_cell_angle_alpha   90.00000000
_cell_angle_beta   90.00000000
_cell_angle_gamma   119.99999895
_symmetry_Int_Tables_number   1
_chemical_formula_structural   Ba5Os3ClO15
_chemical_formula_sum   'Ba10 Os6 Cl2 O30'
_cell_volume   853.31333191
_cell_formula_units_Z   2
loop_
 _symmetry_equiv_pos_site_id
 _symmetry_equiv_pos_as_xyz
  1  'x, y, z'
loop_
 _atom_site_type_symbol
 _atom_site_label
 _atom_site_symmetry_multiplicity
 _atom_site_fract_x
 _atom_site_fract_y
 _atom_site_fract_z
 _atom_site_occupancy
  Ba  Ba0  1  1.00000000  0.26485700  0.76772709  1
  Ba  Ba1  1  0.00000000  0.73514300  0.26772709  1
  Ba  Ba2  1  0.26485700  0.26485700  0.26772709  1
  Ba  Ba3  1  0.73514300  0.00000000  0.26772709  1
  Ba  Ba4  1  0.26485700  0.00000000  0.76772709  1
  Ba  Ba5  1  0.66666700  0.33333300  0.50389753  1
  Ba  Ba6  1  0.73514300  0.73514300  0.76772709  1
  Ba  Ba7  1  0.33333300  0.66666700  0.50389753  1
  Ba  Ba8  1  0.66666700  0.33333300  0.00389753  1
  Ba  Ba9  1  0.33333300  0.66666700  0.00389753  1
  Os  Os10  1  0.38787861  0.00000000  0.21515226  1
  Os  Os11  1  0.00000000  0.61212139  0.71515226  1
  Os  Os12  1  0.61212139  0.61212139  0.21515226  1
  Os  Os13  1  0.38787861  0.38787861  0.71515226  1
  Os  Os14  1  1.00000000  0.38787861  0.21515226  1
  Os  Os15  1  0.61212139  0.00000000  0.71515226  1
  Cl  Cl16  1  0.00000000  0.00000000  0.03915441  1
  Cl  Cl17  1  0.00000000  0.00000000  0.53915441  1
  O  O18  1  0.25727643  0.86875269  0.06851202  1
  O  O19  1  0.55376974  0.42381528  0.24732785  1
  O  O20  1  0.38852374  0.13124731  0.06851202  1
  O  O21  1  0.87004553  0.42381528  0.74732785  1
  O  O22  1  0.44623026  0.57618472  0.74732785  1
  O  O23  1  0.55376974  0.12995447  0.74732785  1
  O  O24  1  0.57618472  0.44623026  0.74732785  1
  O  O25  1  0.29364746  0.00000000  0.39035777  1
  O  O26  1  0.13124731  0.38852374  0.06851202  1
  O  O27  1  0.29364746  0.29364746  0.89035777  1
  O  O28  1  1.00000000  0.70635254  0.89035777  1
  O  O29  1  0.70635254  0.00000000  0.89035777  1
  O  O30  1  0.42381528  0.55376974  0.24732785  1
  O  O31  1  0.70635254  0.70635254  0.39035777  1
  O  O32  1  0.00000000  0.29364746  0.39035777  1
  O  O33  1  0.12995447  0.55376974  0.74732785  1
  O  O34  1  0.61147626  0.86875269  0.56851202  1
  O  O35  1  0.38852374  0.25727643  0.56851202  1
  O  O36  1  0.74272357  0.13124731  0.56851202  1
  O  O37  1  0.86875269  0.25727643  0.06851202  1
  O  O38  1  0.25727643  0.38852374  0.56851202  1
  O  O39  1  0.87004553  0.44623026  0.24732785  1
  O  O40  1  0.61147626  0.74272357  0.06851202  1
  O  O41  1  0.12995447  0.57618472  0.24732785  1
  O  O42  1  0.44623026  0.87004553  0.24732785  1
  O  O43  1  0.74272357  0.61147626  0.06851202  1
  O  O44  1  0.13124731  0.74272357  0.56851202  1
  O  O45  1  0.57618472  0.12995447  0.24732785  1
  O  O46  1  0.42381528  0.87004553  0.74732785  1
  O  O47  1  0.86875269  0.61147626  0.56851202  1
