# generated using pymatgen
data_TeBrO3F5
_symmetry_space_group_name_H-M   'P 1'
_cell_length_a   5.43041568
_cell_length_b   6.40319623
_cell_length_c   20.17216404
_cell_angle_alpha   90.00000000
_cell_angle_beta   90.30076102
_cell_angle_gamma   90.00000000
_symmetry_Int_Tables_number   1
_chemical_formula_structural   TeBrO3F5
_chemical_formula_sum   'Te4 Br4 O12 F20'
_cell_volume   701.41717155
_cell_formula_units_Z   4
loop_
 _symmetry_equiv_pos_site_id
 _symmetry_equiv_pos_as_xyz
  1  'x, y, z'
loop_
 _atom_site_type_symbol
 _atom_site_label
 _atom_site_symmetry_multiplicity
 _atom_site_fract_x
 _atom_site_fract_y
 _atom_site_fract_z
 _atom_site_occupancy
  Te  Te0  1  0.75237375  0.28172131  0.09069211  1
  Te  Te1  1  0.24762625  0.78172131  0.40930789  1
  Te  Te2  1  0.75237375  0.21827869  0.59069211  1
  Te  Te3  1  0.24762625  0.71827869  0.90930789  1
  Br  Br4  1  0.24614866  0.82978420  0.74111814  1
  Br  Br5  1  0.24614866  0.67021580  0.24111814  1
  Br  Br6  1  0.75385134  0.17021580  0.25888186  1
  Br  Br7  1  0.75385134  0.32978420  0.75888186  1
  O  O8  1  0.39531769  0.81908640  0.18976099  1
  O  O9  1  0.61706985  0.31339120  0.17795186  1
  O  O10  1  0.04725003  0.27315283  0.75809623  1
  O  O11  1  0.39531769  0.68091360  0.68976099  1
  O  O12  1  0.60468231  0.18091360  0.81023901  1
  O  O13  1  0.60468231  0.31908640  0.31023901  1
  O  O14  1  0.95274997  0.77315283  0.74190377  1
  O  O15  1  0.04725003  0.22684717  0.25809623  1
  O  O16  1  0.38293015  0.81339120  0.32204814  1
  O  O17  1  0.95274997  0.72684717  0.24190377  1
  O  O18  1  0.61706985  0.18660880  0.67795186  1
  O  O19  1  0.38293015  0.68660880  0.82204814  1
  F  F20  1  0.88512777  0.24292807  0.50596382  1
  F  F21  1  0.89502487  0.47649088  0.61364870  1
  F  F22  1  0.95296614  0.91711121  0.38363994  1
  F  F23  1  0.46920517  0.14528746  0.05989616  1
  F  F24  1  0.46920517  0.35471254  0.55989616  1
  F  F25  1  0.04703386  0.41711121  0.11636006  1
  F  F26  1  0.04703386  0.08288879  0.61636006  1
  F  F27  1  0.10497513  0.97649088  0.88635130  1
  F  F28  1  0.88512777  0.25707193  0.00596382  1
  F  F29  1  0.53079483  0.85471254  0.94010384  1
  F  F30  1  0.10497513  0.52350912  0.38635130  1
  F  F31  1  0.11487223  0.75707193  0.49403618  1
  F  F32  1  0.38364020  0.45933126  0.93236704  1
  F  F33  1  0.89502487  0.02350912  0.11364870  1
  F  F34  1  0.61635980  0.54066874  0.06763296  1
  F  F35  1  0.95296614  0.58288879  0.88363994  1
  F  F36  1  0.53079483  0.64528746  0.44010384  1
  F  F37  1  0.61635980  0.95933126  0.56763296  1
  F  F38  1  0.38364020  0.04066874  0.43236704  1
  F  F39  1  0.11487223  0.74292807  0.99403618  1
