# generated using pymatgen
data_Pr6S4BrN3
_symmetry_space_group_name_H-M   'P 1'
_cell_length_a   4.06881052
_cell_length_b   11.61117262
_cell_length_c   27.60688059
_cell_angle_alpha   90.00000000
_cell_angle_beta   90.00000000
_cell_angle_gamma   90.00000000
_symmetry_Int_Tables_number   1
_chemical_formula_structural   Pr6S4BrN3
_chemical_formula_sum   'Pr24 S16 Br4 N12'
_cell_volume   1304.25011630
_cell_formula_units_Z   4
loop_
 _symmetry_equiv_pos_site_id
 _symmetry_equiv_pos_as_xyz
  1  'x, y, z'
loop_
 _atom_site_type_symbol
 _atom_site_label
 _atom_site_symmetry_multiplicity
 _atom_site_fract_x
 _atom_site_fract_y
 _atom_site_fract_z
 _atom_site_occupancy
  Pr  Pr0  1  0.75000000  0.75479133  0.67100592  1
  Pr  Pr1  1  0.25000000  0.74846494  0.43597879  1
  Pr  Pr2  1  0.25000000  0.24846494  0.06402121  1
  Pr  Pr3  1  0.25000000  0.87426439  0.78322547  1
  Pr  Pr4  1  0.25000000  0.40046967  0.46449830  1
  Pr  Pr5  1  0.25000000  0.90046967  0.03550170  1
  Pr  Pr6  1  0.25000000  0.74520867  0.17100592  1
  Pr  Pr7  1  0.25000000  0.94127907  0.57797670  1
  Pr  Pr8  1  0.25000000  0.37426439  0.71677453  1
  Pr  Pr9  1  0.75000000  0.25153506  0.56402121  1
  Pr  Pr10  1  0.25000000  0.24520867  0.32899408  1
  Pr  Pr11  1  0.75000000  0.56106914  0.80757462  1
  Pr  Pr12  1  0.75000000  0.25479133  0.82899408  1
  Pr  Pr13  1  0.75000000  0.75153506  0.93597879  1
  Pr  Pr14  1  0.25000000  0.93893086  0.30757462  1
  Pr  Pr15  1  0.75000000  0.09953033  0.96449830  1
  Pr  Pr16  1  0.25000000  0.43893086  0.19242538  1
  Pr  Pr17  1  0.75000000  0.06106914  0.69242538  1
  Pr  Pr18  1  0.75000000  0.12573561  0.21677453  1
  Pr  Pr19  1  0.75000000  0.05872093  0.42202330  1
  Pr  Pr20  1  0.75000000  0.62573561  0.28322547  1
  Pr  Pr21  1  0.75000000  0.59953033  0.53550170  1
  Pr  Pr22  1  0.75000000  0.55872093  0.07797670  1
  Pr  Pr23  1  0.25000000  0.44127907  0.92202330  1
  S  S24  1  0.75000000  0.30987759  0.13761633  1
  S  S25  1  0.75000000  0.29365455  0.39748801  1
  S  S26  1  0.25000000  0.70634545  0.60251199  1
  S  S27  1  0.75000000  0.35618185  0.00582549  1
  S  S28  1  0.25000000  0.69012241  0.86238367  1
  S  S29  1  0.25000000  0.64381815  0.99417451  1
  S  S30  1  0.75000000  0.79365455  0.10251199  1
  S  S31  1  0.25000000  0.20634545  0.89748801  1
  S  S32  1  0.75000000  0.85618185  0.49417451  1
  S  S33  1  0.25000000  0.63482104  0.73587643  1
  S  S34  1  0.75000000  0.86517896  0.23587643  1
  S  S35  1  0.25000000  0.14381815  0.50582549  1
  S  S36  1  0.25000000  0.19012241  0.63761633  1
  S  S37  1  0.25000000  0.13482104  0.76412357  1
  S  S38  1  0.75000000  0.36517896  0.26412357  1
  S  S39  1  0.75000000  0.80987759  0.36238367  1
  Br  Br40  1  0.75000000  0.46112320  0.63744836  1
  Br  Br41  1  0.25000000  0.03887680  0.13744836  1
  Br  Br42  1  0.25000000  0.53887680  0.36255164  1
  Br  Br43  1  0.75000000  0.96112320  0.86255164  1
  N  N44  1  0.25000000  0.56248866  0.12512334  1
  N  N45  1  0.75000000  0.88630254  0.73763956  1
  N  N46  1  0.25000000  0.59836198  0.48620746  1
  N  N47  1  0.25000000  0.11369746  0.26236044  1
  N  N48  1  0.75000000  0.43751134  0.87487666  1
  N  N49  1  0.75000000  0.40163802  0.51379254  1
  N  N50  1  0.75000000  0.90163802  0.98620746  1
  N  N51  1  0.25000000  0.61369746  0.23763956  1
  N  N52  1  0.75000000  0.38630254  0.76236044  1
  N  N53  1  0.25000000  0.06248866  0.37487666  1
  N  N54  1  0.25000000  0.09836198  0.01379254  1
  N  N55  1  0.75000000  0.93751134  0.62512334  1
