# generated using pymatgen
data_Li4P2O7
_symmetry_space_group_name_H-M   'P 1'
_cell_length_a   5.25963352
_cell_length_b   7.98961662
_cell_length_c   14.11846839
_cell_angle_alpha   90.00000000
_cell_angle_beta   90.00000000
_cell_angle_gamma   90.06635321
_symmetry_Int_Tables_number   1
_chemical_formula_structural   Li4P2O7
_chemical_formula_sum   'Li16 P8 O28'
_cell_volume   593.29231039
_cell_formula_units_Z   4
loop_
 _symmetry_equiv_pos_site_id
 _symmetry_equiv_pos_as_xyz
  1  'x, y, z'
loop_
 _atom_site_type_symbol
 _atom_site_label
 _atom_site_symmetry_multiplicity
 _atom_site_fract_x
 _atom_site_fract_y
 _atom_site_fract_z
 _atom_site_occupancy
  Li  Li0  1  0.19769891  0.05146839  0.21691059  1
  Li  Li1  1  0.80322458  0.54577508  0.82509542  1
  Li  Li2  1  0.82005003  0.55905216  0.05807816  1
  Li  Li3  1  0.32956049  0.43160778  0.39360133  1
  Li  Li4  1  0.32005003  0.05905216  0.44192184  1
  Li  Li5  1  0.69769891  0.55146839  0.28308941  1
  Li  Li6  1  0.19677542  0.45422492  0.17490458  1
  Li  Li7  1  0.17043951  0.06839222  0.89360133  1
  Li  Li8  1  0.17994997  0.44094784  0.94192184  1
  Li  Li9  1  0.69677542  0.95422492  0.32509542  1
  Li  Li10  1  0.67043951  0.56839222  0.60639867  1
  Li  Li11  1  0.30230109  0.44853161  0.71691059  1
  Li  Li12  1  0.82956049  0.93160778  0.10639867  1
  Li  Li13  1  0.30322458  0.04577508  0.67490458  1
  Li  Li14  1  0.80230109  0.94853161  0.78308941  1
  Li  Li15  1  0.67994997  0.94094784  0.55807816  1
  P  P16  1  0.67295211  0.23665606  0.94881219  1
  P  P17  1  0.82704789  0.26334394  0.44881219  1
  P  P18  1  0.81838873  0.26145663  0.66646285  1
  P  P19  1  0.18161127  0.73854337  0.33353715  1
  P  P20  1  0.32704789  0.76334394  0.05118781  1
  P  P21  1  0.17295211  0.73665606  0.55118781  1
  P  P22  1  0.68161127  0.23854337  0.16646285  1
  P  P23  1  0.31838873  0.76145663  0.83353715  1
  O  O24  1  0.88762576  0.74628763  0.56927132  1
  O  O25  1  0.68323732  0.40379938  0.71965521  1
  O  O26  1  0.11237424  0.25371237  0.43072868  1
  O  O27  1  0.18814986  0.89340322  0.11000517  1
  O  O28  1  0.31676268  0.59620062  0.28034479  1
  O  O29  1  0.21351170  0.66600604  0.44228231  1
  O  O30  1  0.81676268  0.09620062  0.21965521  1
  O  O31  1  0.60056746  0.74819336  0.81078008  1
  O  O32  1  0.39943254  0.25180664  0.18921992  1
  O  O33  1  0.31185014  0.60659678  0.61000517  1
  O  O34  1  0.78648830  0.33399396  0.55771769  1
  O  O35  1  0.18183043  0.59119287  0.82915268  1
  O  O36  1  0.19974426  0.58923140  0.05331877  1
  O  O37  1  0.68814986  0.39340322  0.38999483  1
  O  O38  1  0.80025574  0.41076860  0.94668123  1
  O  O39  1  0.81185014  0.10659678  0.88999483  1
  O  O40  1  0.31816957  0.90880713  0.32915268  1
  O  O41  1  0.81816957  0.40880713  0.17084732  1
  O  O42  1  0.68183043  0.09119287  0.67084732  1
  O  O43  1  0.61237424  0.75371237  0.06927132  1
  O  O44  1  0.69974426  0.08923140  0.44668123  1
  O  O45  1  0.38762576  0.24628763  0.93072868  1
  O  O46  1  0.89943254  0.75180664  0.31078008  1
  O  O47  1  0.18323732  0.90379938  0.78034479  1
  O  O48  1  0.30025574  0.91076860  0.55331877  1
  O  O49  1  0.28648830  0.83399396  0.94228231  1
  O  O50  1  0.71351170  0.16600604  0.05771769  1
  O  O51  1  0.10056746  0.24819336  0.68921992  1
