# generated using pymatgen
data_Rb2SbCl3F2
_symmetry_space_group_name_H-M   'P 1'
_cell_length_a   7.64394369
_cell_length_b   7.63721311
_cell_length_c   13.40636799
_cell_angle_alpha   78.91016932
_cell_angle_beta   84.55632702
_cell_angle_gamma   60.68956691
_symmetry_Int_Tables_number   1
_chemical_formula_structural   Rb2SbCl3F2
_chemical_formula_sum   'Rb6 Sb3 Cl9 F6'
_cell_volume   669.70515429
_cell_formula_units_Z   3
loop_
 _symmetry_equiv_pos_site_id
 _symmetry_equiv_pos_as_xyz
  1  'x, y, z'
loop_
 _atom_site_type_symbol
 _atom_site_label
 _atom_site_symmetry_multiplicity
 _atom_site_fract_x
 _atom_site_fract_y
 _atom_site_fract_z
 _atom_site_occupancy
  Rb  Rb0  1  0.66834793  0.69430689  0.91050824  1
  Rb  Rb1  1  0.66251974  0.56477719  0.30699719  1
  Rb  Rb2  1  0.99986572  0.89894342  0.31670755  1
  Rb  Rb3  1  0.33165207  0.30569311  0.08949176  1
  Rb  Rb4  1  0.33748026  0.43522281  0.69300281  1
  Rb  Rb5  1  0.00013428  0.10105658  0.68329245  1
  Sb  Sb6  1  0.66521053  0.79960298  0.60195497  1
  Sb  Sb7  1  0.33478947  0.20039702  0.39804503  1
  Sb  Sb8  1  0.00000000  0.00000000  0.00000000  1
  Cl  Cl9  1  0.21425140  0.71528461  0.88354160  1
  Cl  Cl10  1  0.31798512  0.81415579  0.50169026  1
  Cl  Cl11  1  0.68201488  0.18584421  0.49830974  1
  Cl  Cl12  1  0.67516339  0.14570656  0.88425520  1
  Cl  Cl13  1  0.89419720  0.74160236  0.11756431  1
  Cl  Cl14  1  0.78574860  0.28471539  0.11645840  1
  Cl  Cl15  1  0.00000000  0.50000000  0.50000000  1
  Cl  Cl16  1  0.10580280  0.25839764  0.88243569  1
  Cl  Cl17  1  0.32483661  0.85429344  0.11574480  1
  F  F18  1  0.33721953  0.43708617  0.30492186  1
  F  F19  1  0.12625493  0.23078319  0.30666702  1
  F  F20  1  0.45534870  0.98252006  0.69148109  1
  F  F21  1  0.54465130  0.01747994  0.30851891  1
  F  F22  1  0.87374507  0.76921681  0.69333298  1
  F  F23  1  0.66278047  0.56291383  0.69507814  1
