# generated using pymatgen
data_PrZr2F11
_symmetry_space_group_name_H-M   'P 1'
_cell_length_a   7.90108171
_cell_length_b   8.51402682
_cell_length_c   8.51402695
_cell_angle_alpha   73.62623444
_cell_angle_beta   62.35423237
_cell_angle_gamma   62.35422924
_symmetry_Int_Tables_number   1
_chemical_formula_structural   PrZr2F11
_chemical_formula_sum   'Pr2 Zr4 F22'
_cell_volume   447.80661335
_cell_formula_units_Z   2
loop_
 _symmetry_equiv_pos_site_id
 _symmetry_equiv_pos_as_xyz
  1  'x, y, z'
loop_
 _atom_site_type_symbol
 _atom_site_label
 _atom_site_symmetry_multiplicity
 _atom_site_fract_x
 _atom_site_fract_y
 _atom_site_fract_z
 _atom_site_occupancy
  Pr  Pr0  1  0.75000000  0.25000000  0.25000000  1
  Pr  Pr1  1  0.25000000  0.75000000  0.75000000  1
  Zr  Zr2  1  0.63357633  0.81935148  0.18064852  1
  Zr  Zr3  1  0.36642367  0.18064852  0.81935148  1
  Zr  Zr4  1  0.86642367  0.31935148  0.68064852  1
  Zr  Zr5  1  0.13357633  0.68064852  0.31935148  1
  F  F6  1  0.76122738  0.32142993  0.95214855  1
  F  F7  1  0.87038475  0.71963842  0.28036158  1
  F  F8  1  0.96519415  0.95214855  0.32142993  1
  F  F9  1  0.36567510  0.94622815  0.79380689  1
  F  F10  1  0.62961525  0.21963842  0.78036158  1
  F  F11  1  0.89428985  0.79380689  0.94622815  1
  F  F12  1  0.73877262  0.54785145  0.17857007  1
  F  F13  1  0.39428985  0.44622815  0.29380689  1
  F  F14  1  0.37038475  0.78036158  0.21963842  1
  F  F15  1  0.86567510  0.29380689  0.44622815  1
  F  F16  1  0.26122738  0.45214855  0.82142993  1
  F  F17  1  0.13432490  0.70619311  0.55377185  1
  F  F18  1  0.60571015  0.55377185  0.70619311  1
  F  F19  1  0.03480585  0.04785145  0.67857007  1
  F  F20  1  0.50000000  0.00000000  0.00000000  1
  F  F21  1  0.46519415  0.82142993  0.45214855  1
  F  F22  1  0.10571015  0.20619311  0.05377185  1
  F  F23  1  0.23877262  0.67857007  0.04785145  1
  F  F24  1  0.53480585  0.17857007  0.54785145  1
  F  F25  1  0.12961525  0.28036158  0.71963842  1
  F  F26  1  0.63432490  0.05377185  0.20619311  1
  F  F27  1  0.00000000  0.50000000  0.50000000  1
