# generated using pymatgen
data_DyP5O14
_symmetry_space_group_name_H-M   'P 1'
_cell_length_a   9.18432870
_cell_length_b   9.18432938
_cell_length_c   12.60306570
_cell_angle_alpha   88.89835751
_cell_angle_beta   88.89835747
_cell_angle_gamma   89.51196387
_symmetry_Int_Tables_number   1
_chemical_formula_structural   DyP5O14
_chemical_formula_sum   'Dy4 P20 O56'
_cell_volume   1062.66426767
_cell_formula_units_Z   4
loop_
 _symmetry_equiv_pos_site_id
 _symmetry_equiv_pos_as_xyz
  1  'x, y, z'
loop_
 _atom_site_type_symbol
 _atom_site_label
 _atom_site_symmetry_multiplicity
 _atom_site_fract_x
 _atom_site_fract_y
 _atom_site_fract_z
 _atom_site_occupancy
  Dy  Dy0  1  0.52143447  0.47856553  0.75000000  1
  Dy  Dy1  1  0.96801148  0.03198852  0.75000000  1
  Dy  Dy2  1  0.47856553  0.52143447  0.25000000  1
  Dy  Dy3  1  0.03198852  0.96801148  0.25000000  1
  P  P4  1  0.61342114  0.67832899  0.49987241  1
  P  P5  1  0.67832899  0.61342114  -0.00012759  1
  P  P6  1  0.47997297  0.81625053  0.89513509  1
  P  P7  1  0.17477142  0.87305132  0.96685439  1
  P  P8  1  0.12694868  0.82522858  0.53314561  1
  P  P9  1  0.42900092  0.92754018  0.24174608  1
  P  P10  1  0.18374947  0.52002703  0.60486491  1
  P  P11  1  0.92754018  0.42900092  0.74174608  1
  P  P12  1  0.38657886  0.32167101  0.50012759  1
  P  P13  1  0.52002703  0.18374947  0.10486491  1
  P  P14  1  0.68154718  0.95453727  0.39064730  1
  P  P15  1  0.04546273  0.31845282  0.10935270  1
  P  P16  1  0.81625053  0.47997297  0.39513509  1
  P  P17  1  0.32167101  0.38657886  1.00012759  1
  P  P18  1  0.31845282  0.04546273  0.60935270  1
  P  P19  1  0.82522858  0.12694868  0.03314561  1
  P  P20  1  0.95453727  0.68154718  0.89064730  1
  P  P21  1  0.57099908  0.07245982  0.75825392  1
  P  P22  1  0.07245982  0.57099908  0.25825392  1
  P  P23  1  0.87305132  0.17477142  0.46685439  1
  O  O24  1  0.64058104  0.51206447  0.91364927  1
  O  O25  1  0.92091470  0.12879534  0.57396769  1
  O  O26  1  0.82503305  0.34565988  0.47552155  1
  O  O27  1  0.27983647  0.98013649  0.26896858  1
  O  O28  1  0.10164465  0.20126033  0.17939020  1
  O  O29  1  0.79873967  0.89835535  0.32060980  1
  O  O30  1  0.71613241  0.46175559  0.30646278  1
  O  O31  1  0.77248130  0.45999140  0.71852659  1
  O  O32  1  0.34565988  0.82503305  0.97552155  1
  O  O33  1  0.01986351  0.72016353  0.23103142  1
  O  O34  1  0.65434012  0.17496695  0.02447845  1
  O  O35  1  0.87120466  0.07908530  0.92603231  1
  O  O36  1  0.48793553  0.35941896  0.58635073  1
  O  O37  1  0.53089304  0.98607210  0.33679556  1
  O  O38  1  0.01392790  0.46910696  0.16320444  1
  O  O39  1  0.61030825  0.77719805  0.97126120  1
  O  O40  1  0.38969175  0.22280195  0.02873880  1
  O  O41  1  0.98607210  0.53089304  0.83679556  1
  O  O42  1  0.64945884  0.57928277  0.11345347  1
  O  O43  1  0.84604708  0.03560742  0.13110798  1
  O  O44  1  0.42071723  0.35054116  0.38654653  1
  O  O45  1  0.45999140  0.77248130  0.21852659  1
  O  O46  1  0.46175559  0.71613241  0.80646278  1
  O  O47  1  0.85207459  0.64884798  0.99083587  1
  O  O48  1  0.22280195  0.38969175  0.52873880  1
  O  O49  1  0.28386759  0.53824441  0.69353722  1
  O  O50  1  0.35115202  0.14792541  0.50916413  1
  O  O51  1  0.98041185  0.50551922  0.36129509  1
  O  O52  1  0.14792541  0.35115202  0.00916413  1
  O  O53  1  0.50551922  0.98041185  0.86129509  1
  O  O54  1  0.98013649  0.27983647  0.76896858  1
  O  O55  1  0.07908530  0.87120466  0.42603231  1
  O  O56  1  0.89835535  0.79873967  0.82060980  1
  O  O57  1  0.96439258  0.15395292  0.36889202  1
  O  O58  1  0.35054116  0.42071723  0.88654653  1
  O  O59  1  0.71046711  0.10529502  0.44489632  1
  O  O60  1  0.03560742  0.84604708  0.63110798  1
  O  O61  1  0.64884798  0.85207459  0.49083587  1
  O  O62  1  0.51206447  0.64058104  0.41364927  1
  O  O63  1  0.01958815  0.49448078  0.63870491  1
  O  O64  1  0.49448078  0.01958815  0.13870491  1
  O  O65  1  0.53824441  0.28386759  0.19353722  1
  O  O66  1  0.72016353  0.01986351  0.73103142  1
  O  O67  1  0.10529502  0.71046711  0.94489632  1
  O  O68  1  0.46910696  0.01392790  0.66320444  1
  O  O69  1  0.12879534  0.92091470  0.07396769  1
  O  O70  1  0.22751870  0.54000860  0.28147341  1
  O  O71  1  0.17496695  0.65434012  0.52447845  1
  O  O72  1  0.15395292  0.96439258  0.86889202  1
  O  O73  1  0.57928277  0.64945884  0.61345347  1
  O  O74  1  0.89470498  0.28953289  0.05510368  1
  O  O75  1  0.54000860  0.22751870  0.78147341  1
  O  O76  1  0.35941896  0.48793553  0.08635073  1
  O  O77  1  0.20126033  0.10164465  0.67939020  1
  O  O78  1  0.28953289  0.89470498  0.55510368  1
  O  O79  1  0.77719805  0.61030825  0.47126120  1
