# generated using pymatgen
data_KSmP2S7
_symmetry_space_group_name_H-M   'P 1'
_cell_length_a   9.08872543
_cell_length_b   9.84734746
_cell_length_c   12.52435482
_cell_angle_alpha   90.00000000
_cell_angle_beta   90.00000000
_cell_angle_gamma   90.30959743
_symmetry_Int_Tables_number   1
_chemical_formula_structural   KSmP2S7
_chemical_formula_sum   'K4 Sm4 P8 S28'
_cell_volume   1120.91135462
_cell_formula_units_Z   4
loop_
 _symmetry_equiv_pos_site_id
 _symmetry_equiv_pos_as_xyz
  1  'x, y, z'
loop_
 _atom_site_type_symbol
 _atom_site_label
 _atom_site_symmetry_multiplicity
 _atom_site_fract_x
 _atom_site_fract_y
 _atom_site_fract_z
 _atom_site_occupancy
  K  K0  1  0.86859999  0.39389042  0.19242148  1
  K  K1  1  0.36859999  0.39389042  0.30757852  1
  K  K2  1  0.63140001  0.60610958  0.69242148  1
  K  K3  1  0.13140001  0.60610958  0.80757852  1
  Sm  Sm4  1  0.39317254  0.14204862  0.64230387  1
  Sm  Sm5  1  0.10682746  0.85795138  0.14230387  1
  Sm  Sm6  1  0.60682746  0.85795138  0.35769613  1
  Sm  Sm7  1  0.89317254  0.14204862  0.85769613  1
  P  P8  1  0.02258705  0.27443705  0.60386332  1
  P  P9  1  0.80335230  0.81682311  0.96447886  1
  P  P10  1  0.97741295  0.72556295  0.39613668  1
  P  P11  1  0.69664770  0.18317689  0.46447886  1
  P  P12  1  0.52258705  0.27443705  0.89613668  1
  P  P13  1  0.30335230  0.81682311  0.53552114  1
  P  P14  1  0.47741295  0.72556295  0.10386332  1
  P  P15  1  0.19664770  0.18317689  0.03552114  1
  S  S16  1  0.78929353  0.63398149  0.44323360  1
  S  S17  1  0.32318082  0.98572947  0.44269894  1
  S  S18  1  0.43195920  0.66848207  0.47483607  1
  S  S19  1  0.42525454  0.90813609  0.17119130  1
  S  S20  1  0.64779009  0.14694389  0.30833221  1
  S  S21  1  0.57899099  0.75259815  0.95010575  1
  S  S22  1  0.57474546  0.09186391  0.82880870  1
  S  S23  1  0.07474546  0.09186391  0.67119130  1
  S  S24  1  0.61073574  0.63045006  0.20934682  1
  S  S25  1  0.21070647  0.36601851  0.55676640  1
  S  S26  1  0.88926426  0.36954994  0.70934682  1
  S  S27  1  0.38926426  0.36954994  0.79065318  1
  S  S28  1  0.71070647  0.36601851  0.94323360  1
  S  S29  1  0.56804080  0.33151793  0.52516393  1
  S  S30  1  0.28929353  0.63398149  0.05676640  1
  S  S31  1  0.92100901  0.24740185  0.45010575  1
  S  S32  1  0.67681918  0.01427053  0.55730106  1
  S  S33  1  0.11073574  0.63045006  0.29065318  1
  S  S34  1  0.06804080  0.33151793  0.97483607  1
  S  S35  1  0.07899099  0.75259815  0.54989425  1
  S  S36  1  0.85220991  0.85305611  0.80833221  1
  S  S37  1  0.82318082  0.98572947  0.05730106  1
  S  S38  1  0.14779009  0.14694389  0.19166779  1
  S  S39  1  0.17681918  0.01427053  0.94269894  1
  S  S40  1  0.42100901  0.24740185  0.04989425  1
  S  S41  1  0.92525454  0.90813609  0.32880870  1
  S  S42  1  0.35220991  0.85305611  0.69166779  1
  S  S43  1  0.93195920  0.66848207  0.02516393  1
