# generated using pymatgen
data_Rb2In3F11
_symmetry_space_group_name_H-M   'P 1'
_cell_length_a   6.78038598
_cell_length_b   8.38400756
_cell_length_c   19.47329536
_cell_angle_alpha   90.00000000
_cell_angle_beta   90.98863536
_cell_angle_gamma   90.00000000
_symmetry_Int_Tables_number   1
_chemical_formula_structural   Rb2In3F11
_chemical_formula_sum   'Rb8 In12 F44'
_cell_volume   1106.82987932
_cell_formula_units_Z   4
loop_
 _symmetry_equiv_pos_site_id
 _symmetry_equiv_pos_as_xyz
  1  'x, y, z'
loop_
 _atom_site_type_symbol
 _atom_site_label
 _atom_site_symmetry_multiplicity
 _atom_site_fract_x
 _atom_site_fract_y
 _atom_site_fract_z
 _atom_site_occupancy
  Rb  Rb0  1  0.75310290  0.75000000  0.85033906  1
  Rb  Rb1  1  0.24689710  0.25000000  0.14966094  1
  Rb  Rb2  1  0.74160416  0.25000000  0.84784580  1
  Rb  Rb3  1  0.25839584  0.75000000  0.15215420  1
  Rb  Rb4  1  0.76291052  0.75000000  0.65343953  1
  Rb  Rb5  1  0.23708948  0.25000000  0.34656047  1
  Rb  Rb6  1  0.75335775  0.25000000  0.64861693  1
  Rb  Rb7  1  0.24664225  0.75000000  0.35138307  1
  In  In8  1  0.24872811  0.50157894  0.96821185  1
  In  In9  1  0.75127189  0.00157894  0.03178815  1
  In  In10  1  0.75127189  0.49842106  0.03178815  1
  In  In11  1  0.24872811  0.99842106  0.96821185  1
  In  In12  1  0.25238893  0.99975715  0.75042377  1
  In  In13  1  0.74761107  0.49975715  0.24957623  1
  In  In14  1  0.74761107  0.00024285  0.24957623  1
  In  In15  1  0.25238893  0.50024285  0.75042377  1
  In  In16  1  0.25165776  0.00069924  0.53180426  1
  In  In17  1  0.74834224  0.50069924  0.46819574  1
  In  In18  1  0.74834224  0.99930076  0.46819574  1
  In  In19  1  0.25165776  0.49930076  0.53180426  1
  F  F20  1  0.94345575  0.50594070  0.56078545  1
  F  F21  1  0.05654425  0.00594070  0.43921455  1
  F  F22  1  0.05654425  0.49405930  0.43921455  1
  F  F23  1  0.94345575  0.99405930  0.56078545  1
  F  F24  1  0.56370081  0.50701096  0.56058966  1
  F  F25  1  0.43629919  0.00701096  0.43941034  1
  F  F26  1  0.43629919  0.49298904  0.43941034  1
  F  F27  1  0.56370081  0.99298904  0.56058966  1
  F  F28  1  0.95762343  0.44835102  0.74857034  1
  F  F29  1  0.04237657  0.94835102  0.25142966  1
  F  F30  1  0.04237657  0.55164898  0.25142966  1
  F  F31  1  0.95762343  0.05164898  0.74857034  1
  F  F32  1  0.54822807  0.54880450  0.75211482  1
  F  F33  1  0.45177193  0.04880450  0.24788518  1
  F  F34  1  0.45177193  0.45119550  0.24788518  1
  F  F35  1  0.55761420  0.50518882  0.93937268  1
  F  F36  1  0.54822807  0.95119550  0.75211482  1
  F  F37  1  0.06305694  0.00414737  0.06060302  1
  F  F38  1  0.06305694  0.49585263  0.06060302  1
  F  F39  1  0.93694306  0.99585263  0.93939698  1
  F  F40  1  0.24865507  0.75000000  0.98260290  1
  F  F41  1  0.75134493  0.25000000  0.01739710  1
  F  F42  1  0.24863253  0.25000000  0.96584980  1
  F  F43  1  0.75136747  0.75000000  0.03415020  1
  F  F44  1  0.17016648  0.75000000  0.73834190  1
  F  F45  1  0.82983352  0.25000000  0.26165810  1
  F  F46  1  0.33427921  0.25000000  0.76251613  1
  F  F47  1  0.66572079  0.75000000  0.23748387  1
  F  F48  1  0.25097874  0.75000000  0.52446694  1
  F  F49  1  0.74902126  0.25000000  0.47553306  1
  F  F50  1  0.25108948  0.25000000  0.52610577  1
  F  F51  1  0.74891052  0.75000000  0.47389423  1
  F  F52  1  0.24244787  0.96963676  0.85880200  1
  F  F53  1  0.75755213  0.46963676  0.14119800  1
  F  F54  1  0.75755213  0.03036324  0.14119800  1
  F  F55  1  0.24244787  0.53036324  0.85880200  1
  F  F56  1  0.25952766  0.02110023  0.64165180  1
  F  F57  1  0.74047234  0.52110023  0.35834820  1
  F  F58  1  0.74047234  0.97889977  0.35834820  1
  F  F59  1  0.25952766  0.47889977  0.64165180  1
  F  F60  1  0.55761420  0.99481118  0.93937268  1
  F  F61  1  0.44238580  0.49481118  0.06062732  1
  F  F62  1  0.44238580  0.00518882  0.06062732  1
  F  F63  1  0.93694306  0.50414737  0.93939698  1
