# generated using pymatgen
data_MnH7C4N3O7
_symmetry_space_group_name_H-M   'P 1'
_cell_length_a   7.08205468
_cell_length_b   10.98588022
_cell_length_c   12.50576657
_cell_angle_alpha   107.98399700
_cell_angle_beta   90.00000000
_cell_angle_gamma   90.00000000
_symmetry_Int_Tables_number   1
_chemical_formula_structural   MnH7C4N3O7
_chemical_formula_sum   'Mn4 H28 C16 N12 O28'
_cell_volume   925.44406136
_cell_formula_units_Z   4
loop_
 _symmetry_equiv_pos_site_id
 _symmetry_equiv_pos_as_xyz
  1  'x, y, z'
loop_
 _atom_site_type_symbol
 _atom_site_label
 _atom_site_symmetry_multiplicity
 _atom_site_fract_x
 _atom_site_fract_y
 _atom_site_fract_z
 _atom_site_occupancy
  Mn  Mn0  1  0.18601395  0.16873202  0.95063451  1
  Mn  Mn1  1  0.81398605  0.83126798  0.04936549  1
  Mn  Mn2  1  0.68601395  0.33126798  0.54936549  1
  Mn  Mn3  1  0.31398605  0.66873202  0.45063451  1
  H  H4  1  0.61057589  0.71376094  0.60653814  1
  H  H5  1  0.38942411  0.28623906  0.39346186  1
  H  H6  1  0.11057589  0.78623906  0.89346186  1
  H  H7  1  0.88942411  0.21376094  0.10653814  1
  H  H8  1  0.84202708  0.95064771  0.88944223  1
  H  H9  1  0.15797292  0.04935229  0.11055777  1
  H  H10  1  0.34202708  0.54935229  0.61055777  1
  H  H11  1  0.65797292  0.45064771  0.38944223  1
  H  H12  1  0.19410259  0.66502972  0.64839868  1
  H  H13  1  0.80589741  0.33497028  0.35160132  1
  H  H14  1  0.69410259  0.83497028  0.85160132  1
  H  H15  1  0.30589741  0.16502972  0.14839868  1
  H  H16  1  0.54955972  0.07609997  0.92885167  1
  H  H17  1  0.45044028  0.92390003  0.07114833  1
  H  H18  1  0.04955972  0.42390003  0.57114833  1
  H  H19  1  0.95044028  0.57609997  0.42885167  1
  H  H20  1  0.52683341  0.08675215  0.80744362  1
  H  H21  1  0.47316659  0.91324785  0.19255638  1
  H  H22  1  0.02683341  0.41324785  0.69255638  1
  H  H23  1  0.97316659  0.58675215  0.30744362  1
  H  H24  1  0.14194177  0.15769269  0.70696095  1
  H  H25  1  0.85805823  0.84230731  0.29303905  1
  H  H26  1  0.64194177  0.34230731  0.79303905  1
  H  H27  1  0.35805823  0.65769269  0.20696095  1
  H  H28  1  0.16927527  0.72119163  0.98622866  1
  H  H29  1  0.83072473  0.27880837  0.01377134  1
  H  H30  1  0.66927527  0.77880837  0.51377134  1
  H  H31  1  0.33072473  0.22119163  0.48622866  1
  C  C32  1  0.17043242  0.95033030  0.64725040  1
  C  C33  1  0.82956758  0.04966970  0.35274960  1
  C  C34  1  0.67043242  0.54966970  0.85274960  1
  C  C35  1  0.32956758  0.45033030  0.14725040  1
  C  C36  1  0.16405363  0.40105564  0.86746034  1
  C  C37  1  0.83594637  0.59894436  0.13253966  1
  C  C38  1  0.66405363  0.09894436  0.63253966  1
  C  C39  1  0.33594637  0.90105564  0.36746034  1
  C  C40  1  0.11240756  0.91295888  0.74829438  1
  C  C41  1  0.88759244  0.08704112  0.25170562  1
  C  C42  1  0.61240756  0.58704112  0.75170562  1
  C  C43  1  0.38759244  0.41295888  0.24829438  1
  C  C44  1  0.23787655  0.45198007  0.98542274  1
  C  C45  1  0.76212345  0.54801993  0.01457726  1
  C  C46  1  0.73787655  0.04801993  0.51457726  1
  C  C47  1  0.26212345  0.95198007  0.48542274  1
  N  N48  1  0.22869022  0.07529656  0.54113115  1
  N  N49  1  0.77130978  0.92470344  0.45886885  1
  N  N50  1  0.72869022  0.42470344  0.95886885  1
  N  N51  1  0.27130978  0.57529656  0.04113115  1
  N  N52  1  0.16964601  0.07233790  0.64261133  1
  N  N53  1  0.83035399  0.92766210  0.35738867  1
  N  N54  1  0.66964601  0.42766210  0.85738867  1
  N  N55  1  0.33035399  0.57233790  0.14261133  1
  N  N56  1  0.22814665  0.87257181  0.54790839  1
  N  N57  1  0.77185335  0.12742819  0.45209161  1
  N  N58  1  0.72814665  0.62742819  0.95209161  1
  N  N59  1  0.27185335  0.37257181  0.04790839  1
  O  O60  1  0.60304012  0.70491029  0.52537455  1
  O  O61  1  0.39695988  0.29508971  0.47462545  1
  O  O62  1  0.10304012  0.79508971  0.97462545  1
  O  O63  1  0.89695988  0.20491029  0.02537455  1
  O  O64  1  0.12722187  0.47748231  0.81395824  1
  O  O65  1  0.87277813  0.52251769  0.18604176  1
  O  O66  1  0.62722187  0.02251769  0.68604176  1
  O  O67  1  0.37277813  0.97748231  0.31395824  1
  O  O68  1  0.05080380  0.00391763  0.83210269  1
  O  O69  1  0.94919620  0.99608237  0.16789731  1
  O  O70  1  0.55080380  0.49608237  0.66789731  1
  O  O71  1  0.44919620  0.50391763  0.33210269  1
  O  O72  1  0.14150043  0.27862423  0.83242039  1
  O  O73  1  0.85849957  0.72137577  0.16757961  1
  O  O74  1  0.64150043  0.22137577  0.66757961  1
  O  O75  1  0.35849957  0.77862423  0.33242039  1
  O  O76  1  0.23195903  0.58813281  0.58420053  1
  O  O77  1  0.76804097  0.41186719  0.41579947  1
  O  O78  1  0.73195903  0.91186719  0.91579947  1
  O  O79  1  0.26804097  0.08813281  0.08420053  1
  O  O80  1  0.47137232  0.11771536  0.88583469  1
  O  O81  1  0.52862768  0.88228464  0.11416531  1
  O  O82  1  0.97137232  0.38228464  0.61416531  1
  O  O83  1  0.02862768  0.61771536  0.38583469  1
  O  O84  1  0.12330758  0.79749483  0.74533261  1
  O  O85  1  0.87669242  0.20250517  0.25466739  1
  O  O86  1  0.62330758  0.70250517  0.75466739  1
  O  O87  1  0.37669242  0.29749483  0.24533261  1
