# generated using pymatgen
data_K5NaCe2(SO4)6
_symmetry_space_group_name_H-M   'P 1'
_cell_length_a   7.85972071
_cell_length_b   9.34470162
_cell_length_c   9.49945888
_cell_angle_alpha   60.53745962
_cell_angle_beta   79.84609110
_cell_angle_gamma   68.99648944
_symmetry_Int_Tables_number   1
_chemical_formula_structural   K5NaCe2(SO4)6
_chemical_formula_sum   'K5 Na1 Ce2 S6 O24'
_cell_volume   567.11383277
_cell_formula_units_Z   1
loop_
 _symmetry_equiv_pos_site_id
 _symmetry_equiv_pos_as_xyz
  1  'x, y, z'
loop_
 _atom_site_type_symbol
 _atom_site_label
 _atom_site_symmetry_multiplicity
 _atom_site_fract_x
 _atom_site_fract_y
 _atom_site_fract_z
 _atom_site_occupancy
  K  K0  1  0.12009395  0.62103148  0.31031542  1
  K  K1  1  0.87990605  0.37896852  0.68968458  1
  K  K2  1  0.87990605  0.06865310  0.31031542  1
  K  K3  1  0.50000000  0.50000000  0.00000000  1
  K  K4  1  0.12009395  0.93134690  0.68968458  1
  Na  Na5  1  0.00000000  0.50000000  0.00000000  1
  Ce  Ce6  1  0.50000000  0.85662343  0.28675314  1
  Ce  Ce7  1  0.50000000  0.14337657  0.71324686  1
  S  S8  1  0.19659137  0.09535323  1.00000000  1
  S  S9  1  0.68221960  0.46117643  0.33095362  1
  S  S10  1  0.80340863  0.90464677  0.00000000  1
  S  S11  1  0.31778040  0.20786995  0.33095362  1
  S  S12  1  0.31778040  0.53882357  0.66904638  1
  S  S13  1  0.68221960  0.79213005  0.66904638  1
  O  O14  1  0.22221177  0.38064572  0.20221171  1
  O  O15  1  0.21089137  0.92553430  0.14922882  1
  O  O16  1  0.31190466  0.70410214  0.51721026  1
  O  O17  1  0.77778823  0.61935428  0.79778829  1
  O  O18  1  0.23047775  0.07553562  0.36261418  1
  O  O19  1  0.68809534  0.29589786  0.48278974  1
  O  O20  1  0.50985824  0.42469867  0.71833481  1
  O  O21  1  0.97520594  0.77197721  1.00000000  1
  O  O22  1  0.76952225  0.56185020  0.36261418  1
  O  O23  1  0.31190466  0.22131240  0.48278974  1
  O  O24  1  0.68809534  0.77868760  0.51721026  1
  O  O25  1  0.63906035  0.85778163  0.00000000  1
  O  O26  1  0.23047775  0.43814980  0.63738582  1
  O  O27  1  0.36093965  0.14221837  1.00000000  1
  O  O28  1  0.21089137  0.07476311  0.85077118  1
  O  O29  1  0.49014176  0.85696652  0.71833481  1
  O  O30  1  0.77778823  0.41714257  0.20221171  1
  O  O31  1  0.02479406  0.22802279  0.00000000  1
  O  O32  1  0.50985824  0.14303348  0.28166519  1
  O  O33  1  0.22221177  0.58285743  0.79778829  1
  O  O34  1  0.49014176  0.57530133  0.28166519  1
  O  O35  1  0.76952225  0.92446438  0.63738582  1
  O  O36  1  0.78910863  0.92523689  0.14922882  1
  O  O37  1  0.78910863  0.07446570  0.85077118  1
