# generated using pymatgen
data_Rb3NaPbO4
_symmetry_space_group_name_H-M   'P 1'
_cell_length_a   6.78048884
_cell_length_b   11.17308870
_cell_length_c   11.29167121
_cell_angle_alpha   111.64931099
_cell_angle_beta   90.00000000
_cell_angle_gamma   90.00000000
_symmetry_Int_Tables_number   1
_chemical_formula_structural   Rb3NaPbO4
_chemical_formula_sum   'Rb12 Na4 Pb4 O16'
_cell_volume   795.10202979
_cell_formula_units_Z   4
loop_
 _symmetry_equiv_pos_site_id
 _symmetry_equiv_pos_as_xyz
  1  'x, y, z'
loop_
 _atom_site_type_symbol
 _atom_site_label
 _atom_site_symmetry_multiplicity
 _atom_site_fract_x
 _atom_site_fract_y
 _atom_site_fract_z
 _atom_site_occupancy
  Rb  Rb0  1  0.62087132  0.31895196  0.89294615  1
  Rb  Rb1  1  0.32373677  0.03372657  0.67165137  1
  Rb  Rb2  1  0.37912868  0.68104804  0.10705385  1
  Rb  Rb3  1  0.12087132  0.68104804  0.60705385  1
  Rb  Rb4  1  0.60717772  0.54415321  0.68789068  1
  Rb  Rb5  1  0.39282228  0.45584679  0.31210932  1
  Rb  Rb6  1  0.10717772  0.45584679  0.81210932  1
  Rb  Rb7  1  0.89282228  0.54415321  0.18789068  1
  Rb  Rb8  1  0.82373677  0.96627343  0.82834863  1
  Rb  Rb9  1  0.87912868  0.31895196  0.39294615  1
  Rb  Rb10  1  0.17626323  0.03372657  0.17165137  1
  Rb  Rb11  1  0.67626323  0.96627343  0.32834863  1
  Na  Na12  1  0.61944969  0.12508500  0.10910894  1
  Na  Na13  1  0.88055031  0.12508500  0.60910894  1
  Na  Na14  1  0.11944969  0.87491500  0.39089106  1
  Na  Na15  1  0.38055031  0.87491500  0.89089106  1
  Pb  Pb16  1  0.64258967  0.75866612  0.50966972  1
  Pb  Pb17  1  0.35741033  0.24133388  0.49033028  1
  Pb  Pb18  1  0.14258967  0.24133388  0.99033028  1
  Pb  Pb19  1  0.85741033  0.75866612  0.00966972  1
  O  O20  1  0.26182187  0.42873583  0.05444491  1
  O  O21  1  0.23817813  0.42873583  0.55444491  1
  O  O22  1  0.12649894  0.10451298  0.45471946  1
  O  O23  1  0.00579214  0.20444773  0.81223044  1
  O  O24  1  0.57548626  0.22903340  0.61876550  1
  O  O25  1  0.92451374  0.22903340  0.11876550  1
  O  O26  1  0.76182187  0.57126417  0.44555509  1
  O  O27  1  0.73817813  0.57126417  0.94555509  1
  O  O28  1  0.87350106  0.89548702  0.54528054  1
  O  O29  1  0.42451374  0.77096660  0.38123450  1
  O  O30  1  0.50579214  0.79555227  0.68776956  1
  O  O31  1  0.07548626  0.77096660  0.88123450  1
  O  O32  1  0.62649894  0.89548702  0.04528054  1
  O  O33  1  0.99420786  0.79555227  0.18776956  1
  O  O34  1  0.37350106  0.10451298  0.95471946  1
  O  O35  1  0.49420786  0.20444773  0.31223044  1
