# generated using pymatgen
data_K3NbP2O9
_symmetry_space_group_name_H-M   'P 1'
_cell_length_a   5.29444328
_cell_length_b   9.94017711
_cell_length_c   17.93559066
_cell_angle_alpha   90.00000000
_cell_angle_beta   90.00000000
_cell_angle_gamma   90.07613847
_symmetry_Int_Tables_number   1
_chemical_formula_structural   K3NbP2O9
_chemical_formula_sum   'K12 Nb4 P8 O36'
_cell_volume   943.90812043
_cell_formula_units_Z   4
loop_
 _symmetry_equiv_pos_site_id
 _symmetry_equiv_pos_as_xyz
  1  'x, y, z'
loop_
 _atom_site_type_symbol
 _atom_site_label
 _atom_site_symmetry_multiplicity
 _atom_site_fract_x
 _atom_site_fract_y
 _atom_site_fract_z
 _atom_site_occupancy
  K  K0  1  0.24377594  0.07652145  0.86303796  1
  K  K1  1  0.24377594  0.57652145  0.63696204  1
  K  K2  1  0.75025620  0.04192454  0.42647859  1
  K  K3  1  0.75622406  0.42347855  0.36303796  1
  K  K4  1  0.75622406  0.92347855  0.13696204  1
  K  K5  1  0.74906186  0.95756707  0.70490503  1
  K  K6  1  0.25093814  0.54243293  0.20490503  1
  K  K7  1  0.25093814  0.04243293  0.29509497  1
  K  K8  1  0.74906186  0.45756707  0.79509497  1
  K  K9  1  0.75025620  0.54192454  0.07352141  1
  K  K10  1  0.24974380  0.95807546  0.57352141  1
  K  K11  1  0.24974380  0.45807546  0.92647859  1
  Nb  Nb12  1  0.23584925  0.68577482  0.41076335  1
  Nb  Nb13  1  0.76415075  0.31422518  0.58923665  1
  Nb  Nb14  1  0.76415075  0.81422518  0.91076335  1
  Nb  Nb15  1  0.23584925  0.18577482  0.08923665  1
  P  P16  1  0.25536011  0.26389925  0.71093344  1
  P  P17  1  0.74463989  0.23610075  0.21093344  1
  P  P18  1  0.73685920  0.17085847  0.96109658  1
  P  P19  1  0.26314080  0.32914153  0.46109658  1
  P  P20  1  0.25536011  0.76389925  0.78906656  1
  P  P21  1  0.26314080  0.82914153  0.03890342  1
  P  P22  1  0.74463989  0.73610075  0.28906656  1
  P  P23  1  0.73685920  0.67085847  0.53890342  1
  O  O24  1  0.22568509  0.86427337  0.41955600  1
  O  O25  1  0.25098403  0.44410842  0.40311514  1
  O  O26  1  0.25230202  0.11277832  0.69897773  1
  O  O27  1  0.74769798  0.88722168  0.30102227  1
  O  O28  1  0.22659107  0.68902367  0.07098452  1
  O  O29  1  0.06003579  0.85844870  0.97689206  1
  O  O30  1  0.74901597  0.55589158  0.59688486  1
  O  O31  1  0.22568509  0.36427337  0.08044400  1
  O  O32  1  0.47676412  0.33200609  0.66293906  1
  O  O33  1  0.71760016  0.19027019  0.29136502  1
  O  O34  1  0.28239984  0.80972981  0.70863498  1
  O  O35  1  0.06003579  0.35844870  0.52310794  1
  O  O36  1  0.47676412  0.83200609  0.83706094  1
  O  O37  1  0.25098403  0.94410842  0.09688486  1
  O  O38  1  0.93996421  0.14155130  0.02310794  1
  O  O39  1  0.47215147  0.65971207  0.49906244  1
  O  O40  1  0.77431491  0.63572663  0.91955600  1
  O  O41  1  0.00637078  0.33220210  0.67763353  1
  O  O42  1  0.74901597  0.05589158  0.90311514  1
  O  O43  1  0.71760016  0.69027019  0.20863498  1
  O  O44  1  0.22659107  0.18902367  0.42901548  1
  O  O45  1  0.99362922  0.66779790  0.32236647  1
  O  O46  1  0.28239984  0.30972981  0.79136502  1
  O  O47  1  0.00637078  0.83220210  0.82236647  1
  O  O48  1  0.52323588  0.16799391  0.16293906  1
  O  O49  1  0.25230202  0.61277832  0.80102227  1
  O  O50  1  0.77340893  0.31097633  0.92901548  1
  O  O51  1  0.74769798  0.38722168  0.19897773  1
  O  O52  1  0.99362922  0.16779790  0.17763353  1
  O  O53  1  0.52784853  0.84028793  0.99906244  1
  O  O54  1  0.52784853  0.34028793  0.50093756  1
  O  O55  1  0.93996421  0.64155130  0.47689206  1
  O  O56  1  0.77431491  0.13572663  0.58044400  1
  O  O57  1  0.47215147  0.15971207  0.00093756  1
  O  O58  1  0.77340893  0.81097633  0.57098452  1
  O  O59  1  0.52323588  0.66799391  0.33706094  1
