# generated using pymatgen
data_Rb3Cu2(BiS2)5
_symmetry_space_group_name_H-M   'P 1'
_cell_length_a   4.08038676
_cell_length_b   14.79201016
_cell_length_c   18.02877844
_cell_angle_alpha   90.00000000
_cell_angle_beta   90.00000000
_cell_angle_gamma   90.00000000
_symmetry_Int_Tables_number   1
_chemical_formula_structural   Rb3Cu2(BiS2)5
_chemical_formula_sum   'Rb6 Cu4 Bi10 S20'
_cell_volume   1088.16518722
_cell_formula_units_Z   2
loop_
 _symmetry_equiv_pos_site_id
 _symmetry_equiv_pos_as_xyz
  1  'x, y, z'
loop_
 _atom_site_type_symbol
 _atom_site_label
 _atom_site_symmetry_multiplicity
 _atom_site_fract_x
 _atom_site_fract_y
 _atom_site_fract_z
 _atom_site_occupancy
  Rb  Rb0  1  0.50000000  0.02399071  0.75147560  1
  Rb  Rb1  1  0.00000000  0.52399071  0.74852440  1
  Rb  Rb2  1  0.50000000  0.50000000  0.00000000  1
  Rb  Rb3  1  0.50000000  0.97600929  0.24852440  1
  Rb  Rb4  1  0.00000000  0.47600929  0.25147560  1
  Rb  Rb5  1  0.00000000  0.00000000  0.50000000  1
  Cu  Cu6  1  0.00000000  0.77995240  0.75504589  1
  Cu  Cu7  1  0.00000000  0.22004760  0.24495411  1
  Cu  Cu8  1  0.50000000  0.72004760  0.25504589  1
  Cu  Cu9  1  0.50000000  0.27995240  0.74495411  1
  Bi  Bi10  1  0.00000000  0.73758549  0.10516632  1
  Bi  Bi11  1  0.50000000  0.78446175  0.90649697  1
  Bi  Bi12  1  0.50000000  0.23758549  0.39483368  1
  Bi  Bi13  1  0.50000000  0.21553825  0.09350303  1
  Bi  Bi14  1  0.00000000  0.71553825  0.40649697  1
  Bi  Bi15  1  0.00000000  0.28446175  0.59350303  1
  Bi  Bi16  1  0.50000000  0.76241451  0.60516632  1
  Bi  Bi17  1  0.50000000  0.50000000  0.50000000  1
  Bi  Bi18  1  0.00000000  0.26241451  0.89483368  1
  Bi  Bi19  1  0.00000000  0.00000000  0.00000000  1
  S  S20  1  0.50000000  0.40441125  0.63673036  1
  S  S21  1  0.00000000  0.12782874  0.35030365  1
  S  S22  1  0.00000000  0.32961627  0.03264230  1
  S  S23  1  0.00000000  0.67038373  0.96735770  1
  S  S24  1  0.50000000  0.88073460  0.05503035  1
  S  S25  1  0.50000000  0.17038373  0.53264230  1
  S  S26  1  0.00000000  0.87217126  0.64969635  1
  S  S27  1  0.00000000  0.38073460  0.44496965  1
  S  S28  1  0.50000000  0.82961627  0.46735770  1
  S  S29  1  0.50000000  0.29615381  0.22812002  1
  S  S30  1  0.50000000  0.37217126  0.85030365  1
  S  S31  1  0.00000000  0.79615381  0.27187998  1
  S  S32  1  0.50000000  0.62782874  0.14969635  1
  S  S33  1  0.50000000  0.70384619  0.77187998  1
  S  S34  1  0.00000000  0.20384619  0.72812002  1
  S  S35  1  0.00000000  0.09558875  0.13673036  1
  S  S36  1  0.00000000  0.61926540  0.55503035  1
  S  S37  1  0.50000000  0.59558875  0.36326964  1
  S  S38  1  0.00000000  0.90441125  0.86326964  1
  S  S39  1  0.50000000  0.11926540  0.94496965  1
