# generated using pymatgen
data_K3Pu(H3O4)2
_symmetry_space_group_name_H-M   'P 1'
_cell_length_a   7.59907104
_cell_length_b   7.93622945
_cell_length_c   8.51360592
_cell_angle_alpha   90.00000000
_cell_angle_beta   90.00000000
_cell_angle_gamma   116.63846495
_symmetry_Int_Tables_number   1
_chemical_formula_structural   K3Pu(H3O4)2
_chemical_formula_sum   'K6 Pu2 H12 O16'
_cell_volume   458.93859044
_cell_formula_units_Z   2
loop_
 _symmetry_equiv_pos_site_id
 _symmetry_equiv_pos_as_xyz
  1  'x, y, z'
loop_
 _atom_site_type_symbol
 _atom_site_label
 _atom_site_symmetry_multiplicity
 _atom_site_fract_x
 _atom_site_fract_y
 _atom_site_fract_z
 _atom_site_occupancy
  K  K0  1  0.91197441  0.45497868  0.18862078  1
  K  K1  1  0.08802559  0.54502132  0.81137922  1
  K  K2  1  0.91197441  0.95497868  0.31137922  1
  K  K3  1  0.08802559  0.04502132  0.68862078  1
  K  K4  1  0.50000000  0.00000000  0.50000000  1
  K  K5  1  0.50000000  0.50000000  0.00000000  1
  Pu  Pu6  1  0.50000000  0.00000000  0.00000000  1
  Pu  Pu7  1  0.50000000  0.50000000  0.50000000  1
  H  H8  1  0.92388227  0.12970193  0.97698608  1
  H  H9  1  0.07611773  0.37029807  0.47698608  1
  H  H10  1  0.85723880  0.32947098  0.52611513  1
  H  H11  1  0.14276120  0.17053002  0.02611513  1
  H  H12  1  0.33519652  0.68505393  0.19739634  1
  H  H13  1  0.14276120  0.67053002  0.47388487  1
  H  H14  1  0.66480348  0.31494607  0.80260366  1
  H  H15  1  0.33519652  0.18505393  0.30260366  1
  H  H16  1  0.66480348  0.81494607  0.69739634  1
  H  H17  1  0.92388227  0.62970193  0.52301392  1
  H  H18  1  0.07611773  0.87029807  0.02301392  1
  H  H19  1  0.85723880  0.82946998  0.97388487  1
  O  O20  1  0.94298058  0.76722984  0.99881557  1
  O  O21  1  0.62734911  0.07407761  0.19495831  1
  O  O22  1  0.62734911  0.57407761  0.30504169  1
  O  O23  1  0.29619757  0.57664320  0.43214400  1
  O  O24  1  0.37265089  0.42592239  0.69495831  1
  O  O25  1  0.70380243  0.92335680  0.93214400  1
  O  O26  1  0.37265089  0.92592239  0.80504169  1
  O  O27  1  0.69251708  0.29765335  0.91249366  1
  O  O28  1  0.29619757  0.07664320  0.06785600  1
  O  O29  1  0.70380243  0.42335680  0.56785600  1
  O  O30  1  0.30748292  0.20234665  0.41249366  1
  O  O31  1  0.30748292  0.70234665  0.08750634  1
  O  O32  1  0.05701942  0.23277016  0.00118443  1
  O  O33  1  0.94298058  0.26722984  0.50118443  1
  O  O34  1  0.05701942  0.73277016  0.49881557  1
  O  O35  1  0.69251708  0.79765335  0.58750634  1
