# generated using pymatgen
data_Ba6Na2As2Ru2O17
_symmetry_space_group_name_H-M   'P 1'
_cell_length_a   5.94111449
_cell_length_b   5.94111441
_cell_length_c   30.13460893
_cell_angle_alpha   90.00000000
_cell_angle_beta   90.00000000
_cell_angle_gamma   120.00000037
_symmetry_Int_Tables_number   1
_chemical_formula_structural   Ba6Na2As2Ru2O17
_chemical_formula_sum   'Ba12 Na4 As4 Ru4 O34'
_cell_volume   921.15354466
_cell_formula_units_Z   2
loop_
 _symmetry_equiv_pos_site_id
 _symmetry_equiv_pos_as_xyz
  1  'x, y, z'
loop_
 _atom_site_type_symbol
 _atom_site_label
 _atom_site_symmetry_multiplicity
 _atom_site_fract_x
 _atom_site_fract_y
 _atom_site_fract_z
 _atom_site_occupancy
  Ba  Ba0  1  0.33333300  0.66666700  0.59232966  1
  Ba  Ba1  1  0.66666700  0.33333300  0.40767034  1
  Ba  Ba2  1  0.66666700  0.33333300  0.68060410  1
  Ba  Ba3  1  0.00000000  0.00000000  0.00000000  1
  Ba  Ba4  1  0.66666700  0.33333300  0.81939590  1
  Ba  Ba5  1  0.66666700  0.33333300  0.09232966  1
  Ba  Ba6  1  0.33333300  0.66666700  0.90767034  1
  Ba  Ba7  1  0.00000000  0.00000000  0.25000000  1
  Ba  Ba8  1  0.33333300  0.66666700  0.31939590  1
  Ba  Ba9  1  0.33333300  0.66666700  0.18060410  1
  Ba  Ba10  1  0.00000000  0.00000000  0.75000000  1
  Ba  Ba11  1  0.00000000  0.00000000  0.50000000  1
  Na  Na12  1  0.00000000  0.00000000  0.37637913  1
  Na  Na13  1  0.00000000  0.00000000  0.87637913  1
  Na  Na14  1  0.00000000  0.00000000  0.12362087  1
  Na  Na15  1  0.00000000  0.00000000  0.62362087  1
  As  As16  1  0.33333300  0.66666700  0.05171199  1
  As  As17  1  0.66666700  0.33333300  0.94828801  1
  As  As18  1  0.66666700  0.33333300  0.55171199  1
  As  As19  1  0.33333300  0.66666700  0.44828801  1
  Ru  Ru20  1  0.33333300  0.66666700  0.70370167  1
  Ru  Ru21  1  0.66666700  0.33333300  0.29629833  1
  Ru  Ru22  1  0.33333300  0.66666700  0.79629833  1
  Ru  Ru23  1  0.66666700  0.33333300  0.20370167  1
  O  O24  1  0.35377293  0.17688647  0.16998740  1
  O  O25  1  0.02801851  0.51400926  0.75000000  1
  O  O26  1  0.64663910  0.82331955  0.42744560  1
  O  O27  1  0.33333300  0.66666700  0.99501331  1
  O  O28  1  0.64622707  0.82311353  0.83001260  1
  O  O29  1  0.17688647  0.82311353  0.83001260  1
  O  O30  1  0.48599074  0.51400926  0.75000000  1
  O  O31  1  0.66666700  0.33333300  0.00498669  1
  O  O32  1  0.17668045  0.82331955  0.42744560  1
  O  O33  1  0.64663910  0.82331955  0.07255440  1
  O  O34  1  0.17688647  0.35377293  0.83001260  1
  O  O35  1  0.51400926  0.02801851  0.25000000  1
  O  O36  1  0.17668045  0.35336090  0.42744560  1
  O  O37  1  0.51400926  0.48599074  0.25000000  1
  O  O38  1  0.82331955  0.64663910  0.92744560  1
  O  O39  1  0.97198149  0.48599074  0.25000000  1
  O  O40  1  0.82331955  0.17668045  0.92744560  1
  O  O41  1  0.35336090  0.17668045  0.57255440  1
  O  O42  1  0.17668045  0.82331955  0.07255440  1
  O  O43  1  0.35336090  0.17668045  0.92744560  1
  O  O44  1  0.82331955  0.17668045  0.57255440  1
  O  O45  1  0.82331955  0.64663910  0.57255440  1
  O  O46  1  0.82311353  0.64622707  0.16998740  1
  O  O47  1  0.82311353  0.64622707  0.33001260  1
  O  O48  1  0.17688647  0.35377293  0.66998740  1
  O  O49  1  0.82311353  0.17688647  0.16998740  1
  O  O50  1  0.48599074  0.97198149  0.75000000  1
  O  O51  1  0.17688647  0.82311353  0.66998740  1
  O  O52  1  0.64622707  0.82311353  0.66998740  1
  O  O53  1  0.66666700  0.33333300  0.49501331  1
  O  O54  1  0.82311353  0.17688647  0.33001260  1
  O  O55  1  0.33333300  0.66666700  0.50498669  1
  O  O56  1  0.35377293  0.17688647  0.33001260  1
  O  O57  1  0.17668045  0.35336090  0.07255440  1
