# generated using pymatgen
data_Sm2Ta2Cl2O7
_symmetry_space_group_name_H-M   'P 1'
_cell_length_a   3.93706272
_cell_length_b   6.92091134
_cell_length_c   7.97804230
_cell_angle_alpha   113.16965651
_cell_angle_beta   104.28363592
_cell_angle_gamma   89.99952144
_symmetry_Int_Tables_number   1
_chemical_formula_structural   Sm2Ta2Cl2O7
_chemical_formula_sum   'Sm2 Ta2 Cl2 O7'
_cell_volume   192.52156700
_cell_formula_units_Z   1
loop_
 _symmetry_equiv_pos_site_id
 _symmetry_equiv_pos_as_xyz
  1  'x, y, z'
loop_
 _atom_site_type_symbol
 _atom_site_label
 _atom_site_symmetry_multiplicity
 _atom_site_fract_x
 _atom_site_fract_y
 _atom_site_fract_z
 _atom_site_occupancy
  Sm  Sm0  1  0.30666246  0.83681740  0.61335108  1
  Sm  Sm1  1  0.69333754  0.16318260  0.38664892  1
  Ta  Ta2  1  0.96500919  0.19970074  0.93012068  1
  Ta  Ta3  1  0.03499081  0.80029926  0.06987932  1
  Cl  Cl4  1  0.68007331  0.56566035  0.36013831  1
  Cl  Cl5  1  0.31992669  0.43433965  0.63986169  1
  O  O6  1  0.45322214  0.16006444  0.90653103  1
  O  O7  1  0.54677786  0.83993556  0.09346897  1
  O  O8  1  0.91788704  0.84562303  0.83575885  1
  O  O9  1  0.00000000  0.50000000  0.00000000  1
  O  O10  1  0.82365666  0.06694362  0.64738499  1
  O  O11  1  0.08211296  0.15437697  0.16424115  1
  O  O12  1  0.17634334  0.93305638  0.35261501  1
