# generated using pymatgen
data_Ba(BrO3)2
_symmetry_space_group_name_H-M   'P 1'
_cell_length_a   7.49282473
_cell_length_b   7.49282466
_cell_length_c   7.88641372
_cell_angle_alpha   101.57601710
_cell_angle_beta   111.24718619
_cell_angle_gamma   114.03929058
_symmetry_Int_Tables_number   1
_chemical_formula_structural   Ba(BrO3)2
_chemical_formula_sum   'Ba2 Br4 O12'
_cell_volume   343.87912591
_cell_formula_units_Z   2
loop_
 _symmetry_equiv_pos_site_id
 _symmetry_equiv_pos_as_xyz
  1  'x, y, z'
loop_
 _atom_site_type_symbol
 _atom_site_label
 _atom_site_symmetry_multiplicity
 _atom_site_fract_x
 _atom_site_fract_y
 _atom_site_fract_z
 _atom_site_occupancy
  Ba  Ba0  1  0.89839321  0.14839321  0.75000000  1
  Ba  Ba1  1  0.10160679  0.85160679  0.25000000  1
  Br  Br2  1  0.51638660  0.31820954  0.81585341  1
  Br  Br3  1  0.48361340  0.68179046  0.18414659  1
  Br  Br4  1  0.99764387  0.29946681  0.31585341  1
  Br  Br5  1  0.00235613  0.70053319  0.68414659  1
  O  O6  1  0.54439359  0.91139747  0.34780011  1
  O  O7  1  0.06359736  0.19659348  0.15219989  1
  O  O8  1  0.45560641  0.08860253  0.65219989  1
  O  O9  1  0.90642116  0.78062020  0.50267988  1
  O  O10  1  0.17596932  0.56579098  0.41483455  1
  O  O11  1  0.93640264  0.80340652  0.84780011  1
  O  O12  1  0.09357884  0.21937980  0.49732012  1
  O  O13  1  0.77794031  0.40374128  0.99732012  1
  O  O14  1  0.22205969  0.59625872  0.00267988  1
  O  O15  1  0.34904357  0.23886523  0.91483455  1
  O  O16  1  0.82403068  0.43420902  0.58516545  1
  O  O17  1  0.65095643  0.76113477  0.08516545  1
