# generated using pymatgen
data_Cu3(AsO4)2
_symmetry_space_group_name_H-M   'P 1'
_cell_length_a   5.15829144
_cell_length_b   5.51148278
_cell_length_c   11.79880570
_cell_angle_alpha   90.00000000
_cell_angle_beta   90.00000000
_cell_angle_gamma   112.16307934
_symmetry_Int_Tables_number   1
_chemical_formula_structural   Cu3(AsO4)2
_chemical_formula_sum   'Cu6 As4 O16'
_cell_volume   310.65386960
_cell_formula_units_Z   2
loop_
 _symmetry_equiv_pos_site_id
 _symmetry_equiv_pos_as_xyz
  1  'x, y, z'
loop_
 _atom_site_type_symbol
 _atom_site_label
 _atom_site_symmetry_multiplicity
 _atom_site_fract_x
 _atom_site_fract_y
 _atom_site_fract_z
 _atom_site_occupancy
  Cu  Cu0  1  0.24590550  0.85977743  0.16348614  1
  Cu  Cu1  1  0.74590550  0.85977743  0.33651386  1
  Cu  Cu2  1  0.00000000  0.50000000  0.50000000  1
  Cu  Cu3  1  0.25409450  0.14022257  0.66348614  1
  Cu  Cu4  1  0.50000000  0.50000000  0.00000000  1
  Cu  Cu5  1  0.75409450  0.14022257  0.83651386  1
  As  As6  1  0.89277093  0.26671734  0.11423254  1
  As  As7  1  0.60722907  0.73328266  0.61423254  1
  As  As8  1  0.39277093  0.26671734  0.38576746  1
  As  As9  1  0.10722907  0.73328266  0.88576746  1
  O  O10  1  0.78986677  0.72570660  0.48769044  1
  O  O11  1  0.67016009  0.99195398  0.18696527  1
  O  O12  1  0.17016009  0.99195398  0.31303473  1
  O  O13  1  0.69876404  0.22036856  0.41819494  1
  O  O14  1  0.40768920  0.54300867  0.31520455  1
  O  O15  1  0.28986677  0.72570660  0.01230956  1
  O  O16  1  0.82983991  0.00804602  0.68696527  1
  O  O17  1  0.30123596  0.77963144  0.58180506  1
  O  O18  1  0.21013323  0.27429340  0.51230956  1
  O  O19  1  0.90768920  0.54300867  0.18479545  1
  O  O20  1  0.80123596  0.77963144  0.91819494  1
  O  O21  1  0.19876404  0.22036856  0.08180506  1
  O  O22  1  0.59231080  0.45699133  0.68479545  1
  O  O23  1  0.32983991  0.00804602  0.81303473  1
  O  O24  1  0.09231080  0.45699133  0.81520455  1
  O  O25  1  0.71013323  0.27429340  0.98769044  1
