# generated using pymatgen
data_Na2Tl2B10O17
_symmetry_space_group_name_H-M   'P 1'
_cell_length_a   6.52930025
_cell_length_b   11.08833399
_cell_length_c   11.54182480
_cell_angle_alpha   104.28353972
_cell_angle_beta   106.44067715
_cell_angle_gamma   90.00039346
_symmetry_Int_Tables_number   1
_chemical_formula_structural   Na2Tl2B10O17
_chemical_formula_sum   'Na4 Tl4 B20 O34'
_cell_volume   774.48077003
_cell_formula_units_Z   2
loop_
 _symmetry_equiv_pos_site_id
 _symmetry_equiv_pos_as_xyz
  1  'x, y, z'
loop_
 _atom_site_type_symbol
 _atom_site_label
 _atom_site_symmetry_multiplicity
 _atom_site_fract_x
 _atom_site_fract_y
 _atom_site_fract_z
 _atom_site_occupancy
  Na  Na0  1  0.71394610  0.81524117  0.53359411  1
  Na  Na1  1  0.81978706  0.31527279  0.53369865  1
  Na  Na2  1  0.28605390  0.18475883  0.46640589  1
  Na  Na3  1  0.18021294  0.68472721  0.46630135  1
  Tl  Tl4  1  0.73854011  0.92171401  0.86346584  1
  Tl  Tl5  1  0.26145989  0.07828599  0.13653416  1
  Tl  Tl6  1  0.87506486  0.57823537  0.13644432  1
  Tl  Tl7  1  0.12493514  0.42176463  0.86355568  1
  B  B8  1  0.81202658  0.13536584  0.28605618  1
  B  B9  1  0.71179681  0.15901555  0.69451461  1
  B  B10  1  0.37500948  0.73600126  0.10959754  1
  B  B11  1  0.60912709  0.57181719  0.67604497  1
  B  B12  1  0.28820319  0.84098445  0.30548539  1
  B  B13  1  0.62499052  0.26399874  0.89040246  1
  B  B14  1  0.39838716  1.00093022  0.63770450  1
  B  B15  1  0.18797342  0.86463416  0.71394382  1
  B  B16  1  0.39087291  0.42818281  0.32395503  1
  B  B17  1  0.60161284  -0.00093022  0.36229550  1
  B  B18  1  0.26546470  0.76401466  0.89039530  1
  B  B19  1  0.06687641  0.07179395  0.67604049  1
  B  B20  1  0.98268165  0.65900934  0.69448965  1
  B  B21  1  0.01731835  0.34099066  0.30551035  1
  B  B22  1  0.23926820  0.50093402  0.63774462  1
  B  B23  1  0.93312359  0.92820605  0.32395951  1
  B  B24  1  0.73453530  0.23598534  0.10960470  1
  B  B25  1  0.52602076  0.36466778  0.71398494  1
  B  B26  1  0.47397924  0.63533222  0.28601506  1
  B  B27  1  0.76073180  0.49906598  0.36225538  1
  O  O28  1  0.59243888  0.24997693  0.99998486  1
  O  O29  1  0.68830074  0.14188473  0.15798046  1
  O  O30  1  0.59076768  0.25290860  0.64218688  1
  O  O31  1  0.60092524  0.03039228  0.63593158  1
  O  O32  1  0.46952236  0.64185428  0.15793647  1
  O  O33  1  0.25643641  0.81850991  0.16795639  1
  O  O34  1  0.96506682  0.46963179  0.36405109  1
  O  O35  1  0.53047764  0.35814572  0.84206353  1
  O  O36  1  0.03493318  0.53036821  0.63594891  1
  O  O37  1  0.39907476  0.96960772  0.36406842  1
  O  O38  1  0.94834561  0.02715370  0.27544699  1
  O  O39  1  0.29815313  0.38529462  0.65196927  1
  O  O40  1  0.74356359  0.18149009  0.83204361  1
  O  O41  1  0.32705960  0.52711284  0.27542014  1
  O  O42  1  0.94857561  0.24713579  0.35785966  1
  O  O43  1  0.07755319  0.83919474  0.33108534  1
  O  O44  1  0.61106874  0.41318222  0.36957970  1
  O  O45  1  0.91153348  0.31847692  0.16797114  1
  O  O46  1  0.05142439  0.75286421  0.64214034  1
  O  O47  1  0.25358697  0.33919653  0.33114367  1
  O  O48  1  0.31169926  0.85811527  0.84201954  1
  O  O49  1  0.05165439  0.97284630  0.72455301  1
  O  O50  1  0.40756112  0.75002307  0.00001514  1
  O  O51  1  0.75863257  0.91320189  0.36962321  1
  O  O52  1  0.35378017  0.88528563  0.65192298  1
  O  O53  1  0.67294040  0.47288716  0.72457986  1
  O  O54  1  0.92244681  0.16080526  0.66891466  1
  O  O55  1  0.64621983  0.11471437  0.34807702  1
  O  O56  1  0.40923232  0.74709140  0.35781312  1
  O  O57  1  0.74641303  0.66080347  0.66885633  1
  O  O58  1  0.70184687  0.61470538  0.34803073  1
  O  O59  1  0.08846652  0.68152308  0.83202886  1
  O  O60  1  0.24136743  0.08679811  0.63037679  1
  O  O61  1  0.38893126  0.58681778  0.63042030  1
