# generated using pymatgen
data_Gd2B(OF)3
_symmetry_space_group_name_H-M   'P 1'
_cell_length_a   6.25208812
_cell_length_b   8.39107832
_cell_length_c   16.74037990
_cell_angle_alpha   93.40001871
_cell_angle_beta   90.00000000
_cell_angle_gamma   90.00000000
_symmetry_Int_Tables_number   1
_chemical_formula_structural   Gd2B(OF)3
_chemical_formula_sum   'Gd16 B8 O24 F24'
_cell_volume   876.68395738
_cell_formula_units_Z   8
loop_
 _symmetry_equiv_pos_site_id
 _symmetry_equiv_pos_as_xyz
  1  'x, y, z'
loop_
 _atom_site_type_symbol
 _atom_site_label
 _atom_site_symmetry_multiplicity
 _atom_site_fract_x
 _atom_site_fract_y
 _atom_site_fract_z
 _atom_site_occupancy
  Gd  Gd0  1  0.85280443  0.68019621  0.80987983  1
  Gd  Gd1  1  0.86042088  0.94176281  0.32581359  1
  Gd  Gd2  1  0.13124474  0.33320198  0.43069177  1
  Gd  Gd3  1  0.36875526  0.83320198  0.43069177  1
  Gd  Gd4  1  0.63124474  0.16679802  0.56930823  1
  Gd  Gd5  1  0.85551467  0.69952501  0.05513885  1
  Gd  Gd6  1  0.14719557  0.31980379  0.19012017  1
  Gd  Gd7  1  0.63957912  0.44176281  0.32581359  1
  Gd  Gd8  1  0.36042088  0.55823719  0.67418641  1
  Gd  Gd9  1  0.86875526  0.66679802  0.56930823  1
  Gd  Gd10  1  0.64448533  0.19952501  0.05513885  1
  Gd  Gd11  1  0.14448533  0.30047499  0.94486115  1
  Gd  Gd12  1  0.64719557  0.18019621  0.80987983  1
  Gd  Gd13  1  0.13957912  0.05823719  0.67418641  1
  Gd  Gd14  1  0.35551467  0.80047499  0.94486115  1
  Gd  Gd15  1  0.35280443  0.81980379  0.19012017  1
  B  B16  1  0.84146368  0.95945526  0.94685857  1
  B  B17  1  0.15202720  0.59878773  0.32791294  1
  B  B18  1  0.84797280  0.40121227  0.67208706  1
  B  B19  1  0.65853632  0.45945526  0.94685857  1
  B  B20  1  0.34797280  0.09878773  0.32791294  1
  B  B21  1  0.34146368  0.54054474  0.05314143  1
  B  B22  1  0.65202720  0.90121227  0.67208706  1
  B  B23  1  0.15853632  0.04054474  0.05314143  1
  O  O24  1  0.30570789  0.56294214  0.38501499  1
  O  O25  1  0.80570789  0.93705786  0.61498501  1
  O  O26  1  0.35187018  0.38532849  0.07693778  1
  O  O27  1  0.14344887  0.75501319  0.30520077  1
  O  O28  1  0.64344887  0.74498681  0.69479923  1
  O  O29  1  0.19429211  0.06294214  0.38501499  1
  O  O30  1  0.30401146  0.07116336  0.99196149  1
  O  O31  1  0.69429211  0.43705786  0.61498501  1
  O  O32  1  0.80401146  0.42883664  0.00803851  1
  O  O33  1  0.98746237  0.52157528  0.69645002  1
  O  O34  1  0.19598854  0.57116336  0.99196149  1
  O  O35  1  0.85655113  0.24498681  0.69479923  1
  O  O36  1  0.48746237  0.97842472  0.30354998  1
  O  O37  1  0.51253763  0.02157528  0.69645002  1
  O  O38  1  0.35655113  0.25501319  0.30520077  1
  O  O39  1  0.14812982  0.88532849  0.07693778  1
  O  O40  1  0.47945407  0.66326757  0.07687733  1
  O  O41  1  0.52054593  0.33673243  0.92312267  1
  O  O42  1  0.97945407  0.83673243  0.92312267  1
  O  O43  1  0.64812982  0.61467151  0.92306222  1
  O  O44  1  0.02054593  0.16326757  0.07687733  1
  O  O45  1  0.69598854  0.92883664  0.00803851  1
  O  O46  1  0.85187018  0.11467151  0.92306222  1
  O  O47  1  0.01253763  0.47842472  0.30354998  1
  F  F48  1  0.82574903  0.49010920  0.45134272  1
  F  F49  1  0.57088932  0.90532287  0.84971952  1
  F  F50  1  0.82777474  0.21515175  0.35337167  1
  F  F51  1  0.07088932  0.59467713  0.15028048  1
  F  F52  1  0.77137400  0.32119939  0.18813168  1
  F  F53  1  0.72862600  0.82119939  0.18813168  1
  F  F54  1  0.27137400  0.17880061  0.81186832  1
  F  F55  1  0.57061866  0.45816512  0.77095439  1
  F  F56  1  0.47620921  0.29647623  0.46710826  1
  F  F57  1  0.92911068  0.40532287  0.84971952  1
  F  F58  1  0.17222526  0.78484825  0.64662833  1
  F  F59  1  0.42911068  0.09467713  0.15028048  1
  F  F60  1  0.32777474  0.28484825  0.64662833  1
  F  F61  1  0.42938134  0.54183488  0.22904561  1
  F  F62  1  0.52379079  0.70352377  0.53289174  1
  F  F63  1  0.67222526  0.71515175  0.35337167  1
  F  F64  1  0.02379079  0.79647623  0.46710826  1
  F  F65  1  0.97620921  0.20352377  0.53289174  1
  F  F66  1  0.07061866  0.04183488  0.22904561  1
  F  F67  1  0.67425097  0.99010920  0.45134272  1
  F  F68  1  0.17425097  0.50989080  0.54865728  1
  F  F69  1  0.92938134  0.95816512  0.77095439  1
  F  F70  1  0.22862600  0.67880061  0.81186832  1
  F  F71  1  0.32574903  0.00989080  0.54865728  1
