# generated using pymatgen
data_KTa(BO3)2
_symmetry_space_group_name_H-M   'P 1'
_cell_length_a   3.95555269
_cell_length_b   7.49629401
_cell_length_c   9.47237338
_cell_angle_alpha   90.00000000
_cell_angle_beta   90.00000000
_cell_angle_gamma   90.00000000
_symmetry_Int_Tables_number   1
_chemical_formula_structural   KTa(BO3)2
_chemical_formula_sum   'K2 Ta2 B4 O12'
_cell_volume   280.87468225
_cell_formula_units_Z   2
loop_
 _symmetry_equiv_pos_site_id
 _symmetry_equiv_pos_as_xyz
  1  'x, y, z'
loop_
 _atom_site_type_symbol
 _atom_site_label
 _atom_site_symmetry_multiplicity
 _atom_site_fract_x
 _atom_site_fract_y
 _atom_site_fract_z
 _atom_site_occupancy
  K  K0  1  0.52376174  0.50000000  0.14340779  1
  K  K1  1  0.47623826  0.00000000  0.64340779  1
  Ta  Ta2  1  0.17543480  0.00000000  0.24349191  1
  Ta  Ta3  1  0.82456520  0.50000000  0.74349191  1
  B  B4  1  0.01889268  0.66643490  0.45622680  1
  B  B5  1  0.98110732  0.16643490  0.95622680  1
  B  B6  1  0.01889268  0.33356510  0.45622680  1
  B  B7  1  0.98110732  0.83356510  0.95622680  1
  O  O8  1  0.14826217  0.80925534  0.38579776  1
  O  O9  1  0.14826217  0.19074466  0.38579776  1
  O  O10  1  0.85173783  0.30925534  0.88579776  1
  O  O11  1  0.64514100  0.00000000  0.24164862  1
  O  O12  1  0.35485900  0.50000000  0.74164862  1
  O  O13  1  0.12310339  0.18408083  0.08655175  1
  O  O14  1  0.12310339  0.81591917  0.08655175  1
  O  O15  1  0.85173783  0.69074466  0.88579776  1
  O  O16  1  0.87689661  0.31591917  0.58655175  1
  O  O17  1  0.95260137  0.00000000  0.88749907  1
  O  O18  1  0.87689661  0.68408083  0.58655175  1
  O  O19  1  0.04739863  0.50000000  0.38749907  1
