# generated using pymatgen
data_Rb2Pd(NO3)4
_symmetry_space_group_name_H-M   'P 1'
_cell_length_a   8.03707715
_cell_length_b   8.17163887
_cell_length_c   9.97541428
_cell_angle_alpha   90.00000000
_cell_angle_beta   100.31652136
_cell_angle_gamma   90.00000000
_symmetry_Int_Tables_number   1
_chemical_formula_structural   Rb2Pd(NO3)4
_chemical_formula_sum   'Rb4 Pd2 N8 O24'
_cell_volume   644.55476476
_cell_formula_units_Z   2
loop_
 _symmetry_equiv_pos_site_id
 _symmetry_equiv_pos_as_xyz
  1  'x, y, z'
loop_
 _atom_site_type_symbol
 _atom_site_label
 _atom_site_symmetry_multiplicity
 _atom_site_fract_x
 _atom_site_fract_y
 _atom_site_fract_z
 _atom_site_occupancy
  Rb  Rb0  1  0.65923922  0.42947319  0.32198037  1
  Rb  Rb1  1  0.34076078  0.57052681  0.67801963  1
  Rb  Rb2  1  0.34076078  0.92947319  0.17801963  1
  Rb  Rb3  1  0.65923922  0.07052681  0.82198037  1
  Pd  Pd4  1  0.00000000  0.00000000  0.50000000  1
  Pd  Pd5  1  0.00000000  0.50000000  0.00000000  1
  N  N6  1  0.16559940  0.54614796  0.28351994  1
  N  N7  1  0.83440060  0.45385204  0.71648006  1
  N  N8  1  0.67620601  0.84506316  0.51843109  1
  N  N9  1  0.67620601  0.65493684  0.01843109  1
  N  N10  1  0.32379399  0.34506316  0.98156891  1
  N  N11  1  0.32379399  0.15493684  0.48156891  1
  N  N12  1  0.16559940  0.95385204  0.78351994  1
  N  N13  1  0.83440060  0.04614796  0.21648006  1
  O  O14  1  0.55273578  0.82182924  0.57627261  1
  O  O15  1  0.44726422  0.32182924  0.92372739  1
  O  O16  1  0.15796607  0.89395541  0.65854785  1
  O  O17  1  0.30829766  0.21582418  0.59291387  1
  O  O18  1  0.30829766  0.28417582  0.09291387  1
  O  O19  1  0.84203393  0.10604459  0.34145215  1
  O  O20  1  0.44726422  0.17817076  0.42372739  1
  O  O21  1  0.06387233  0.05918115  0.80662771  1
  O  O22  1  0.69170234  0.71582418  0.90708613  1
  O  O23  1  0.71817011  0.39537988  0.62902931  1
  O  O24  1  0.79467529  0.55714962  0.08408925  1
  O  O25  1  0.93612767  0.55918115  0.69337229  1
  O  O26  1  0.20532471  0.05714962  0.41591075  1
  O  O27  1  0.84203393  0.39395541  0.84145215  1
  O  O28  1  0.20532471  0.44285038  0.91591075  1
  O  O29  1  0.79467529  0.94285038  0.58408925  1
  O  O30  1  0.28182989  0.89537988  0.87097069  1
  O  O31  1  0.28182989  0.60462012  0.37097069  1
  O  O32  1  0.71817011  0.10462012  0.12902931  1
  O  O33  1  0.93612767  0.94081885  0.19337229  1
  O  O34  1  0.06387233  0.44081885  0.30662771  1
  O  O35  1  0.69170234  0.78417582  0.40708613  1
  O  O36  1  0.55273578  0.67817076  0.07627261  1
  O  O37  1  0.15796607  0.60604459  0.15854785  1
