# generated using pymatgen
data_CsCO2
_symmetry_space_group_name_H-M   'P 1'
_cell_length_a   6.72319683
_cell_length_b   8.74454592
_cell_length_c   11.19055246
_cell_angle_alpha   90.00000000
_cell_angle_beta   90.00000000
_cell_angle_gamma   96.93688082
_symmetry_Int_Tables_number   1
_chemical_formula_structural   CsCO2
_chemical_formula_sum   'Cs8 C8 O16'
_cell_volume   653.09115670
_cell_formula_units_Z   8
loop_
 _symmetry_equiv_pos_site_id
 _symmetry_equiv_pos_as_xyz
  1  'x, y, z'
loop_
 _atom_site_type_symbol
 _atom_site_label
 _atom_site_symmetry_multiplicity
 _atom_site_fract_x
 _atom_site_fract_y
 _atom_site_fract_z
 _atom_site_occupancy
  Cs  Cs0  1  0.71455879  0.51756513  0.79586472  1
  Cs  Cs1  1  0.71455879  0.01756513  0.70413528  1
  Cs  Cs2  1  0.28544121  0.48243487  0.20413528  1
  Cs  Cs3  1  0.22940400  0.83134360  0.91254058  1
  Cs  Cs4  1  0.22940400  0.33134360  0.58745942  1
  Cs  Cs5  1  0.28544121  0.98243487  0.29586472  1
  Cs  Cs6  1  0.77059600  0.16865640  0.08745942  1
  Cs  Cs7  1  0.77059600  0.66865640  0.41254058  1
  C  C8  1  0.16684758  0.33302333  0.89024613  1
  C  C9  1  0.30948212  0.22552092  0.94267083  1
  C  C10  1  0.16684758  0.83302333  0.60975387  1
  C  C11  1  0.83315242  0.66697667  0.10975387  1
  C  C12  1  0.69051788  0.27447908  0.44267083  1
  C  C13  1  0.83315242  0.16697667  0.39024613  1
  C  C14  1  0.69051788  0.77447908  0.05732917  1
  C  C15  1  0.30948212  0.72552092  0.55732917  1
  O  O16  1  0.72678108  0.82646415  0.95183903  1
  O  O17  1  0.72678108  0.32646415  0.54816097  1
  O  O18  1  0.27321892  0.67353585  0.45183903  1
  O  O19  1  0.27321892  0.17353585  0.04816097  1
  O  O20  1  0.22411125  0.47688965  0.89115367  1
  O  O21  1  0.45234700  0.69438115  0.62434588  1
  O  O22  1  0.00226522  0.26716091  0.84745363  1
  O  O23  1  0.99773478  0.73283909  0.15254637  1
  O  O24  1  0.54765300  0.80561885  0.12434588  1
  O  O25  1  0.77588875  0.02311035  0.39115367  1
  O  O26  1  0.22411125  0.97688965  0.60884633  1
  O  O27  1  0.77588875  0.52311035  0.10884633  1
  O  O28  1  0.00226522  0.76716091  0.65254637  1
  O  O29  1  0.54765300  0.30561885  0.37565412  1
  O  O30  1  0.99773478  0.23283909  0.34745363  1
  O  O31  1  0.45234700  0.19438115  0.87565412  1
