# generated using pymatgen
data_SrTaF7
_symmetry_space_group_name_H-M   'P 1'
_cell_length_a   4.96983483
_cell_length_b   6.82811866
_cell_length_c   7.33269028
_cell_angle_alpha   90.00000000
_cell_angle_beta   90.00000000
_cell_angle_gamma   94.53240121
_symmetry_Int_Tables_number   1
_chemical_formula_structural   SrTaF7
_chemical_formula_sum   'Sr2 Ta2 F14'
_cell_volume   248.05392586
_cell_formula_units_Z   2
loop_
 _symmetry_equiv_pos_site_id
 _symmetry_equiv_pos_as_xyz
  1  'x, y, z'
loop_
 _atom_site_type_symbol
 _atom_site_label
 _atom_site_symmetry_multiplicity
 _atom_site_fract_x
 _atom_site_fract_y
 _atom_site_fract_z
 _atom_site_occupancy
  Sr  Sr0  1  0.97194562  0.68521626  0.25000000  1
  Sr  Sr1  1  0.02805438  0.31478374  0.75000000  1
  Ta  Ta2  1  0.53562083  0.22057885  0.25000000  1
  Ta  Ta3  1  0.46437917  0.77942115  0.75000000  1
  F  F4  1  0.34766500  0.95254517  0.25000000  1
  F  F5  1  0.67433417  0.78244943  0.52729987  1
  F  F6  1  0.65233500  0.04745483  0.75000000  1
  F  F7  1  0.32566583  0.21755057  0.02729987  1
  F  F8  1  0.82706969  0.04628291  0.25000000  1
  F  F9  1  0.80775234  0.35928360  0.07677898  1
  F  F10  1  0.80775234  0.35928360  0.42322102  1
  F  F11  1  0.19224766  0.64071640  0.57677898  1
  F  F12  1  0.67433417  0.78244943  0.97270013  1
  F  F13  1  0.17293031  0.95371709  0.75000000  1
  F  F14  1  0.32566583  0.21755057  0.47270013  1
  F  F15  1  0.58104570  0.50508503  0.75000000  1
  F  F16  1  0.19224766  0.64071640  0.92322102  1
  F  F17  1  0.41895430  0.49491497  0.25000000  1
