# generated using pymatgen
data_KNa2Y(Si2O5)3
_symmetry_space_group_name_H-M   'P 1'
_cell_length_a   8.65719974
_cell_length_b   10.24496042
_cell_length_c   10.24496071
_cell_angle_alpha   63.31526556
_cell_angle_beta   65.00683740
_cell_angle_gamma   65.00683638
_symmetry_Int_Tables_number   1
_chemical_formula_structural   KNa2Y(Si2O5)3
_chemical_formula_sum   'K2 Na4 Y2 Si12 O30'
_cell_volume   704.79602432
_cell_formula_units_Z   2
loop_
 _symmetry_equiv_pos_site_id
 _symmetry_equiv_pos_as_xyz
  1  'x, y, z'
loop_
 _atom_site_type_symbol
 _atom_site_label
 _atom_site_symmetry_multiplicity
 _atom_site_fract_x
 _atom_site_fract_y
 _atom_site_fract_z
 _atom_site_occupancy
  K  K0  1  0.75000000  0.56994770  0.43005230  1
  K  K1  1  0.25000000  0.43005230  0.56994770  1
  Na  Na2  1  0.74344612  0.75655388  0.75655388  1
  Na  Na3  1  0.25655388  0.24344612  0.24344612  1
  Na  Na4  1  0.24344612  0.75655388  0.75655388  1
  Na  Na5  1  0.75655388  0.24344612  0.24344612  1
  Y  Y6  1  0.50000000  0.00000000  0.50000000  1
  Y  Y7  1  0.00000000  0.50000000  0.00000000  1
  Si  Si8  1  0.31794006  0.82425319  0.38396921  1
  Si  Si9  1  0.64999620  0.13407484  0.06593277  1
  Si  Si10  1  0.52616246  0.61603079  0.17574681  1
  Si  Si11  1  0.14999620  0.06593277  0.13407484  1
  Si  Si12  1  0.85000380  0.93406723  0.86592516  1
  Si  Si13  1  0.02616246  0.17574681  0.61603079  1
  Si  Si14  1  0.68205994  0.17574681  0.61603079  1
  Si  Si15  1  0.35000380  0.86592516  0.93406723  1
  Si  Si16  1  0.81794006  0.38396921  0.82425319  1
  Si  Si17  1  0.47383754  0.38396921  0.82425319  1
  Si  Si18  1  0.97383754  0.82425319  0.38396921  1
  Si  Si19  1  0.18205994  0.61603079  0.17574681  1
  O  O20  1  0.89533140  0.49685615  0.83030798  1
  O  O21  1  0.29142005  0.98375075  0.23838148  1
  O  O22  1  0.10466860  0.50314385  0.16969202  1
  O  O23  1  0.42745334  0.88923379  0.75585952  1
  O  O24  1  0.98644771  0.98375075  0.23838148  1
  O  O25  1  0.22249553  0.16969202  0.50314385  1
  O  O26  1  0.45586105  0.68070244  0.31929756  1
  O  O27  1  0.60466860  0.16969202  0.50314385  1
  O  O28  1  0.92745334  0.75585952  0.88923379  1
  O  O29  1  0.20857995  0.76161852  0.01624925  1
  O  O30  1  0.54413895  0.31929756  0.68070244  1
  O  O31  1  0.57254666  0.11076621  0.24414048  1
  O  O32  1  0.27750447  0.49685615  0.83030798  1
  O  O33  1  0.01355229  0.01624925  0.76161852  1
  O  O34  1  0.77750447  0.83030798  0.49685615  1
  O  O35  1  0.87882807  0.21222201  0.53012185  1
  O  O36  1  0.70857995  0.01624925  0.76161852  1
  O  O37  1  0.37882807  0.53012185  0.21222201  1
  O  O38  1  0.39533140  0.83030798  0.49685615  1
  O  O39  1  0.95586105  0.31929756  0.68070244  1
  O  O40  1  0.75000000  0.97496784  0.02503216  1
  O  O41  1  0.72249553  0.50314385  0.16969202  1
  O  O42  1  0.04413895  0.68070244  0.31929756  1
  O  O43  1  0.25000000  0.02503216  0.97496784  1
  O  O44  1  0.48644771  0.23838148  0.98375075  1
  O  O45  1  0.51355229  0.76161852  0.01624925  1
  O  O46  1  0.79142005  0.23838148  0.98375075  1
  O  O47  1  0.62117193  0.46987815  0.78777799  1
  O  O48  1  0.07254666  0.24414048  0.11076621  1
  O  O49  1  0.12117193  0.78777799  0.46987815  1
