# generated using pymatgen
data_NaPO3
_symmetry_space_group_name_H-M   'P 1'
_cell_length_a   7.80655285
_cell_length_b   8.03149194
_cell_length_c   13.42037224
_cell_angle_alpha   90.00000000
_cell_angle_beta   90.00000000
_cell_angle_gamma   90.00000000
_symmetry_Int_Tables_number   1
_chemical_formula_structural   NaPO3
_chemical_formula_sum   'Na12 P12 O36'
_cell_volume   841.43407247
_cell_formula_units_Z   12
loop_
 _symmetry_equiv_pos_site_id
 _symmetry_equiv_pos_as_xyz
  1  'x, y, z'
loop_
 _atom_site_type_symbol
 _atom_site_label
 _atom_site_symmetry_multiplicity
 _atom_site_fract_x
 _atom_site_fract_y
 _atom_site_fract_z
 _atom_site_occupancy
  Na  Na0  1  0.81660473  0.00559251  0.42654526  1
  Na  Na1  1  0.03651376  0.75000000  0.22278489  1
  Na  Na2  1  0.46348624  0.25000000  0.72278489  1
  Na  Na3  1  0.31660473  0.49440749  0.07345474  1
  Na  Na4  1  0.18339527  0.50559251  0.57345474  1
  Na  Na5  1  0.68339527  0.50559251  0.92654526  1
  Na  Na6  1  0.96348624  0.25000000  0.77721511  1
  Na  Na7  1  0.31660473  0.00559251  0.07345474  1
  Na  Na8  1  0.18339527  0.99440749  0.57345474  1
  Na  Na9  1  0.68339527  0.99440749  0.92654526  1
  Na  Na10  1  0.53651376  0.75000000  0.27721511  1
  Na  Na11  1  0.81660473  0.49440749  0.42654526  1
  P  P12  1  0.75352473  0.93214601  0.67062753  1
  P  P13  1  0.02354702  0.75000000  0.96162954  1
  P  P14  1  0.52354702  0.75000000  0.53837046  1
  P  P15  1  0.25352473  0.56785399  0.82937247  1
  P  P16  1  0.47645298  0.25000000  0.46162954  1
  P  P17  1  0.24647527  0.43214601  0.32937247  1
  P  P18  1  0.24647527  0.06785399  0.32937247  1
  P  P19  1  0.74647527  0.06785399  0.17062753  1
  P  P20  1  0.75352473  0.56785399  0.67062753  1
  P  P21  1  0.74647527  0.43214601  0.17062753  1
  P  P22  1  0.97645298  0.25000000  0.03837046  1
  P  P23  1  0.25352473  0.93214601  0.82937247  1
  O  O24  1  0.13735528  0.75000000  0.05233366  1
  O  O25  1  0.36264472  0.25000000  0.55233366  1
  O  O26  1  0.57326218  0.59266297  0.60992681  1
  O  O27  1  0.57326218  0.90733703  0.60992681  1
  O  O28  1  0.78126987  0.94362622  0.25175565  1
  O  O29  1  0.07326218  0.90733703  0.89007319  1
  O  O30  1  0.78126987  0.55637378  0.25175565  1
  O  O31  1  0.63735528  0.75000000  0.44766634  1
  O  O32  1  0.42673782  0.09266297  0.39007319  1
  O  O33  1  0.71873013  0.05637378  0.75175565  1
  O  O34  1  0.92673782  0.40733703  0.10992681  1
  O  O35  1  0.83324483  0.75000000  0.97222672  1
  O  O36  1  0.60466454  0.03661447  0.09819486  1
  O  O37  1  0.72637615  0.25000000  0.22342523  1
  O  O38  1  0.42673782  0.40733703  0.39007319  1
  O  O39  1  0.16675517  0.25000000  0.02777328  1
  O  O40  1  0.21873013  0.44362622  0.74824435  1
  O  O41  1  0.66675517  0.25000000  0.47222672  1
  O  O42  1  0.28126987  0.55637378  0.24824435  1
  O  O43  1  0.86264472  0.25000000  0.94766634  1
  O  O44  1  0.71873013  0.44362622  0.75175565  1
  O  O45  1  0.10466454  0.03661447  0.40180514  1
  O  O46  1  0.77362385  0.75000000  0.72342523  1
  O  O47  1  0.89533546  0.96338553  0.59819486  1
  O  O48  1  0.21873013  0.05637378  0.74824435  1
  O  O49  1  0.28126987  0.94362622  0.24824435  1
  O  O50  1  0.92673782  0.09266297  0.10992681  1
  O  O51  1  0.27362385  0.75000000  0.77657477  1
  O  O52  1  0.60466454  0.46338553  0.09819486  1
  O  O53  1  0.33324483  0.75000000  0.52777328  1
  O  O54  1  0.89533546  0.53661447  0.59819486  1
  O  O55  1  0.10466454  0.46338553  0.40180514  1
  O  O56  1  0.07326218  0.59266297  0.89007319  1
  O  O57  1  0.39533546  0.96338553  0.90180514  1
  O  O58  1  0.22637615  0.25000000  0.27657477  1
  O  O59  1  0.39533546  0.53661447  0.90180514  1
