# generated using pymatgen
data_K2HRuCl5
_symmetry_space_group_name_H-M   'P 1'
_cell_length_a   7.36261146
_cell_length_b   9.31360216
_cell_length_c   13.76668575
_cell_angle_alpha   90.00000000
_cell_angle_beta   90.00000000
_cell_angle_gamma   90.00000000
_symmetry_Int_Tables_number   1
_chemical_formula_structural   K2HRuCl5
_chemical_formula_sum   'K8 H4 Ru4 Cl20'
_cell_volume   944.01514995
_cell_formula_units_Z   4
loop_
 _symmetry_equiv_pos_site_id
 _symmetry_equiv_pos_as_xyz
  1  'x, y, z'
loop_
 _atom_site_type_symbol
 _atom_site_label
 _atom_site_symmetry_multiplicity
 _atom_site_fract_x
 _atom_site_fract_y
 _atom_site_fract_z
 _atom_site_occupancy
  K  K0  1  0.64853323  0.99959820  0.64853783  1
  K  K1  1  0.35146677  0.00040180  0.35146217  1
  K  K2  1  0.14853323  0.00040180  0.85146217  1
  K  K3  1  0.35146677  0.49959820  0.35146217  1
  K  K4  1  0.85146677  0.99959820  0.14853783  1
  K  K5  1  0.64853323  0.50040180  0.64853783  1
  K  K6  1  0.85146677  0.50040180  0.14853783  1
  K  K7  1  0.14853323  0.49959820  0.85146217  1
  H  H8  1  0.55587397  0.75000000  0.99064255  1
  H  H9  1  0.44412603  0.25000000  0.00935745  1
  H  H10  1  0.05587397  0.25000000  0.50935745  1
  H  H11  1  0.94412603  0.75000000  0.49064255  1
  Ru  Ru12  1  0.68501768  0.75000000  0.89730565  1
  Ru  Ru13  1  0.31498232  0.25000000  0.10269435  1
  Ru  Ru14  1  0.18501768  0.25000000  0.60269435  1
  Ru  Ru15  1  0.81498232  0.75000000  0.39730565  1
  Cl  Cl16  1  0.89565391  0.75000000  0.74709888  1
  Cl  Cl17  1  0.10434609  0.25000000  0.25290112  1
  Cl  Cl18  1  0.39565391  0.25000000  0.75290112  1
  Cl  Cl19  1  0.60434609  0.75000000  0.24709888  1
  Cl  Cl20  1  0.67693133  0.99594348  0.90306901  1
  Cl  Cl21  1  0.32306867  0.00405652  0.09693099  1
  Cl  Cl22  1  0.17693133  0.00405652  0.59693099  1
  Cl  Cl23  1  0.32306867  0.49594348  0.09693099  1
  Cl  Cl24  1  0.82306867  0.99594348  0.40306901  1
  Cl  Cl25  1  0.67693133  0.50405652  0.90306901  1
  Cl  Cl26  1  0.82306867  0.50405652  0.40306901  1
  Cl  Cl27  1  0.17693133  0.49594348  0.59693099  1
  Cl  Cl28  1  0.42150471  0.75000000  0.79663123  1
  Cl  Cl29  1  0.57849529  0.25000000  0.20336877  1
  Cl  Cl30  1  0.92150471  0.25000000  0.70336877  1
  Cl  Cl31  1  0.07849529  0.75000000  0.29663123  1
  Cl  Cl32  1  0.94555274  0.75000000  0.00102254  1
  Cl  Cl33  1  0.05444726  0.25000000  0.99897746  1
  Cl  Cl34  1  0.44555274  0.25000000  0.49897746  1
  Cl  Cl35  1  0.55444726  0.75000000  0.50102254  1
