# generated using pymatgen
data_Cs2Bi4O7
_symmetry_space_group_name_H-M   'P 1'
_cell_length_a   13.00015218
_cell_length_b   13.00015182
_cell_length_c   16.14734460
_cell_angle_alpha   85.34704915
_cell_angle_beta   85.34704928
_cell_angle_gamma   61.18070777
_symmetry_Int_Tables_number   1
_chemical_formula_structural   Cs2Bi4O7
_chemical_formula_sum   'Cs16 Bi32 O56'
_cell_volume   2380.32765119
_cell_formula_units_Z   8
loop_
 _symmetry_equiv_pos_site_id
 _symmetry_equiv_pos_as_xyz
  1  'x, y, z'
loop_
 _atom_site_type_symbol
 _atom_site_label
 _atom_site_symmetry_multiplicity
 _atom_site_fract_x
 _atom_site_fract_y
 _atom_site_fract_z
 _atom_site_occupancy
  Cs  Cs0  1  0.62244633  0.02084681  0.79533491  1
  Cs  Cs1  1  0.96821419  0.87835566  0.70529098  1
  Cs  Cs2  1  0.86514966  0.45594176  0.20619803  1
  Cs  Cs3  1  0.87835566  0.96821419  0.20529098  1
  Cs  Cs4  1  0.97915319  0.37755367  0.70466509  1
  Cs  Cs5  1  0.63812899  0.53312411  0.78864439  1
  Cs  Cs6  1  0.45594176  0.86514966  0.70619803  1
  Cs  Cs7  1  0.03178581  0.12164434  0.29470902  1
  Cs  Cs8  1  0.54405824  0.13485034  0.29380197  1
  Cs  Cs9  1  0.36187101  0.46687589  0.21135561  1
  Cs  Cs10  1  0.53312411  0.63812899  0.28864439  1
  Cs  Cs11  1  0.37755367  0.97915319  0.20466509  1
  Cs  Cs12  1  0.13485034  0.54405824  0.79380197  1
  Cs  Cs13  1  0.02084681  0.62244633  0.29533491  1
  Cs  Cs14  1  0.12164434  0.03178581  0.79470902  1
  Cs  Cs15  1  0.46687589  0.36187101  0.71135561  1
  Bi  Bi16  1  0.30227733  0.70276032  0.61943462  1
  Bi  Bi17  1  0.54046826  0.59847726  0.03347184  1
  Bi  Bi18  1  0.09415403  0.11387998  0.54195590  1
  Bi  Bi19  1  0.61025937  0.09412959  0.04317718  1
  Bi  Bi20  1  0.45953174  0.40152274  0.96652816  1
  Bi  Bi21  1  0.40084579  0.96305725  0.46195993  1
  Bi  Bi22  1  0.79217998  0.69951230  0.88635534  1
  Bi  Bi23  1  0.90587041  0.38974063  0.45682282  1
  Bi  Bi24  1  0.11387998  0.09415403  0.04195590  1
  Bi  Bi25  1  0.90584597  0.88612002  0.45804410  1
  Bi  Bi26  1  0.40152274  0.45953174  0.46652816  1
  Bi  Bi27  1  0.70276032  0.30227733  0.11943462  1
  Bi  Bi28  1  0.75897348  0.20758119  0.87944637  1
  Bi  Bi29  1  0.69772267  0.29723968  0.38056538  1
  Bi  Bi30  1  0.79252421  0.73518696  0.62832425  1
  Bi  Bi31  1  0.24102652  0.79241881  0.12055363  1
  Bi  Bi32  1  0.20782002  0.30048770  0.11364466  1
  Bi  Bi33  1  0.59847726  0.54046826  0.53347184  1
  Bi  Bi34  1  0.20758119  0.75897348  0.37944637  1
  Bi  Bi35  1  0.26481304  0.20747579  0.87167575  1
  Bi  Bi36  1  0.69951230  0.79217998  0.38635534  1
  Bi  Bi37  1  0.38974063  0.90587041  0.95682282  1
  Bi  Bi38  1  0.03694275  0.59915421  0.03804007  1
  Bi  Bi39  1  0.30048770  0.20782002  0.61364466  1
  Bi  Bi40  1  0.20747579  0.26481304  0.37167575  1
  Bi  Bi41  1  0.79241881  0.24102652  0.62055363  1
  Bi  Bi42  1  0.73518696  0.79252421  0.12832425  1
  Bi  Bi43  1  0.29723968  0.69772267  0.88056538  1
  Bi  Bi44  1  0.59915421  0.03694275  0.53804007  1
  Bi  Bi45  1  0.88612002  0.90584597  0.95804410  1
  Bi  Bi46  1  0.09412959  0.61025937  0.54317718  1
  Bi  Bi47  1  0.96305725  0.40084579  0.96195993  1
  O  O48  1  0.41493735  0.76879703  0.10129212  1
  O  O49  1  0.56514544  0.25945231  0.11848478  1
  O  O50  1  0.91444009  0.22180249  0.47516703  1
  O  O51  1  0.38437321  0.58526339  0.02742961  1
  O  O52  1  0.97555419  0.15457279  0.65169920  1
  O  O53  1  0.34700730  0.02414496  0.84500447  1
  O  O54  1  0.58526339  0.38437321  0.52742961  1
  O  O55  1  0.88343856  0.58319991  0.02699332  1
  O  O56  1  0.74054769  0.43485456  0.38151522  1
  O  O57  1  0.73182526  0.75370683  0.75859711  1
  O  O58  1  0.25945231  0.56514544  0.61848478  1
  O  O59  1  0.65299270  0.97585504  0.15499553  1
  O  O60  1  0.25041381  0.74958619  0.75000000  1
  O  O61  1  0.77819751  0.08555991  0.02483297  1
  O  O62  1  0.15457279  0.97555419  0.15169920  1
  O  O63  1  0.71812849  0.91484429  0.97791347  1
  O  O64  1  0.23900016  0.08796163  0.38787067  1
  O  O65  1  0.08515571  0.28187151  0.52208653  1
  O  O66  1  0.48230402  0.09983724  0.64664037  1
  O  O67  1  0.58506265  0.23120297  0.89870788  1
  O  O68  1  0.08555991  0.77819751  0.52483297  1
  O  O69  1  0.91484429  0.71812849  0.47791347  1
  O  O70  1  0.58319991  0.88343856  0.52699332  1
  O  O71  1  0.24629317  0.26817474  0.74140289  1
  O  O72  1  0.59851368  0.48685505  0.14570516  1
  O  O73  1  0.97585504  0.65299270  0.65499553  1
  O  O74  1  0.26817474  0.24629317  0.24140289  1
  O  O75  1  0.75370683  0.73182526  0.25859711  1
  O  O76  1  0.74682365  0.92768078  0.38108540  1
  O  O77  1  0.09983724  0.48230402  0.14664037  1
  O  O78  1  0.08796163  0.23900016  0.88787067  1
  O  O79  1  0.76099984  0.91203837  0.61212933  1
  O  O80  1  0.41473661  0.61562679  0.47257039  1
  O  O81  1  0.23120297  0.58506265  0.39870788  1
  O  O82  1  0.02414496  0.34700730  0.34500447  1
  O  O83  1  0.25317635  0.07231922  0.61891460  1
  O  O84  1  0.72850080  0.27149920  0.75000000  1
  O  O85  1  0.74958619  0.25041381  0.25000000  1
  O  O86  1  0.61562679  0.41473661  0.97257039  1
  O  O87  1  0.27149920  0.72850080  0.25000000  1
  O  O88  1  0.28187151  0.08515571  0.02208653  1
  O  O89  1  0.51314495  0.40148632  0.35429484  1
  O  O90  1  0.51769598  0.90016276  0.35335963  1
  O  O91  1  0.92768078  0.74682365  0.88108540  1
  O  O92  1  0.07231922  0.25317635  0.11891460  1
  O  O93  1  0.22180249  0.91444009  0.97516703  1
  O  O94  1  0.48685505  0.59851368  0.64570516  1
  O  O95  1  0.43485456  0.74054769  0.88151522  1
  O  O96  1  0.84542721  0.02444581  0.84830080  1
  O  O97  1  0.91203837  0.76099984  0.11212933  1
  O  O98  1  0.40148632  0.51314495  0.85429484  1
  O  O99  1  0.02444581  0.84542721  0.34830080  1
  O  O100  1  0.90016276  0.51769598  0.85335963  1
  O  O101  1  0.11656144  0.41680009  0.97300668  1
  O  O102  1  0.76879703  0.41493735  0.60129212  1
  O  O103  1  0.41680009  0.11656144  0.47300668  1
