# generated using pymatgen
data_K3Nd3(PS4)4
_symmetry_space_group_name_H-M   'P 1'
_cell_length_a   10.11134836
_cell_length_b   10.11134765
_cell_length_c   15.03599505
_cell_angle_alpha   89.34222333
_cell_angle_beta   89.34222334
_cell_angle_gamma   71.81675693
_symmetry_Int_Tables_number   1
_chemical_formula_structural   K3Nd3(PS4)4
_chemical_formula_sum   'K6 Nd6 P8 S32'
_cell_volume   1460.35764959
_cell_formula_units_Z   2
loop_
 _symmetry_equiv_pos_site_id
 _symmetry_equiv_pos_as_xyz
  1  'x, y, z'
loop_
 _atom_site_type_symbol
 _atom_site_label
 _atom_site_symmetry_multiplicity
 _atom_site_fract_x
 _atom_site_fract_y
 _atom_site_fract_z
 _atom_site_occupancy
  K  K0  1  0.02916130  0.39169529  0.66230216  1
  K  K1  1  0.00000000  0.00000000  0.00000000  1
  K  K2  1  0.39169529  0.02916130  0.16230216  1
  K  K3  1  0.97083870  0.60830471  0.33769784  1
  K  K4  1  0.60830471  0.97083870  0.83769784  1
  K  K5  1  0.00000000  0.00000000  0.50000000  1
  Nd  Nd6  1  0.25129464  0.74870536  0.75000000  1
  Nd  Nd7  1  0.74870536  0.25129464  0.25000000  1
  Nd  Nd8  1  0.48730541  0.25194332  0.51218970  1
  Nd  Nd9  1  0.51269459  0.74805668  0.48781030  1
  Nd  Nd10  1  0.74805668  0.51269459  0.98781030  1
  Nd  Nd11  1  0.25194332  0.48730541  0.01218970  1
  P  P12  1  0.96287382  0.66792659  0.86041502  1
  P  P13  1  0.23451751  0.60273758  0.52443574  1
  P  P14  1  0.66792659  0.96287382  0.36041502  1
  P  P15  1  0.03712618  0.33207341  0.13958498  1
  P  P16  1  0.76548249  0.39726242  0.47556426  1
  P  P17  1  0.39726242  0.76548249  0.97556426  1
  P  P18  1  0.33207341  0.03712618  0.63958498  1
  P  P19  1  0.60273758  0.23451751  0.02443574  1
  S  S20  1  0.54627318  0.41420435  0.10209201  1
  S  S21  1  0.39966244  0.19268251  0.68702195  1
  S  S22  1  0.74535937  0.27150905  0.57955394  1
  S  S23  1  0.79079941  0.57606334  0.52367839  1
  S  S24  1  0.58579565  0.45372682  0.39790799  1
  S  S25  1  0.70469689  0.07486474  0.10672135  1
  S  S26  1  0.84438321  0.47427663  0.17132481  1
  S  S27  1  0.94725911  0.68059950  0.99685943  1
  S  S28  1  0.15561679  0.52572337  0.82867519  1
  S  S29  1  0.52572337  0.15561679  0.32867519  1
  S  S30  1  0.19268251  0.39966244  0.18702195  1
  S  S31  1  0.95908193  0.85511874  0.80612003  1
  S  S32  1  0.04091807  0.14488126  0.19387997  1
  S  S33  1  0.31940050  0.05274089  0.50314057  1
  S  S34  1  0.47427663  0.84438321  0.67132481  1
  S  S35  1  0.20920059  0.42393666  0.47632161  1
  S  S36  1  0.45372682  0.58579565  0.89790799  1
  S  S37  1  0.57606334  0.79079941  0.02367839  1
  S  S38  1  0.92513526  0.29530311  0.39327865  1
  S  S39  1  0.80731749  0.60033756  0.81297805  1
  S  S40  1  0.05274089  0.31940050  0.00314057  1
  S  S41  1  0.29530311  0.92513526  0.89327865  1
  S  S42  1  0.07486474  0.70469689  0.60672135  1
  S  S43  1  0.85511874  0.95908193  0.30612003  1
  S  S44  1  0.25464063  0.72849095  0.42044606  1
  S  S45  1  0.41420435  0.54627318  0.60209201  1
  S  S46  1  0.60033756  0.80731749  0.31297805  1
  S  S47  1  0.72849095  0.25464063  0.92044606  1
  S  S48  1  0.27150905  0.74535937  0.07955394  1
  S  S49  1  0.68059950  0.94725911  0.49685943  1
  S  S50  1  0.14488126  0.04091807  0.69387997  1
  S  S51  1  0.42393666  0.20920059  0.97632161  1
