# generated using pymatgen
data_Ca5P3ClO12
_symmetry_space_group_name_H-M   'P 1'
_cell_length_a   6.77329844
_cell_length_b   9.83286999
_cell_length_c   17.01796383
_cell_angle_alpha   89.94405069
_cell_angle_beta   90.00000000
_cell_angle_gamma   90.00000000
_symmetry_Int_Tables_number   1
_chemical_formula_structural   Ca5P3ClO12
_chemical_formula_sum   'Ca20 P12 Cl4 O48'
_cell_volume   1133.41223851
_cell_formula_units_Z   4
loop_
 _symmetry_equiv_pos_site_id
 _symmetry_equiv_pos_as_xyz
  1  'x, y, z'
loop_
 _atom_site_type_symbol
 _atom_site_label
 _atom_site_symmetry_multiplicity
 _atom_site_fract_x
 _atom_site_fract_y
 _atom_site_fract_z
 _atom_site_occupancy
  Ca  Ca0  1  0.24813972  0.13240339  0.61686488  1
  Ca  Ca1  1  0.74746658  0.39130361  0.62520058  1
  Ca  Ca2  1  0.00406696  0.74551565  0.58013654  1
  Ca  Ca3  1  0.24746658  0.10869639  0.87479942  1
  Ca  Ca4  1  0.25136990  0.50830019  0.75774346  1
  Ca  Ca5  1  0.50406696  0.75448435  0.91986346  1
  Ca  Ca6  1  0.49593304  0.24551565  0.08013654  1
  Ca  Ca7  1  0.74813972  0.36759661  0.88313512  1
  Ca  Ca8  1  0.50427168  0.24617112  0.41344122  1
  Ca  Ca9  1  0.75253342  0.89130361  0.12520058  1
  Ca  Ca10  1  0.99572832  0.74617112  0.91344122  1
  Ca  Ca11  1  0.24863010  0.00830019  0.25774346  1
  Ca  Ca12  1  0.00427168  0.25382888  0.08655878  1
  Ca  Ca13  1  0.25253342  0.60869639  0.37479942  1
  Ca  Ca14  1  0.75186028  0.86759661  0.38313512  1
  Ca  Ca15  1  0.99593304  0.25448435  0.41986346  1
  Ca  Ca16  1  0.75136990  0.99169981  0.74225654  1
  Ca  Ca17  1  0.25186028  0.63240339  0.11686488  1
  Ca  Ca18  1  0.49572832  0.75382888  0.58655878  1
  Ca  Ca19  1  0.74863010  0.49169981  0.24225654  1
  P  P20  1  0.24798887  0.42263730  0.54570990  1
  P  P21  1  0.75201113  0.57736270  0.45429010  1
  P  P22  1  0.74798887  0.07736270  0.95429010  1
  P  P23  1  0.75327181  0.14343079  0.23386450  1
  P  P24  1  0.25327181  0.35656921  0.26613550  1
  P  P25  1  0.25201113  0.92263730  0.04570990  1
  P  P26  1  0.24597534  0.47004798  0.93850478  1
  P  P27  1  0.25402466  0.97004798  0.43850478  1
  P  P28  1  0.74672819  0.64343079  0.73386450  1
  P  P29  1  0.75402466  0.52995202  0.06149522  1
  P  P30  1  0.24672819  0.85656921  0.76613550  1
  P  P31  1  0.74597534  0.02995202  0.56149522  1
  Cl  Cl32  1  0.07524095  0.25189035  0.74939941  1
  Cl  Cl33  1  0.92475905  0.74810965  0.25060059  1
  Cl  Cl34  1  0.57524095  0.24810965  0.75060059  1
  Cl  Cl35  1  0.42475905  0.75189035  0.24939941  1
  O  O36  1  0.07200058  0.44420788  0.29041012  1
  O  O37  1  0.75710000  0.64824499  0.00151319  1
  O  O38  1  0.05538731  0.34474238  0.56721455  1
  O  O39  1  0.74328335  0.67412375  0.82297111  1
  O  O40  1  0.92799942  0.55579212  0.70958988  1
  O  O41  1  0.73600811  0.58358745  0.54624154  1
  O  O42  1  0.74771223  0.92853922  0.92502231  1
  O  O43  1  0.07656702  0.84018918  0.08036324  1
  O  O44  1  0.05600774  0.47726713  0.88726049  1
  O  O45  1  0.92343298  0.15981082  0.91963676  1
  O  O46  1  0.42395041  0.45877748  0.88120846  1
  O  O47  1  0.05937062  0.93369228  0.79425244  1
  O  O48  1  0.25564697  0.72165213  0.81536309  1
  O  O49  1  0.25228777  0.07146078  0.07497769  1
  O  O50  1  0.44399226  0.97726713  0.38726049  1
  O  O51  1  0.24771223  0.57146078  0.57497769  1
  O  O52  1  0.26083062  0.61092116  0.98143283  1
  O  O53  1  0.57200058  0.05579212  0.20958988  1
  O  O54  1  0.76083062  0.88907884  0.51856717  1
  O  O55  1  0.94062938  0.06630772  0.20574756  1
  O  O56  1  0.75671665  0.17412375  0.32297111  1
  O  O57  1  0.55937062  0.56630772  0.70574756  1
  O  O58  1  0.25671665  0.32587625  0.17702889  1
  O  O59  1  0.57604959  0.54122252  0.11879154  1
  O  O60  1  0.57656702  0.65981082  0.41963676  1
  O  O61  1  0.24290000  0.35175501  0.99848681  1
  O  O62  1  0.55538731  0.15525762  0.93278545  1
  O  O63  1  0.25710000  0.85175501  0.49848681  1
  O  O64  1  0.24435303  0.22165213  0.31536309  1
  O  O65  1  0.24328335  0.82587625  0.67702889  1
  O  O66  1  0.42343298  0.34018918  0.58036324  1
  O  O67  1  0.55600774  0.02273287  0.61273951  1
  O  O68  1  0.92395041  0.04122252  0.61879154  1
  O  O69  1  0.76399189  0.08358745  0.04624154  1
  O  O70  1  0.44461269  0.84474238  0.06721455  1
  O  O71  1  0.74290000  0.14824499  0.50151319  1
  O  O72  1  0.94399226  0.52273287  0.11273951  1
  O  O73  1  0.74435303  0.27834787  0.18463691  1
  O  O74  1  0.07604959  0.95877748  0.38120846  1
  O  O75  1  0.26399189  0.41641255  0.45375846  1
  O  O76  1  0.23600811  0.91641255  0.95375846  1
  O  O77  1  0.75564697  0.77834787  0.68463691  1
  O  O78  1  0.94461269  0.65525762  0.43278545  1
  O  O79  1  0.75228777  0.42853922  0.42502231  1
  O  O80  1  0.42799942  0.94420788  0.79041012  1
  O  O81  1  0.73916938  0.38907884  0.01856717  1
  O  O82  1  0.44062938  0.43369228  0.29425244  1
  O  O83  1  0.23916938  0.11092116  0.48143283  1
