# generated using pymatgen
data_CsYSeCl2O3
_symmetry_space_group_name_H-M   'P 1'
_cell_length_a   6.71676582
_cell_length_b   7.08253442
_cell_length_c   17.88338570
_cell_angle_alpha   90.00000000
_cell_angle_beta   98.25363391
_cell_angle_gamma   90.00000000
_symmetry_Int_Tables_number   1
_chemical_formula_structural   CsYSeCl2O3
_chemical_formula_sum   'Cs4 Y4 Se4 Cl8 O12'
_cell_volume   841.93174926
_cell_formula_units_Z   4
loop_
 _symmetry_equiv_pos_site_id
 _symmetry_equiv_pos_as_xyz
  1  'x, y, z'
loop_
 _atom_site_type_symbol
 _atom_site_label
 _atom_site_symmetry_multiplicity
 _atom_site_fract_x
 _atom_site_fract_y
 _atom_site_fract_z
 _atom_site_occupancy
  Cs  Cs0  1  0.18879229  0.20737452  0.94512413  1
  Cs  Cs1  1  0.68879229  0.29262548  0.44512413  1
  Cs  Cs2  1  0.31120771  0.70737452  0.55487587  1
  Cs  Cs3  1  0.81120771  0.79262548  0.05487587  1
  Y  Y4  1  0.11746653  0.32582633  0.25765864  1
  Y  Y5  1  0.88253347  0.67417367  0.74234136  1
  Y  Y6  1  0.38253347  0.82582633  0.24234136  1
  Y  Y7  1  0.61746653  0.17417367  0.75765864  1
  Se  Se8  1  0.93116786  0.82109497  0.29271953  1
  Se  Se9  1  0.06883214  0.17890503  0.70728047  1
  Se  Se10  1  0.43116786  0.67890503  0.79271953  1
  Se  Se11  1  0.56883214  0.32109497  0.20728047  1
  Cl  Cl12  1  0.48408203  0.18433145  0.61027276  1
  Cl  Cl13  1  0.67642849  0.15463656  0.90841933  1
  Cl  Cl14  1  0.01591797  0.68433145  0.88972724  1
  Cl  Cl15  1  0.82357151  0.65463656  0.59158067  1
  Cl  Cl16  1  0.98408203  0.31566855  0.11027276  1
  Cl  Cl17  1  0.32357151  0.84536344  0.09158067  1
  Cl  Cl18  1  0.17642849  0.34536344  0.40841933  1
  Cl  Cl19  1  0.51591797  0.81566855  0.38972724  1
  O  O20  1  0.57880762  0.84921508  0.75606636  1
  O  O21  1  0.41735537  0.50121493  0.23476418  1
  O  O22  1  0.91735537  0.99878507  0.73476418  1
  O  O23  1  0.08264463  0.00121493  0.26523582  1
  O  O24  1  0.42119238  0.15078492  0.24393364  1
  O  O25  1  0.58264463  0.49878507  0.76523582  1
  O  O26  1  0.72077150  0.82983331  0.22748623  1
  O  O27  1  0.22077150  0.67016669  0.72748623  1
  O  O28  1  0.77922850  0.32983331  0.27251377  1
  O  O29  1  0.07880762  0.65078492  0.25606636  1
  O  O30  1  0.92119238  0.34921508  0.74393364  1
  O  O31  1  0.27922850  0.17016669  0.77251377  1
