# generated using pymatgen
data_Na2Be2(SiO3)3
_symmetry_space_group_name_H-M   'P 1'
_cell_length_a   6.88703593
_cell_length_b   9.51848979
_cell_length_c   11.87765236
_cell_angle_alpha   90.00000000
_cell_angle_beta   90.00000000
_cell_angle_gamma   90.00000000
_symmetry_Int_Tables_number   1
_chemical_formula_structural   Na2Be2(SiO3)3
_chemical_formula_sum   'Na8 Be8 Si12 O36'
_cell_volume   778.62977484
_cell_formula_units_Z   4
loop_
 _symmetry_equiv_pos_site_id
 _symmetry_equiv_pos_as_xyz
  1  'x, y, z'
loop_
 _atom_site_type_symbol
 _atom_site_label
 _atom_site_symmetry_multiplicity
 _atom_site_fract_x
 _atom_site_fract_y
 _atom_site_fract_z
 _atom_site_occupancy
  Na  Na0  1  0.84802719  0.96723917  0.65304058  1
  Na  Na1  1  0.34802719  0.03276083  0.84695942  1
  Na  Na2  1  0.15197281  0.03276083  0.34695942  1
  Na  Na3  1  0.84802719  0.53276083  0.65304058  1
  Na  Na4  1  0.65197281  0.53276083  0.15304058  1
  Na  Na5  1  0.15197281  0.46723917  0.34695942  1
  Na  Na6  1  0.65197281  0.96723917  0.15304058  1
  Na  Na7  1  0.34802719  0.46723917  0.84695942  1
  Be  Be8  1  0.59438625  0.05964133  0.43047451  1
  Be  Be9  1  0.09438625  0.55964133  0.06952549  1
  Be  Be10  1  0.40561375  0.94035867  0.56952549  1
  Be  Be11  1  0.40561375  0.55964133  0.56952549  1
  Be  Be12  1  0.59438625  0.44035867  0.43047451  1
  Be  Be13  1  0.90561375  0.44035867  0.93047451  1
  Be  Be14  1  0.90561375  0.05964133  0.93047451  1
  Be  Be15  1  0.09438625  0.94035867  0.06952549  1
  Si  Si16  1  0.47493863  0.25000000  0.24596357  1
  Si  Si17  1  0.39953597  0.75000000  0.00331265  1
  Si  Si18  1  0.32871614  0.25000000  0.56234084  1
  Si  Si19  1  0.89953597  0.25000000  0.49668735  1
  Si  Si20  1  0.02506137  0.25000000  0.74596357  1
  Si  Si21  1  0.67128386  0.75000000  0.43765916  1
  Si  Si22  1  0.60046403  0.25000000  0.99668735  1
  Si  Si23  1  0.52506137  0.75000000  0.75403643  1
  Si  Si24  1  0.17128386  0.25000000  0.06234084  1
  Si  Si25  1  0.97493863  0.75000000  0.25403643  1
  Si  Si26  1  0.10046403  0.75000000  0.50331265  1
  Si  Si27  1  0.82871614  0.75000000  0.93765916  1
  O  O28  1  0.75053968  0.75000000  0.80657712  1
  O  O29  1  0.68292843  0.39611312  0.94678190  1
  O  O30  1  0.95349247  0.60887983  0.95961308  1
  O  O31  1  0.45349247  0.39112017  0.54038692  1
  O  O32  1  0.54650753  0.60887983  0.45961308  1
  O  O33  1  0.25053968  0.25000000  0.69342288  1
  O  O34  1  0.99855570  0.89685041  0.18738765  1
  O  O35  1  0.49855570  0.39685041  0.31261235  1
  O  O36  1  0.45349247  0.10887983  0.54038692  1
  O  O37  1  0.50144430  0.89685041  0.68738765  1
  O  O38  1  0.95349247  0.89112017  0.95961308  1
  O  O39  1  0.99855570  0.60314959  0.18738765  1
  O  O40  1  0.81707157  0.10388688  0.44678190  1
  O  O41  1  0.12400087  0.75000000  0.36358990  1
  O  O42  1  0.00144430  0.39685041  0.81261235  1
  O  O43  1  0.24946032  0.25000000  0.19342288  1
  O  O44  1  0.64027971  0.75000000  0.02611995  1
  O  O45  1  0.04650753  0.10887983  0.04038692  1
  O  O46  1  0.74946032  0.75000000  0.30657712  1
  O  O47  1  0.54650753  0.89112017  0.45961308  1
  O  O48  1  0.81707157  0.39611312  0.44678190  1
  O  O49  1  0.00144430  0.10314959  0.81261235  1
  O  O50  1  0.37599913  0.75000000  0.86358990  1
  O  O51  1  0.35972029  0.25000000  0.97388005  1
  O  O52  1  0.31707157  0.60388688  0.05321810  1
  O  O53  1  0.49855570  0.10314959  0.31261235  1
  O  O54  1  0.85972029  0.75000000  0.52611995  1
  O  O55  1  0.87599913  0.25000000  0.63641010  1
  O  O56  1  0.50144430  0.60314959  0.68738765  1
  O  O57  1  0.18292843  0.60388688  0.55321810  1
  O  O58  1  0.18292843  0.89611312  0.55321810  1
  O  O59  1  0.68292843  0.10388688  0.94678190  1
  O  O60  1  0.62400087  0.25000000  0.13641010  1
  O  O61  1  0.04650753  0.39112017  0.04038692  1
  O  O62  1  0.14027971  0.25000000  0.47388005  1
  O  O63  1  0.31707157  0.89611312  0.05321810  1
