# generated using pymatgen
data_Sr5B3ClO9
_symmetry_space_group_name_H-M   'P 1'
_cell_length_a   7.48775318
_cell_length_b   8.79787150
_cell_length_c   8.79787172
_cell_angle_alpha   109.99575831
_cell_angle_beta   90.00000000
_cell_angle_gamma   90.00000000
_symmetry_Int_Tables_number   1
_chemical_formula_structural   Sr5B3ClO9
_chemical_formula_sum   'Sr10 B6 Cl2 O18'
_cell_volume   544.63340784
_cell_formula_units_Z   2
loop_
 _symmetry_equiv_pos_site_id
 _symmetry_equiv_pos_as_xyz
  1  'x, y, z'
loop_
 _atom_site_type_symbol
 _atom_site_label
 _atom_site_symmetry_multiplicity
 _atom_site_fract_x
 _atom_site_fract_y
 _atom_site_fract_z
 _atom_site_occupancy
  Sr  Sr0  1  0.00000000  0.76126443  0.76126443  1
  Sr  Sr1  1  0.06376613  0.00464219  0.26211344  1
  Sr  Sr2  1  0.50000000  0.23873557  0.23873557  1
  Sr  Sr3  1  0.25000000  0.36504015  0.63495985  1
  Sr  Sr4  1  0.75000000  0.63495985  0.36504015  1
  Sr  Sr5  1  0.25000000  0.63769809  0.36230191  1
  Sr  Sr6  1  0.56376613  0.99535781  0.73788656  1
  Sr  Sr7  1  0.75000000  0.36230191  0.63769809  1
  Sr  Sr8  1  0.43623387  0.73788656  0.99535781  1
  Sr  Sr9  1  0.93623387  0.26211344  0.00464219  1
  B  B10  1  0.52938435  0.40929635  0.98527767  1
  B  B11  1  0.97061565  0.01472233  0.59070365  1
  B  B12  1  0.00000000  0.37016037  0.37016037  1
  B  B13  1  0.47061565  0.98527767  0.40929635  1
  B  B14  1  0.50000000  0.62983963  0.62983963  1
  B  B15  1  0.02938435  0.59070365  0.01472233  1
  Cl  Cl16  1  0.25000000  0.05325187  0.94674813  1
  Cl  Cl17  1  0.75000000  0.94674813  0.05325187  1
  O  O18  1  0.50000000  0.49083653  0.49083653  1
  O  O19  1  0.51252006  0.84696112  0.44477640  1
  O  O20  1  0.00000000  0.50916347  0.50916347  1
  O  O21  1  0.83775661  0.30484200  0.30335555  1
  O  O22  1  0.48747994  0.44477640  0.84696112  1
  O  O23  1  0.11432075  0.73466834  0.02859519  1
  O  O24  1  0.61432075  0.26533166  0.97140481  1
  O  O25  1  0.33775661  0.69515800  0.69664445  1
  O  O26  1  0.16224339  0.30335555  0.30484200  1
  O  O27  1  0.98747994  0.55522360  0.15303888  1
  O  O28  1  0.50976591  0.13920583  0.52124522  1
  O  O29  1  0.88567925  0.02859519  0.73466834  1
  O  O30  1  0.66224339  0.69664445  0.69515800  1
  O  O31  1  0.00976591  0.86079417  0.47875478  1
  O  O32  1  0.01252006  0.15303888  0.55522360  1
  O  O33  1  0.99023409  0.47875478  0.86079417  1
  O  O34  1  0.38567925  0.97140481  0.26533166  1
  O  O35  1  0.49023409  0.52124522  0.13920583  1
