# generated using pymatgen
data_SmTiClO3
_symmetry_space_group_name_H-M   'P 1'
_cell_length_a   3.97445962
_cell_length_b   5.30972760
_cell_length_c   10.13725756
_cell_angle_alpha   75.09639565
_cell_angle_beta   78.69496983
_cell_angle_gamma   68.02129062
_symmetry_Int_Tables_number   1
_chemical_formula_structural   SmTiClO3
_chemical_formula_sum   'Sm2 Ti2 Cl2 O6'
_cell_volume   190.51626164
_cell_formula_units_Z   2
loop_
 _symmetry_equiv_pos_site_id
 _symmetry_equiv_pos_as_xyz
  1  'x, y, z'
loop_
 _atom_site_type_symbol
 _atom_site_label
 _atom_site_symmetry_multiplicity
 _atom_site_fract_x
 _atom_site_fract_y
 _atom_site_fract_z
 _atom_site_occupancy
  Sm  Sm0  1  0.22015907  0.76539843  0.79428343  1
  Sm  Sm1  1  0.77984093  0.23460157  0.20571657  1
  Ti  Ti2  1  0.62034401  0.19309737  0.56621461  1
  Ti  Ti3  1  0.37965599  0.80690263  0.43378539  1
  Cl  Cl4  1  0.88654257  0.32240280  0.90451206  1
  Cl  Cl5  1  0.11345743  0.67759720  0.09548794  1
  O  O6  1  0.16772801  0.10310376  0.56144021  1
  O  O7  1  0.64881176  0.96121709  0.74115939  1
  O  O8  1  0.83227199  0.89689624  0.43855979  1
  O  O9  1  0.42343810  0.53178360  0.62134020  1
  O  O10  1  0.35118824  0.03878291  0.25884061  1
  O  O11  1  0.57656190  0.46821640  0.37865980  1
