# generated using pymatgen
data_Ba17Ho16Zn8Pt4O57
_symmetry_space_group_name_H-M   'P 1'
_cell_length_a   5.75533466
_cell_length_b   16.57443304
_cell_length_c   16.57437248
_cell_angle_alpha   88.27273602
_cell_angle_beta   80.00216701
_cell_angle_gamma   80.00057091
_symmetry_Int_Tables_number   1
_chemical_formula_structural   Ba17Ho16Zn8Pt4O57
_chemical_formula_sum   'Ba17 Ho16 Zn8 Pt4 O57'
_cell_volume   1533.39108824
_cell_formula_units_Z   1
loop_
 _symmetry_equiv_pos_site_id
 _symmetry_equiv_pos_as_xyz
  1  'x, y, z'
loop_
 _atom_site_type_symbol
 _atom_site_label
 _atom_site_symmetry_multiplicity
 _atom_site_fract_x
 _atom_site_fract_y
 _atom_site_fract_z
 _atom_site_occupancy
  Ba  Ba0  1  0.88812731  0.38827475  0.83547300  1
  Ba  Ba1  1  0.93227262  0.50947652  0.62591155  1
  Ba  Ba2  1  0.34216000  0.00839018  0.30731376  1
  Ba  Ba3  1  0.26777876  0.54314434  0.92130221  1
  Ba  Ba4  1  0.81091718  0.92129592  0.45685623  1
  Ba  Ba5  1  0.55820995  0.37408115  0.50947998  1
  Ba  Ba6  1  0.72360598  0.16452671  0.38827519  1
  Ba  Ba7  1  0.64947718  0.69268058  0.00839157  1
  Ba  Ba8  1  0.27639402  0.83547329  0.61172481  1
  Ba  Ba9  1  0.35052282  0.30731942  0.99160843  1
  Ba  Ba10  1  0.18908282  0.07870408  0.54314377  1
  Ba  Ba11  1  0.06772738  0.49052348  0.37408845  1
  Ba  Ba12  1  0.73222124  0.45685566  0.07869779  1
  Ba  Ba13  1  0.65784000  0.99160982  0.69268624  1
  Ba  Ba14  1  0.44179005  0.62591885  0.49052002  1
  Ba  Ba15  1  0.00000000  0.00000000  0.00000000  1
  Ba  Ba16  1  0.11187269  0.61172525  0.16452700  1
  Ho  Ho17  1  0.25075920  0.24301798  0.25549982  1
  Ho  Ho18  1  0.17185355  0.77590946  0.88035671  1
  Ho  Ho19  1  0.67413499  0.37549648  0.27627363  1
  Ho  Ho20  1  0.82814645  0.22409054  0.11964329  1
  Ho  Ho21  1  0.59956462  0.91189843  0.88898199  1
  Ho  Ho22  1  0.04962067  0.27627876  0.62450155  1
  Ho  Ho23  1  0.48852972  0.11102656  0.91189315  1
  Ho  Ho24  1  0.49374405  0.25550805  0.75699028  1
  Ho  Ho25  1  0.32586501  0.62450352  0.72372637  1
  Ho  Ho26  1  0.94778121  0.88035330  0.22409055  1
  Ho  Ho27  1  0.51147028  0.88897344  0.08810685  1
  Ho  Ho28  1  0.40043538  0.08810157  0.11101801  1
  Ho  Ho29  1  0.74924080  0.75698202  0.74450018  1
  Ho  Ho30  1  0.50625595  0.74449195  0.24300972  1
  Ho  Ho31  1  0.95037933  0.72372124  0.37549845  1
  Ho  Ho32  1  0.05221879  0.11964670  0.77590945  1
  Zn  Zn33  1  0.21228431  0.40831730  0.16714537  1
  Zn  Zn34  1  0.37938066  0.83285825  0.40831589  1
  Zn  Zn35  1  0.86670011  0.05769756  0.20890926  1
  Zn  Zn36  1  0.92438691  0.20891239  0.94230386  1
  Zn  Zn37  1  0.78771569  0.59168270  0.83285463  1
  Zn  Zn38  1  0.07561309  0.79108761  0.05769614  1
  Zn  Zn39  1  0.13329989  0.94230244  0.79109074  1
  Zn  Zn40  1  0.62061934  0.16714175  0.59168411  1
  Pt  Pt41  1  0.85568522  0.72704628  0.56155878  1
  Pt  Pt42  1  0.14431478  0.27295372  0.43844122  1
  Pt  Pt43  1  0.41726849  0.43842143  0.72703740  1
  Pt  Pt44  1  0.58273151  0.56157857  0.27296260  1
  O  O45  1  0.29904211  0.94040228  0.46157182  1
  O  O46  1  0.23142422  0.16098621  0.37621724  1
  O  O47  1  0.40924759  0.31059937  0.35430585  1
  O  O48  1  0.92587707  0.31058851  0.35429685  1
  O  O49  1  0.22206853  0.20292752  0.85175258  1
  O  O50  1  0.43520098  0.50998361  0.61955329  1
  O  O51  1  0.39233950  0.37622796  0.83901873  1
  O  O52  1  0.36693421  0.23262972  0.52114915  1
  O  O53  1  0.76857578  0.83901379  0.62378276  1
  O  O54  1  0.31938001  0.17603597  0.68122971  1
  O  O55  1  0.15751815  0.68317605  0.00171539  1
  O  O56  1  0.60766050  0.62377204  0.16098127  1
  O  O57  1  0.07412293  0.68941149  0.64570315  1
  O  O58  1  0.31624371  0.02451457  0.84509623  1
  O  O59  1  0.77793147  0.79707248  0.14824742  1
  O  O60  1  0.83874651  0.84511232  0.97549218  1
  O  O61  1  0.23939401  0.46156746  0.05960100  1
  O  O62  1  0.42497045  0.85174962  0.79709076  1
  O  O63  1  0.65922800  0.15490708  0.02450997  1
  O  O64  1  0.76060599  0.53843254  0.94039900  1
  O  O65  1  0.84248185  0.31682395  0.99828461  1
  O  O66  1  0.68375629  0.97548543  0.15490377  1
  O  O67  1  0.05473450  0.38045111  0.50997675  1
  O  O68  1  0.84080190  0.00171892  0.31682028  1
  O  O69  1  0.28016563  0.64569028  0.31058899  1
  O  O70  1  0.59075241  0.68940063  0.64569415  1
  O  O71  1  0.17661488  0.82395562  0.31876778  1
  O  O72  1  0.76352846  0.64569537  0.31059915  1
  O  O73  1  0.81422217  0.02451982  0.84511001  1
  O  O74  1  0.49534305  0.68122316  0.82395480  1
  O  O75  1  0.12069062  0.76737554  0.47886231  1
  O  O76  1  0.68061999  0.82396403  0.31877029  1
  O  O77  1  0.34077200  0.84509292  0.97549003  1
  O  O78  1  0.72323630  0.20292558  0.85175441  1
  O  O79  1  0.50465695  0.31877684  0.17604520  1
  O  O80  1  0.94526550  0.61954889  0.49002325  1
  O  O81  1  0.82338512  0.17604438  0.68123222  1
  O  O82  1  0.99940688  0.68122329  0.82395122  1
  O  O83  1  0.57502955  0.14825038  0.20290924  1
  O  O84  1  0.11189996  0.52114831  0.76737348  1
  O  O85  1  0.50000000  0.00000000  0.00000000  1
  O  O86  1  0.87930938  0.23262446  0.52113769  1
  O  O87  1  0.88810004  0.47885169  0.23262652  1
  O  O88  1  0.18577783  0.97548018  0.15488999  1
  O  O89  1  0.63306579  0.76737028  0.47885085  1
  O  O90  1  0.70095789  0.05959772  0.53842818  1
  O  O91  1  0.27676370  0.79707442  0.14824559  1
  O  O92  1  0.40044855  0.47885516  0.23262510  1
  O  O93  1  0.16125349  0.15488768  0.02450782  1
  O  O94  1  0.59955145  0.52114484  0.76737490  1
  O  O95  1  0.00059312  0.31877671  0.17604878  1
  O  O96  1  0.15919810  0.99828108  0.68317972  1
  O  O97  1  0.71983437  0.35430972  0.68941101  1
  O  O98  1  0.92612762  0.85175038  0.79708929  1
  O  O99  1  0.56479902  0.49001639  0.38044671  1
  O  O100  1  0.23647154  0.35430463  0.68940085  1
  O  O101  1  0.07387238  0.14824962  0.20291071  1
