# generated using pymatgen
data_KUCrO6
_symmetry_space_group_name_H-M   'P 1'
_cell_length_a   6.86092137
_cell_length_b   8.41162215
_cell_length_c   10.55314149
_cell_angle_alpha   90.00000000
_cell_angle_beta   103.43402879
_cell_angle_gamma   90.00000000
_symmetry_Int_Tables_number   1
_chemical_formula_structural   KUCrO6
_chemical_formula_sum   'K4 U4 Cr4 O24'
_cell_volume   592.37295519
_cell_formula_units_Z   4
loop_
 _symmetry_equiv_pos_site_id
 _symmetry_equiv_pos_as_xyz
  1  'x, y, z'
loop_
 _atom_site_type_symbol
 _atom_site_label
 _atom_site_symmetry_multiplicity
 _atom_site_fract_x
 _atom_site_fract_y
 _atom_site_fract_z
 _atom_site_occupancy
  U  U0  1  0.48673303  0.02045016  0.17733251  1
  U  U1  1  0.51326697  0.52045016  0.32266749  1
  U  U2  1  0.51326697  0.97954984  0.82266749  1
  U  U3  1  0.48673303  0.47954984  0.67733251  1
  Cr  Cr4  1  0.61621449  0.35701621  0.05253551  1
  Cr  Cr5  1  0.38378551  0.85701621  0.44746449  1
  Cr  Cr6  1  0.38378551  0.64298379  0.94746449  1
  Cr  Cr7  1  0.61621449  0.14298379  0.55253551  1
  K  K8  1  0.96490328  0.73538299  0.15077954  1
  K  K9  1  0.03509672  0.23538299  0.34922046  1
  K  K10  1  0.03509672  0.26461701  0.84922046  1
  K  K11  1  0.96490328  0.76461701  0.65077954  1
  O  O12  1  0.45525191  0.43747513  0.89552468  1
  O  O13  1  0.54474809  0.93747513  0.60447532  1
  O  O14  1  0.54474809  0.56252487  0.10447532  1
  O  O15  1  0.45525191  0.06252487  0.39552468  1
  O  O16  1  0.58078194  0.29048495  0.21240957  1
  O  O17  1  0.41921806  0.79048495  0.28759043  1
  O  O18  1  0.41921806  0.70951505  0.78759043  1
  O  O19  1  0.58078194  0.20951505  0.71240957  1
  O  O20  1  0.75707275  0.97966165  0.23240508  1
  O  O21  1  0.24292725  0.47966165  0.26759492  1
  O  O22  1  0.24292725  0.02033835  0.76759492  1
  O  O23  1  0.75707275  0.52033835  0.73240508  1
  O  O24  1  0.53048766  0.15644508  0.99221339  1
  O  O25  1  0.46951234  0.65644508  0.50778661  1
  O  O26  1  0.46951234  0.84355492  0.00778661  1
  O  O27  1  0.53048766  0.34355492  0.49221339  1
  O  O28  1  0.21636733  0.06171222  0.12798535  1
  O  O29  1  0.78363267  0.56171222  0.37201465  1
  O  O30  1  0.78363267  0.93828778  0.87201465  1
  O  O31  1  0.21636733  0.43828778  0.62798535  1
  O  O32  1  0.85204702  0.36687494  0.05631700  1
  O  O33  1  0.14795298  0.86687494  0.44368300  1
  O  O34  1  0.14795298  0.63312506  0.94368300  1
  O  O35  1  0.85204702  0.13312506  0.55631700  1
