# generated using pymatgen
data_Ho2Fe17N3
_symmetry_space_group_name_H-M   'P 1'
_cell_length_a   8.38892996
_cell_length_b   8.63502824
_cell_length_c   8.63502824
_cell_angle_alpha   119.99999983
_cell_angle_beta   90.00000000
_cell_angle_gamma   90.00000000
_symmetry_Int_Tables_number   1
_chemical_formula_structural   Ho2Fe17N3
_chemical_formula_sum   'Ho4 Fe34 N6'
_cell_volume   541.70734612
_cell_formula_units_Z   2
loop_
 _symmetry_equiv_pos_site_id
 _symmetry_equiv_pos_as_xyz
  1  'x, y, z'
loop_
 _atom_site_type_symbol
 _atom_site_label
 _atom_site_symmetry_multiplicity
 _atom_site_fract_x
 _atom_site_fract_y
 _atom_site_fract_z
 _atom_site_occupancy
  Ho  Ho0  1  0.75000000  0.66666700  0.33333300  1
  Ho  Ho1  1  0.25000000  0.33333300  0.66666700  1
  Ho  Ho2  1  0.75000000  0.00000000  0.00000000  1
  Ho  Ho3  1  0.25000000  0.00000000  0.00000000  1
  Fe  Fe4  1  0.75000000  0.61860011  0.67183072  1
  Fe  Fe5  1  0.25000000  0.38139989  0.32816928  1
  Fe  Fe6  1  0.75000000  0.05323061  0.38139989  1
  Fe  Fe7  1  0.25000000  0.94676939  0.32816928  1
  Fe  Fe8  1  0.25000000  0.94676939  0.61860011  1
  Fe  Fe9  1  0.75000000  0.05323061  0.67183072  1
  Fe  Fe10  1  0.75000000  0.32816928  0.94676939  1
  Fe  Fe11  1  0.25000000  0.67183072  0.61860011  1
  Fe  Fe12  1  0.25000000  0.67183072  0.05323061  1
  Fe  Fe13  1  0.75000000  0.32816928  0.38139989  1
  Fe  Fe14  1  0.25000000  0.38139989  0.05323061  1
  Fe  Fe15  1  0.75000000  0.61860011  0.94676939  1
  Fe  Fe16  1  0.39296655  0.66666700  0.33333300  1
  Fe  Fe17  1  0.60703345  0.33333300  0.66666700  1
  Fe  Fe18  1  0.89296655  0.33333300  0.66666700  1
  Fe  Fe19  1  0.10703345  0.66666700  0.33333300  1
  Fe  Fe20  1  0.97918088  0.83099728  0.16900272  1
  Fe  Fe21  1  0.02081912  0.16900272  0.83099728  1
  Fe  Fe22  1  0.97918088  0.33800544  0.16900272  1
  Fe  Fe23  1  0.47918088  0.16900272  0.83099728  1
  Fe  Fe24  1  0.02081912  0.66199456  0.83099728  1
  Fe  Fe25  1  0.52081912  0.83099728  0.16900272  1
  Fe  Fe26  1  0.97918088  0.83099728  0.66199456  1
  Fe  Fe27  1  0.47918088  0.66199456  0.83099728  1
  Fe  Fe28  1  0.02081912  0.16900272  0.33800544  1
  Fe  Fe29  1  0.52081912  0.33800544  0.16900272  1
  Fe  Fe30  1  0.47918088  0.16900272  0.33800544  1
  Fe  Fe31  1  0.52081912  0.83099728  0.66199456  1
  Fe  Fe32  1  -0.00000000  0.50000000  0.50000000  1
  Fe  Fe33  1  -0.00000000  0.00000000  0.50000000  1
  Fe  Fe34  1  0.50000000  0.50000000  0.50000000  1
  Fe  Fe35  1  -0.00000000  0.50000000  0.00000000  1
  Fe  Fe36  1  0.50000000  0.00000000  0.50000000  1
  Fe  Fe37  1  0.50000000  0.50000000  0.00000000  1
  N  N38  1  0.75000000  0.83601848  0.16398152  1
  N  N39  1  0.25000000  0.16398152  0.83601848  1
  N  N40  1  0.75000000  0.32796304  0.16398152  1
  N  N41  1  0.25000000  0.67203696  0.83601848  1
  N  N42  1  0.75000000  0.83601848  0.67203696  1
  N  N43  1  0.25000000  0.16398152  0.32796304  1
