# generated using pymatgen
data_ErMoO5
_symmetry_space_group_name_H-M   'P 1'
_cell_length_a   5.31115922
_cell_length_b   6.61527926
_cell_length_c   12.44113341
_cell_angle_alpha   90.00000000
_cell_angle_beta   90.00000000
_cell_angle_gamma   110.74801698
_symmetry_Int_Tables_number   1
_chemical_formula_structural   ErMoO5
_chemical_formula_sum   'Er4 Mo4 O20'
_cell_volume   408.76862559
_cell_formula_units_Z   4
loop_
 _symmetry_equiv_pos_site_id
 _symmetry_equiv_pos_as_xyz
  1  'x, y, z'
loop_
 _atom_site_type_symbol
 _atom_site_label
 _atom_site_symmetry_multiplicity
 _atom_site_fract_x
 _atom_site_fract_y
 _atom_site_fract_z
 _atom_site_occupancy
  Er  Er0  1  0.14446195  0.78878880  0.44686188  1
  Er  Er1  1  0.85553805  0.21121120  0.55313812  1
  Er  Er2  1  0.35553805  0.71121120  0.94686188  1
  Er  Er3  1  0.64446195  0.28878880  0.05313812  1
  Mo  Mo4  1  0.94498557  0.85666787  0.13967995  1
  Mo  Mo5  1  0.05501443  0.14333213  0.86032005  1
  Mo  Mo6  1  0.55501443  0.64333213  0.63967995  1
  Mo  Mo7  1  0.44498557  0.35666787  0.36032005  1
  O  O8  1  0.05307705  0.54551581  0.08110848  1
  O  O9  1  0.94692295  0.45448419  0.91889152  1
  O  O10  1  0.44692295  0.95448419  0.58110848  1
  O  O11  1  0.55307705  0.04551581  0.41889152  1
  O  O12  1  0.85460404  0.84299412  0.57289312  1
  O  O13  1  0.14539596  0.15700588  0.42710688  1
  O  O14  1  0.64539596  0.65700588  0.07289312  1
  O  O15  1  0.35460404  0.34299412  0.92710688  1
  O  O16  1  0.26379038  0.96645706  0.06293499  1
  O  O17  1  0.73620962  0.03354294  0.93706501  1
  O  O18  1  0.23620962  0.53354294  0.56293499  1
  O  O19  1  0.76379038  0.46645706  0.43706501  1
  O  O20  1  0.99447112  0.78924781  0.27399492  1
  O  O21  1  0.00552888  0.21075219  0.72600508  1
  O  O22  1  0.50552888  0.71075219  0.77399492  1
  O  O23  1  0.49447112  0.28924781  0.22600508  1
  O  O24  1  0.15484841  0.91635366  0.84676775  1
  O  O25  1  0.84515159  0.08364634  0.15323225  1
  O  O26  1  0.34515159  0.58364634  0.34676775  1
  O  O27  1  0.65484841  0.41635366  0.65323225  1
