# generated using pymatgen
data_Ag3SbS3
_symmetry_space_group_name_H-M   'P 1'
_cell_length_a   6.40063754
_cell_length_b   7.00878450
_cell_length_c   16.01359357
_cell_angle_alpha   90.00000000
_cell_angle_beta   90.00000000
_cell_angle_gamma   116.49395984
_symmetry_Int_Tables_number   1
_chemical_formula_structural   Ag3SbS3
_chemical_formula_sum   'Ag12 Sb4 S12'
_cell_volume   642.93749068
_cell_formula_units_Z   4
loop_
 _symmetry_equiv_pos_site_id
 _symmetry_equiv_pos_as_xyz
  1  'x, y, z'
loop_
 _atom_site_type_symbol
 _atom_site_label
 _atom_site_symmetry_multiplicity
 _atom_site_fract_x
 _atom_site_fract_y
 _atom_site_fract_z
 _atom_site_occupancy
  Ag  Ag0  1  0.28941093  0.05698397  0.18892610  1
  Ag  Ag1  1  0.68903458  0.47294574  0.25700760  1
  Ag  Ag2  1  0.21058907  0.94301603  0.68892610  1
  Ag  Ag3  1  0.53213424  0.58968518  0.09794343  1
  Ag  Ag4  1  0.81096542  0.52705426  0.75700760  1
  Ag  Ag5  1  0.03213424  0.58968518  0.40205657  1
  Ag  Ag6  1  0.71058907  0.94301603  0.81107390  1
  Ag  Ag7  1  0.31096542  0.52705426  0.74299240  1
  Ag  Ag8  1  0.46786576  0.41031482  0.90205657  1
  Ag  Ag9  1  0.96786576  0.41031482  0.59794343  1
  Ag  Ag10  1  0.78941093  0.05698397  0.31107390  1
  Ag  Ag11  1  0.18903458  0.47294574  0.24299240  1
  Sb  Sb12  1  0.32728521  0.19316138  0.44811675  1
  Sb  Sb13  1  0.17271479  0.80683862  0.94811675  1
  Sb  Sb14  1  0.67271479  0.80683862  0.55188325  1
  Sb  Sb15  1  0.82728521  0.19316138  0.05188325  1
  S  S16  1  0.76870280  0.78073576  0.94258069  1
  S  S17  1  0.26870280  0.78073576  0.55741931  1
  S  S18  1  0.73129720  0.21926424  0.44258069  1
  S  S19  1  0.37447658  0.05711101  0.83289412  1
  S  S20  1  0.44426894  0.52911083  0.36335622  1
  S  S21  1  0.05573106  0.47088917  0.86335622  1
  S  S22  1  0.23129720  0.21926424  0.05741931  1
  S  S23  1  0.55573106  0.47088917  0.63664378  1
  S  S24  1  0.94426894  0.52911083  0.13664378  1
  S  S25  1  0.12552342  0.94288899  0.33289412  1
  S  S26  1  0.87447658  0.05711101  0.66710588  1
  S  S27  1  0.62552342  0.94288899  0.16710588  1
