# generated using pymatgen
data_UTe2PbO8
_symmetry_space_group_name_H-M   'P 1'
_cell_length_a   7.10091794
_cell_length_b   7.93168339
_cell_length_c   14.22243850
_cell_angle_alpha   95.08434913
_cell_angle_beta   90.00000000
_cell_angle_gamma   90.00000000
_symmetry_Int_Tables_number   1
_chemical_formula_structural   UTe2PbO8
_chemical_formula_sum   'U4 Te8 Pb4 O32'
_cell_volume   797.88765213
_cell_formula_units_Z   4
loop_
 _symmetry_equiv_pos_site_id
 _symmetry_equiv_pos_as_xyz
  1  'x, y, z'
loop_
 _atom_site_type_symbol
 _atom_site_label
 _atom_site_symmetry_multiplicity
 _atom_site_fract_x
 _atom_site_fract_y
 _atom_site_fract_z
 _atom_site_occupancy
  U  U0  1  0.84271125  0.94804697  0.19113361  1
  U  U1  1  0.34271125  0.05195303  0.30886639  1
  U  U2  1  0.15728875  0.05195303  0.80886639  1
  U  U3  1  0.65728875  0.94804697  0.69113361  1
  Te  Te4  1  0.31301210  0.35298211  0.54226170  1
  Te  Te5  1  0.68698790  0.64701789  0.45773830  1
  Te  Te6  1  0.66601405  0.19162685  0.91876943  1
  Te  Te7  1  0.18698790  0.35298211  0.04226170  1
  Te  Te8  1  0.83398595  0.19162685  0.41876943  1
  Te  Te9  1  0.33398595  0.80837315  0.08123057  1
  Te  Te10  1  0.16601405  0.80837315  0.58123057  1
  Te  Te11  1  0.81301210  0.64701789  0.95773830  1
  Pb  Pb12  1  0.63055457  0.42964468  0.17164129  1
  Pb  Pb13  1  0.86944543  0.42964468  0.67164129  1
  Pb  Pb14  1  0.13055457  0.57035532  0.32835871  1
  Pb  Pb15  1  0.36944543  0.57035532  0.82835871  1
  O  O16  1  0.83018919  0.73441020  0.23851852  1
  O  O17  1  0.34446124  0.60706939  0.14309221  1
  O  O18  1  0.33018919  0.26558980  0.26148148  1
  O  O19  1  0.34894202  0.83620674  0.35197053  1
  O  O20  1  0.82415408  0.47712161  0.04391702  1
  O  O21  1  0.65105798  0.16379326  0.64802947  1
  O  O22  1  0.16621362  0.92784349  0.18179433  1
  O  O23  1  0.04830322  0.29136021  0.53221614  1
  O  O24  1  0.38517818  0.16876648  0.45257690  1
  O  O25  1  0.15105798  0.83620674  0.85197053  1
  O  O26  1  0.67584592  0.47712161  0.54391702  1
  O  O27  1  0.02866744  0.07148016  0.34580261  1
  O  O28  1  0.61482182  0.83123352  0.54742310  1
  O  O29  1  0.97133256  0.92851984  0.65419739  1
  O  O30  1  0.15553876  0.60706939  0.64309221  1
  O  O31  1  0.52866744  0.92851984  0.15419739  1
  O  O32  1  0.32415408  0.52287839  0.45608298  1
  O  O33  1  0.83378638  0.07215651  0.81820567  1
  O  O34  1  0.11482182  0.16876648  0.95257690  1
  O  O35  1  0.65553876  0.39293061  0.85690779  1
  O  O36  1  0.17584592  0.52287839  0.95608298  1
  O  O37  1  0.84446124  0.39293061  0.35690779  1
  O  O38  1  0.88517818  0.83123352  0.04742310  1
  O  O39  1  0.84894202  0.16379326  0.14802947  1
  O  O40  1  0.16981081  0.26558980  0.76148148  1
  O  O41  1  0.47133256  0.07148016  0.84580261  1
  O  O42  1  0.66621362  0.07215651  0.31820567  1
  O  O43  1  0.66981081  0.73441020  0.73851852  1
  O  O44  1  0.45169678  0.29136021  0.03221614  1
  O  O45  1  0.33378638  0.92784349  0.68179433  1
  O  O46  1  0.95169678  0.70863979  0.46778386  1
  O  O47  1  0.54830322  0.70863979  0.96778386  1
