# generated using pymatgen
data_Rb2YGa(SiO3)4
_symmetry_space_group_name_H-M   'P 1'
_cell_length_a   7.36339381
_cell_length_b   14.12240628
_cell_length_c   14.17242144
_cell_angle_alpha   64.24729573
_cell_angle_beta   74.94305329
_cell_angle_gamma   74.88845926
_symmetry_Int_Tables_number   1
_chemical_formula_structural   Rb2YGa(SiO3)4
_chemical_formula_sum   'Rb8 Y4 Ga4 Si16 O48'
_cell_volume   1263.17268607
_cell_formula_units_Z   4
loop_
 _symmetry_equiv_pos_site_id
 _symmetry_equiv_pos_as_xyz
  1  'x, y, z'
loop_
 _atom_site_type_symbol
 _atom_site_label
 _atom_site_symmetry_multiplicity
 _atom_site_fract_x
 _atom_site_fract_y
 _atom_site_fract_z
 _atom_site_occupancy
  Rb  Rb0  1  0.72921300  0.11738706  0.45146169  1
  Rb  Rb1  1  0.19579795  0.08315104  0.03422628  1
  Rb  Rb2  1  0.18682473  0.58315104  0.53422628  1
  Rb  Rb3  1  0.79806175  0.38261294  0.04853831  1
  Rb  Rb4  1  0.27078700  0.88261294  0.54853831  1
  Rb  Rb5  1  0.20193825  0.61738706  0.95146169  1
  Rb  Rb6  1  0.81317527  0.41684896  0.46577372  1
  Rb  Rb7  1  0.80420205  0.91684896  0.96577372  1
  Y  Y8  1  0.44905065  0.78702892  0.25009215  1
  Y  Y9  1  0.55094935  0.21297108  0.74990785  1
  Y  Y10  1  0.98617172  0.71297108  0.24990785  1
  Y  Y11  1  0.01382828  0.28702892  0.75009215  1
  Ga  Ga12  1  0.13169099  0.41376679  0.22569441  1
  Ga  Ga13  1  0.72884781  0.91376679  0.72569441  1
  Ga  Ga14  1  0.86830901  0.58623321  0.77430559  1
  Ga  Ga15  1  0.27115219  0.08623321  0.27430559  1
  Si  Si16  1  0.31312768  0.02960819  0.79670181  1
  Si  Si17  1  0.36056233  0.52960819  0.29670181  1
  Si  Si18  1  0.69643548  0.17335496  0.98933357  1
  Si  Si19  1  0.01971339  0.07827643  0.66123618  1
  Si  Si20  1  0.98028661  0.92172357  0.33876382  1
  Si  Si21  1  0.35912400  0.32664504  0.51066643  1
  Si  Si22  1  0.66504933  0.70223951  0.92255415  1
  Si  Si23  1  0.25922600  0.42172357  0.83876382  1
  Si  Si24  1  0.74077400  0.57827643  0.16123618  1
  Si  Si25  1  0.78984299  0.79776049  0.57744585  1
  Si  Si26  1  0.21015701  0.20223951  0.42255415  1
  Si  Si27  1  0.64087600  0.67335496  0.48933357  1
  Si  Si28  1  0.30356452  0.82664504  0.01066643  1
  Si  Si29  1  0.63943767  0.47039181  0.70329819  1
  Si  Si30  1  0.33495067  0.29776049  0.07744585  1
  Si  Si31  1  0.68687232  0.97039181  0.20329819  1
  O  O32  1  0.66557868  0.88955446  0.62107926  1
  O  O33  1  0.70391993  0.35143138  0.70313644  1
  O  O34  1  0.93642284  0.84935874  0.46742818  1
  O  O35  1  0.54759714  0.01112107  0.77128009  1
  O  O36  1  0.42527818  0.84847287  0.07693900  1
  O  O37  1  0.07126467  0.29356454  0.34189836  1
  O  O38  1  0.92873533  0.70643546  0.65810164  1
  O  O39  1  0.08236835  0.51994071  0.83483566  1
  O  O40  1  0.20672757  0.20643546  0.15810164  1
  O  O41  1  0.77064524  0.05754795  0.08689971  1
  O  O42  1  0.93714472  0.98005929  0.66516434  1
  O  O43  1  0.79327243  0.79356454  0.84189836  1
  O  O44  1  0.77189809  0.97629036  0.29668417  1
  O  O45  1  0.29608007  0.64856862  0.29686356  1
  O  O46  1  0.63484590  0.74722635  0.55646093  1
  O  O47  1  0.25848775  0.14856862  0.79686356  1
  O  O48  1  0.06285528  0.01994071  0.33483566  1
  O  O49  1  0.22810191  0.02370964  0.70331583  1
  O  O50  1  0.46772720  0.72963051  0.42213302  1
  O  O51  1  0.17000170  0.51112107  0.27128009  1
  O  O52  1  0.74151225  0.85143138  0.20313644  1
  O  O53  1  0.11382163  0.85080139  0.27419300  1
  O  O54  1  0.57472182  0.15152713  0.92306100  1
  O  O55  1  0.24679024  0.34935874  0.96742818  1
  O  O56  1  0.36515410  0.25277365  0.44353907  1
  O  O57  1  0.41509289  0.44245205  0.41310029  1
  O  O58  1  0.45512738  0.47629036  0.79668417  1
  O  O59  1  0.43853317  0.75277365  0.94353907  1
  O  O60  1  0.85069005  0.65152713  0.42306100  1
  O  O61  1  0.53227280  0.27036949  0.57786698  1
  O  O62  1  0.88617837  0.14919861  0.72580700  1
  O  O63  1  0.75320976  0.65064126  0.03257182  1
  O  O64  1  0.82999830  0.48887893  0.72871991  1
  O  O65  1  0.54487262  0.52370964  0.20331583  1
  O  O66  1  0.06357716  0.15064126  0.53257182  1
  O  O67  1  0.88050926  0.22963051  0.92213302  1
  O  O68  1  0.91763165  0.48005929  0.16516434  1
  O  O69  1  0.73881602  0.64919861  0.22580700  1
  O  O70  1  0.45240286  0.98887893  0.22871991  1
  O  O71  1  0.14930995  0.34847287  0.57693900  1
  O  O72  1  0.56146683  0.24722635  0.05646093  1
  O  O73  1  0.67621241  0.61044554  0.87892074  1
  O  O74  1  0.58490711  0.55754795  0.58689971  1
  O  O75  1  0.22935476  0.94245205  0.91310029  1
  O  O76  1  0.11949074  0.77036949  0.07786698  1
  O  O77  1  0.26118398  0.35080139  0.77419300  1
  O  O78  1  0.33442132  0.11044554  0.37892074  1
  O  O79  1  0.32378759  0.38955446  0.12107926  1
