# generated using pymatgen
data_Ba3LuRu2O9
_symmetry_space_group_name_H-M   'P 1'
_cell_length_a   5.92038679
_cell_length_b   5.92038687
_cell_length_c   14.46618244
_cell_angle_alpha   90.00000000
_cell_angle_beta   90.00000000
_cell_angle_gamma   119.99999961
_symmetry_Int_Tables_number   1
_chemical_formula_structural   Ba3LuRu2O9
_chemical_formula_sum   'Ba6 Lu2 Ru4 O18'
_cell_volume   439.12153816
_cell_formula_units_Z   2
loop_
 _symmetry_equiv_pos_site_id
 _symmetry_equiv_pos_as_xyz
  1  'x, y, z'
loop_
 _atom_site_type_symbol
 _atom_site_label
 _atom_site_symmetry_multiplicity
 _atom_site_fract_x
 _atom_site_fract_y
 _atom_site_fract_z
 _atom_site_occupancy
  Ba  Ba0  1  0.33333300  0.66666700  0.90785233  1
  Ba  Ba1  1  0.66666700  0.33333300  0.40785233  1
  Ba  Ba2  1  0.33333300  0.66666700  0.59214767  1
  Ba  Ba3  1  0.66666700  0.33333300  0.09214767  1
  Ba  Ba4  1  0.00000000  0.00000000  0.75000000  1
  Ba  Ba5  1  0.00000000  0.00000000  0.25000000  1
  Lu  Lu6  1  0.00000000  0.00000000  0.50000000  1
  Lu  Lu7  1  0.00000000  0.00000000  0.00000000  1
  Ru  Ru8  1  0.66666700  0.33333300  0.66325498  1
  Ru  Ru9  1  0.33333300  0.66666700  0.16325498  1
  Ru  Ru10  1  0.33333300  0.66666700  0.33674502  1
  Ru  Ru11  1  0.66666700  0.33333300  0.83674502  1
  O  O12  1  0.17422767  0.34845534  0.41380685  1
  O  O13  1  0.34845534  0.17422767  0.91380685  1
  O  O14  1  0.65154466  0.82577233  0.41380685  1
  O  O15  1  0.82577233  0.17422767  0.91380685  1
  O  O16  1  0.34845534  0.17422767  0.58619315  1
  O  O17  1  0.65154466  0.82577233  0.08619315  1
  O  O18  1  0.50977278  0.01954555  0.75000000  1
  O  O19  1  0.50977278  0.49022722  0.75000000  1
  O  O20  1  0.01954555  0.50977278  0.25000000  1
  O  O21  1  0.82577233  0.17422767  0.58619315  1
  O  O22  1  0.82577233  0.65154466  0.58619315  1
  O  O23  1  0.82577233  0.65154466  0.91380685  1
  O  O24  1  0.17422767  0.34845534  0.08619315  1
  O  O25  1  0.17422767  0.82577233  0.41380685  1
  O  O26  1  0.17422767  0.82577233  0.08619315  1
  O  O27  1  0.49022722  0.98045445  0.25000000  1
  O  O28  1  0.49022722  0.50977278  0.25000000  1
  O  O29  1  0.98045445  0.49022722  0.75000000  1
