# generated using pymatgen
data_RbSbBrF3
_symmetry_space_group_name_H-M   'P 1'
_cell_length_a   4.56521642
_cell_length_b   7.87781926
_cell_length_c   9.10164277
_cell_angle_alpha   110.50421724
_cell_angle_beta   99.10683748
_cell_angle_gamma   103.53165495
_symmetry_Int_Tables_number   1
_chemical_formula_structural   RbSbBrF3
_chemical_formula_sum   'Rb2 Sb2 Br2 F6'
_cell_volume   287.52323346
_cell_formula_units_Z   2
loop_
 _symmetry_equiv_pos_site_id
 _symmetry_equiv_pos_as_xyz
  1  'x, y, z'
loop_
 _atom_site_type_symbol
 _atom_site_label
 _atom_site_symmetry_multiplicity
 _atom_site_fract_x
 _atom_site_fract_y
 _atom_site_fract_z
 _atom_site_occupancy
  Rb  Rb0  1  0.98814320  0.31281712  0.65293309  1
  Rb  Rb1  1  0.01185680  0.68718288  0.34706691  1
  Sb  Sb2  1  0.31933936  0.15984322  0.20895967  1
  Sb  Sb3  1  0.68066064  0.84015678  0.79104033  1
  Br  Br4  1  0.43656105  0.77250668  0.06902800  1
  Br  Br5  1  0.56343895  0.22749332  0.93097200  1
  F  F6  1  0.60550505  0.55930348  0.68392650  1
  F  F7  1  0.69937459  0.87942449  0.58526982  1
  F  F8  1  0.30062541  0.12057551  0.41473018  1
  F  F9  1  0.39449495  0.44069652  0.31607350  1
  F  F10  1  0.22214703  0.76454602  0.69963262  1
  F  F11  1  0.77785297  0.23545398  0.30036738  1
