# generated using pymatgen
data_La5Ti2AgS5O7
_symmetry_space_group_name_H-M   'P 1'
_cell_length_a   3.98098033
_cell_length_b   18.46502905
_cell_length_c   19.69733073
_cell_angle_alpha   90.00000000
_cell_angle_beta   90.00000000
_cell_angle_gamma   90.00000000
_symmetry_Int_Tables_number   1
_chemical_formula_structural   La5Ti2AgS5O7
_chemical_formula_sum   'La20 Ti8 Ag4 S20 O28'
_cell_volume   1447.92945844
_cell_formula_units_Z   4
loop_
 _symmetry_equiv_pos_site_id
 _symmetry_equiv_pos_as_xyz
  1  'x, y, z'
loop_
 _atom_site_type_symbol
 _atom_site_label
 _atom_site_symmetry_multiplicity
 _atom_site_fract_x
 _atom_site_fract_y
 _atom_site_fract_z
 _atom_site_occupancy
  La  La0  1  0.75000000  0.21400487  0.19094591  1
  La  La1  1  0.25000000  0.99918727  0.39295341  1
  La  La2  1  0.75000000  0.02894157  0.81842849  1
  La  La3  1  0.75000000  0.47105843  0.31842849  1
  La  La4  1  0.75000000  0.00081273  0.60704659  1
  La  La5  1  0.75000000  0.28599513  0.69094591  1
  La  La6  1  0.25000000  0.30442388  0.04156077  1
  La  La7  1  0.25000000  0.78599513  0.80905409  1
  La  La8  1  0.75000000  0.49918727  0.10704659  1
  La  La9  1  0.25000000  0.97105843  0.18157151  1
  La  La10  1  0.75000000  0.37703865  0.51191446  1
  La  La11  1  0.75000000  0.12296135  0.01191446  1
  La  La12  1  0.25000000  0.71400487  0.30905409  1
  La  La13  1  0.25000000  0.50081273  0.89295341  1
  La  La14  1  0.25000000  0.87703865  0.98808554  1
  La  La15  1  0.75000000  0.69557612  0.95843923  1
  La  La16  1  0.25000000  0.19557612  0.54156077  1
  La  La17  1  0.25000000  0.52894157  0.68157151  1
  La  La18  1  0.25000000  0.62296135  0.48808554  1
  La  La19  1  0.75000000  0.80442388  0.45843923  1
  Ti  Ti20  1  0.25000000  0.33158465  0.37842411  1
  Ti  Ti21  1  0.75000000  0.66841535  0.62157589  1
  Ti  Ti22  1  0.75000000  0.88764694  0.30257027  1
  Ti  Ti23  1  0.25000000  0.38764694  0.19742973  1
  Ti  Ti24  1  0.75000000  0.61235306  0.80257027  1
  Ti  Ti25  1  0.25000000  0.11235306  0.69742973  1
  Ti  Ti26  1  0.75000000  0.83158465  0.12157589  1
  Ti  Ti27  1  0.25000000  0.16841535  0.87842411  1
  Ag  Ag28  1  0.25000000  0.65403766  0.13551007  1
  Ag  Ag29  1  0.75000000  0.15403766  0.36448993  1
  Ag  Ag30  1  0.75000000  0.34596234  0.86448993  1
  Ag  Ag31  1  0.25000000  0.84596234  0.63551007  1
  S  S32  1  0.25000000  0.54275505  0.22027593  1
  S  S33  1  0.25000000  0.27823918  0.81666608  1
  S  S34  1  0.75000000  0.61985792  0.37104859  1
  S  S35  1  0.75000000  0.72176082  0.18333392  1
  S  S36  1  0.25000000  0.03296759  0.93283389  1
  S  S37  1  0.25000000  0.38014208  0.62895141  1
  S  S38  1  0.25000000  0.11985792  0.12895141  1
  S  S39  1  0.75000000  0.77823918  0.68333392  1
  S  S40  1  0.75000000  0.88014208  0.87104859  1
  S  S41  1  0.25000000  0.58957894  0.02442585  1
  S  S42  1  0.75000000  0.41042106  0.97557415  1
  S  S43  1  0.75000000  0.45724495  0.77972407  1
  S  S44  1  0.75000000  0.08957894  0.47557415  1
  S  S45  1  0.25000000  0.22176082  0.31666608  1
  S  S46  1  0.25000000  0.91042106  0.52442585  1
  S  S47  1  0.75000000  0.96703241  0.06716611  1
  S  S48  1  0.75000000  0.04275505  0.27972407  1
  S  S49  1  0.25000000  0.95724495  0.72027593  1
  S  S50  1  0.25000000  0.46703241  0.43283389  1
  S  S51  1  0.75000000  0.53296759  0.56716611  1
  O  O52  1  0.75000000  0.25340045  0.57260288  1
  O  O53  1  0.75000000  0.70756930  0.82817636  1
  O  O54  1  0.25000000  0.19438609  0.97071476  1
  O  O55  1  0.75000000  0.40324704  0.20044024  1
  O  O56  1  0.25000000  0.90324704  0.29955976  1
  O  O57  1  0.75000000  0.09675296  0.70044024  1
  O  O58  1  0.75000000  0.15350729  0.88171766  1
  O  O59  1  0.25000000  0.59675296  0.79955976  1
  O  O60  1  0.75000000  0.34649271  0.38171766  1
  O  O61  1  0.25000000  0.29243070  0.17182364  1
  O  O62  1  0.25000000  0.39504428  0.29546296  1
  O  O63  1  0.75000000  0.80561391  0.02928524  1
  O  O64  1  0.25000000  0.07566558  0.60692612  1
  O  O65  1  0.25000000  0.42433442  0.10692612  1
  O  O66  1  0.25000000  0.74659955  0.42739712  1
  O  O67  1  0.25000000  0.75340045  0.92739712  1
  O  O68  1  0.25000000  0.10495572  0.79546296  1
  O  O69  1  0.75000000  0.24659955  0.07260288  1
  O  O70  1  0.25000000  0.65350729  0.61828234  1
  O  O71  1  0.75000000  0.69438609  0.52928524  1
  O  O72  1  0.75000000  0.57566558  0.89307388  1
  O  O73  1  0.75000000  0.60495572  0.70453704  1
  O  O74  1  0.25000000  0.20756930  0.67182364  1
  O  O75  1  0.75000000  0.89504428  0.20453704  1
  O  O76  1  0.25000000  0.84649271  0.11828234  1
  O  O77  1  0.75000000  0.79243070  0.32817636  1
  O  O78  1  0.75000000  0.92433442  0.39307388  1
  O  O79  1  0.25000000  0.30561391  0.47071476  1
