# generated using pymatgen
data_Tm2Te5O13
_symmetry_space_group_name_H-M   'P 1'
_cell_length_a   6.95121091
_cell_length_b   8.73573719
_cell_length_c   10.69560598
_cell_angle_alpha   89.00120783
_cell_angle_beta   87.11703935
_cell_angle_gamma   74.73381439
_symmetry_Int_Tables_number   1
_chemical_formula_structural   Tm2Te5O13
_chemical_formula_sum   'Tm4 Te10 O26'
_cell_volume   625.76235225
_cell_formula_units_Z   2
loop_
 _symmetry_equiv_pos_site_id
 _symmetry_equiv_pos_as_xyz
  1  'x, y, z'
loop_
 _atom_site_type_symbol
 _atom_site_label
 _atom_site_symmetry_multiplicity
 _atom_site_fract_x
 _atom_site_fract_y
 _atom_site_fract_z
 _atom_site_occupancy
  Tm  Tm0  1  0.44789912  0.47084303  0.82029907  1
  Tm  Tm1  1  0.55210088  0.52915697  0.17970093  1
  Tm  Tm2  1  0.00009423  0.25986775  0.76004415  1
  Tm  Tm3  1  0.99990577  0.74013225  0.23995585  1
  Te  Te4  1  0.27258271  0.39424167  0.48701395  1
  Te  Te5  1  0.43888428  0.90275703  0.30073521  1
  Te  Te6  1  0.29003854  0.87601105  0.97606983  1
  Te  Te7  1  0.72741729  0.60575833  0.51298605  1
  Te  Te8  1  0.84251823  0.19695465  0.35938558  1
  Te  Te9  1  0.70996146  0.12398895  0.02393017  1
  Te  Te10  1  0.15748177  0.80304535  0.64061442  1
  Te  Te11  1  0.12383215  0.35148296  0.10744216  1
  Te  Te12  1  0.56111572  0.09724297  0.69926479  1
  Te  Te13  1  0.87616785  0.64851704  0.89255784  1
  O  O14  1  0.31405507  0.73592835  0.28473645  1
  O  O15  1  0.65106017  0.01516977  0.87648635  1
  O  O16  1  0.33946448  0.51225979  0.61890095  1
  O  O17  1  0.05622824  0.81956446  0.04074132  1
  O  O18  1  0.32513506  0.22666581  0.77719805  1
  O  O19  1  0.46277860  0.19256917  0.51890538  1
  O  O20  1  0.93365542  0.98234613  0.31075212  1
  O  O21  1  0.46797239  0.66930527  1.00071184  1
  O  O22  1  0.06634458  0.01765387  0.68924788  1
  O  O23  1  0.12779808  0.49059782  0.89529291  1
  O  O24  1  0.67486494  0.77333419  0.22280195  1
  O  O25  1  0.95757611  0.64972901  0.43248112  1
  O  O26  1  0.94377176  0.18043554  0.95925868  1
  O  O27  1  0.93296320  0.73463323  0.72213432  1
  O  O28  1  0.53202761  0.33069473  -0.00071184  1
  O  O29  1  0.87220192  0.50940218  0.10470709  1
  O  O30  1  0.04242389  0.35027099  0.56751888  1
  O  O31  1  0.66053552  0.48774021  0.38109905  1
  O  O32  1  0.34893983  0.98483023  0.12351365  1
  O  O33  1  0.66656849  0.26179165  0.22639259  1
  O  O34  1  0.06703680  0.26536677  0.27786568  1
  O  O35  1  0.76564801  0.50110206  0.81246302  1
  O  O36  1  0.23435199  0.49889794  0.18753698  1
  O  O37  1  0.53722140  0.80743083  0.48109462  1
  O  O38  1  0.68594493  0.26407165  0.71526355  1
  O  O39  1  0.33343151  0.73820835  0.77360741  1
