# generated using pymatgen
data_Ba3Bi2(PO4)4
_symmetry_space_group_name_H-M   'P 1'
_cell_length_a   8.87455037
_cell_length_b   8.85910981
_cell_length_c   11.31970045
_cell_angle_alpha   108.19609526
_cell_angle_beta   113.07840913
_cell_angle_gamma   90.00128231
_symmetry_Int_Tables_number   1
_chemical_formula_structural   Ba3Bi2(PO4)4
_chemical_formula_sum   'Ba6 Bi4 P8 O32'
_cell_volume   770.12574264
_cell_formula_units_Z   2
loop_
 _symmetry_equiv_pos_site_id
 _symmetry_equiv_pos_as_xyz
  1  'x, y, z'
loop_
 _atom_site_type_symbol
 _atom_site_label
 _atom_site_symmetry_multiplicity
 _atom_site_fract_x
 _atom_site_fract_y
 _atom_site_fract_z
 _atom_site_occupancy
  Ba  Ba0  1  0.72242646  0.22675229  0.56752961  1
  Ba  Ba1  1  0.94502388  0.75001293  0.00001426  1
  Ba  Ba2  1  0.05497612  0.24998707  0.99998574  1
  Ba  Ba3  1  0.15486622  0.27327788  0.43249548  1
  Ba  Ba4  1  0.27757354  0.77324771  0.43247039  1
  Ba  Ba5  1  0.84513378  0.72672212  0.56750452  1
  Bi  Bi6  1  0.47490902  0.31261970  0.83571101  1
  Bi  Bi7  1  0.52509098  0.68738030  0.16428899  1
  Bi  Bi8  1  0.63914706  0.18739440  0.16432725  1
  Bi  Bi9  1  0.36085294  0.81260560  0.83567275  1
  P  P10  1  0.54798191  0.54919982  0.70993940  1
  P  P11  1  0.67653875  0.01100588  0.77869052  1
  P  P12  1  0.10216312  0.51102716  0.77873666  1
  P  P13  1  0.83802044  0.95079379  0.29005842  1
  P  P14  1  0.45201809  0.45080018  0.29006060  1
  P  P15  1  0.89783688  0.48897284  0.22126334  1
  P  P16  1  0.16197956  0.04920621  0.70994158  1
  P  P17  1  0.32346125  0.98899412  0.22130948  1
  O  O18  1  0.45003484  -0.00253897  0.15525734  1
  O  O19  1  0.28959956  0.80126679  0.19065526  1
  O  O20  1  0.40102123  0.64560411  0.65852991  1
  O  O21  1  0.29477685  0.50253374  0.84481276  1
  O  O22  1  0.18454444  0.86584998  0.65379824  1
  O  O23  1  0.90104725  0.30125305  0.19061855  1
  O  O24  1  0.61361844  0.60035760  0.86785169  1
  O  O25  1  0.97827321  0.06089837  0.65717389  1
  O  O26  1  0.60150789  0.92478856  0.62343229  1
  O  O27  1  0.71040044  0.19873321  0.80934474  1
  O  O28  1  0.32107121  0.43911155  0.34281658  1
  O  O29  1  0.81545556  0.13415002  0.34620176  1
  O  O30  1  0.25422055  0.10034962  0.86785283  1
  O  O31  1  0.98710726  0.54632989  0.14779688  1
  O  O32  1  0.39849211  0.07521144  0.37656771  1
  O  O33  1  0.54996516  1.00253897  0.84474266  1
  O  O34  1  0.38638156  0.39964240  0.13214831  1
  O  O35  1  0.53074882  0.63414338  0.34619313  1
  O  O36  1  0.67892879  0.56088845  0.65718342  1
  O  O37  1  0.59897877  0.35439589  0.34147009  1
  O  O38  1  0.09895275  0.69874695  0.80938145  1
  O  O39  1  0.02198156  0.42479931  0.62346985  1
  O  O40  1  0.83924723  0.95365749  0.85220822  1
  O  O41  1  0.97801844  0.57520069  0.37653015  1
  O  O42  1  0.25757035  0.14560674  0.65855557  1
  O  O43  1  0.74577945  0.89965038  0.13214717  1
  O  O44  1  0.70522315  0.49746626  0.15518724  1
  O  O45  1  0.01289274  0.45367011  0.85220312  1
  O  O46  1  0.74242965  0.85439326  0.34144443  1
  O  O47  1  0.02172679  0.93910163  0.34282611  1
  O  O48  1  0.16075277  0.04634251  0.14779178  1
  O  O49  1  0.46925118  0.36585662  0.65380687  1
