# generated using pymatgen
data_LiU4P3O20
_symmetry_space_group_name_H-M   'P 1'
_cell_length_a   9.98514161
_cell_length_b   9.99122439
_cell_length_c   17.74820047
_cell_angle_alpha   90.00000000
_cell_angle_beta   106.11156388
_cell_angle_gamma   90.00000000
_symmetry_Int_Tables_number   1
_chemical_formula_structural   LiU4P3O20
_chemical_formula_sum   'Li4 U16 P12 O80'
_cell_volume   1701.08309663
_cell_formula_units_Z   4
loop_
 _symmetry_equiv_pos_site_id
 _symmetry_equiv_pos_as_xyz
  1  'x, y, z'
loop_
 _atom_site_type_symbol
 _atom_site_label
 _atom_site_symmetry_multiplicity
 _atom_site_fract_x
 _atom_site_fract_y
 _atom_site_fract_z
 _atom_site_occupancy
  Li  Li0  1  0.32848935  0.62943691  0.91629695  1
  Li  Li1  1  0.67151065  0.37056309  0.08370305  1
  Li  Li2  1  0.67151065  0.12943691  0.58370305  1
  Li  Li3  1  0.32848935  0.87056309  0.41629695  1
  U  U4  1  0.97238294  0.37666488  0.69283862  1
  U  U5  1  0.02761706  0.87666488  0.80716138  1
  U  U6  1  0.39416942  0.11436160  0.05926999  1
  U  U7  1  0.08536071  0.36436350  0.94208791  1
  U  U8  1  0.53108187  0.12541945  0.31057510  1
  U  U9  1  0.02761706  0.62333512  0.30716138  1
  U  U10  1  0.39416942  0.38563840  0.55926999  1
  U  U11  1  0.53108187  0.37458055  0.81057510  1
  U  U12  1  0.46891813  0.87458055  0.68942490  1
  U  U13  1  0.60583058  0.61436160  0.44073001  1
  U  U14  1  0.91463929  0.63563650  0.05791209  1
  U  U15  1  0.46891813  0.62541945  0.18942490  1
  U  U16  1  0.60583058  0.88563840  0.94073001  1
  U  U17  1  0.08536071  0.13563650  0.44208791  1
  U  U18  1  0.97238294  0.12333512  0.19283862  1
  U  U19  1  0.91463929  0.86436350  0.55791209  1
  P  P20  1  0.25488430  0.87465814  0.25755957  1
  P  P21  1  0.74511570  0.37465814  0.24244043  1
  P  P22  1  0.18773991  0.37230928  0.13137271  1
  P  P23  1  0.69241323  0.62217781  0.63056682  1
  P  P24  1  0.30758677  0.12217781  0.86943318  1
  P  P25  1  0.18773991  0.12769072  0.63137271  1
  P  P26  1  0.81226009  0.87230928  0.36862729  1
  P  P27  1  0.81226009  0.62769072  0.86862729  1
  P  P28  1  0.30758677  0.37782219  0.36943318  1
  P  P29  1  0.25488430  0.62534186  0.75755957  1
  P  P30  1  0.69241323  0.87782219  0.13056682  1
  P  P31  1  0.74511570  0.12534186  0.74244043  1
  O  O32  1  0.87815966  0.71009544  0.81544836  1
  O  O33  1  0.80466489  0.28673553  0.18608036  1
  O  O34  1  0.01699619  0.13367776  0.30441953  1
  O  O35  1  0.51672487  0.25162175  0.55847142  1
  O  O36  1  0.62940546  0.71881441  0.67838534  1
  O  O37  1  0.62944161  0.46213820  0.18607666  1
  O  O38  1  0.27479766  0.51790937  0.55960027  1
  O  O39  1  0.01699619  0.36632224  0.80441953  1
  O  O40  1  0.58929885  0.36882243  0.91651354  1
  O  O41  1  0.78006577  0.51289673  0.05747552  1
  O  O42  1  0.53426080  0.61538001  0.30082863  1
  O  O43  1  0.42415496  0.03928501  0.92846941  1
  O  O44  1  0.13919770  0.96500814  0.20693177  1
  O  O45  1  0.68023062  0.21549923  0.79377186  1
  O  O46  1  0.07285426  0.61729710  0.41232609  1
  O  O47  1  0.86080230  0.03499186  0.79306823  1
  O  O48  1  0.12184034  0.28990456  0.18455164  1
  O  O49  1  0.48327513  0.75162175  0.94152858  1
  O  O50  1  0.04749721  0.75483789  0.05811773  1
  O  O51  1  0.72520234  0.01790937  0.94039973  1
  O  O52  1  0.19944028  0.47070521  0.31655833  1
  O  O53  1  0.95250279  0.24516211  0.94188227  1
  O  O54  1  0.98300381  0.86632224  0.69558047  1
  O  O55  1  0.21993423  0.01289673  0.44252448  1
  O  O56  1  0.72520234  0.48209063  0.44039973  1
  O  O57  1  0.41070115  0.63117757  0.08348646  1
  O  O58  1  0.80055972  0.97070521  0.18344167  1
  O  O59  1  0.04749721  0.74516211  0.55811773  1
  O  O60  1  0.41070115  0.86882243  0.58348646  1
  O  O61  1  0.57584504  0.53928501  0.57153059  1
  O  O62  1  0.51672487  0.24837825  0.05847142  1
  O  O63  1  0.07510319  0.04097027  0.57224232  1
  O  O64  1  0.21993423  0.48710327  0.94252448  1
  O  O65  1  0.75690208  0.69816710  0.57158272  1
  O  O66  1  0.69172141  0.95898713  0.32130662  1
  O  O67  1  0.68023062  0.28450077  0.29377186  1
  O  O68  1  0.30827859  0.45898713  0.17869338  1
  O  O69  1  0.24309792  0.19816710  0.92841728  1
  O  O70  1  0.92714574  0.38270290  0.58767391  1
  O  O71  1  0.37059454  0.28118559  0.32161466  1
  O  O72  1  0.92489681  0.95902973  0.42775768  1
  O  O73  1  0.19533511  0.78673553  0.31391964  1
  O  O74  1  0.37055839  0.53786180  0.81392334  1
  O  O75  1  0.75690208  0.80183290  0.07158272  1
  O  O76  1  0.19533511  0.71326447  0.81391964  1
  O  O77  1  0.07510319  0.45902973  0.07224232  1
  O  O78  1  0.31976938  0.71549923  0.70622814  1
  O  O79  1  0.62940546  0.78118559  0.17838534  1
  O  O80  1  0.87815966  0.78990456  0.31544836  1
  O  O81  1  0.76518344  0.72174501  0.92737335  1
  O  O82  1  0.57584504  0.96071499  0.07153059  1
  O  O83  1  0.12184034  0.21009544  0.68455164  1
  O  O84  1  0.78006577  0.98710327  0.55747552  1
  O  O85  1  0.48327513  0.74837825  0.44152858  1
  O  O86  1  0.37055839  0.96213820  0.31392334  1
  O  O87  1  0.62944161  0.03786180  0.68607666  1
  O  O88  1  0.46573920  0.11538001  0.19917137  1
  O  O89  1  0.46573920  0.38461999  0.69917137  1
  O  O90  1  0.42415496  0.46071499  0.42846941  1
  O  O91  1  0.27479766  0.98209063  0.05960027  1
  O  O92  1  0.69172141  0.54101287  0.82130662  1
  O  O93  1  0.13919770  0.53499186  0.70693177  1
  O  O94  1  0.86080230  0.46500814  0.29306823  1
  O  O95  1  0.30827859  0.04101287  0.67869338  1
  O  O96  1  0.92714574  0.11729710  0.08767391  1
  O  O97  1  0.92489681  0.54097027  0.92775768  1
  O  O98  1  0.76518344  0.77825499  0.42737335  1
  O  O99  1  0.95250279  0.25483789  0.44188227  1
  O  O100  1  0.24309792  0.30183290  0.42841728  1
  O  O101  1  0.37059454  0.21881441  0.82161466  1
  O  O102  1  0.98300381  0.63367776  0.19558047  1
  O  O103  1  0.31976938  0.78450077  0.20622814  1
  O  O104  1  0.19944028  0.02929479  0.81655833  1
  O  O105  1  0.58929885  0.13117757  0.41651354  1
  O  O106  1  0.80055972  0.52929479  0.68344167  1
  O  O107  1  0.53426080  0.88461999  0.80082863  1
  O  O108  1  0.23481656  0.22174501  0.57262665  1
  O  O109  1  0.07285426  0.88270290  0.91232609  1
  O  O110  1  0.23481656  0.27825499  0.07262665  1
  O  O111  1  0.80466489  0.21326447  0.68608036  1
