# generated using pymatgen
data_PrSClO4
_symmetry_space_group_name_H-M   'P 1'
_cell_length_a   6.76942436
_cell_length_b   8.14617356
_cell_length_c   8.57855872
_cell_angle_alpha   90.00000000
_cell_angle_beta   112.24040521
_cell_angle_gamma   90.00000000
_symmetry_Int_Tables_number   1
_chemical_formula_structural   PrSClO4
_chemical_formula_sum   'Pr4 S4 Cl4 O16'
_cell_volume   437.86970907
_cell_formula_units_Z   4
loop_
 _symmetry_equiv_pos_site_id
 _symmetry_equiv_pos_as_xyz
  1  'x, y, z'
loop_
 _atom_site_type_symbol
 _atom_site_label
 _atom_site_symmetry_multiplicity
 _atom_site_fract_x
 _atom_site_fract_y
 _atom_site_fract_z
 _atom_site_occupancy
  Pr  Pr0  1  0.88839204  0.30796535  0.27070146  1
  Pr  Pr1  1  0.11160796  0.69203465  0.72929854  1
  Pr  Pr2  1  0.38839204  0.19203465  0.77070146  1
  Pr  Pr3  1  0.61160796  0.80796535  0.22929854  1
  S  S4  1  0.70925030  0.58120983  0.93212174  1
  S  S5  1  0.29074970  0.41879017  0.06787826  1
  S  S6  1  0.79074970  0.08120983  0.56787826  1
  S  S7  1  0.20925030  0.91879017  0.43212174  1
  Cl  Cl8  1  0.25680384  0.46321328  0.53027555  1
  Cl  Cl9  1  0.75680384  0.03678672  0.03027555  1
  Cl  Cl10  1  0.24319616  0.96321328  0.96972445  1
  Cl  Cl11  1  0.74319616  0.53678672  0.46972445  1
  O  O12  1  0.63416907  0.15109009  0.62908675  1
  O  O13  1  0.51232698  0.68306720  0.87780304  1
  O  O14  1  0.36583093  0.84890991  0.37091325  1
  O  O15  1  0.29752135  0.91363944  0.62374387  1
  O  O16  1  0.16515201  0.09296757  0.38150821  1
  O  O17  1  0.01232698  0.81693280  0.37780304  1
  O  O18  1  0.79752135  0.58636056  0.12374387  1
  O  O19  1  0.98767302  0.18306720  0.62219696  1
  O  O20  1  0.13416907  0.34890991  0.12908675  1
  O  O21  1  0.66515201  0.40703243  0.88150821  1
  O  O22  1  0.33484799  0.59296757  0.11849179  1
  O  O23  1  0.86583093  0.65109009  0.87091325  1
  O  O24  1  0.70247865  0.08636056  0.37625613  1
  O  O25  1  0.48767302  0.31693280  0.12219696  1
  O  O26  1  0.20247865  0.41363944  0.87625613  1
  O  O27  1  0.83484799  0.90703243  0.61849179  1
