# generated using pymatgen
data_Eu2SiCl2O3
_symmetry_space_group_name_H-M   'P 1'
_cell_length_a   9.27989191
_cell_length_b   9.27976760
_cell_length_c   9.27901520
_cell_angle_alpha   105.61380665
_cell_angle_beta   105.61399254
_cell_angle_gamma   117.49385978
_symmetry_Int_Tables_number   1
_chemical_formula_structural   Eu2SiCl2O3
_chemical_formula_sum   'Eu8 Si4 Cl8 O12'
_cell_volume   605.97403542
_cell_formula_units_Z   4
loop_
 _symmetry_equiv_pos_site_id
 _symmetry_equiv_pos_as_xyz
  1  'x, y, z'
loop_
 _atom_site_type_symbol
 _atom_site_label
 _atom_site_symmetry_multiplicity
 _atom_site_fract_x
 _atom_site_fract_y
 _atom_site_fract_z
 _atom_site_occupancy
  Eu  Eu0  1  0.14557255  0.47724664  0.16895174  1
  Eu  Eu1  1  0.69171742  0.02335058  0.16887912  1
  Eu  Eu2  1  0.30828258  0.97664942  0.83112088  1
  Eu  Eu3  1  0.97663324  0.14553727  0.66832216  1
  Eu  Eu4  1  0.47717214  0.30824885  0.33165482  1
  Eu  Eu5  1  0.85442745  0.52275336  0.83104826  1
  Eu  Eu6  1  0.02336676  0.85446273  0.33167784  1
  Eu  Eu7  1  0.52282786  0.69175115  0.66834518  1
  Si  Si8  1  0.31692002  0.59647164  0.91340551  1
  Si  Si9  1  0.68307998  0.40352836  0.08659449  1
  Si  Si10  1  0.59645276  0.68304013  0.27960103  1
  Si  Si11  1  0.40354724  0.31695987  0.72039897  1
  Cl  Cl12  1  0.20115054  0.20119045  0.00003143  1
  Cl  Cl13  1  0.09760399  0.25254857  0.35033428  1
  Cl  Cl14  1  0.25266491  0.90228105  0.15501513  1
  Cl  Cl15  1  0.90239601  0.74745143  0.64966572  1
  Cl  Cl16  1  0.24995058  0.74996131  0.50000660  1
  Cl  Cl17  1  0.74733509  0.09771895  0.84498487  1
  Cl  Cl18  1  0.75004942  0.25003869  0.49999340  1
  Cl  Cl19  1  0.79884946  0.79880955  0.99996857  1
  O  O20  1  0.55113468  0.33499463  0.88610584  1
  O  O21  1  0.77566198  0.89274742  0.37508594  1
  O  O22  1  0.44886532  0.66500537  0.11389416  1
  O  O23  1  0.40062908  0.77568793  0.88293943  1
  O  O24  1  0.89272992  0.51764760  0.11707761  1
  O  O25  1  0.59937092  0.22431207  0.11706057  1
  O  O26  1  0.51766931  0.40059812  0.62492929  1
  O  O27  1  0.33493257  0.44889744  0.78381142  1
  O  O28  1  0.10727008  0.48235240  0.88292239  1
  O  O29  1  0.48233069  0.59940188  0.37507071  1
  O  O30  1  0.22433802  0.10725258  0.62491406  1
  O  O31  1  0.66506743  0.55110256  0.21618858  1
