# generated using pymatgen
data_Na2Zn3(SiO4)2
_symmetry_space_group_name_H-M   'P 1'
_cell_length_a   5.18970071
_cell_length_b   8.93809695
_cell_length_c   13.61295856
_cell_angle_alpha   72.07151897
_cell_angle_beta   79.64971441
_cell_angle_gamma   88.94840594
_symmetry_Int_Tables_number   1
_chemical_formula_structural   Na2Zn3(SiO4)2
_chemical_formula_sum   'Na6 Zn9 Si6 O24'
_cell_volume   590.55199691
_cell_formula_units_Z   3
loop_
 _symmetry_equiv_pos_site_id
 _symmetry_equiv_pos_as_xyz
  1  'x, y, z'
loop_
 _atom_site_type_symbol
 _atom_site_label
 _atom_site_symmetry_multiplicity
 _atom_site_fract_x
 _atom_site_fract_y
 _atom_site_fract_z
 _atom_site_occupancy
  Na  Na0  1  0.43164534  0.40717143  0.23380184  1
  Na  Na1  1  0.40589416  0.03777997  0.30920312  1
  Na  Na2  1  0.27452813  0.92900813  0.55555416  1
  Na  Na3  1  0.71516167  0.02262433  0.63924057  1
  Na  Na4  1  0.59557954  0.87658992  0.90367352  1
  Na  Na5  1  0.47852387  0.77941439  0.15541519  1
  Zn  Zn6  1  0.93922305  0.55871262  0.31758478  1
  Zn  Zn7  1  0.26718187  0.28878571  0.50257534  1
  Zn  Zn8  1  0.61218681  0.51492234  0.96055367  1
  Zn  Zn9  1  0.93110340  0.25047748  0.14581084  1
  Zn  Zn10  1  0.27547073  0.46335088  0.67143355  1
  Zn  Zn11  1  0.86600701  0.81647843  0.46193097  1
  Zn  Zn12  1  0.00203325  0.99961949  0.99911691  1
  Zn  Zn13  1  0.68967811  0.26919950  0.80942242  1
  Zn  Zn14  1  0.19347552  0.71696452  0.82130690  1
  Si  Si15  1  0.39378527  0.64944410  0.41505272  1
  Si  Si16  1  0.18507103  0.10305320  0.74928140  1
  Si  Si17  1  0.03032151  0.62453512  0.06325754  1
  Si  Si18  1  0.75508992  0.63377995  0.71755480  1
  Si  Si19  1  0.83771247  0.18822445  0.39662704  1
  Si  Si20  1  0.47924611  0.15830115  0.05029238  1
  O  O21  1  0.88710392  0.46484615  0.71622016  1
  O  O22  1  0.35820615  0.00936964  0.02376155  1
  O  O23  1  0.43163691  0.61166677  0.73106921  1
  O  O24  1  0.76039331  0.09954472  0.09017927  1
  O  O25  1  0.39400185  0.24603780  0.74178308  1
  O  O26  1  0.10339916  0.69921349  0.38132941  1
  O  O27  1  0.57349220  0.15743657  0.48864528  1
  O  O28  1  0.14241445  0.59632625  0.17166540  1
  O  O29  1  0.53954878  0.31166777  0.94260451  1
  O  O30  1  0.28805899  0.64052643  0.96607544  1
  O  O31  1  0.57121927  0.60563481  0.31510324  1
  O  O32  1  0.01802365  0.03290416  0.42092512  1
  O  O33  1  0.85976763  0.78284729  0.03184883  1
  O  O34  1  0.36146848  0.49280315  0.52061997  1
  O  O35  1  0.92988294  0.08912560  0.84700093  1
  O  O36  1  0.29965274  0.20979520  0.14551438  1
  O  O37  1  0.87841675  0.77886885  0.61525710  1
  O  O38  1  0.81496765  0.67224538  0.82507899  1
  O  O39  1  0.07804083  0.14562865  0.63897729  1
  O  O40  1  0.73341609  0.22614625  0.28513944  1
  O  O41  1  0.03711455  0.33768135  0.39182388  1
  O  O42  1  0.83013899  0.47488178  0.07134237  1
  O  O43  1  0.33803542  0.93638744  0.77120663  1
  O  O44  1  0.50978051  0.80287739  0.43733882  1
