# generated using pymatgen
data_Zr3Cd3AgF20
_symmetry_space_group_name_H-M   'P 1'
_cell_length_a   10.75703722
_cell_length_b   10.75703699
_cell_length_c   8.52095076
_cell_angle_alpha   90.00000000
_cell_angle_beta   90.00000000
_cell_angle_gamma   120.00000073
_symmetry_Int_Tables_number   1
_chemical_formula_structural   Zr3Cd3AgF20
_chemical_formula_sum   'Zr6 Cd6 Ag2 F40'
_cell_volume   853.89410931
_cell_formula_units_Z   2
loop_
 _symmetry_equiv_pos_site_id
 _symmetry_equiv_pos_as_xyz
  1  'x, y, z'
loop_
 _atom_site_type_symbol
 _atom_site_label
 _atom_site_symmetry_multiplicity
 _atom_site_fract_x
 _atom_site_fract_y
 _atom_site_fract_z
 _atom_site_occupancy
  Zr  Zr0  1  0.58462732  0.72246227  0.25000000  1
  Zr  Zr1  1  0.86216505  0.58462732  0.75000000  1
  Zr  Zr2  1  0.41537268  0.27753773  0.75000000  1
  Zr  Zr3  1  0.13783495  0.41537268  0.25000000  1
  Zr  Zr4  1  0.27753773  0.86216505  0.25000000  1
  Zr  Zr5  1  0.72246227  0.13783495  0.75000000  1
  Cd  Cd6  1  0.16267818  0.43391544  0.75000000  1
  Cd  Cd7  1  0.56608456  0.72876273  0.75000000  1
  Cd  Cd8  1  0.83732182  0.56608456  0.25000000  1
  Cd  Cd9  1  0.72876273  0.16267818  0.25000000  1
  Cd  Cd10  1  0.27123727  0.83732182  0.75000000  1
  Cd  Cd11  1  0.43391544  0.27123727  0.25000000  1
  Ag  Ag12  1  0.00000000  0.00000000  0.25000000  1
  Ag  Ag13  1  0.00000000  0.00000000  0.75000000  1
  F  F14  1  0.36653041  0.55013509  0.25000000  1
  F  F15  1  0.72018873  0.14541695  0.98776082  1
  F  F16  1  0.76500043  0.96500680  0.75000000  1
  F  F17  1  0.77536387  0.71943409  0.75000000  1
  F  F18  1  0.00000000  0.00000000  0.00000000  1
  F  F19  1  0.20000637  0.23499957  0.75000000  1
  F  F20  1  0.03499320  0.79999363  0.75000000  1
  F  F21  1  0.05592978  0.77536387  0.25000000  1
  F  F22  1  0.27981127  0.85458305  0.48776082  1
  F  F23  1  0.14541695  0.42522823  0.48776082  1
  F  F24  1  0.63346959  0.44986491  0.75000000  1
  F  F25  1  0.94069751  0.41313800  0.25000000  1
  F  F26  1  0.79999363  0.76500043  0.25000000  1
  F  F27  1  0.85458305  0.57477177  0.98776082  1
  F  F28  1  0.57477177  0.72018873  0.01223918  1
  F  F29  1  0.23499957  0.03499320  0.25000000  1
  F  F30  1  0.71943409  0.94407022  0.25000000  1
  F  F31  1  0.81639532  0.36653041  0.75000000  1
  F  F32  1  0.22463613  0.28056591  0.25000000  1
  F  F33  1  0.47244049  0.05930249  0.25000000  1
  F  F34  1  0.27981127  0.85458305  0.01223918  1
  F  F35  1  0.52755951  0.94069751  0.75000000  1
  F  F36  1  0.42522823  0.27981127  0.98776082  1
  F  F37  1  0.41313800  0.47244049  0.75000000  1
  F  F38  1  0.14541695  0.42522823  0.01223918  1
  F  F39  1  0.72018873  0.14541695  0.51223918  1
  F  F40  1  0.28056591  0.05592978  0.75000000  1
  F  F41  1  0.85458305  0.57477177  0.51223918  1
  F  F42  1  0.05930249  0.58686200  0.75000000  1
  F  F43  1  0.44986491  0.81639532  0.25000000  1
  F  F44  1  0.00000000  0.00000000  0.50000000  1
  F  F45  1  0.58686200  0.52755951  0.25000000  1
  F  F46  1  0.55013509  0.18360468  0.75000000  1
  F  F47  1  0.94407022  0.22463613  0.75000000  1
  F  F48  1  0.42522823  0.27981127  0.51223918  1
  F  F49  1  0.66666700  0.33333300  0.25000000  1
  F  F50  1  0.96500680  0.20000637  0.25000000  1
  F  F51  1  0.57477177  0.72018873  0.48776082  1
  F  F52  1  0.18360468  0.63346959  0.25000000  1
  F  F53  1  0.33333300  0.66666700  0.75000000  1
