# generated using pymatgen
data_CsNb(PO4)2
_symmetry_space_group_name_H-M   'P 1'
_cell_length_a   5.15558306
_cell_length_b   5.15558265
_cell_length_c   8.99487340
_cell_angle_alpha   87.17039389
_cell_angle_beta   87.17039410
_cell_angle_gamma   62.09232148
_symmetry_Int_Tables_number   1
_chemical_formula_structural   CsNb(PO4)2
_chemical_formula_sum   'Cs1 Nb1 P2 O8'
_cell_volume   210.92824850
_cell_formula_units_Z   1
loop_
 _symmetry_equiv_pos_site_id
 _symmetry_equiv_pos_as_xyz
  1  'x, y, z'
loop_
 _atom_site_type_symbol
 _atom_site_label
 _atom_site_symmetry_multiplicity
 _atom_site_fract_x
 _atom_site_fract_y
 _atom_site_fract_z
 _atom_site_occupancy
  Cs  Cs0  1  0.00000000  0.00000000  0.00000000  1
  Nb  Nb1  1  0.00000000  0.00000000  0.50000000  1
  P  P2  1  0.35625241  0.35625241  0.30778407  1
  P  P3  1  0.64374759  0.64374759  0.69221593  1
  O  O4  1  0.78431390  0.31374478  0.64850151  1
  O  O5  1  0.78874456  0.78874456  0.58209111  1
  O  O6  1  0.67881827  0.67881827  0.85248106  1
  O  O7  1  0.31374478  0.78431390  0.64850151  1
  O  O8  1  0.32118173  0.32118173  0.14751894  1
  O  O9  1  0.21125544  0.21125544  0.41790889  1
  O  O10  1  0.68625522  0.21568610  0.35149849  1
  O  O11  1  0.21568610  0.68625522  0.35149849  1
