# generated using pymatgen
data_SbS(BrF2)3
_symmetry_space_group_name_H-M   'P 1'
_cell_length_a   8.36338193
_cell_length_b   9.81167232
_cell_length_c   12.69626210
_cell_angle_alpha   90.00000000
_cell_angle_beta   96.71890677
_cell_angle_gamma   90.00000000
_symmetry_Int_Tables_number   1
_chemical_formula_structural   SbS(BrF2)3
_chemical_formula_sum   'Sb4 S4 Br12 F24'
_cell_volume   1034.68430836
_cell_formula_units_Z   4
loop_
 _symmetry_equiv_pos_site_id
 _symmetry_equiv_pos_as_xyz
  1  'x, y, z'
loop_
 _atom_site_type_symbol
 _atom_site_label
 _atom_site_symmetry_multiplicity
 _atom_site_fract_x
 _atom_site_fract_y
 _atom_site_fract_z
 _atom_site_occupancy
  Sb  Sb0  1  0.20452258  0.27225183  0.56129022  1
  Sb  Sb1  1  0.20452258  0.22774817  0.06129022  1
  Sb  Sb2  1  0.79547742  0.77225183  0.93870978  1
  Sb  Sb3  1  0.79547742  0.72774817  0.43870978  1
  S  S4  1  0.20650160  0.80308294  0.21271332  1
  S  S5  1  0.20650160  0.69691706  0.71271332  1
  S  S6  1  0.79349840  0.19691706  0.78728668  1
  S  S7  1  0.79349840  0.30308294  0.28728668  1
  Br  Br8  1  0.42230363  0.81059461  0.13063904  1
  Br  Br9  1  0.73702999  0.43399293  0.14837825  1
  Br  Br10  1  0.57769637  0.18940539  0.86936096  1
  Br  Br11  1  0.20670479  0.59640938  0.27533181  1
  Br  Br12  1  0.26297001  0.93399293  0.35162175  1
  Br  Br13  1  0.26297001  0.56600707  0.85162175  1
  Br  Br14  1  0.57769637  0.31059461  0.36936096  1
  Br  Br15  1  0.20670479  0.90359062  0.77533181  1
  Br  Br16  1  0.79329521  0.40359062  0.72466819  1
  Br  Br17  1  0.79329521  0.09640938  0.22466819  1
  Br  Br18  1  0.73702999  0.06600707  0.64837825  1
  Br  Br19  1  0.42230363  0.68940539  0.63063904  1
  F  F20  1  0.87802303  0.94788595  0.90574557  1
  F  F21  1  0.41140345  0.17890283  0.13250063  1
  F  F22  1  0.87802303  0.55211405  0.40574557  1
  F  F23  1  0.73008203  0.84401326  0.06899315  1
  F  F24  1  -0.00016674  0.72162787  0.01314159  1
  F  F25  1  0.29162401  0.09697166  0.52768435  1
  F  F26  1  0.29162401  0.40302834  0.02768435  1
  F  F27  1  0.58859655  0.82109717  0.86749937  1
  F  F28  1  0.73008203  0.65598674  0.56899315  1
  F  F29  1  0.70837599  0.59697166  0.97231565  1
  F  F30  1  0.26991797  0.34401326  0.43100685  1
  F  F31  1  0.41140345  0.32109717  0.63250063  1
  F  F32  1  0.26991797  0.15598674  0.93100685  1
  F  F33  1  0.14028962  0.29999122  0.19056352  1
  F  F34  1  1.00016674  0.22162787  0.48685841  1
  F  F35  1  0.12197697  0.05211405  0.09425443  1
  F  F36  1  -0.00016674  0.77837213  0.51314159  1
  F  F37  1  0.85971038  0.79999122  0.30943648  1
  F  F38  1  0.85971038  0.70000878  0.80943648  1
  F  F39  1  1.00016674  0.27837213  0.98685841  1
  F  F40  1  0.70837599  0.90302834  0.47231565  1
  F  F41  1  0.58859655  0.67890283  0.36749937  1
  F  F42  1  0.12197697  0.44788595  0.59425443  1
  F  F43  1  0.14028962  0.20000878  0.69056352  1
