# generated using pymatgen
data_Na5Zr2F13
_symmetry_space_group_name_H-M   'P 1'
_cell_length_a   5.58509145
_cell_length_b   6.51829771
_cell_length_c   8.57290058
_cell_angle_alpha   96.57169656
_cell_angle_beta   90.00000000
_cell_angle_gamma   115.36710361
_symmetry_Int_Tables_number   1
_chemical_formula_structural   Na5Zr2F13
_chemical_formula_sum   'Na5 Zr2 F13'
_cell_volume   279.73560466
_cell_formula_units_Z   1
loop_
 _symmetry_equiv_pos_site_id
 _symmetry_equiv_pos_as_xyz
  1  'x, y, z'
loop_
 _atom_site_type_symbol
 _atom_site_label
 _atom_site_symmetry_multiplicity
 _atom_site_fract_x
 _atom_site_fract_y
 _atom_site_fract_z
 _atom_site_occupancy
  Na  Na0  1  0.33701642  0.67403285  0.07081112  1
  Na  Na1  1  0.77760741  0.55521483  0.34622134  1
  Na  Na2  1  0.50000000  0.00000000  0.50000000  1
  Na  Na3  1  0.22239259  0.44478517  0.65377866  1
  Na  Na4  1  0.66298358  0.32596715  0.92918888  1
  Zr  Zr5  1  0.92677906  0.85355811  0.75621990  1
  Zr  Zr6  1  0.07322094  0.14644189  0.24378010  1
  F  F7  1  0.41913488  0.36363298  0.14345538  1
  F  F8  1  0.70016711  0.87685883  0.24889109  1
  F  F9  1  0.94449810  0.36363298  0.14345538  1
  F  F10  1  0.09262186  0.73359870  0.57026020  1
  F  F11  1  0.29983289  0.12314117  0.75110891  1
  F  F12  1  0.58086512  0.63636702  0.85654462  1
  F  F13  1  0.05550190  0.63636702  0.85654462  1
  F  F14  1  0.64097684  0.73359870  0.57026020  1
  F  F15  1  0.35902316  0.26640130  0.42973980  1
  F  F16  1  0.90737814  0.26640130  0.42973980  1
  F  F17  1  0.17669172  0.87685883  0.24889109  1
  F  F18  1  0.82330828  0.12314117  0.75110891  1
  F  F19  1  0.00000000  0.00000000  0.00000000  1
