# generated using pymatgen
data_K2Be3Co2F12
_symmetry_space_group_name_H-M   'P 1'
_cell_length_a   10.25401892
_cell_length_b   10.25401892
_cell_length_c   10.25401892
_cell_angle_alpha   90.00000000
_cell_angle_beta   90.00000000
_cell_angle_gamma   90.00000000
_symmetry_Int_Tables_number   1
_chemical_formula_structural   K2Be3Co2F12
_chemical_formula_sum   'K8 Be12 Co8 F48'
_cell_volume   1078.15783508
_cell_formula_units_Z   4
loop_
 _symmetry_equiv_pos_site_id
 _symmetry_equiv_pos_as_xyz
  1  'x, y, z'
loop_
 _atom_site_type_symbol
 _atom_site_label
 _atom_site_symmetry_multiplicity
 _atom_site_fract_x
 _atom_site_fract_y
 _atom_site_fract_z
 _atom_site_occupancy
  K  K0  1  0.05106877  0.05106877  0.05106877  1
  K  K1  1  0.44893123  0.94893123  0.55106877  1
  K  K2  1  0.94893123  0.55106877  0.44893123  1
  K  K3  1  0.55106877  0.44893123  0.94893123  1
  K  K4  1  0.81579334  0.81579334  0.81579334  1
  K  K5  1  0.68420666  0.18420666  0.31579334  1
  K  K6  1  0.18420666  0.31579334  0.68420666  1
  K  K7  1  0.31579334  0.68420666  0.18420666  1
  Be  Be8  1  0.02074944  0.21432308  0.37614624  1
  Be  Be9  1  0.47925056  0.78567692  0.87614624  1
  Be  Be10  1  0.97925056  0.71432308  0.12385376  1
  Be  Be11  1  0.37614624  0.02074944  0.21432308  1
  Be  Be12  1  0.52074944  0.28567692  0.62385376  1
  Be  Be13  1  0.87614624  0.47925056  0.78567692  1
  Be  Be14  1  0.12385376  0.97925056  0.71432308  1
  Be  Be15  1  0.62385376  0.52074944  0.28567692  1
  Be  Be16  1  0.21432308  0.37614624  0.02074944  1
  Be  Be17  1  0.71432308  0.12385376  0.97925056  1
  Be  Be18  1  0.28567692  0.62385376  0.52074944  1
  Be  Be19  1  0.78567692  0.87614624  0.47925056  1
  Co  Co20  1  0.33605381  0.33605381  0.33605381  1
  Co  Co21  1  0.16394619  0.66394619  0.83605381  1
  Co  Co22  1  0.66394619  0.83605381  0.16394619  1
  Co  Co23  1  0.83605381  0.16394619  0.66394619  1
  Co  Co24  1  0.60013370  0.60013370  0.60013370  1
  Co  Co25  1  0.89986630  0.39986630  0.10013370  1
  Co  Co26  1  0.39986630  0.10013370  0.89986630  1
  Co  Co27  1  0.10013370  0.89986630  0.39986630  1
  F  F28  1  0.01628131  0.06872569  0.32882267  1
  F  F29  1  0.48371869  0.93127431  0.82882267  1
  F  F30  1  0.98371869  0.56872569  0.17117733  1
  F  F31  1  0.32882267  0.01628131  0.06872569  1
  F  F32  1  0.51628131  0.43127431  0.67117733  1
  F  F33  1  0.82882267  0.48371869  0.93127431  1
  F  F34  1  0.17117733  0.98371869  0.56872569  1
  F  F35  1  0.67117733  0.51628131  0.43127431  1
  F  F36  1  0.06872569  0.32882267  0.01628131  1
  F  F37  1  0.56872569  0.17117733  0.98371869  1
  F  F38  1  0.43127431  0.67117733  0.51628131  1
  F  F39  1  0.93127431  0.82882267  0.48371869  1
  F  F40  1  0.26754177  0.49647872  0.43787965  1
  F  F41  1  0.23245823  0.50352128  0.93787965  1
  F  F42  1  0.73245823  0.99647872  0.06212035  1
  F  F43  1  0.43787965  0.26754177  0.49647872  1
  F  F44  1  0.76754177  0.00352128  0.56212035  1
  F  F45  1  0.93787965  0.23245823  0.50352128  1
  F  F46  1  0.06212035  0.73245823  0.99647872  1
  F  F47  1  0.56212035  0.76754177  0.00352128  1
  F  F48  1  0.49647872  0.43787965  0.26754177  1
  F  F49  1  0.99647872  0.06212035  0.73245823  1
  F  F50  1  0.00352128  0.56212035  0.76754177  1
  F  F51  1  0.50352128  0.93787965  0.23245823  1
  F  F52  1  0.04722580  0.80432018  0.22847393  1
  F  F53  1  0.45277420  0.19567982  0.72847393  1
  F  F54  1  0.95277420  0.30432018  0.27152607  1
  F  F55  1  0.22847393  0.04722580  0.80432018  1
  F  F56  1  0.54722580  0.69567982  0.77152607  1
  F  F57  1  0.72847393  0.45277420  0.19567982  1
  F  F58  1  0.27152607  0.95277420  0.30432018  1
  F  F59  1  0.77152607  0.54722580  0.69567982  1
  F  F60  1  0.80432018  0.22847393  0.04722580  1
  F  F61  1  0.30432018  0.27152607  0.95277420  1
  F  F62  1  0.69567982  0.77152607  0.54722580  1
  F  F63  1  0.19567982  0.72847393  0.45277420  1
  F  F64  1  0.16331510  0.25815611  0.40316461  1
  F  F65  1  0.33668490  0.74184389  0.90316461  1
  F  F66  1  0.83668490  0.75815611  0.09683539  1
  F  F67  1  0.40316461  0.16331510  0.25815611  1
  F  F68  1  0.66331510  0.24184389  0.59683539  1
  F  F69  1  0.90316461  0.33668490  0.74184389  1
  F  F70  1  0.09683539  0.83668490  0.75815611  1
  F  F71  1  0.59683539  0.66331510  0.24184389  1
  F  F72  1  0.25815611  0.40316461  0.16331510  1
  F  F73  1  0.75815611  0.09683539  0.83668490  1
  F  F74  1  0.24184389  0.59683539  0.66331510  1
  F  F75  1  0.74184389  0.90316461  0.33668490  1
