# generated using pymatgen
data_K14Fe4O13
_symmetry_space_group_name_H-M   'P 1'
_cell_length_a   6.77846195
_cell_length_b   6.77500242
_cell_length_c   30.23203221
_cell_angle_alpha   90.00000000
_cell_angle_beta   90.00000000
_cell_angle_gamma   119.25879341
_symmetry_Int_Tables_number   1
_chemical_formula_structural   K14Fe4O13
_chemical_formula_sum   'K28 Fe8 O26'
_cell_volume   1211.25078851
_cell_formula_units_Z   2
loop_
 _symmetry_equiv_pos_site_id
 _symmetry_equiv_pos_as_xyz
  1  'x, y, z'
loop_
 _atom_site_type_symbol
 _atom_site_label
 _atom_site_symmetry_multiplicity
 _atom_site_fract_x
 _atom_site_fract_y
 _atom_site_fract_z
 _atom_site_occupancy
  O  O0  1  0.50000000  0.00000000  0.50000000  1
  O  O1  1  0.50000000  0.50000000  0.00000000  1
  O  O2  1  0.44050780  0.49926654  0.20674425  1
  O  O3  1  0.55949220  0.00073346  0.70674425  1
  O  O4  1  0.55949220  0.50073346  0.79325575  1
  O  O5  1  0.44050780  0.99926654  0.29325575  1
  O  O6  1  0.94155988  0.26577971  0.55692399  1
  O  O7  1  0.05844012  0.23422029  0.05692399  1
  O  O8  1  0.05844012  0.73422029  0.44307601  1
  O  O9  1  0.94155988  0.76577971  0.94307601  1
  O  O10  1  0.93261962  0.27164549  0.32994591  1
  O  O11  1  0.06738038  0.22835451  0.82994591  1
  O  O12  1  0.06738038  0.72835451  0.67005409  1
  O  O13  1  0.93261962  0.77164549  0.17005409  1
  O  O14  1  0.67133941  0.23228984  0.17162127  1
  O  O15  1  0.32866059  0.26771016  0.67162127  1
  O  O16  1  0.32866059  0.76771016  0.82837873  1
  O  O17  1  0.67133941  0.73228984  0.32837873  1
  O  O18  1  0.67609466  0.73084585  0.55670062  1
  O  O19  1  0.32390534  0.76915415  0.05670062  1
  O  O20  1  0.32390534  0.26915415  0.44329938  1
  O  O21  1  0.67609466  0.23084585  0.94329938  1
  O  O22  1  0.52743026  0.99824044  0.39611357  1
  O  O23  1  0.47256974  0.50175956  0.89611357  1
  O  O24  1  0.47256974  0.00175956  0.60388643  1
  O  O25  1  0.52743026  0.49824044  0.10388643  1
  K  K26  1  0.85109390  0.00166300  0.44899086  1
  K  K27  1  0.25876136  0.54269080  0.38870119  1
  K  K28  1  0.72957228  0.95938714  0.00101348  1
  K  K29  1  0.27042772  0.54061286  0.50101348  1
  K  K30  1  0.27042772  0.04061286  0.99898652  1
  K  K31  1  0.72957228  0.45938714  0.49898652  1
  K  K32  1  0.71814017  0.95779920  0.11368556  1
  K  K33  1  0.28185983  0.54220080  0.61368556  1
  K  K34  1  0.28185983  0.04220080  0.88631444  1
  K  K35  1  0.71814017  0.45779920  0.38631444  1
  K  K36  1  0.74123864  0.45730920  0.61129881  1
  K  K37  1  0.25876136  0.04269080  0.11129881  1
  K  K38  1  0.72394437  0.44284842  0.27199859  1
  K  K39  1  0.27605563  0.05715158  0.77199859  1
  K  K40  1  0.27605563  0.55715158  0.72800141  1
  K  K41  1  0.72394437  0.94284842  0.22800141  1
  K  K42  1  0.13096341  0.99741252  0.34694530  1
  K  K43  1  0.86903659  0.50258748  0.84694530  1
  K  K44  1  0.28056924  0.05242802  0.21910623  1
  K  K45  1  0.13096341  0.49741252  0.15305470  1
  K  K46  1  0.86903659  0.00258748  0.65305470  1
  K  K47  1  0.14890610  0.49833700  0.94899086  1
  K  K48  1  0.14890610  0.99833700  0.55100914  1
  K  K49  1  0.85109390  0.50166300  0.05100914  1
  K  K50  1  0.28056924  0.55242802  0.28089377  1
  K  K51  1  0.71943076  0.94757198  0.78089377  1
  K  K52  1  0.71943076  0.44757198  0.71910623  1
  K  K53  1  0.74123864  0.95730920  0.88870119  1
  Fe  Fe54  1  0.64949180  0.00099122  0.33592821  1
  Fe  Fe55  1  0.35050820  0.49900878  0.83592821  1
  Fe  Fe56  1  0.35050820  0.99900878  0.66407179  1
  Fe  Fe57  1  0.64949180  0.50099122  0.16407179  1
  Fe  Fe58  1  0.34393245  0.00059757  0.44537898  1
  Fe  Fe59  1  0.65606755  0.49940243  0.94537898  1
  Fe  Fe60  1  0.65606755  0.99940243  0.55462102  1
  Fe  Fe61  1  0.34393245  0.50059757  0.05462102  1
