# generated using pymatgen
data_Hf2P2O9
_symmetry_space_group_name_H-M   'P 1'
_cell_length_a   6.62300829
_cell_length_b   7.65650103
_cell_length_c   8.26891933
_cell_angle_alpha   79.18118863
_cell_angle_beta   66.39206272
_cell_angle_gamma   64.37311779
_symmetry_Int_Tables_number   1
_chemical_formula_structural   Hf2P2O9
_chemical_formula_sum   'Hf4 P4 O18'
_cell_volume   346.36730309
_cell_formula_units_Z   2
loop_
 _symmetry_equiv_pos_site_id
 _symmetry_equiv_pos_as_xyz
  1  'x, y, z'
loop_
 _atom_site_type_symbol
 _atom_site_label
 _atom_site_symmetry_multiplicity
 _atom_site_fract_x
 _atom_site_fract_y
 _atom_site_fract_z
 _atom_site_occupancy
  Hf  Hf0  1  0.68451249  0.26671048  0.36426454  1
  Hf  Hf1  1  0.31548751  0.73328952  0.63573546  1
  Hf  Hf2  1  0.94318855  0.21037230  0.90325060  1
  Hf  Hf3  1  0.05681145  0.78962770  0.09674940  1
  P  P4  1  0.59284867  0.65055058  0.16375207  1
  P  P5  1  0.17052935  0.20059667  0.45834462  1
  P  P6  1  0.40715133  0.34944942  0.83624793  1
  P  P7  1  0.82947065  0.79940333  0.54165538  1
  O  O8  1  0.51611951  0.60094083  0.36682014  1
  O  O9  1  0.27379216  0.97645675  0.47595892  1
  O  O10  1  0.73391458  0.43648018  0.09569065  1
  O  O11  1  0.72620784  0.02354325  0.52404108  1
  O  O12  1  0.62412272  0.72992050  0.64113130  1
  O  O13  1  0.24068109  0.24295611  0.89653452  1
  O  O14  1  0.38017172  0.75704389  0.10346548  1
  O  O15  1  0.11415266  0.92757668  0.84411801  1
  O  O16  1  0.37587728  0.27007950  0.35886870  1
  O  O17  1  0.03332505  0.28850193  0.64484798  1
  O  O18  1  0.48388049  0.39905917  0.63317986  1
  O  O19  1  0.26608542  0.56351982  0.90430935  1
  O  O20  1  0.61982828  0.24295611  0.89653452  1
  O  O21  1  0.96667495  0.71149807  0.35515202  1
  O  O22  1  0.75931891  0.75704389  0.10346548  1
  O  O23  1  0.99517452  0.27007950  0.35886870  1
  O  O24  1  0.88584734  0.07242332  0.15588199  1
  O  O25  1  0.00482548  0.72992050  0.64113130  1
