# generated using pymatgen
data_K2Sn(AuS2)2
_symmetry_space_group_name_H-M   'P 1'
_cell_length_a   7.50744182
_cell_length_b   8.46754310
_cell_length_c   9.35513351
_cell_angle_alpha   71.62425567
_cell_angle_beta   82.09226142
_cell_angle_gamma   67.75148015
_symmetry_Int_Tables_number   1
_chemical_formula_structural   K2Sn(AuS2)2
_chemical_formula_sum   'K4 Sn2 Au4 S8'
_cell_volume   522.24771768
_cell_formula_units_Z   2
loop_
 _symmetry_equiv_pos_site_id
 _symmetry_equiv_pos_as_xyz
  1  'x, y, z'
loop_
 _atom_site_type_symbol
 _atom_site_label
 _atom_site_symmetry_multiplicity
 _atom_site_fract_x
 _atom_site_fract_y
 _atom_site_fract_z
 _atom_site_occupancy
  K  K0  1  0.78241453  0.81168370  0.42099385  1
  K  K1  1  0.21758547  0.18831630  0.57900615  1
  K  K2  1  0.02695853  0.25277167  0.07676477  1
  K  K3  1  0.97304147  0.74722833  0.92323523  1
  Sn  Sn4  1  0.62300227  0.28097459  0.80445840  1
  Sn  Sn5  1  0.37699773  0.71902541  0.19554160  1
  Au  Au6  1  0.53280928  0.71240073  0.83202761  1
  Au  Au7  1  0.26273504  0.66815072  0.57675429  1
  Au  Au8  1  0.46719072  0.28759927  0.16797239  1
  Au  Au9  1  0.73726496  0.33184928  0.42324571  1
  S  S10  1  0.72449536  0.58141405  0.22266002  1
  S  S11  1  0.76085023  0.09096647  0.63528900  1
  S  S12  1  0.29299266  0.91418242  0.93901943  1
  S  S13  1  0.21611230  0.50171658  0.25416570  1
  S  S14  1  0.27550464  0.41858595  0.77733998  1
  S  S15  1  0.70700734  0.08581758  0.06098057  1
  S  S16  1  0.23914977  0.90903353  0.36471100  1
  S  S17  1  0.78388770  0.49828342  0.74583430  1
