# generated using pymatgen
data_Ba2Nb2TeO10
_symmetry_space_group_name_H-M   'P 1'
_cell_length_a   7.37873038
_cell_length_b   10.06887926
_cell_length_c   12.70173708
_cell_angle_alpha   90.00000000
_cell_angle_beta   90.00000000
_cell_angle_gamma   90.00000000
_symmetry_Int_Tables_number   1
_chemical_formula_structural   Ba2Nb2TeO10
_chemical_formula_sum   'Ba8 Nb8 Te4 O40'
_cell_volume   943.68248247
_cell_formula_units_Z   4
loop_
 _symmetry_equiv_pos_site_id
 _symmetry_equiv_pos_as_xyz
  1  'x, y, z'
loop_
 _atom_site_type_symbol
 _atom_site_label
 _atom_site_symmetry_multiplicity
 _atom_site_fract_x
 _atom_site_fract_y
 _atom_site_fract_z
 _atom_site_occupancy
  Ba  Ba0  1  0.48485006  0.61135015  0.85919266  1
  Ba  Ba1  1  0.01514994  0.61135015  0.35919266  1
  Ba  Ba2  1  0.51514994  0.88864985  0.35919266  1
  Ba  Ba3  1  0.01514994  0.11135015  0.14080734  1
  Ba  Ba4  1  0.48485006  0.11135015  0.64080734  1
  Ba  Ba5  1  0.98485006  0.38864985  0.64080734  1
  Ba  Ba6  1  0.98485006  0.88864985  0.85919266  1
  Ba  Ba7  1  0.51514994  0.38864985  0.14080734  1
  Nb  Nb8  1  0.21126176  0.74355579  0.10486416  1
  Nb  Nb9  1  0.21126176  0.24355579  0.39513584  1
  Nb  Nb10  1  0.78873824  0.25644421  0.89513584  1
  Nb  Nb11  1  0.28873824  0.24355579  0.89513584  1
  Nb  Nb12  1  0.28873824  0.74355579  0.60486416  1
  Nb  Nb13  1  0.71126176  0.75644421  0.10486416  1
  Nb  Nb14  1  0.78873824  0.75644421  0.60486416  1
  Nb  Nb15  1  0.71126176  0.25644421  0.39513584  1
  Te  Te16  1  0.00000000  0.00000000  0.50000000  1
  Te  Te17  1  0.50000000  0.00000000  0.00000000  1
  Te  Te18  1  0.50000000  0.50000000  0.50000000  1
  Te  Te19  1  0.00000000  0.50000000  0.00000000  1
  O  O20  1  0.27867292  0.29568549  0.75776044  1
  O  O21  1  0.44477133  0.16583940  0.41651258  1
  O  O22  1  0.73315348  0.59506350  0.51383115  1
  O  O23  1  0.77867292  0.70431451  0.74223956  1
  O  O24  1  0.23315348  0.40493650  0.98616885  1
  O  O25  1  0.22132708  0.29568549  0.25776044  1
  O  O26  1  0.37919954  0.15388757  0.05541182  1
  O  O27  1  0.05522867  0.16583940  0.91651258  1
  O  O28  1  0.12080046  0.65388757  0.94458818  1
  O  O29  1  0.27867292  0.79568549  0.74223956  1
  O  O30  1  0.87919954  0.34611243  0.05541182  1
  O  O31  1  0.12080046  0.15388757  0.55541182  1
  O  O32  1  0.73315348  0.09506350  0.98616885  1
  O  O33  1  0.26684652  0.90493650  0.01383115  1
  O  O34  1  0.77867292  0.20431451  0.75776044  1
  O  O35  1  0.42199135  0.56958552  0.63815230  1
  O  O36  1  0.37919954  0.65388757  0.44458818  1
  O  O37  1  0.07800865  0.56958552  0.13815230  1
  O  O38  1  0.42199135  0.06958552  0.86184770  1
  O  O39  1  0.62080046  0.34611243  0.55541182  1
  O  O40  1  0.07800865  0.06958552  0.36184770  1
  O  O41  1  0.72132708  0.20431451  0.25776044  1
  O  O42  1  0.62080046  0.84611243  0.94458818  1
  O  O43  1  0.44477133  0.66583940  0.08348742  1
  O  O44  1  0.72132708  0.70431451  0.24223956  1
  O  O45  1  0.92199135  0.43041448  0.86184770  1
  O  O46  1  0.76684652  0.59506350  0.01383115  1
  O  O47  1  0.23315348  0.90493650  0.51383115  1
  O  O48  1  0.76684652  0.09506350  0.48616885  1
  O  O49  1  0.57800865  0.43041448  0.36184770  1
  O  O50  1  0.55522867  0.33416060  0.91651258  1
  O  O51  1  0.55522867  0.83416060  0.58348742  1
  O  O52  1  0.92199135  0.93041448  0.63815230  1
  O  O53  1  0.94477133  0.83416060  0.08348742  1
  O  O54  1  0.05522867  0.66583940  0.58348742  1
  O  O55  1  0.94477133  0.33416060  0.41651258  1
  O  O56  1  0.87919954  0.84611243  0.44458818  1
  O  O57  1  0.22132708  0.79568549  0.24223956  1
  O  O58  1  0.57800865  0.93041448  0.13815230  1
  O  O59  1  0.26684652  0.40493650  0.48616885  1
