# generated using pymatgen
data_RbAu(SeO4)2
_symmetry_space_group_name_H-M   'P 1'
_cell_length_a   5.36893145
_cell_length_b   6.26364226
_cell_length_c   7.74295474
_cell_angle_alpha   115.13110470
_cell_angle_beta   90.00000000
_cell_angle_gamma   115.37741551
_symmetry_Int_Tables_number   1
_chemical_formula_structural   RbAu(SeO4)2
_chemical_formula_sum   'Rb1 Au1 Se2 O8'
_cell_volume   207.65175376
_cell_formula_units_Z   1
loop_
 _symmetry_equiv_pos_site_id
 _symmetry_equiv_pos_as_xyz
  1  'x, y, z'
loop_
 _atom_site_type_symbol
 _atom_site_label
 _atom_site_symmetry_multiplicity
 _atom_site_fract_x
 _atom_site_fract_y
 _atom_site_fract_z
 _atom_site_occupancy
  Rb  Rb0  1  0.50000000  0.00000000  0.50000000  1
  Au  Au1  1  0.00000000  0.00000000  0.00000000  1
  Se  Se2  1  0.69647245  0.39294490  0.15424852  1
  Se  Se3  1  0.30352755  0.60705510  0.84575148  1
  O  O4  1  0.14968661  0.29937323  0.66717243  1
  O  O5  1  0.32894167  0.65788335  0.07186517  1
  O  O6  1  0.85031339  0.70062677  0.33282757  1
  O  O7  1  0.67105833  0.34211665  0.92813483  1
  O  O8  1  0.86765430  0.23594370  0.20536333  1
  O  O9  1  0.13234570  0.76405630  0.79463667  1
  O  O10  1  0.36828941  0.23594370  0.20536333  1
  O  O11  1  0.63171059  0.76405630  0.79463667  1
