# generated using pymatgen
data_Gd3Cu11Si4
_symmetry_space_group_name_H-M   'P 1'
_cell_length_a   8.42655372
_cell_length_b   8.42655372
_cell_length_c   8.60114969
_cell_angle_alpha   90.00000000
_cell_angle_beta   90.00000000
_cell_angle_gamma   120.00000470
_symmetry_Int_Tables_number   1
_chemical_formula_structural   Gd3Cu11Si4
_chemical_formula_sum   'Gd6 Cu22 Si8'
_cell_volume   528.91648680
_cell_formula_units_Z   2
loop_
 _symmetry_equiv_pos_site_id
 _symmetry_equiv_pos_as_xyz
  1  'x, y, z'
loop_
 _atom_site_type_symbol
 _atom_site_label
 _atom_site_symmetry_multiplicity
 _atom_site_fract_x
 _atom_site_fract_y
 _atom_site_fract_z
 _atom_site_occupancy
  Gd  Gd0  1  0.80188701  0.19811299  0.75000000  1
  Gd  Gd1  1  0.19811299  0.80188701  0.25000000  1
  Gd  Gd2  1  0.39622598  0.19811299  0.75000000  1
  Gd  Gd3  1  0.60377402  0.80188701  0.25000000  1
  Gd  Gd4  1  0.80188701  0.60377402  0.75000000  1
  Gd  Gd5  1  0.19811299  0.39622598  0.25000000  1
  Cu  Cu6  1  0.84986390  0.15013610  0.40901942  1
  Cu  Cu7  1  0.15013610  0.84986390  0.59098058  1
  Cu  Cu8  1  0.30027221  0.15013610  0.40901942  1
  Cu  Cu9  1  0.15013610  0.84986390  0.90901942  1
  Cu  Cu10  1  0.69972779  0.84986390  0.59098058  1
  Cu  Cu11  1  0.84986390  0.15013610  0.09098058  1
  Cu  Cu12  1  0.84986390  0.69972779  0.40901942  1
  Cu  Cu13  1  0.69972779  0.84986390  0.90901942  1
  Cu  Cu14  1  0.15013610  0.30027221  0.59098058  1
  Cu  Cu15  1  0.30027221  0.15013610  0.09098058  1
  Cu  Cu16  1  0.15013610  0.30027221  0.90901942  1
  Cu  Cu17  1  0.84986390  0.69972779  0.09098058  1
  Cu  Cu18  1  0.43402461  0.56597539  0.75000000  1
  Cu  Cu19  1  0.56597539  0.43402461  0.25000000  1
  Cu  Cu20  1  0.13195079  0.56597539  0.75000000  1
  Cu  Cu21  1  0.86804921  0.43402461  0.25000000  1
  Cu  Cu22  1  0.43402461  0.86804921  0.75000000  1
  Cu  Cu23  1  0.56597539  0.13195079  0.25000000  1
  Cu  Cu24  1  0.66666700  0.33333300  0.01292752  1
  Cu  Cu25  1  0.33333300  0.66666700  0.98707248  1
  Cu  Cu26  1  0.33333300  0.66666700  0.51292752  1
  Cu  Cu27  1  0.66666700  0.33333300  0.48707248  1
  Si  Si28  1  0.50000000  0.50000000  -0.00000000  1
  Si  Si29  1  0.00000000  0.50000000  -0.00000000  1
  Si  Si30  1  0.50000000  0.50000000  0.50000000  1
  Si  Si31  1  0.50000000  0.00000000  -0.00000000  1
  Si  Si32  1  0.00000000  0.50000000  0.50000000  1
  Si  Si33  1  0.50000000  0.00000000  0.50000000  1
  Si  Si34  1  0.00000000  0.00000000  0.75000000  1
  Si  Si35  1  0.00000000  0.00000000  0.25000000  1
