# generated using pymatgen
data_Bi2Au5F21
_symmetry_space_group_name_H-M   'P 1'
_cell_length_a   8.40960531
_cell_length_b   8.40960531
_cell_length_c   26.15705512
_cell_angle_alpha   90.00000000
_cell_angle_beta   90.00000000
_cell_angle_gamma   90.00000000
_symmetry_Int_Tables_number   1
_chemical_formula_structural   Bi2Au5F21
_chemical_formula_sum   'Bi8 Au20 F84'
_cell_volume   1849.86516584
_cell_formula_units_Z   4
loop_
 _symmetry_equiv_pos_site_id
 _symmetry_equiv_pos_as_xyz
  1  'x, y, z'
loop_
 _atom_site_type_symbol
 _atom_site_label
 _atom_site_symmetry_multiplicity
 _atom_site_fract_x
 _atom_site_fract_y
 _atom_site_fract_z
 _atom_site_occupancy
  Bi  Bi0  1  0.05710296  0.57125440  0.75209602  1
  Bi  Bi1  1  0.07125440  0.44289704  0.50209602  1
  Bi  Bi2  1  0.42874560  0.94289704  0.74790398  1
  Bi  Bi3  1  0.44289704  0.07125440  0.49790398  1
  Bi  Bi4  1  0.94289704  0.42874560  0.25209602  1
  Bi  Bi5  1  0.92874560  0.55710296  0.00209602  1
  Bi  Bi6  1  0.55710296  0.92874560  0.99790398  1
  Bi  Bi7  1  0.57125440  0.05710296  0.24790398  1
  Au  Au8  1  0.82125357  0.20770286  0.11104088  1
  Au  Au9  1  0.41092100  0.35544633  0.84328030  1
  Au  Au10  1  0.35544633  0.41092100  0.15671970  1
  Au  Au11  1  0.29229714  0.32125357  0.36104088  1
  Au  Au12  1  0.94190466  0.05809534  0.75000000  1
  Au  Au13  1  0.44190466  0.44190466  0.00000000  1
  Au  Au14  1  0.70770286  0.67874643  0.86104088  1
  Au  Au15  1  0.32125357  0.29229714  0.63895912  1
  Au  Au16  1  0.08907900  0.85544633  0.40671970  1
  Au  Au17  1  0.91092100  0.14455367  0.90671970  1
  Au  Au18  1  0.79229714  0.17874643  0.38895912  1
  Au  Au19  1  0.20770286  0.82125357  0.88895912  1
  Au  Au20  1  0.05809534  0.94190466  0.25000000  1
  Au  Au21  1  0.17874643  0.79229714  0.61104088  1
  Au  Au22  1  0.64455367  0.58907900  0.65671970  1
  Au  Au23  1  0.58907900  0.64455367  0.34328030  1
  Au  Au24  1  0.67874643  0.70770286  0.13895912  1
  Au  Au25  1  0.55809534  0.55809534  0.50000000  1
  Au  Au26  1  0.85544633  0.08907900  0.59328030  1
  Au  Au27  1  0.14455367  0.91092100  0.09328030  1
  F  F28  1  0.55896294  0.79107910  0.49815816  1
  F  F29  1  0.90666442  0.80239824  0.36510474  1
  F  F30  1  0.36575697  0.52749711  0.89110889  1
  F  F31  1  0.41332455  0.22473870  0.20022145  1
  F  F32  1  0.94103706  0.29107910  0.75184184  1
  F  F33  1  0.09333558  0.19760176  0.86510474  1
  F  F34  1  0.68410001  0.03225676  0.54480407  1
  F  F35  1  0.30239824  0.59333558  0.11510474  1
  F  F36  1  0.32227744  0.93252770  0.83393122  1
  F  F37  1  0.18410001  0.46774324  0.20519593  1
  F  F38  1  0.81589999  0.53225676  0.70519593  1
  F  F39  1  0.82150970  0.54488458  0.81085211  1
  F  F40  1  0.41009724  0.22272568  0.30376518  1
  F  F41  1  0.93554043  0.82190771  0.75116937  1
  F  F42  1  0.63424303  0.47250289  0.39110889  1
  F  F43  1  0.20892090  0.44103706  0.00184184  1
  F  F44  1  0.91472761  0.30661598  0.33915133  1
  F  F45  1  0.03225676  0.68410001  0.45519593  1
  F  F46  1  0.27526130  0.91332455  0.45022145  1
  F  F47  1  0.71966600  0.28033400  0.25000000  1
  F  F48  1  0.43252770  0.17772256  0.58393122  1
  F  F49  1  0.56747230  0.82227744  0.08393122  1
  F  F50  1  0.96774324  0.31589999  0.95519593  1
  F  F51  1  0.58527239  0.80661598  0.91084867  1
  F  F52  1  0.69760176  0.40666442  0.61510474  1
  F  F53  1  0.47250289  0.63424303  0.60889111  1
  F  F54  1  0.72272568  0.08990276  0.05376518  1
  F  F55  1  0.79107910  0.55896294  0.50184184  1
  F  F56  1  0.80239824  0.90666442  0.63489526  1
  F  F57  1  0.19338402  0.41472761  0.58915133  1
  F  F58  1  0.67809229  0.43554043  0.00116937  1
  F  F59  1  0.91009724  0.27727432  0.44623482  1
  F  F60  1  0.82190771  0.93554043  0.24883063  1
  F  F61  1  0.58990276  0.77727432  0.80376518  1
  F  F62  1  0.30661598  0.91472761  0.66084867  1
  F  F63  1  0.17772256  0.43252770  0.41606878  1
  F  F64  1  0.32150970  0.95511542  0.93914789  1
  F  F65  1  0.22473870  0.41332455  0.79977855  1
  F  F66  1  0.58667545  0.77526130  0.70022145  1
  F  F67  1  0.45511542  0.17849030  0.68914789  1
  F  F68  1  0.02749711  0.13424303  0.64110889  1
  F  F69  1  0.54488458  0.82150970  0.18914789  1
  F  F70  1  0.67849030  0.04488458  0.43914789  1
  F  F71  1  0.04488458  0.67849030  0.56085211  1
  F  F72  1  0.93252770  0.32227744  0.16606878  1
  F  F73  1  0.82227744  0.56747230  0.91606878  1
  F  F74  1  0.08990276  0.72272568  0.94623482  1
  F  F75  1  0.46774324  0.18410001  0.79480407  1
  F  F76  1  0.97250289  0.86575697  0.14110889  1
  F  F77  1  0.91332455  0.27526130  0.54977855  1
  F  F78  1  0.05896294  0.70892090  0.25184184  1
  F  F79  1  0.08667545  0.72473870  0.04977855  1
  F  F80  1  0.13424303  0.02749711  0.35889111  1
  F  F81  1  0.53225676  0.81589999  0.29480407  1
  F  F82  1  0.95511542  0.32150970  0.06085211  1
  F  F83  1  0.52749711  0.36575697  0.10889111  1
  F  F84  1  0.72473870  0.08667545  0.95022145  1
  F  F85  1  0.29107910  0.94103706  0.24815816  1
  F  F86  1  0.59333558  0.30239824  0.88489526  1
  F  F87  1  0.44103706  0.20892090  0.99815816  1
  F  F88  1  0.17809229  0.06445957  0.74883063  1
  F  F89  1  0.43554043  0.67809229  0.99883063  1
  F  F90  1  0.86575697  0.97250289  0.85889111  1
  F  F91  1  0.17849030  0.45511542  0.31085211  1
  F  F92  1  0.28033400  0.71966600  0.75000000  1
  F  F93  1  0.40666442  0.69760176  0.38489526  1
  F  F94  1  0.41472761  0.19338402  0.41084867  1
  F  F95  1  0.21966600  0.21966600  0.50000000  1
  F  F96  1  0.78033400  0.78033400  0.00000000  1
  F  F97  1  0.22272568  0.41009724  0.69623482  1
  F  F98  1  0.67772256  0.06747230  0.33393122  1
  F  F99  1  0.56445957  0.32190771  0.49883063  1
  F  F100  1  0.08527239  0.69338402  0.83915133  1
  F  F101  1  0.80661598  0.58527239  0.08915133  1
  F  F102  1  0.70892090  0.05896294  0.74815816  1
  F  F103  1  0.31589999  0.96774324  0.04480407  1
  F  F104  1  0.06747230  0.67772256  0.66606878  1
  F  F105  1  0.32190771  0.56445957  0.50116937  1
  F  F106  1  0.19760176  0.09333558  0.13489526  1
  F  F107  1  0.69338402  0.08527239  0.16084867  1
  F  F108  1  0.06445957  0.17809229  0.25116937  1
  F  F109  1  0.77526130  0.58667545  0.29977855  1
  F  F110  1  0.77727432  0.58990276  0.19623482  1
  F  F111  1  0.27727432  0.91009724  0.55376518  1
