# generated using pymatgen
data_B5Pb2ClO9
_symmetry_space_group_name_H-M   'P 1'
_cell_length_a   6.64257497
_cell_length_b   11.51936334
_cell_length_c   11.55035769
_cell_angle_alpha   90.00000000
_cell_angle_beta   90.00000000
_cell_angle_gamma   90.00000000
_symmetry_Int_Tables_number   1
_chemical_formula_structural   B5Pb2ClO9
_chemical_formula_sum   'B20 Pb8 Cl4 O36'
_cell_volume   883.81297935
_cell_formula_units_Z   4
loop_
 _symmetry_equiv_pos_site_id
 _symmetry_equiv_pos_as_xyz
  1  'x, y, z'
loop_
 _atom_site_type_symbol
 _atom_site_label
 _atom_site_symmetry_multiplicity
 _atom_site_fract_x
 _atom_site_fract_y
 _atom_site_fract_z
 _atom_site_occupancy
  B  B0  1  0.81262667  0.26948012  0.95940282  1
  B  B1  1  0.35155271  0.80057376  0.31671109  1
  B  B2  1  0.53481406  0.21783489  0.28720294  1
  B  B3  1  0.81262667  0.73051988  0.04059718  1
  B  B4  1  0.70139310  0.82174100  0.22786948  1
  B  B5  1  0.31262667  0.23051988  0.45940282  1
  B  B6  1  0.85155271  0.30057376  0.18328891  1
  B  B7  1  0.03481406  0.28216511  0.78720294  1
  B  B8  1  0.47971305  0.99683051  0.24632659  1
  B  B9  1  0.53481406  0.78216511  0.71279706  1
  B  B10  1  0.97971305  0.49683051  0.25367341  1
  B  B11  1  0.35155271  0.19942624  0.68328891  1
  B  B12  1  0.70139310  0.17825900  0.77213052  1
  B  B13  1  0.03481406  0.71783489  0.21279706  1
  B  B14  1  0.31262667  0.76948012  0.54059718  1
  B  B15  1  0.20139310  0.67825900  0.72786948  1
  B  B16  1  0.47971305  0.00316949  0.75367341  1
  B  B17  1  0.85155271  0.69942624  0.81671109  1
  B  B18  1  0.97971305  0.50316949  0.74632659  1
  B  B19  1  0.20139310  0.32174100  0.27213052  1
  Pb  Pb20  1  0.32974492  0.75942768  0.97743212  1
  Pb  Pb21  1  0.50080082  0.53912992  0.24688940  1
  Pb  Pb22  1  0.32974492  0.24057232  0.02256788  1
  Pb  Pb23  1  0.50080082  0.46087008  0.75311060  1
  Pb  Pb24  1  0.82974492  0.25942768  0.52256788  1
  Pb  Pb25  1  0.00080082  0.03912992  0.25311060  1
  Pb  Pb26  1  0.82974492  0.74057232  0.47743212  1
  Pb  Pb27  1  0.00080082  0.96087008  0.74688940  1
  Cl  Cl28  1  0.12519540  0.00000000  0.00000000  1
  Cl  Cl29  1  0.88251928  0.00000000  0.50000000  1
  Cl  Cl30  1  0.38251928  0.50000000  0.00000000  1
  Cl  Cl31  1  0.62519540  0.50000000  0.50000000  1
  O  O32  1  0.44222377  0.88699161  0.76850434  1
  O  O33  1  0.25132122  0.27130913  0.77217488  1
  O  O34  1  0.91609154  0.18398106  0.73978477  1
  O  O35  1  0.07041321  0.27248403  0.18111332  1
  O  O36  1  0.75132122  0.77130913  0.72782512  1
  O  O37  1  0.66114136  0.05100200  0.78553378  1
  O  O38  1  0.82725898  0.57240545  0.78826888  1
  O  O39  1  0.75547996  0.72219347  0.92817124  1
  O  O40  1  0.50337396  0.20978794  0.41700707  1
  O  O41  1  0.25547996  0.22219347  0.57182876  1
  O  O42  1  0.82725898  0.42759455  0.21173112  1
  O  O43  1  0.66064334  0.76181948  0.11709420  1
  O  O44  1  0.16064334  0.73818052  0.61709420  1
  O  O45  1  0.75132122  0.22869087  0.27217488  1
  O  O46  1  0.25547996  0.77780653  0.42817124  1
  O  O47  1  0.25132122  0.72869087  0.22782512  1
  O  O48  1  0.75547996  0.27780653  0.07182876  1
  O  O49  1  0.44222377  0.11300839  0.23149566  1
  O  O50  1  0.16114136  0.55100200  0.71446622  1
  O  O51  1  0.32725898  0.92759455  0.28826888  1
  O  O52  1  0.57041321  0.77248403  0.31888668  1
  O  O53  1  0.07041321  0.72751597  0.81888668  1
  O  O54  1  0.50337396  0.79021206  0.58299293  1
  O  O55  1  0.32725898  0.07240545  0.71173112  1
  O  O56  1  0.16064334  0.26181948  0.38290580  1
  O  O57  1  0.94222377  0.38699161  0.73149566  1
  O  O58  1  0.00337396  0.70978794  0.08299293  1
  O  O59  1  0.00337396  0.29021206  0.91700707  1
  O  O60  1  0.94222377  0.61300839  0.26850434  1
  O  O61  1  0.66064334  0.23818052  0.88290580  1
  O  O62  1  0.91609154  0.81601894  0.26021523  1
  O  O63  1  0.41609154  0.68398106  0.76021523  1
  O  O64  1  0.57041321  0.22751597  0.68111332  1
  O  O65  1  0.41609154  0.31601894  0.23978477  1
  O  O66  1  0.66114136  0.94899800  0.21446622  1
  O  O67  1  0.16114136  0.44899800  0.28553378  1
