# generated using pymatgen
data_NaPr(Si3O7)2
_symmetry_space_group_name_H-M   'P 1'
_cell_length_a   7.77308786
_cell_length_b   13.26815832
_cell_length_c   13.26815831
_cell_angle_alpha   72.20561912
_cell_angle_beta   72.96699254
_cell_angle_gamma   72.96698798
_symmetry_Int_Tables_number   1
_chemical_formula_structural   NaPr(Si3O7)2
_chemical_formula_sum   'Na4 Pr4 Si24 O56'
_cell_volume   1214.29614409
_cell_formula_units_Z   4
loop_
 _symmetry_equiv_pos_site_id
 _symmetry_equiv_pos_as_xyz
  1  'x, y, z'
loop_
 _atom_site_type_symbol
 _atom_site_label
 _atom_site_symmetry_multiplicity
 _atom_site_fract_x
 _atom_site_fract_y
 _atom_site_fract_z
 _atom_site_occupancy
  Na  Na0  1  0.25000000  0.75000000  0.75000000  1
  Na  Na1  1  0.00000000  0.50000000  0.50000000  1
  Na  Na2  1  0.75000000  0.25000000  0.25000000  1
  Na  Na3  1  0.50000000  0.00000000  0.00000000  1
  Pr  Pr4  1  0.75000000  0.02156317  0.47843683  1
  Pr  Pr5  1  0.25000000  0.52156317  0.97843683  1
  Pr  Pr6  1  0.25000000  0.97843683  0.52156317  1
  Pr  Pr7  1  0.75000000  0.47843683  0.02156317  1
  Si  Si8  1  0.29745141  0.47263909  0.23356382  1
  Si  Si9  1  0.50365433  0.02736091  0.26643618  1
  Si  Si10  1  0.73177313  0.33348702  0.66651298  1
  Si  Si11  1  0.00365433  0.76643618  0.52736091  1
  Si  Si12  1  0.67740075  0.63378593  0.36621407  1
  Si  Si13  1  0.38455721  0.27588416  0.43176366  1
  Si  Si14  1  0.79745141  0.73356382  0.97263909  1
  Si  Si15  1  0.17740075  0.86621407  0.13378593  1
  Si  Si16  1  0.59220503  0.22411584  0.06823634  1
  Si  Si17  1  0.49634567  0.97263909  0.73356382  1
  Si  Si18  1  0.40779497  0.77588416  0.93176366  1
  Si  Si19  1  0.23177313  0.16651298  0.83348702  1
  Si  Si20  1  0.11544279  0.06823634  0.22411584  1
  Si  Si21  1  0.76822687  0.83348702  0.16651298  1
  Si  Si22  1  0.20254859  0.26643618  0.02736091  1
  Si  Si23  1  0.09220503  0.56823634  0.72411584  1
  Si  Si24  1  0.70254859  0.52736091  0.76643618  1
  Si  Si25  1  0.26822687  0.66651298  0.33348702  1
  Si  Si26  1  0.88455721  0.93176366  0.77588416  1
  Si  Si27  1  0.82259925  0.13378593  0.86621407  1
  Si  Si28  1  0.61544279  0.72411584  0.56823634  1
  Si  Si29  1  0.32259925  0.36621407  0.63378593  1
  Si  Si30  1  0.90779497  0.43176366  0.27588416  1
  Si  Si31  1  0.99634567  0.23356382  0.47263909  1
  O  O32  1  0.04996256  0.88370310  0.49256881  1
  O  O33  1  0.07376554  0.38370310  0.99256881  1
  O  O34  1  0.68381980  0.14251471  0.98365816  1
  O  O35  1  0.27909694  0.70222161  0.93375447  1
  O  O36  1  0.45483256  0.85622390  0.80998377  1
  O  O37  1  0.73205734  0.81013622  0.06140062  1
  O  O38  1  0.41507301  0.79777839  0.56624553  1
  O  O39  1  0.91507301  0.06624553  0.29777839  1
  O  O40  1  0.25761089  0.77006896  0.22993104  1
  O  O41  1  0.69000733  0.64251471  0.48365816  1
  O  O42  1  0.89640582  0.31013622  0.56140062  1
  O  O43  1  0.26794266  0.18986378  0.93859938  1
  O  O44  1  0.57376554  0.49256881  0.88370310  1
  O  O45  1  0.54996256  0.99256881  0.38370310  1
  O  O46  1  0.31618020  0.85748529  0.01634184  1
  O  O47  1  0.39640582  0.06140062  0.81013622  1
  O  O48  1  0.03105259  0.13758880  0.86241120  1
  O  O49  1  0.22285117  0.20525638  0.46415314  1
  O  O50  1  0.10359418  0.68986378  0.43859938  1
  O  O51  1  0.53105259  0.36241120  0.63758880  1
  O  O52  1  0.95003744  0.11629690  0.50743119  1
  O  O53  1  0.04516744  0.69001623  0.64377610  1
  O  O54  1  0.92623446  0.61629690  0.00743119  1
  O  O55  1  0.18381980  0.48365816  0.64251471  1
  O  O56  1  0.58492699  0.20222161  0.43375447  1
  O  O57  1  0.08492699  0.93375447  0.70222161  1
  O  O58  1  0.19000733  0.98365816  0.14251471  1
  O  O59  1  0.37895977  0.35622390  0.30998377  1
  O  O60  1  0.23205734  0.56140062  0.31013622  1
  O  O61  1  0.75761089  0.72993104  0.27006896  1
  O  O62  1  0.45003744  0.00743119  0.61629690  1
  O  O63  1  0.87895977  0.80998377  0.85622390  1
  O  O64  1  0.39226069  0.29474362  0.03584686  1
  O  O65  1  0.96894741  0.86241120  0.13758880  1
  O  O66  1  0.74238911  0.22993104  0.77006896  1
  O  O67  1  0.72090306  0.29777839  0.06624553  1
  O  O68  1  0.80999267  0.01634184  0.85748529  1
  O  O69  1  0.22090306  0.56624553  0.79777839  1
  O  O70  1  0.12104023  0.19001623  0.14377610  1
  O  O71  1  0.72285117  0.96415314  0.70525638  1
  O  O72  1  0.27714883  0.03584686  0.29474362  1
  O  O73  1  0.62104023  0.64377610  0.69001623  1
  O  O74  1  0.60773931  0.70525638  0.96415314  1
  O  O75  1  0.77909694  0.43375447  0.20222161  1
  O  O76  1  0.89226069  0.53584686  0.79474362  1
  O  O77  1  0.81618020  0.51634184  0.35748529  1
  O  O78  1  0.24238911  0.27006896  0.72993104  1
  O  O79  1  0.42623446  0.50743119  0.11629690  1
  O  O80  1  0.95483256  0.30998377  0.35622390  1
  O  O81  1  0.10773931  0.46415314  0.20525638  1
  O  O82  1  0.77714883  0.79474362  0.53584686  1
  O  O83  1  0.30999267  0.35748529  0.51634184  1
  O  O84  1  0.54516744  0.14377610  0.19001623  1
  O  O85  1  0.46894741  0.63758880  0.36241120  1
  O  O86  1  0.76794266  0.43859938  0.68986378  1
  O  O87  1  0.60359418  0.93859938  0.18986378  1
