# generated using pymatgen
data_Sr3CaRu2O9
_symmetry_space_group_name_H-M   'P 1'
_cell_length_a   5.80100518
_cell_length_b   9.98124106
_cell_length_c   14.17466878
_cell_angle_alpha   89.94283921
_cell_angle_beta   90.00000000
_cell_angle_gamma   90.00000000
_symmetry_Int_Tables_number   1
_chemical_formula_structural   Sr3CaRu2O9
_chemical_formula_sum   'Sr12 Ca4 Ru8 O36'
_cell_volume   820.73036368
_cell_formula_units_Z   4
loop_
 _symmetry_equiv_pos_site_id
 _symmetry_equiv_pos_as_xyz
  1  'x, y, z'
loop_
 _atom_site_type_symbol
 _atom_site_label
 _atom_site_symmetry_multiplicity
 _atom_site_fract_x
 _atom_site_fract_y
 _atom_site_fract_z
 _atom_site_occupancy
  Sr  Sr0  1  0.53499983  0.16818675  0.58328096  1
  Sr  Sr1  1  0.54110703  0.50719146  0.24758232  1
  Sr  Sr2  1  0.96500017  0.66818675  0.58328096  1
  Sr  Sr3  1  0.46353527  0.16722668  0.08835322  1
  Sr  Sr4  1  0.53646473  0.83277332  0.91164678  1
  Sr  Sr5  1  0.04110703  0.99280854  0.75241768  1
  Sr  Sr6  1  0.03646473  0.66722668  0.08835322  1
  Sr  Sr7  1  0.95889297  0.00719146  0.24758232  1
  Sr  Sr8  1  0.46500017  0.83181325  0.41671904  1
  Sr  Sr9  1  0.03499983  0.33181325  0.41671904  1
  Sr  Sr10  1  0.45889297  0.49280854  0.75241768  1
  Sr  Sr11  1  0.96353527  0.33277332  0.91164678  1
  Ca  Ca12  1  0.50000000  0.50000000  0.00000000  1
  Ca  Ca13  1  0.00000000  0.00000000  0.50000000  1
  Ca  Ca14  1  0.50000000  0.50000000  0.50000000  1
  Ca  Ca15  1  0.00000000  0.00000000  0.00000000  1
  Ru  Ru16  1  0.50264682  0.17239078  0.33170632  1
  Ru  Ru17  1  0.99735318  0.67239078  0.33170632  1
  Ru  Ru18  1  0.49437967  0.83877787  0.16895885  1
  Ru  Ru19  1  0.00264682  0.32760922  0.66829368  1
  Ru  Ru20  1  0.00562033  0.33877787  0.16895885  1
  Ru  Ru21  1  0.49735318  0.82760922  0.66829368  1
  Ru  Ru22  1  0.50562033  0.16122213  0.83104115  1
  Ru  Ru23  1  0.99437967  0.66122213  0.83104115  1
  O  O24  1  0.01576360  0.20504577  0.07018534  1
  O  O25  1  0.80460703  0.39507973  0.56931698  1
  O  O26  1  0.76993489  0.12856762  0.40599805  1
  O  O27  1  0.78825471  0.73701979  0.22436086  1
  O  O28  1  0.78677957  0.78719896  0.75039670  1
  O  O29  1  0.19715433  0.55113816  0.90504103  1
  O  O30  1  0.69715433  0.94886184  0.09495897  1
  O  O31  1  0.51639555  0.97549392  0.27561481  1
  O  O32  1  0.71174529  0.23701979  0.22436086  1
  O  O33  1  0.23006511  0.87143238  0.59400195  1
  O  O34  1  0.69539297  0.89507973  0.56931698  1
  O  O35  1  0.01594963  0.84784407  0.38293629  1
  O  O36  1  0.98423640  0.79495423  0.92981466  1
  O  O37  1  0.72933424  0.57422245  0.88128183  1
  O  O38  1  0.01639555  0.52450608  0.72438519  1
  O  O39  1  0.48423640  0.70504577  0.07018534  1
  O  O40  1  0.98360445  0.47549392  0.27561481  1
  O  O41  1  0.71322043  0.28719896  0.75039670  1
  O  O42  1  0.30284567  0.05113816  0.90504103  1
  O  O43  1  0.27066576  0.42577755  0.11871817  1
  O  O44  1  0.28825471  0.76298021  0.77563914  1
  O  O45  1  0.51594963  0.65215593  0.61706371  1
  O  O46  1  0.21322043  0.21280104  0.24960330  1
  O  O47  1  0.21174529  0.26298021  0.77563914  1
  O  O48  1  0.51576360  0.29495423  0.92981466  1
  O  O49  1  0.77066576  0.07422245  0.88128183  1
  O  O50  1  0.48360445  0.02450608  0.72438519  1
  O  O51  1  0.19539297  0.60492027  0.43068302  1
  O  O52  1  0.48405037  0.34784407  0.38293629  1
  O  O53  1  0.73006511  0.62856762  0.40599805  1
  O  O54  1  0.98405037  0.15215593  0.61706371  1
  O  O55  1  0.26993489  0.37143238  0.59400195  1
  O  O56  1  0.28677957  0.71280104  0.24960330  1
  O  O57  1  0.22933424  0.92577755  0.11871817  1
  O  O58  1  0.30460703  0.10492027  0.43068302  1
  O  O59  1  0.80284567  0.44886184  0.09495897  1
