# generated using pymatgen
data_Sn(S4I)4
_symmetry_space_group_name_H-M   'P 1'
_cell_length_a   12.43936895
_cell_length_b   13.03781714
_cell_length_c   13.32733412
_cell_angle_alpha   77.13630417
_cell_angle_beta   62.18058773
_cell_angle_gamma   61.50712590
_symmetry_Int_Tables_number   1
_chemical_formula_structural   Sn(S4I)4
_chemical_formula_sum   'Sn2 S32 I8'
_cell_volume   1680.09690425
_cell_formula_units_Z   2
loop_
 _symmetry_equiv_pos_site_id
 _symmetry_equiv_pos_as_xyz
  1  'x, y, z'
loop_
 _atom_site_type_symbol
 _atom_site_label
 _atom_site_symmetry_multiplicity
 _atom_site_fract_x
 _atom_site_fract_y
 _atom_site_fract_z
 _atom_site_occupancy
  Sn  Sn0  1  0.74804362  0.50000000  0.50000000  1
  Sn  Sn1  1  -0.00195638  0.00000000  0.00000000  1
  S  S2  1  0.52586987  0.22058134  0.99656292  1
  S  S3  1  0.12659752  0.50911725  0.20029277  1
  S  S4  1  0.74301413  0.77941866  0.00343708  1
  S  S5  1  0.46265916  0.86271521  0.34103943  1
  S  S6  1  0.83600754  0.49088275  0.79970723  1
  S  S7  1  0.68402293  0.17055941  0.49448425  1
  S  S8  1  0.07818904  0.81897737  0.51705496  1
  S  S9  1  0.18867598  0.34704370  0.14282291  1
  S  S10  1  0.34670467  0.02072830  0.28924613  1
  S  S11  1  0.66641380  0.13728479  0.65896057  1
  S  S12  1  0.55369860  0.36271521  0.15896057  1
  S  S13  1  0.27243278  0.72058134  0.50343708  1
  S  S14  1  0.34524400  0.31897737  0.98294504  1
  S  S15  1  0.11743297  0.47927170  0.78924613  1
  S  S16  1  0.60458233  0.32944059  0.99448425  1
  S  S17  1  0.41422137  0.18102263  0.48294504  1
  S  S18  1  0.45740969  0.00943401  0.80377711  1
  S  S19  1  0.01118679  0.50943401  0.69622289  1
  S  S20  1  0.08149889  0.84704370  0.35717709  1
  S  S21  1  0.07689029  0.00911725  0.29970723  1
  S  S22  1  0.65667910  0.97927170  0.71075387  1
  S  S23  1  0.92850718  0.67055941  0.00551575  1
  S  S24  1  0.38571477  0.99088275  0.70029277  1
  S  S25  1  0.67854259  0.65295630  0.85717709  1
  S  S26  1  0.21684370  0.49056599  0.30377711  1
  S  S27  1  0.07537437  0.63728479  0.84103943  1
  S  S28  1  0.64716641  0.68102263  0.01705496  1
  S  S29  1  0.34906658  0.82944059  0.50551575  1
  S  S30  1  0.28571968  0.15295630  0.64282291  1
  S  S31  1  0.38595080  0.52072830  0.21075387  1
  S  S32  1  0.27062080  0.99056599  0.19622289  1
  S  S33  1  0.49645121  0.27941866  0.49656292  1
  I  I34  1  0.22017174  0.80551832  0.99780545  1
  I  I35  1  0.78036618  0.99634028  0.18792172  1
  I  I36  1  0.02349551  0.19448168  0.00219455  1
  I  I37  1  0.96462818  0.00365972  0.81207828  1
  I  I38  1  0.96797719  0.30551832  0.50219455  1
  I  I39  1  0.77569006  0.69448168  0.49780545  1
  I  I40  1  0.52670646  0.50365972  0.68792172  1
  I  I41  1  0.71828790  0.49634028  0.31207828  1
