# generated using pymatgen
data_Ce4Re6O19
_symmetry_space_group_name_H-M   'P 1'
_cell_length_a   7.82528751
_cell_length_b   7.82528751
_cell_length_c   7.82528751
_cell_angle_alpha   109.47122063
_cell_angle_beta   109.47122063
_cell_angle_gamma   109.47122063
_symmetry_Int_Tables_number   1
_chemical_formula_structural   Ce4Re6O19
_chemical_formula_sum   'Ce4 Re6 O19'
_cell_volume   368.87482638
_cell_formula_units_Z   1
loop_
 _symmetry_equiv_pos_site_id
 _symmetry_equiv_pos_as_xyz
  1  'x, y, z'
loop_
 _atom_site_type_symbol
 _atom_site_label
 _atom_site_symmetry_multiplicity
 _atom_site_fract_x
 _atom_site_fract_y
 _atom_site_fract_z
 _atom_site_occupancy
  Ce  Ce0  1  0.68772275  0.68772275  0.68772275  1
  Ce  Ce1  1  0.31227725  0.00000000  -0.00000000  1
  Ce  Ce2  1  0.00000000  0.31227725  0.00000000  1
  Ce  Ce3  1  0.00000000  0.00000000  0.31227725  1
  Re  Re4  1  0.36609418  0.86609418  0.50000000  1
  Re  Re5  1  0.63390582  0.13390582  0.50000000  1
  Re  Re6  1  0.86609418  0.50000000  0.36609418  1
  Re  Re7  1  0.13390582  0.50000000  0.63390582  1
  Re  Re8  1  0.50000000  0.36609418  0.86609418  1
  Re  Re9  1  0.50000000  0.63390582  0.13390582  1
  O  O10  1  0.68332354  0.68332354  0.00000000  1
  O  O11  1  0.31667646  0.31667646  0.00000000  1
  O  O12  1  0.68332354  0.00000000  0.68332354  1
  O  O13  1  0.31667646  0.00000000  0.31667646  1
  O  O14  1  0.00000000  0.68332354  0.68332354  1
  O  O15  1  0.00000000  0.31667646  0.31667646  1
  O  O16  1  0.00000000  0.00000000  0.00000000  1
  O  O17  1  0.35565546  0.61864374  0.30004752  1
  O  O18  1  0.64434454  0.94439206  0.26298828  1
  O  O19  1  0.68140378  0.38135626  0.73701172  1
  O  O20  1  0.61864374  0.30004752  0.35565546  1
  O  O21  1  0.31859622  0.05560794  0.69995248  1
  O  O22  1  0.94439206  0.26298828  0.64434454  1
  O  O23  1  0.38135626  0.73701172  0.68140378  1
  O  O24  1  0.05560794  0.69995248  0.31859622  1
  O  O25  1  0.30004752  0.35565546  0.61864374  1
  O  O26  1  0.73701172  0.68140378  0.38135626  1
  O  O27  1  0.69995248  0.31859622  0.05560794  1
  O  O28  1  0.26298828  0.64434454  0.94439206  1
