# generated using pymatgen
data_Zn2TeCl2O3
_symmetry_space_group_name_H-M   'P 1'
_cell_length_a   7.76250743
_cell_length_b   10.64461249
_cell_length_c   15.86387116
_cell_angle_alpha   90.00000000
_cell_angle_beta   90.00000000
_cell_angle_gamma   90.00000000
_symmetry_Int_Tables_number   1
_chemical_formula_structural   Zn2TeCl2O3
_chemical_formula_sum   'Zn16 Te8 Cl16 O24'
_cell_volume   1310.81396262
_cell_formula_units_Z   8
loop_
 _symmetry_equiv_pos_site_id
 _symmetry_equiv_pos_as_xyz
  1  'x, y, z'
loop_
 _atom_site_type_symbol
 _atom_site_label
 _atom_site_symmetry_multiplicity
 _atom_site_fract_x
 _atom_site_fract_y
 _atom_site_fract_z
 _atom_site_occupancy
  Zn  Zn0  1  0.89768724  0.23751297  0.47517539  1
  Zn  Zn1  1  0.65895859  0.00594415  0.38984659  1
  Zn  Zn2  1  0.60231276  0.76248703  0.97517539  1
  Zn  Zn3  1  0.89768724  0.26248703  0.02482461  1
  Zn  Zn4  1  0.84104141  0.99405585  0.88984659  1
  Zn  Zn5  1  0.34104141  0.99405585  0.61015341  1
  Zn  Zn6  1  0.10231276  0.73751297  0.97517539  1
  Zn  Zn7  1  0.65895859  0.49405585  0.11015341  1
  Zn  Zn8  1  0.39768724  0.26248703  0.47517539  1
  Zn  Zn9  1  0.84104141  0.50594415  0.61015341  1
  Zn  Zn10  1  0.15895859  0.49405585  0.38984659  1
  Zn  Zn11  1  0.10231276  0.76248703  0.52482461  1
  Zn  Zn12  1  0.39768724  0.23751297  0.02482461  1
  Zn  Zn13  1  0.60231276  0.73751297  0.52482461  1
  Zn  Zn14  1  0.34104141  0.50594415  0.88984659  1
  Zn  Zn15  1  0.15895859  0.00594415  0.11015341  1
  Te  Te16  1  0.29283686  0.97158820  0.90266880  1
  Te  Te17  1  0.79283686  0.52841180  0.90266880  1
  Te  Te18  1  0.70716314  0.47158820  0.40266880  1
  Te  Te19  1  0.20716314  0.02841180  0.40266880  1
  Te  Te20  1  0.70716314  0.02841180  0.09733120  1
  Te  Te21  1  0.29283686  0.52841180  0.59733120  1
  Te  Te22  1  0.20716314  0.47158820  0.09733120  1
  Te  Te23  1  0.79283686  0.97158820  0.59733120  1
  Cl  Cl24  1  0.33263813  0.08007360  0.21076354  1
  Cl  Cl25  1  0.41979749  0.20286740  0.62029173  1
  Cl  Cl26  1  0.16736187  0.91992640  0.71076354  1
  Cl  Cl27  1  0.41979749  0.29713260  0.87970827  1
  Cl  Cl28  1  0.83263813  0.41992640  0.21076354  1
  Cl  Cl29  1  0.66736187  0.58007360  0.71076354  1
  Cl  Cl30  1  0.33263813  0.41992640  0.28923646  1
  Cl  Cl31  1  0.08020251  0.79713260  0.12029173  1
  Cl  Cl32  1  0.66736187  0.91992640  0.78923646  1
  Cl  Cl33  1  0.16736187  0.58007360  0.78923646  1
  Cl  Cl34  1  0.58020251  0.79713260  0.37970827  1
  Cl  Cl35  1  0.08020251  0.70286740  0.37970827  1
  Cl  Cl36  1  0.83263813  0.08007360  0.28923646  1
  Cl  Cl37  1  0.91979749  0.29713260  0.62029173  1
  Cl  Cl38  1  0.91979749  0.20286740  0.87970827  1
  Cl  Cl39  1  0.58020251  0.70286740  0.12029173  1
  O  O40  1  0.19518626  0.55829156  0.99019509  1
  O  O41  1  0.93670788  0.41215550  0.41656777  1
  O  O42  1  0.14202342  0.31086904  0.05658431  1
  O  O43  1  0.30481374  0.44170844  0.49019509  1
  O  O44  1  0.85797658  0.68913096  0.94341569  1
  O  O45  1  0.85797658  0.81086904  0.55658431  1
  O  O46  1  0.56329212  0.58784450  0.91656777  1
  O  O47  1  0.80481374  0.05829156  0.49019509  1
  O  O48  1  0.14202342  0.18913096  0.44341569  1
  O  O49  1  0.35797658  0.81086904  0.94341569  1
  O  O50  1  0.06329212  0.91215550  0.91656777  1
  O  O51  1  0.93670788  0.08784450  0.08343223  1
  O  O52  1  0.69518626  0.55829156  0.50980491  1
  O  O53  1  0.35797658  0.68913096  0.55658431  1
  O  O54  1  0.06329212  0.58784450  0.58343223  1
  O  O55  1  0.30481374  0.05829156  0.00980491  1
  O  O56  1  0.64202342  0.31086904  0.44341569  1
  O  O57  1  0.64202342  0.18913096  0.05658431  1
  O  O58  1  0.80481374  0.44170844  0.00980491  1
  O  O59  1  0.69518626  0.94170844  0.99019509  1
  O  O60  1  0.19518626  0.94170844  0.50980491  1
  O  O61  1  0.43670788  0.08784450  0.41656777  1
  O  O62  1  0.56329212  0.91215550  0.58343223  1
  O  O63  1  0.43670788  0.41215550  0.08343223  1
