# generated using pymatgen
data_Li2Al(BO2)5
_symmetry_space_group_name_H-M   'P 1'
_cell_length_a   7.14452276
_cell_length_b   7.15182197
_cell_length_c   15.08941747
_cell_angle_alpha   90.00000000
_cell_angle_beta   90.00000000
_cell_angle_gamma   90.85678206
_symmetry_Int_Tables_number   1
_chemical_formula_structural   Li2Al(BO2)5
_chemical_formula_sum   'Li8 Al4 B20 O40'
_cell_volume   770.92802667
_cell_formula_units_Z   4
loop_
 _symmetry_equiv_pos_site_id
 _symmetry_equiv_pos_as_xyz
  1  'x, y, z'
loop_
 _atom_site_type_symbol
 _atom_site_label
 _atom_site_symmetry_multiplicity
 _atom_site_fract_x
 _atom_site_fract_y
 _atom_site_fract_z
 _atom_site_occupancy
  Li  Li0  1  0.10330235  0.99695849  0.17207228  1
  Li  Li1  1  0.69804434  0.91465374  0.42921153  1
  Li  Li2  1  0.10330235  0.49695849  0.32792772  1
  Li  Li3  1  0.30195566  0.08534626  0.57078847  1
  Li  Li4  1  0.89669765  0.50304151  0.67207228  1
  Li  Li5  1  0.89669765  0.00304151  0.82792772  1
  Li  Li6  1  0.30195566  0.58534626  0.92921153  1
  Li  Li7  1  0.69804434  0.41465374  0.07078847  1
  Al  Al8  1  0.15059783  0.03715521  0.37575630  1
  Al  Al9  1  0.84940217  0.96284479  0.62424370  1
  Al  Al10  1  0.15059783  0.53715521  0.12424370  1
  Al  Al11  1  0.84940217  0.46284479  0.87575630  1
  B  B12  1  0.75737334  0.76628822  0.99939099  1
  B  B13  1  0.20281124  0.40072289  0.47209069  1
  B  B14  1  0.68024793  0.99181982  0.12018256  1
  B  B15  1  0.54237983  0.99969296  0.75301535  1
  B  B16  1  0.54237983  0.49969296  0.74698465  1
  B  B17  1  0.24262666  0.23371178  0.00060901  1
  B  B18  1  0.45762017  0.50030704  0.25301535  1
  B  B19  1  0.68024793  0.49181982  0.37981744  1
  B  B20  1  0.79068897  0.98093945  0.27889515  1
  B  B21  1  0.24262666  0.73371178  0.49939099  1
  B  B22  1  0.75737334  0.26628822  0.50060901  1
  B  B23  1  0.20281124  0.90072289  0.02790931  1
  B  B24  1  0.79068897  0.48093945  0.22110485  1
  B  B25  1  0.31975207  0.50818018  0.62018256  1
  B  B26  1  0.20931103  0.51906055  0.77889515  1
  B  B27  1  0.79718876  0.59927711  0.52790931  1
  B  B28  1  0.31975207  0.00818018  0.87981744  1
  B  B29  1  0.79718876  0.09927711  0.97209069  1
  B  B30  1  0.45762017  0.00030704  0.24698465  1
  B  B31  1  0.20931103  0.01906055  0.72110485  1
  O  O32  1  0.39692928  0.53732270  0.80699524  1
  O  O33  1  0.07888004  0.02916808  0.65548944  1
  O  O34  1  0.83340180  0.41239556  0.55195747  1
  O  O35  1  0.50202786  0.97562829  0.84021256  1
  O  O36  1  0.76047874  0.08591959  0.53189854  1
  O  O37  1  0.84754629  0.22745190  0.90957244  1
  O  O38  1  0.23952126  0.91408041  0.46810146  1
  O  O39  1  0.28109038  0.85919184  0.94766284  1
  O  O40  1  0.60307072  0.96267730  0.30699524  1
  O  O41  1  0.68196177  0.30527021  0.42036324  1
  O  O42  1  0.92111996  0.47083192  0.15548944  1
  O  O43  1  0.60307072  0.46267730  0.19300476  1
  O  O44  1  0.71890962  0.64080816  0.44766284  1
  O  O45  1  0.16796746  0.99574146  0.80913818  1
  O  O46  1  0.15245371  0.27254810  0.40957244  1
  O  O47  1  0.16659820  0.08760444  0.05195747  1
  O  O48  1  0.68196177  0.80527021  0.07963676  1
  O  O49  1  0.92111996  0.97083192  0.34451056  1
  O  O50  1  0.84754629  0.72745190  0.59042756  1
  O  O51  1  0.83203254  0.50425854  0.30913818  1
  O  O52  1  0.31803823  0.69472979  0.57963676  1
  O  O53  1  0.72314406  0.48651146  0.77591065  1
  O  O54  1  0.31803823  0.19472979  0.92036324  1
  O  O55  1  0.07888004  0.52916808  0.84451056  1
  O  O56  1  0.50202786  0.47562829  0.65978744  1
  O  O57  1  0.83203254  0.00425854  0.19086182  1
  O  O58  1  0.27685594  0.51348854  0.22408935  1
  O  O59  1  0.23952126  0.41408041  0.03189854  1
  O  O60  1  0.16659820  0.58760444  0.44804253  1
  O  O61  1  0.83340180  0.91239556  0.94804253  1
  O  O62  1  0.49797214  0.02437171  0.15978744  1
  O  O63  1  0.49797214  0.52437171  0.34021256  1
  O  O64  1  0.27685594  0.01348854  0.27591065  1
  O  O65  1  0.16796746  0.49574146  0.69086182  1
  O  O66  1  0.72314406  0.98651146  0.72408935  1
  O  O67  1  0.28109038  0.35919184  0.55233716  1
  O  O68  1  0.39692928  0.03732270  0.69300476  1
  O  O69  1  0.76047874  0.58591959  0.96810146  1
  O  O70  1  0.71890962  0.14080816  0.05233716  1
  O  O71  1  0.15245371  0.77254810  0.09042756  1
