# generated using pymatgen
data_Os2O3F7
_symmetry_space_group_name_H-M   'P 1'
_cell_length_a   5.73411252
_cell_length_b   10.39178424
_cell_length_c   12.66129289
_cell_angle_alpha   90.00000000
_cell_angle_beta   100.21636737
_cell_angle_gamma   90.00000000
_symmetry_Int_Tables_number   1
_chemical_formula_structural   Os2O3F7
_chemical_formula_sum   'Os8 O12 F28'
_cell_volume   742.49488962
_cell_formula_units_Z   4
loop_
 _symmetry_equiv_pos_site_id
 _symmetry_equiv_pos_as_xyz
  1  'x, y, z'
loop_
 _atom_site_type_symbol
 _atom_site_label
 _atom_site_symmetry_multiplicity
 _atom_site_fract_x
 _atom_site_fract_y
 _atom_site_fract_z
 _atom_site_occupancy
  Os  Os0  1  0.99117639  0.75059587  0.99877239  1
  Os  Os1  1  0.00882361  0.25059587  0.50122761  1
  Os  Os2  1  0.00882361  0.24940413  0.00122761  1
  Os  Os3  1  0.65621359  0.48832131  0.28353155  1
  Os  Os4  1  0.99117639  0.74940413  0.49877239  1
  Os  Os5  1  0.65621359  0.01167869  0.78353155  1
  Os  Os6  1  0.34378641  0.98832131  0.21646845  1
  Os  Os7  1  0.34378641  0.51167869  0.71646845  1
  O  O8  1  0.52138290  0.44145085  0.63788625  1
  O  O9  1  0.59749705  0.92545541  0.66724698  1
  O  O10  1  0.52395272  0.34336650  0.25037603  1
  O  O11  1  0.52138290  0.05854915  0.13788625  1
  O  O12  1  0.47861710  0.94145085  0.86211375  1
  O  O13  1  0.47604728  0.65663350  0.74962397  1
  O  O14  1  0.40250295  0.07454459  0.33275302  1
  O  O15  1  0.47861710  0.55854915  0.36211375  1
  O  O16  1  0.40250295  0.42545541  0.83275302  1
  O  O17  1  0.52395272  0.15663350  0.75037603  1
  O  O18  1  0.47604728  0.84336650  0.24962397  1
  O  O19  1  0.59749705  0.57454459  0.16724698  1
  F  F20  1  0.80759868  0.60885924  0.94277774  1
  F  F21  1  0.90918483  0.16875967  0.36842493  1
  F  F22  1  0.72987725  0.82388386  0.04971922  1
  F  F23  1  0.10228144  0.15640846  0.13920848  1
  F  F24  1  0.97245393  0.05512711  0.77598389  1
  F  F25  1  0.19240132  0.39114076  0.05722226  1
  F  F26  1  0.09081517  0.66875967  0.13157507  1
  F  F27  1  0.25456361  0.68378651  0.94489503  1
  F  F28  1  0.89771856  0.84359154  0.86079152  1
  F  F29  1  0.27012275  0.32388386  0.45028078  1
  F  F30  1  0.27012275  0.17611614  0.95028078  1
  F  F31  1  0.25456361  0.81621349  0.44489503  1
  F  F32  1  0.74543639  0.31621349  0.05510497  1
  F  F33  1  0.10228144  0.34359154  0.63920848  1
  F  F34  1  0.81039530  0.09784339  0.94667278  1
  F  F35  1  0.81039530  0.40215661  0.44667278  1
  F  F36  1  0.19240132  0.10885924  0.55722226  1
  F  F37  1  0.72987725  0.67611614  0.54971922  1
  F  F38  1  0.09081517  0.83124033  0.63157507  1
  F  F39  1  0.18960470  0.59784339  0.55332722  1
  F  F40  1  0.89771856  0.65640846  0.36079152  1
  F  F41  1  0.74543639  0.18378651  0.55510497  1
  F  F42  1  0.90918483  0.33124033  0.86842493  1
  F  F43  1  0.02754607  0.55512711  0.72401611  1
  F  F44  1  0.02754607  0.94487289  0.22401611  1
  F  F45  1  0.18960470  0.90215661  0.05332722  1
  F  F46  1  0.80759868  0.89114076  0.44277774  1
  F  F47  1  0.97245393  0.44487289  0.27598389  1
