# generated using pymatgen
data_TaPbF7
_symmetry_space_group_name_H-M   'P 1'
_cell_length_a   4.99580844
_cell_length_b   6.89135000
_cell_length_c   7.43392947
_cell_angle_alpha   90.00000000
_cell_angle_beta   90.00000000
_cell_angle_gamma   94.02095486
_symmetry_Int_Tables_number   1
_chemical_formula_structural   TaPbF7
_chemical_formula_sum   'Ta2 Pb2 F14'
_cell_volume   255.30432670
_cell_formula_units_Z   2
loop_
 _symmetry_equiv_pos_site_id
 _symmetry_equiv_pos_as_xyz
  1  'x, y, z'
loop_
 _atom_site_type_symbol
 _atom_site_label
 _atom_site_symmetry_multiplicity
 _atom_site_fract_x
 _atom_site_fract_y
 _atom_site_fract_z
 _atom_site_occupancy
  Ta  Ta0  1  0.46634644  0.78234152  0.75000000  1
  Ta  Ta1  1  0.53365356  0.21765848  0.25000000  1
  Pb  Pb2  1  0.98554720  0.68361873  0.25000000  1
  Pb  Pb3  1  0.01445280  0.31638127  0.75000000  1
  F  F4  1  0.35467343  0.94936219  0.25000000  1
  F  F5  1  0.32661763  0.21130739  0.46947695  1
  F  F6  1  0.67338237  0.78869261  0.96947695  1
  F  F7  1  0.19905216  0.64119839  0.57856921  1
  F  F8  1  0.59517201  0.51208880  0.75000000  1
  F  F9  1  0.40482799  0.48791120  0.25000000  1
  F  F10  1  0.64532657  0.05063781  0.75000000  1
  F  F11  1  0.19905216  0.64119839  0.92143079  1
  F  F12  1  0.80094784  0.35880161  0.42143079  1
  F  F13  1  0.82899393  0.04921349  0.25000000  1
  F  F14  1  0.80094784  0.35880161  0.07856921  1
  F  F15  1  0.67338237  0.78869261  0.53052305  1
  F  F16  1  0.17100607  0.95078651  0.75000000  1
  F  F17  1  0.32661763  0.21130739  0.03052305  1
