# generated using pymatgen
data_Na2Cu(PO3)4
_symmetry_space_group_name_H-M   'P 1'
_cell_length_a   7.91001856
_cell_length_b   8.25865060
_cell_length_c   8.25865018
_cell_angle_alpha   109.66820781
_cell_angle_beta   92.97964273
_cell_angle_gamma   92.97963907
_symmetry_Int_Tables_number   1
_chemical_formula_structural   Na2Cu(PO3)4
_chemical_formula_sum   'Na4 Cu2 P8 O24'
_cell_volume   505.95577116
_cell_formula_units_Z   2
loop_
 _symmetry_equiv_pos_site_id
 _symmetry_equiv_pos_as_xyz
  1  'x, y, z'
loop_
 _atom_site_type_symbol
 _atom_site_label
 _atom_site_symmetry_multiplicity
 _atom_site_fract_x
 _atom_site_fract_y
 _atom_site_fract_z
 _atom_site_occupancy
  Na  Na0  1  0.30596757  0.18353676  0.47053008  1
  Na  Na1  1  0.69403243  0.81646324  0.52946992  1
  Na  Na2  1  0.80596757  0.47053008  0.18353676  1
  Na  Na3  1  0.19403243  0.52946992  0.81646324  1
  Cu  Cu4  1  0.75000000  0.13740031  0.86259969  1
  Cu  Cu5  1  0.25000000  0.86259969  0.13740031  1
  P  P6  1  0.17650236  0.21223939  0.06412710  1
  P  P7  1  0.32349764  0.93587290  0.78776061  1
  P  P8  1  0.67650236  0.06412710  0.21223939  1
  P  P9  1  0.87527243  0.23973214  0.55113733  1
  P  P10  1  0.37527243  0.55113733  0.23973214  1
  P  P11  1  0.62472757  0.44886267  0.76026786  1
  P  P12  1  0.82349764  0.78776061  0.93587290  1
  P  P13  1  0.12472757  0.76026786  0.44886267  1
  O  O14  1  0.83984232  0.91459093  0.83985309  1
  O  O15  1  0.25000000  0.12150723  0.87849277  1
  O  O16  1  0.02677550  0.30612930  0.04034763  1
  O  O17  1  0.75000000  0.39586562  0.60413438  1
  O  O18  1  0.18496696  0.89655216  0.37433547  1
  O  O19  1  0.47322450  0.95965237  0.69387070  1
  O  O20  1  0.33984232  0.83985309  0.91459093  1
  O  O21  1  0.66015768  0.16014691  0.08540907  1
  O  O22  1  0.33654393  0.34570506  0.16503041  1
  O  O23  1  0.31503304  0.62566453  0.10344784  1
  O  O24  1  0.55535997  0.58636801  0.31118343  1
  O  O25  1  0.81503304  0.10344784  0.62566453  1
  O  O26  1  0.94464003  0.68881657  0.41363199  1
  O  O27  1  0.05535997  0.31118343  0.58636801  1
  O  O28  1  0.75000000  0.87849277  0.12150723  1
  O  O29  1  0.83654393  0.16503041  0.34570506  1
  O  O30  1  0.66345607  0.65429494  0.83496959  1
  O  O31  1  0.97322450  0.69387070  0.95965237  1
  O  O32  1  0.68496696  0.37433547  0.89655216  1
  O  O33  1  0.16345607  0.83496959  0.65429494  1
  O  O34  1  0.44464003  0.41363199  0.68881657  1
  O  O35  1  0.16015768  0.08540907  0.16014691  1
  O  O36  1  0.25000000  0.60413438  0.39586562  1
  O  O37  1  0.52677550  0.04034763  0.30612930  1
