# generated using pymatgen
data_CsTa2P5O18
_symmetry_space_group_name_H-M   'P 1'
_cell_length_a   5.21568634
_cell_length_b   11.08139075
_cell_length_c   14.62809216
_cell_angle_alpha   82.94516389
_cell_angle_beta   87.14543421
_cell_angle_gamma   85.12354541
_symmetry_Int_Tables_number   1
_chemical_formula_structural   CsTa2P5O18
_chemical_formula_sum   'Cs2 Ta4 P10 O36'
_cell_volume   835.36006316
_cell_formula_units_Z   2
loop_
 _symmetry_equiv_pos_site_id
 _symmetry_equiv_pos_as_xyz
  1  'x, y, z'
loop_
 _atom_site_type_symbol
 _atom_site_label
 _atom_site_symmetry_multiplicity
 _atom_site_fract_x
 _atom_site_fract_y
 _atom_site_fract_z
 _atom_site_occupancy
  Cs  Cs0  1  0.71354420  0.90336776  0.62087381  1
  Cs  Cs1  1  0.28645580  0.09663224  0.37912619  1
  Ta  Ta2  1  0.70543477  0.71012792  0.99108088  1
  Ta  Ta3  1  0.74994203  0.44262162  0.64684704  1
  Ta  Ta4  1  0.25005797  0.55737838  0.35315296  1
  Ta  Ta5  1  0.29456523  0.28987208  0.00891912  1
  P  P6  1  0.22345963  0.62838494  0.57743921  1
  P  P7  1  0.80305778  0.15033790  0.13902032  1
  P  P8  1  0.21313833  0.55440542  0.11179872  1
  P  P9  1  0.77654037  0.37161506  0.42256079  1
  P  P10  1  0.70745928  0.76874859  0.33156080  1
  P  P11  1  0.29254072  0.23125141  0.66843920  1
  P  P12  1  0.60125045  0.91304898  0.15354895  1
  P  P13  1  0.78686167  0.44559458  0.88820128  1
  P  P14  1  0.19694222  0.84966210  0.86097968  1
  P  P15  1  0.39874955  0.08695102  0.84645105  1
  O  O16  1  0.18660089  0.42597231  0.08385539  1
  O  O17  1  0.68457191  0.86139925  0.39659970  1
  O  O18  1  0.81590847  0.15537374  0.23868363  1
  O  O19  1  0.96050462  0.80708645  0.92275053  1
  O  O20  1  0.81339911  0.57402769  0.91614461  1
  O  O21  1  0.43960325  0.55558746  0.63843359  1
  O  O22  1  0.96347436  0.58424988  0.62311057  1
  O  O23  1  0.23665090  0.76217022  0.56538458  1
  O  O24  1  0.97487869  0.63893861  0.08118843  1
  O  O25  1  0.64817032  0.03804732  0.80938921  1
  O  O26  1  0.56328802  0.22561605  0.09349851  1
  O  O27  1  0.76334910  0.23782978  0.43461542  1
  O  O28  1  0.35182968  0.96195268  0.19061079  1
  O  O29  1  0.54190422  0.39677438  0.93781469  1
  O  O30  1  0.22474576  0.17194272  0.77398417  1
  O  O31  1  0.25416725  0.57023354  0.48349117  1
  O  O32  1  0.03949538  0.19291355  0.07724947  1
  O  O33  1  0.93645706  0.66988772  0.34478494  1
  O  O34  1  0.53592278  0.30112503  0.67662405  1
  O  O35  1  0.03652564  0.41575012  0.37688943  1
  O  O36  1  0.21057323  0.98512175  0.88984827  1
  O  O37  1  0.06354294  0.33011228  0.65521506  1
  O  O38  1  0.77525424  0.82805728  0.22601583  1
  O  O39  1  0.78942677  0.01487825  0.11015173  1
  O  O40  1  0.45809578  0.60322562  0.06218531  1
  O  O41  1  0.74583275  0.42976646  0.51650883  1
  O  O42  1  0.76261974  0.45422812  0.78419480  1
  O  O43  1  0.60020790  0.83603281  0.07134426  1
  O  O44  1  0.23738026  0.54577188  0.21580520  1
  O  O45  1  0.02512131  0.36106139  0.91881157  1
  O  O46  1  0.31542809  0.13860075  0.60340030  1
  O  O47  1  0.18409153  0.84462626  0.76131637  1
  O  O48  1  0.39979210  0.16396719  0.92865574  1
  O  O49  1  0.43671198  0.77438395  0.90650149  1
  O  O50  1  0.46407722  0.69887497  0.32337595  1
  O  O51  1  0.56039675  0.44441254  0.36156641  1
