# generated using pymatgen
data_Si3N4
_symmetry_space_group_name_H-M   'P 1'
_cell_length_a   5.50654873
_cell_length_b   5.50654873
_cell_length_c   5.50654873
_cell_angle_alpha   59.99999996
_cell_angle_beta   59.99999997
_cell_angle_gamma   59.99999993
_symmetry_Int_Tables_number   1
_chemical_formula_structural   Si3N4
_chemical_formula_sum   'Si6 N8'
_cell_volume   118.06562294
_cell_formula_units_Z   2
loop_
 _symmetry_equiv_pos_site_id
 _symmetry_equiv_pos_as_xyz
  1  'x, y, z'
loop_
 _atom_site_type_symbol
 _atom_site_label
 _atom_site_symmetry_multiplicity
 _atom_site_fract_x
 _atom_site_fract_y
 _atom_site_fract_z
 _atom_site_occupancy
  N  N0  1  0.74256273  0.74256273  0.74256273  1
  N  N1  1  0.25743727  0.25743727  0.72768820  1
  N  N2  1  0.25743727  0.72768820  0.25743727  1
  N  N3  1  0.72768820  0.25743727  0.25743727  1
  N  N4  1  0.74256273  0.27231180  0.74256273  1
  N  N5  1  0.27231180  0.74256273  0.74256273  1
  N  N6  1  0.25743727  0.25743727  0.25743727  1
  N  N7  1  0.74256273  0.74256273  0.27231180  1
  Si  Si8  1  0.50000000  0.00000000  0.50000000  1
  Si  Si9  1  0.00000000  0.50000000  0.50000000  1
  Si  Si10  1  0.50000000  0.50000000  0.00000000  1
  Si  Si11  1  0.50000000  0.50000000  0.50000000  1
  Si  Si12  1  0.12500000  0.12500000  0.12500000  1
  Si  Si13  1  0.87500000  0.87500000  0.87500000  1
