# generated using pymatgen
data_HgINO3
_symmetry_space_group_name_H-M   'P 1'
_cell_length_a   5.48516528
_cell_length_b   7.62655462
_cell_length_c   12.94684903
_cell_angle_alpha   90.00000000
_cell_angle_beta   90.00000000
_cell_angle_gamma   90.00000000
_symmetry_Int_Tables_number   1
_chemical_formula_structural   HgINO3
_chemical_formula_sum   'Hg4 I4 N4 O12'
_cell_volume   541.60440402
_cell_formula_units_Z   4
loop_
 _symmetry_equiv_pos_site_id
 _symmetry_equiv_pos_as_xyz
  1  'x, y, z'
loop_
 _atom_site_type_symbol
 _atom_site_label
 _atom_site_symmetry_multiplicity
 _atom_site_fract_x
 _atom_site_fract_y
 _atom_site_fract_z
 _atom_site_occupancy
  Hg  Hg0  1  0.75000000  0.57777608  0.28640302  1
  Hg  Hg1  1  0.25000000  0.92222392  0.78640302  1
  Hg  Hg2  1  0.25000000  0.42222392  0.71359698  1
  Hg  Hg3  1  0.75000000  0.07777608  0.21359698  1
  I  I4  1  0.75000000  0.88691350  0.39340759  1
  I  I5  1  0.25000000  0.61308650  0.89340759  1
  I  I6  1  0.75000000  0.38691350  0.10659241  1
  I  I7  1  0.25000000  0.11308650  0.60659241  1
  N  N8  1  0.25000000  0.43754268  0.35665120  1
  N  N9  1  0.25000000  0.93754268  0.14334880  1
  N  N10  1  0.75000000  0.06245732  0.85665120  1
  N  N11  1  0.75000000  0.56245732  0.64334880  1
  O  O12  1  0.45095779  0.37249663  0.38681391  1
  O  O13  1  0.95095779  0.62750337  0.61318609  1
  O  O14  1  0.54904221  0.12750337  0.88681391  1
  O  O15  1  0.75000000  0.43114756  0.70426080  1
  O  O16  1  0.04904221  0.87249663  0.11318609  1
  O  O17  1  0.54904221  0.62750337  0.61318609  1
  O  O18  1  0.95095779  0.12750337  0.88681391  1
  O  O19  1  0.25000000  0.06885244  0.20426080  1
  O  O20  1  0.45095779  0.87249663  0.11318609  1
  O  O21  1  0.04904221  0.37249663  0.38681391  1
  O  O22  1  0.75000000  0.93114756  0.79573920  1
  O  O23  1  0.25000000  0.56885244  0.29573920  1
