# generated using pymatgen
data_KTeO2F
_symmetry_space_group_name_H-M   'P 1'
_cell_length_a   6.34961866
_cell_length_b   12.09951846
_cell_length_c   15.26837174
_cell_angle_alpha   90.00000000
_cell_angle_beta   90.00000000
_cell_angle_gamma   94.22471652
_symmetry_Int_Tables_number   1
_chemical_formula_structural   KTeO2F
_chemical_formula_sum   'K12 Te12 O24 F12'
_cell_volume   1169.84084418
_cell_formula_units_Z   12
loop_
 _symmetry_equiv_pos_site_id
 _symmetry_equiv_pos_as_xyz
  1  'x, y, z'
loop_
 _atom_site_type_symbol
 _atom_site_label
 _atom_site_symmetry_multiplicity
 _atom_site_fract_x
 _atom_site_fract_y
 _atom_site_fract_z
 _atom_site_occupancy
  K  K0  1  0.22161744  0.01466803  0.31547628  1
  K  K1  1  0.79143801  0.63197996  0.68502027  1
  K  K2  1  0.29143801  0.13197996  0.81497973  1
  K  K3  1  0.70856199  0.86802004  0.18502027  1
  K  K4  1  0.26358432  0.60104811  0.07127792  1
  K  K5  1  0.20856199  0.36802004  0.31497973  1
  K  K6  1  0.27838256  0.48533197  0.81547628  1
  K  K7  1  0.23641568  0.89895189  0.57127792  1
  K  K8  1  0.76358432  0.10104811  0.42872208  1
  K  K9  1  0.73641568  0.39895189  0.92872208  1
  K  K10  1  0.72161744  0.51466803  0.18452372  1
  K  K11  1  0.77838256  0.98533197  0.68452372  1
  Te  Te12  1  0.70007265  0.78204451  0.44872832  1
  Te  Te13  1  0.29992735  0.21795549  0.55127168  1
  Te  Te14  1  0.77089719  0.19742795  0.18427043  1
  Te  Te15  1  0.27089719  0.69742795  0.31572957  1
  Te  Te16  1  0.77388116  0.09318920  0.96156945  1
  Te  Te17  1  0.27388116  0.59318920  0.53843055  1
  Te  Te18  1  0.20007265  0.28204451  0.05127168  1
  Te  Te19  1  0.79992735  0.71795549  0.94872832  1
  Te  Te20  1  0.72910281  0.30257205  0.68427043  1
  Te  Te21  1  0.22910281  0.80257205  0.81572957  1
  Te  Te22  1  0.22611884  0.90681080  0.03843055  1
  Te  Te23  1  0.72611884  0.40681080  0.46156945  1
  O  O24  1  0.24038758  0.40096848  0.97645377  1
  O  O25  1  0.05259303  0.68383610  0.53103859  1
  O  O26  1  0.56422931  0.18014089  0.60637760  1
  O  O27  1  0.00014693  0.82208232  0.74518358  1
  O  O28  1  0.98384510  0.80123119  0.04906130  1
  O  O29  1  0.50014693  0.32208232  0.75481642  1
  O  O30  1  0.75961242  0.59903152  0.02354623  1
  O  O31  1  0.25961242  0.09903152  0.47645377  1
  O  O32  1  0.18360085  0.91776962  0.90190537  1
  O  O33  1  0.81639915  0.08223038  0.09809463  1
  O  O34  1  0.94740697  0.31616390  0.46896141  1
  O  O35  1  0.51615490  0.69876881  0.54906130  1
  O  O36  1  0.43577069  0.81985911  0.39362240  1
  O  O37  1  0.74038758  0.90096848  0.52354623  1
  O  O38  1  0.68360085  0.41776962  0.59809463  1
  O  O39  1  0.44740697  0.81616390  0.03103859  1
  O  O40  1  0.48384510  0.30123119  0.45093870  1
  O  O41  1  0.99985307  0.17791768  0.25481642  1
  O  O42  1  0.55259303  0.18383610  0.96896141  1
  O  O43  1  0.06422931  0.68014089  0.89362240  1
  O  O44  1  0.31639915  0.58223038  0.40190537  1
  O  O45  1  0.01615490  0.19876881  0.95093870  1
  O  O46  1  0.93577069  0.31985911  0.10637760  1
  O  O47  1  0.49985307  0.67791768  0.24518358  1
  F  F48  1  0.40006126  0.93065525  0.74240239  1
  F  F49  1  0.90006126  0.43065525  0.75759761  1
  F  F50  1  0.77003711  0.11050442  0.82303743  1
  F  F51  1  0.09993874  0.56934475  0.24240239  1
  F  F52  1  0.59993874  0.06934475  0.25759761  1
  F  F53  1  0.27003711  0.61050442  0.67696257  1
  F  F54  1  0.63282024  0.61665812  0.85169483  1
  F  F55  1  0.22996289  0.88949558  0.17696257  1
  F  F56  1  0.36717976  0.38334188  0.14830517  1
  F  F57  1  0.13282024  0.11665812  0.64830517  1
  F  F58  1  0.86717976  0.88334188  0.35169483  1
  F  F59  1  0.72996289  0.38949558  0.32303743  1
