# generated using pymatgen
data_Al6B5O18
_symmetry_space_group_name_H-M   'P 1'
_cell_length_a   8.30951903
_cell_length_b   8.65464792
_cell_length_c   8.65464792
_cell_angle_alpha   120.00000166
_cell_angle_beta   90.00000000
_cell_angle_gamma   90.00000000
_symmetry_Int_Tables_number   1
_chemical_formula_structural   Al6B5O18
_chemical_formula_sum   'Al12 B10 O36'
_cell_volume   539.02054766
_cell_formula_units_Z   2
loop_
 _symmetry_equiv_pos_site_id
 _symmetry_equiv_pos_as_xyz
  1  'x, y, z'
loop_
 _atom_site_type_symbol
 _atom_site_label
 _atom_site_symmetry_multiplicity
 _atom_site_fract_x
 _atom_site_fract_y
 _atom_site_fract_z
 _atom_site_occupancy
  Al  Al0  1  0.92412536  0.64756822  0.66148021  1
  Al  Al1  1  0.07587464  0.35243178  0.33851979  1
  Al  Al2  1  0.92412536  0.01391198  0.35243178  1
  Al  Al3  1  0.42412536  0.35243178  0.33851979  1
  Al  Al4  1  0.07587464  0.98608802  0.64756822  1
  Al  Al5  1  0.57587464  0.64756822  0.66148021  1
  Al  Al6  1  0.92412536  0.33851979  0.98608802  1
  Al  Al7  1  0.42412536  0.98608802  0.64756822  1
  Al  Al8  1  0.07587464  0.66148021  0.01391198  1
  Al  Al9  1  0.57587464  0.01391198  0.35243178  1
  Al  Al10  1  0.42412536  0.66148021  0.01391198  1
  Al  Al11  1  0.57587464  0.33851979  0.98608802  1
  B  B12  1  0.94244141  0.66666700  0.33333300  1
  B  B13  1  0.05755859  0.33333300  0.66666700  1
  B  B14  1  0.44244141  0.33333300  0.66666700  1
  B  B15  1  0.55755859  0.66666700  0.33333300  1
  B  B16  1  0.75000000  0.76731630  0.00055927  1
  B  B17  1  0.25000000  0.23268370  0.99944073  1
  B  B18  1  0.75000000  0.23324297  0.23268370  1
  B  B19  1  0.25000000  0.76675703  0.76731630  1
  B  B20  1  0.75000000  0.99944073  0.76675703  1
  B  B21  1  0.25000000  0.00055927  0.23324297  1
  O  O22  1  0.89779790  0.71358569  0.91029302  1
  O  O23  1  0.10220210  0.28641431  0.08970698  1
  O  O24  1  0.89779790  0.19670733  0.28641431  1
  O  O25  1  0.39779790  0.28641431  0.08970698  1
  O  O26  1  0.10220210  0.80329267  0.71358569  1
  O  O27  1  0.60220210  0.71358569  0.91029302  1
  O  O28  1  0.89779790  0.08970698  0.80329267  1
  O  O29  1  0.39779790  0.80329267  0.71358569  1
  O  O30  1  0.10220210  0.91029302  0.19670733  1
  O  O31  1  0.60220210  0.19670733  0.28641431  1
  O  O32  1  0.39779790  0.91029302  0.19670733  1
  O  O33  1  0.60220210  0.08970698  0.80329267  1
  O  O34  1  0.75000000  0.88023445  0.18137365  1
  O  O35  1  0.25000000  0.11976555  0.81862635  1
  O  O36  1  0.75000000  0.30113920  0.11976555  1
  O  O37  1  0.25000000  0.69886080  0.88023445  1
  O  O38  1  0.75000000  0.81862635  0.69886080  1
  O  O39  1  0.25000000  0.18137365  0.30113920  1
  O  O40  1  0.75000000  0.49805603  0.61728489  1
  O  O41  1  0.25000000  0.50194397  0.38271511  1
  O  O42  1  0.75000000  0.11922886  0.50194397  1
  O  O43  1  0.25000000  0.88077114  0.49805603  1
  O  O44  1  0.75000000  0.38271511  0.88077114  1
  O  O45  1  0.25000000  0.61728489  0.11922886  1
  O  O46  1  0.94166037  0.84998734  0.43848713  1
  O  O47  1  0.05833963  0.15001266  0.56151287  1
  O  O48  1  0.94166037  0.58849979  0.15001266  1
  O  O49  1  0.44166037  0.15001266  0.56151287  1
  O  O50  1  0.05833963  0.41150021  0.84998734  1
  O  O51  1  0.55833963  0.84998734  0.43848713  1
  O  O52  1  0.94166037  0.56151287  0.41150021  1
  O  O53  1  0.44166037  0.41150021  0.84998734  1
  O  O54  1  0.05833963  0.43848713  0.58849979  1
  O  O55  1  0.55833963  0.58849979  0.15001266  1
  O  O56  1  0.44166037  0.43848713  0.58849979  1
  O  O57  1  0.55833963  0.56151287  0.41150021  1
