# generated using pymatgen
data_RbSb2F7
_symmetry_space_group_name_H-M   'P 1'
_cell_length_a   6.60756430
_cell_length_b   9.07269578
_cell_length_c   13.03760213
_cell_angle_alpha   102.08300757
_cell_angle_beta   90.00000000
_cell_angle_gamma   90.00000000
_symmetry_Int_Tables_number   1
_chemical_formula_structural   RbSb2F7
_chemical_formula_sum   'Rb4 Sb8 F28'
_cell_volume   764.26795451
_cell_formula_units_Z   4
loop_
 _symmetry_equiv_pos_site_id
 _symmetry_equiv_pos_as_xyz
  1  'x, y, z'
loop_
 _atom_site_type_symbol
 _atom_site_label
 _atom_site_symmetry_multiplicity
 _atom_site_fract_x
 _atom_site_fract_y
 _atom_site_fract_z
 _atom_site_occupancy
  Rb  Rb0  1  0.76392023  0.92442494  0.11153494  1
  Rb  Rb1  1  0.73607977  0.42442494  0.11153494  1
  Rb  Rb2  1  0.26392023  0.57557506  0.88846506  1
  Rb  Rb3  1  0.23607977  0.07557506  0.88846506  1
  Sb  Sb4  1  0.23880812  0.71778053  0.21424709  1
  Sb  Sb5  1  0.73880812  0.78221947  0.78575291  1
  Sb  Sb6  1  0.76119188  0.28221947  0.78575291  1
  Sb  Sb7  1  0.26119188  0.21778053  0.21424709  1
  Sb  Sb8  1  0.29636340  0.16457848  0.58476992  1
  Sb  Sb9  1  0.20363660  0.66457848  0.58476992  1
  Sb  Sb10  1  0.70363660  0.83542152  0.41523008  1
  Sb  Sb11  1  0.79636340  0.33542152  0.41523008  1
  F  F12  1  0.57351691  0.16468987  0.50386436  1
  F  F13  1  0.61733505  0.62880982  0.35220657  1
  F  F14  1  0.20113115  0.91574834  0.17343332  1
  F  F15  1  0.11733505  0.87119018  0.64779343  1
  F  F16  1  0.95899676  0.81998595  0.89589334  1
  F  F17  1  0.55321163  0.86210364  0.90447136  1
  F  F18  1  0.54100324  0.31998595  0.89589334  1
  F  F19  1  0.92034204  0.78748415  0.28762832  1
  F  F20  1  0.44678837  0.13789636  0.09552864  1
  F  F21  1  0.94678837  0.36210364  0.90447136  1
  F  F22  1  0.38266495  0.37119018  0.64779343  1
  F  F23  1  0.57965796  0.28748415  0.28762832  1
  F  F24  1  0.04100324  0.18001405  0.10410666  1
  F  F25  1  0.92648309  0.66468987  0.50386436  1
  F  F26  1  0.46981742  0.10260662  0.69590142  1
  F  F27  1  0.05321163  0.63789636  0.09552864  1
  F  F28  1  0.45899676  0.68001405  0.10410666  1
  F  F29  1  0.70113115  0.58425166  0.82656668  1
  F  F30  1  0.96981742  0.39739338  0.30409858  1
  F  F31  1  0.79886885  0.08425166  0.82656668  1
  F  F32  1  0.53018258  0.89739338  0.30409858  1
  F  F33  1  0.03018258  0.60260662  0.69590142  1
  F  F34  1  0.88266495  0.12880982  0.35220657  1
  F  F35  1  0.42034204  0.71251585  0.71237168  1
  F  F36  1  0.42648309  0.83531013  0.49613564  1
  F  F37  1  0.29886885  0.41574834  0.17343332  1
  F  F38  1  0.07351691  0.33531013  0.49613564  1
  F  F39  1  0.07965796  0.21251585  0.71237168  1
