# generated using pymatgen
data_RbP3PbO9
_symmetry_space_group_name_H-M   'P 1'
_cell_length_a   7.33741717
_cell_length_b   14.31099671
_cell_length_c   17.37379129
_cell_angle_alpha   90.00000000
_cell_angle_beta   90.00000000
_cell_angle_gamma   103.75767902
_symmetry_Int_Tables_number   1
_chemical_formula_structural   RbP3PbO9
_chemical_formula_sum   'Rb8 P24 Pb8 O72'
_cell_volume   1772.00786611
_cell_formula_units_Z   8
loop_
 _symmetry_equiv_pos_site_id
 _symmetry_equiv_pos_as_xyz
  1  'x, y, z'
loop_
 _atom_site_type_symbol
 _atom_site_label
 _atom_site_symmetry_multiplicity
 _atom_site_fract_x
 _atom_site_fract_y
 _atom_site_fract_z
 _atom_site_occupancy
  Rb  Rb0  1  0.82991590  0.94990965  0.65987441  1
  Rb  Rb1  1  0.34682625  0.00138138  0.82827251  1
  Rb  Rb2  1  0.15317375  0.49861862  0.32827251  1
  Rb  Rb3  1  0.17008410  0.05009035  0.34012559  1
  Rb  Rb4  1  0.84682625  0.50138138  0.67172749  1
  Rb  Rb5  1  0.65317375  0.99861862  0.17172749  1
  Rb  Rb6  1  0.32991590  0.44990965  0.84012559  1
  Rb  Rb7  1  0.67008410  0.55009035  0.15987441  1
  P  P8  1  0.41419443  0.63694524  0.00860472  1
  P  P9  1  0.81330101  0.85977712  0.87503382  1
  P  P10  1  0.83954018  0.35918705  0.86487226  1
  P  P11  1  0.58580557  0.36305476  0.99139528  1
  P  P12  1  0.23305746  0.69800655  0.74746302  1
  P  P13  1  0.08580557  0.86305476  0.50860472  1
  P  P14  1  0.51124933  0.85214076  0.98894478  1
  P  P15  1  0.87305644  0.81016474  0.27723946  1
  P  P16  1  0.73305746  0.19800655  0.75253698  1
  P  P17  1  0.68669899  0.64022288  0.37503382  1
  P  P18  1  0.98875067  0.64785924  0.48894478  1
  P  P19  1  0.31330101  0.35977712  0.62496618  1
  P  P20  1  0.33954018  0.85918705  0.63512774  1
  P  P21  1  0.62694356  0.68983526  0.77723946  1
  P  P22  1  0.66045982  0.14081295  0.36487226  1
  P  P23  1  0.37305644  0.31016474  0.22276054  1
  P  P24  1  0.18669899  0.14022288  0.12496618  1
  P  P25  1  0.91419443  0.13694524  0.49139528  1
  P  P26  1  0.16045982  0.64081295  0.13512774  1
  P  P27  1  0.12694356  0.18983526  0.72276054  1
  P  P28  1  0.26694254  0.80199345  0.24746302  1
  P  P29  1  0.01124933  0.35214076  0.51105522  1
  P  P30  1  0.48875067  0.14785924  0.01105522  1
  P  P31  1  0.76694254  0.30199345  0.25253698  1
  Pb  Pb32  1  0.04198015  0.86825663  0.07635355  1
  Pb  Pb33  1  0.54198015  0.36825663  0.42364645  1
  Pb  Pb34  1  0.91266360  0.61999751  0.92755127  1
  Pb  Pb35  1  0.08733640  0.38000249  0.07244873  1
  Pb  Pb36  1  0.41266360  0.11999751  0.57244873  1
  Pb  Pb37  1  0.45801985  0.63174337  0.57635355  1
  Pb  Pb38  1  0.95801985  0.13174337  0.92364645  1
  Pb  Pb39  1  0.58733640  0.88000249  0.42755127  1
  O  O40  1  0.25937193  0.20122710  0.20314470  1
  O  O41  1  0.15413239  0.36434161  0.44830493  1
  O  O42  1  0.14833576  0.59885919  0.49066646  1
  O  O43  1  0.43485688  0.45385649  0.65181923  1
  O  O44  1  0.71027538  0.18986056  0.28092193  1
  O  O45  1  0.39101321  0.29808768  0.56953035  1
  O  O46  1  0.08623368  0.76076995  0.47119322  1
  O  O47  1  0.10552118  0.11740732  0.49114458  1
  O  O48  1  0.91345819  0.19252946  0.70082698  1
  O  O49  1  0.07213309  0.68626742  0.80171733  1
  O  O50  1  0.64833576  0.09885919  0.00933354  1
  O  O51  1  0.60898679  0.70191232  0.43046965  1
  O  O52  1  0.58654181  0.30747054  0.20082698  1
  O  O53  1  0.63078987  0.34673550  0.89944014  1
  O  O54  1  0.38165910  0.11849448  0.09401521  1
  O  O55  1  0.35040421  0.32170278  0.30756915  1
  O  O56  1  0.07243545  0.53680667  0.15189282  1
  O  O57  1  0.78972462  0.31013944  0.78092193  1
  O  O58  1  0.92756455  0.46319333  0.84810718  1
  O  O59  1  0.78078274  0.36785292  0.32109621  1
  O  O60  1  0.74062807  0.79877290  0.79685530  1
  O  O61  1  0.89447882  0.88259268  0.50885542  1
  O  O62  1  0.65413239  0.86434161  0.05169507  1
  O  O63  1  0.93485688  0.95385649  0.84818077  1
  O  O64  1  0.32845221  0.38416989  0.16908476  1
  O  O65  1  0.67154779  0.61583011  0.83091524  1
  O  O66  1  0.64959579  0.67829722  0.69243085  1
  O  O67  1  0.35166424  0.90114081  0.99066646  1
  O  O68  1  0.28078274  0.86785292  0.17890379  1
  O  O69  1  0.45190464  0.80444901  0.58709821  1
  O  O70  1  0.56514312  0.54614351  0.34818077  1
  O  O71  1  0.58623368  0.26076995  0.02880678  1
  O  O72  1  0.74733811  0.06629111  0.52476924  1
  O  O73  1  0.60552118  0.61740732  0.00885542  1
  O  O74  1  0.13078987  0.84673550  0.60055986  1
  O  O75  1  0.82845221  0.88416989  0.33091524  1
  O  O76  1  0.91376632  0.23923005  0.52880678  1
  O  O77  1  0.41345819  0.69252946  0.79917302  1
  O  O78  1  0.25266189  0.93370889  0.47523076  1
  O  O79  1  0.21027538  0.68986056  0.21907807  1
  O  O80  1  0.75937193  0.70122710  0.29685530  1
  O  O81  1  0.10898679  0.20191232  0.06953035  1
  O  O82  1  0.08654181  0.80747054  0.29917302  1
  O  O83  1  0.21921726  0.63214708  0.67890379  1
  O  O84  1  0.06514312  0.04614351  0.15181923  1
  O  O85  1  0.84586761  0.63565839  0.55169507  1
  O  O86  1  0.85166424  0.40114081  0.50933354  1
  O  O87  1  0.88165910  0.61849448  0.40598479  1
  O  O88  1  0.42786691  0.81373258  0.30171733  1
  O  O89  1  0.14959579  0.17829722  0.80756915  1
  O  O90  1  0.57243545  0.03680667  0.34810718  1
  O  O91  1  0.89101321  0.79808768  0.93046965  1
  O  O92  1  0.61834090  0.88150552  0.90598479  1
  O  O93  1  0.34586761  0.13565839  0.94830493  1
  O  O94  1  0.39447882  0.38259268  0.99114458  1
  O  O95  1  0.57213309  0.18626742  0.69828267  1
  O  O96  1  0.24733811  0.56629111  0.97523076  1
  O  O97  1  0.36921013  0.65326450  0.10055986  1
  O  O98  1  0.95190464  0.30444901  0.91290179  1
  O  O99  1  0.17154779  0.11583011  0.66908476  1
  O  O100  1  0.54809536  0.19555099  0.41290179  1
  O  O101  1  0.42756455  0.96319333  0.65189282  1
  O  O102  1  0.28972462  0.81013944  0.71907807  1
  O  O103  1  0.71921726  0.13214708  0.82109621  1
  O  O104  1  0.92786691  0.31373258  0.19828267  1
  O  O105  1  0.11834090  0.38150552  0.59401521  1
  O  O106  1  0.86921013  0.15326450  0.39944014  1
  O  O107  1  0.75266189  0.43370889  0.02476924  1
  O  O108  1  0.04809536  0.69555099  0.08709821  1
  O  O109  1  0.41376632  0.73923005  0.97119322  1
  O  O110  1  0.24062807  0.29877290  0.70314470  1
  O  O111  1  0.85040421  0.82170278  0.19243085  1
