# generated using pymatgen
data_K5In3(SiO3)7
_symmetry_space_group_name_H-M   'P 1'
_cell_length_a   10.41993442
_cell_length_b   12.69873284
_cell_length_c   17.11805503
_cell_angle_alpha   90.00000000
_cell_angle_beta   90.00000000
_cell_angle_gamma   90.00000000
_symmetry_Int_Tables_number   1
_chemical_formula_structural   K5In3(SiO3)7
_chemical_formula_sum   'K20 In12 Si28 O84'
_cell_volume   2265.06041522
_cell_formula_units_Z   4
loop_
 _symmetry_equiv_pos_site_id
 _symmetry_equiv_pos_as_xyz
  1  'x, y, z'
loop_
 _atom_site_type_symbol
 _atom_site_label
 _atom_site_symmetry_multiplicity
 _atom_site_fract_x
 _atom_site_fract_y
 _atom_site_fract_z
 _atom_site_occupancy
  K  K0  1  0.40774911  0.56807445  0.89584697  1
  K  K1  1  0.04071008  0.38610269  0.34574828  1
  K  K2  1  0.26306765  0.82411984  0.55303076  1
  K  K3  1  0.88736419  0.90617421  0.86533962  1
  K  K4  1  0.90774911  0.93192555  0.39584697  1
  K  K5  1  0.90774911  0.43192555  0.10415303  1
  K  K6  1  0.43003365  0.76188110  0.15914035  1
  K  K7  1  0.93003365  0.23811890  0.84085965  1
  K  K8  1  0.38736419  0.09382579  0.13466038  1
  K  K9  1  0.38736419  0.59382579  0.36533962  1
  K  K10  1  0.40774911  0.06807445  0.60415303  1
  K  K11  1  0.93003365  0.73811890  0.65914035  1
  K  K12  1  0.54071008  0.11389731  0.84574828  1
  K  K13  1  0.76306765  0.17588016  0.44696924  1
  K  K14  1  0.76306765  0.67588016  0.05303076  1
  K  K15  1  0.43003365  0.26188110  0.34085965  1
  K  K16  1  0.54071008  0.61389731  0.65425172  1
  K  K17  1  0.88736419  0.40617421  0.63466038  1
  K  K18  1  0.04071008  0.88610269  0.15425172  1
  K  K19  1  0.26306765  0.32411984  0.94696924  1
  In  In20  1  0.77602871  0.56752334  0.85987703  1
  In  In21  1  0.79262599  0.14115768  0.04895941  1
  In  In22  1  0.28982747  0.31208730  0.73241696  1
  In  In23  1  0.77602871  0.06752334  0.64012297  1
  In  In24  1  0.78982747  0.68791270  0.26758304  1
  In  In25  1  0.28982747  0.81208730  0.76758304  1
  In  In26  1  0.29262599  0.35884232  0.54895941  1
  In  In27  1  0.79262599  0.64115768  0.45104059  1
  In  In28  1  0.29262599  0.85884232  0.95104059  1
  In  In29  1  0.27602871  0.43247666  0.14012297  1
  In  In30  1  0.27602871  0.93247666  0.35987703  1
  In  In31  1  0.78982747  0.18791270  0.23241696  1
  Si  Si32  1  0.56588905  0.32594532  0.10680643  1
  Si  Si33  1  0.06588905  0.17405468  0.60680643  1
  Si  Si34  1  0.70258670  0.35969838  0.95783125  1
  Si  Si35  1  0.71689863  0.42820575  0.33626585  1
  Si  Si36  1  0.08804212  0.11501284  0.29292607  1
  Si  Si37  1  0.08502189  0.05285420  0.99377867  1
  Si  Si38  1  0.58804212  0.38498716  0.79292607  1
  Si  Si39  1  0.06194249  0.98035594  0.70394120  1
  Si  Si40  1  0.58502189  0.94714580  0.00622133  1
  Si  Si41  1  0.08211490  0.21400131  0.13096500  1
  Si  Si42  1  0.71689863  0.92820575  0.16373415  1
  Si  Si43  1  0.58211490  0.28599869  0.63096500  1
  Si  Si44  1  0.56588905  0.82594532  0.39319357  1
  Si  Si45  1  0.58804212  0.88498716  0.70707393  1
  Si  Si46  1  0.06194249  0.48035594  0.79605880  1
  Si  Si47  1  0.20258670  0.64030162  0.04216875  1
  Si  Si48  1  0.08804212  0.61501284  0.20707393  1
  Si  Si49  1  0.21689863  0.57179425  0.66373415  1
  Si  Si50  1  0.58502189  0.44714580  0.49377867  1
  Si  Si51  1  0.08502189  0.55285420  0.50622133  1
  Si  Si52  1  0.70258670  0.85969838  0.54216875  1
  Si  Si53  1  0.08211490  0.71400131  0.36903500  1
  Si  Si54  1  0.06588905  0.67405468  0.89319357  1
  Si  Si55  1  0.56194249  0.01964406  0.29605880  1
  Si  Si56  1  0.21689863  0.07179425  0.83626585  1
  Si  Si57  1  0.20258670  0.14030162  0.45783125  1
  Si  Si58  1  0.58211490  0.78599869  0.86903500  1
  Si  Si59  1  0.56194249  0.51964406  0.20394120  1
  O  O60  1  0.79809582  0.83685113  0.20672293  1
  O  O61  1  0.66779966  0.38396948  0.42349284  1
  O  O62  1  0.42583330  0.77726168  0.86314122  1
  O  O63  1  0.06947913  0.16291113  0.50983660  1
  O  O64  1  0.79809582  0.33685113  0.29327707  1
  O  O65  1  0.62610166  0.88862929  0.92281878  1
  O  O66  1  0.24724922  0.01763891  0.46467851  1
  O  O67  1  0.24724922  0.51763891  0.03532149  1
  O  O68  1  0.92583330  0.72273832  0.36314122  1
  O  O69  1  0.63717860  0.13131215  0.30265915  1
  O  O70  1  0.16465229  0.67260000  0.13329293  1
  O  O71  1  0.16465229  0.17260000  0.36670707  1
  O  O72  1  0.29809582  0.16314887  0.79327707  1
  O  O73  1  0.43275803  0.43445047  0.47648596  1
  O  O74  1  0.29809582  0.66314887  0.70672293  1
  O  O75  1  0.40898619  0.03822196  0.30579660  1
  O  O76  1  0.12610166  0.11137071  0.07718122  1
  O  O77  1  0.13052049  0.49200417  0.21672504  1
  O  O78  1  0.14071840  0.68848542  0.28114104  1
  O  O79  1  0.13717860  0.36868785  0.80265915  1
  O  O80  1  0.62628606  0.43919556  0.13860365  1
  O  O81  1  0.74724922  0.98236109  0.53532149  1
  O  O82  1  0.12904535  0.93106024  0.00166116  1
  O  O83  1  0.80161888  0.53574035  0.34760081  1
  O  O84  1  0.62610166  0.38862929  0.57718122  1
  O  O85  1  0.30161888  0.46425965  0.65239919  1
  O  O86  1  0.93275803  0.56554953  0.52351404  1
  O  O87  1  0.62628606  0.93919556  0.36139635  1
  O  O88  1  0.12904535  0.43106024  0.49833884  1
  O  O89  1  0.56947913  0.83708887  0.49016340  1
  O  O90  1  0.15831413  0.77162478  0.86610952  1
  O  O91  1  0.64071840  0.81151458  0.78114104  1
  O  O92  1  0.43499582  0.87255906  0.69165574  1
  O  O93  1  0.64071840  0.31151458  0.71885896  1
  O  O94  1  0.63052049  0.50799583  0.78327496  1
  O  O95  1  0.66779966  0.88396948  0.07650716  1
  O  O96  1  0.93499582  0.12744094  0.30834426  1
  O  O97  1  0.16779966  0.61603052  0.57650716  1
  O  O98  1  0.12610166  0.61137071  0.42281878  1
  O  O99  1  0.30161888  0.96425965  0.84760081  1
  O  O100  1  0.13717860  0.86868785  0.69734085  1
  O  O101  1  0.63717860  0.63131215  0.19734085  1
  O  O102  1  0.92583330  0.22273832  0.13685878  1
  O  O103  1  0.62904535  0.06893976  0.99833884  1
  O  O104  1  0.16779966  0.11603052  0.92349284  1
  O  O105  1  0.93499582  0.62744094  0.19165574  1
  O  O106  1  0.91861538  0.68942096  0.86379900  1
  O  O107  1  0.43499582  0.37255906  0.80834426  1
  O  O108  1  0.64379283  0.68050469  0.90531786  1
  O  O109  1  0.56947913  0.33708887  0.00983660  1
  O  O110  1  0.65831413  0.72837522  0.36610952  1
  O  O111  1  0.41861538  0.81057904  0.36379900  1
  O  O112  1  0.14379283  0.81949531  0.40531786  1
  O  O113  1  0.91861538  0.18942096  0.63620100  1
  O  O114  1  0.43275803  0.93445047  0.02351404  1
  O  O115  1  0.81689519  0.78123746  0.51608251  1
  O  O116  1  0.31689519  0.71876254  0.01608251  1
  O  O117  1  0.81689519  0.28123746  0.98391749  1
  O  O118  1  0.14071840  0.18848542  0.21885896  1
  O  O119  1  0.90898619  0.96177804  0.69420340  1
  O  O120  1  0.74724922  0.48236109  0.96467851  1
  O  O121  1  0.58097093  0.45979252  0.29047464  1
  O  O122  1  0.66465229  0.32740000  0.86670707  1
  O  O123  1  0.65831413  0.22837522  0.13389048  1
  O  O124  1  0.15831413  0.27162478  0.63389048  1
  O  O125  1  0.08097093  0.54020748  0.70952536  1
  O  O126  1  0.58097093  0.95979252  0.20952536  1
  O  O127  1  0.31689519  0.21876254  0.48391749  1
  O  O128  1  0.80161888  0.03574035  0.15239919  1
  O  O129  1  0.12628606  0.56080444  0.86139635  1
  O  O130  1  0.12628606  0.06080444  0.63860365  1
  O  O131  1  0.62904535  0.56893976  0.50166116  1
  O  O132  1  0.64379283  0.18050469  0.59468214  1
  O  O133  1  0.06947913  0.66291113  0.99016340  1
  O  O134  1  0.14379283  0.31949531  0.09468214  1
  O  O135  1  0.42583330  0.27726168  0.63685878  1
  O  O136  1  0.13052049  0.99200417  0.28327496  1
  O  O137  1  0.08097093  0.04020748  0.79047464  1
  O  O138  1  0.63052049  0.00799583  0.71672504  1
  O  O139  1  0.40898619  0.53822196  0.19420340  1
  O  O140  1  0.93275803  0.06554953  0.97648596  1
  O  O141  1  0.41861538  0.31057904  0.13620100  1
  O  O142  1  0.66465229  0.82740000  0.63329293  1
  O  O143  1  0.90898619  0.46177804  0.80579660  1
