# generated using pymatgen
data_K4Nb11Al2O20F
_symmetry_space_group_name_H-M   'P 1'
_cell_length_a   8.90774178
_cell_length_b   8.90774177
_cell_length_c   8.99270425
_cell_angle_alpha   119.68795567
_cell_angle_beta   119.68795565
_cell_angle_gamma   90.00000067
_symmetry_Int_Tables_number   1
_chemical_formula_structural   K4Nb11Al2O20F
_chemical_formula_sum   'K4 Nb11 Al2 O20 F1'
_cell_volume   509.27974203
_cell_formula_units_Z   1
loop_
 _symmetry_equiv_pos_site_id
 _symmetry_equiv_pos_as_xyz
  1  'x, y, z'
loop_
 _atom_site_type_symbol
 _atom_site_label
 _atom_site_symmetry_multiplicity
 _atom_site_fract_x
 _atom_site_fract_y
 _atom_site_fract_z
 _atom_site_occupancy
  K  K0  1  0.50000000  0.80750425  0.00000000  1
  K  K1  1  0.19249575  0.50000000  1.00000000  1
  K  K2  1  0.80750425  0.50000000  0.00000000  1
  K  K3  1  0.50000000  0.19249575  1.00000000  1
  Nb  Nb4  1  0.67606307  0.99895510  0.67501817  1
  Nb  Nb5  1  0.99895510  0.67606307  0.67501817  1
  Nb  Nb6  1  0.67606307  0.67606307  0.67501817  1
  Nb  Nb7  1  0.00104490  0.00104490  0.32498183  1
  Nb  Nb8  1  0.99895510  0.99895510  0.67501817  1
  Nb  Nb9  1  0.32393693  0.32393693  0.32498183  1
  Nb  Nb10  1  0.00104490  0.32393693  0.32498183  1
  Nb  Nb11  1  0.00000000  0.00000000  0.00000000  1
  Nb  Nb12  1  0.68473740  0.68473740  0.36947480  1
  Nb  Nb13  1  0.31526260  0.31526260  0.63052520  1
  Nb  Nb14  1  0.32393693  0.00104490  0.32498183  1
  Al  Al15  1  0.25000000  0.75000000  0.50000000  1
  Al  Al16  1  0.75000000  0.25000000  0.50000000  1
  O  O17  1  0.49058024  0.15987320  0.65045344  1
  O  O18  1  0.50941976  0.84012680  0.34954656  1
  O  O19  1  0.82714971  0.16627984  0.33255968  1
  O  O20  1  0.50540997  0.16627984  0.33255968  1
  O  O21  1  0.15987320  0.15987320  0.65045344  1
  O  O22  1  0.50941976  0.50941976  0.34954656  1
  O  O23  1  0.83032860  0.83032860  1.00000000  1
  O  O24  1  0.83032860  0.16967140  0.00000000  1
  O  O25  1  0.84012680  0.50941976  0.34954656  1
  O  O26  1  0.16967140  0.83032860  1.00000000  1
  O  O27  1  0.15987320  0.49058024  0.65045344  1
  O  O28  1  0.16967140  0.16967140  0.00000000  1
  O  O29  1  0.49459003  0.83372016  0.66744032  1
  O  O30  1  0.49058024  0.49058024  0.65045344  1
  O  O31  1  0.84012680  0.84012680  0.34954656  1
  O  O32  1  0.16627984  0.50540997  0.33255968  1
  O  O33  1  0.17285029  0.83372016  0.66744032  1
  O  O34  1  0.16627984  0.82714971  0.33255968  1
  O  O35  1  0.83372016  0.49459003  0.66744032  1
  O  O36  1  0.83372016  0.17285029  0.66744032  1
  F  F37  1  0.50000000  0.50000000  0.00000000  1
