# generated using pymatgen
data_K2Ti(Si2O5)3
_symmetry_space_group_name_H-M   'P 1'
_cell_length_a   7.01249267
_cell_length_b   7.76321087
_cell_length_c   12.94598259
_cell_angle_alpha   90.00000000
_cell_angle_beta   90.00000000
_cell_angle_gamma   106.18050114
_symmetry_Int_Tables_number   1
_chemical_formula_structural   K2Ti(Si2O5)3
_chemical_formula_sum   'K4 Ti2 Si12 O30'
_cell_volume   676.85525798
_cell_formula_units_Z   2
loop_
 _symmetry_equiv_pos_site_id
 _symmetry_equiv_pos_as_xyz
  1  'x, y, z'
loop_
 _atom_site_type_symbol
 _atom_site_label
 _atom_site_symmetry_multiplicity
 _atom_site_fract_x
 _atom_site_fract_y
 _atom_site_fract_z
 _atom_site_occupancy
  K  K0  1  0.80041381  0.84921031  0.89115441  1
  K  K1  1  0.80958982  0.57943172  0.59448777  1
  K  K2  1  0.19041018  0.42056828  0.09448777  1
  K  K3  1  0.19958619  0.15078969  0.39115441  1
  Ti  Ti4  1  0.24402977  0.75102541  0.75064097  1
  Ti  Ti5  1  0.75597023  0.24897459  0.25064097  1
  Si  Si6  1  0.30646346  0.93086332  0.99401953  1
  Si  Si7  1  0.44870871  0.44259519  0.83340692  1
  Si  Si8  1  0.55129129  0.55740481  0.33340692  1
  Si  Si9  1  0.69353654  0.06913668  0.49401953  1
  Si  Si10  1  0.32903364  0.70854822  0.49027565  1
  Si  Si11  1  0.54560032  0.83634699  0.16557224  1
  Si  Si12  1  0.01331016  0.04392309  0.65784466  1
  Si  Si13  1  0.67096636  0.29145178  0.99027565  1
  Si  Si14  1  0.99214167  0.66843046  0.32181573  1
  Si  Si15  1  0.00785833  0.33156954  0.82181573  1
  Si  Si16  1  0.45439968  0.16365301  0.66557224  1
  Si  Si17  1  0.98668984  0.95607691  0.15784466  1
  O  O18  1  0.46487467  0.65948739  0.24029929  1
  O  O19  1  0.79282712  0.17134893  0.39188120  1
  O  O20  1  0.43853963  0.97545947  0.72154185  1
  O  O21  1  0.97416772  0.47449250  0.27341873  1
  O  O22  1  0.50093814  0.89811060  0.47187752  1
  O  O23  1  0.02323377  0.85689099  0.70763412  1
  O  O24  1  0.49906186  0.10188940  0.97187752  1
  O  O25  1  0.54913402  0.35735867  0.29984796  1
  O  O26  1  0.61318962  0.20774867  0.56865049  1
  O  O27  1  0.20717288  0.82865107  0.89188120  1
  O  O28  1  0.45086598  0.64264133  0.79984796  1
  O  O29  1  0.38681038  0.79225133  0.06865049  1
  O  O30  1  0.58890452  0.45178705  0.93703358  1
  O  O31  1  0.22560948  0.31985811  0.86552567  1
  O  O32  1  0.97676623  0.14310901  0.20763412  1
  O  O33  1  0.53512533  0.34051261  0.74029929  1
  O  O34  1  0.13356994  0.72210633  0.42430143  1
  O  O35  1  0.92629592  0.16456837  0.74011415  1
  O  O36  1  0.56146037  0.02454053  0.22154185  1
  O  O37  1  0.86643006  0.27789367  0.92430143  1
  O  O38  1  0.77439052  0.68014189  0.36552567  1
  O  O39  1  0.41109548  0.54821295  0.43703358  1
  O  O40  1  0.07370408  0.83543163  0.24011415  1
  O  O41  1  0.02583228  0.52550750  0.77341873  1
  O  O42  1  0.26712679  0.66703395  0.60843493  1
  O  O43  1  0.73287321  0.33296605  0.10843493  1
  O  O44  1  0.23470815  0.16304170  0.61704583  1
  O  O45  1  0.76529185  0.83695830  0.11704583  1
  O  O46  1  0.13526286  0.99759073  0.05727536  1
  O  O47  1  0.86473714  0.00240927  0.55727536  1
