# generated using pymatgen
data_Sr2GeO4
_symmetry_space_group_name_H-M   'P 1'
_cell_length_a   5.95225495
_cell_length_b   10.04933231
_cell_length_c   14.47679875
_cell_angle_alpha   90.00000000
_cell_angle_beta   90.00000000
_cell_angle_gamma   90.00000000
_symmetry_Int_Tables_number   1
_chemical_formula_structural   Sr2GeO4
_chemical_formula_sum   'Sr16 Ge8 O32'
_cell_volume   865.94691547
_cell_formula_units_Z   8
loop_
 _symmetry_equiv_pos_site_id
 _symmetry_equiv_pos_as_xyz
  1  'x, y, z'
loop_
 _atom_site_type_symbol
 _atom_site_label
 _atom_site_symmetry_multiplicity
 _atom_site_fract_x
 _atom_site_fract_y
 _atom_site_fract_z
 _atom_site_occupancy
  Sr  Sr0  1  0.78915925  0.42819658  0.29634176  1
  Sr  Sr1  1  0.71084075  0.42819658  0.79634176  1
  Sr  Sr2  1  0.79356357  0.70248468  0.12051530  1
  Sr  Sr3  1  0.72179956  0.06903986  0.54316341  1
  Sr  Sr4  1  0.20643643  0.20248468  0.87948470  1
  Sr  Sr5  1  0.70643643  0.70248468  0.62051530  1
  Sr  Sr6  1  0.27820044  0.56903986  0.45683659  1
  Sr  Sr7  1  0.22839169  0.29740501  0.62870610  1
  Sr  Sr8  1  0.27160831  0.29740501  0.12870610  1
  Sr  Sr9  1  0.72839169  0.79740501  0.87129390  1
  Sr  Sr10  1  0.28915925  0.92819658  0.20365824  1
  Sr  Sr11  1  0.77820044  0.06903986  0.04316341  1
  Sr  Sr12  1  0.21084075  0.92819658  0.70365824  1
  Sr  Sr13  1  0.29356357  0.20248468  0.37948470  1
  Sr  Sr14  1  0.77160831  0.79740501  0.37129390  1
  Sr  Sr15  1  0.22179956  0.56903986  0.95683659  1
  Ge  Ge16  1  0.72053445  0.08421132  0.76404217  1
  Ge  Ge17  1  0.72834515  0.41545939  0.02107247  1
  Ge  Ge18  1  0.77946555  0.08421132  0.26404217  1
  Ge  Ge19  1  0.22834515  0.91545939  0.47892753  1
  Ge  Ge20  1  0.77165485  0.41545939  0.52107247  1
  Ge  Ge21  1  0.27946555  0.58421132  0.23595783  1
  Ge  Ge22  1  0.27165485  0.91545939  0.97892753  1
  Ge  Ge23  1  0.22053445  0.58421132  0.73595783  1
  O  O24  1  0.28787678  0.06449343  0.54251718  1
  O  O25  1  0.17137765  0.95592004  0.36318972  1
  O  O26  1  0.04568268  0.80353090  0.99503921  1
  O  O27  1  0.53135369  0.13809353  0.20382942  1
  O  O28  1  0.97716956  0.84772259  0.52896643  1
  O  O29  1  0.01023493  0.70903653  0.74715056  1
  O  O30  1  0.64277767  0.93590021  0.70146566  1
  O  O31  1  0.48976507  0.70903653  0.24715056  1
  O  O32  1  0.98976507  0.20903653  0.25284944  1
  O  O33  1  0.54568268  0.30353090  0.50496079  1
  O  O34  1  0.02283044  0.34772259  0.47103357  1
  O  O35  1  0.46864631  0.63809353  0.79617058  1
  O  O36  1  0.68128652  0.05020593  0.37653108  1
  O  O37  1  0.96864631  0.13809353  0.70382942  1
  O  O38  1  0.45431732  0.80353090  0.49503921  1
  O  O39  1  0.81871348  0.05020593  0.87653108  1
  O  O40  1  0.03135369  0.63809353  0.29617058  1
  O  O41  1  0.18128652  0.55020593  0.12346892  1
  O  O42  1  0.52283044  0.84772259  0.02896643  1
  O  O43  1  0.47716956  0.34772259  0.97103357  1
  O  O44  1  0.82862235  0.45592004  0.63681028  1
  O  O45  1  0.35722233  0.43590021  0.29853434  1
  O  O46  1  0.85722233  0.93590021  0.20146566  1
  O  O47  1  0.21212322  0.06449343  0.04251718  1
  O  O48  1  0.71212322  0.56449343  0.45748282  1
  O  O49  1  0.95431732  0.30353090  0.00496079  1
  O  O50  1  0.31871348  0.55020593  0.62346892  1
  O  O51  1  0.51023493  0.20903653  0.75284944  1
  O  O52  1  0.67137765  0.45592004  0.13681028  1
  O  O53  1  0.14277767  0.43590021  0.79853434  1
  O  O54  1  0.32862235  0.95592004  0.86318972  1
  O  O55  1  0.78787678  0.56449343  0.95748282  1
