# generated using pymatgen
data_Na2InNiF7
_symmetry_space_group_name_H-M   'P 1'
_cell_length_a   7.42913350
_cell_length_b   7.59947627
_cell_length_c   10.42856330
_cell_angle_alpha   90.00000000
_cell_angle_beta   90.00000000
_cell_angle_gamma   90.00000000
_symmetry_Int_Tables_number   1
_chemical_formula_structural   Na2InNiF7
_chemical_formula_sum   'Na8 In4 Ni4 F28'
_cell_volume   588.77086008
_cell_formula_units_Z   4
loop_
 _symmetry_equiv_pos_site_id
 _symmetry_equiv_pos_as_xyz
  1  'x, y, z'
loop_
 _atom_site_type_symbol
 _atom_site_label
 _atom_site_symmetry_multiplicity
 _atom_site_fract_x
 _atom_site_fract_y
 _atom_site_fract_z
 _atom_site_occupancy
  Na  Na0  1  0.00000000  0.50000000  0.00000000  1
  Na  Na1  1  0.50000000  0.50000000  0.00000000  1
  Na  Na2  1  0.00000000  0.00000000  0.50000000  1
  Na  Na3  1  0.50000000  0.00000000  0.50000000  1
  Na  Na4  1  0.25000000  0.24722343  0.76876341  1
  Na  Na5  1  0.25000000  0.25277657  0.26876341  1
  Na  Na6  1  0.75000000  0.74722343  0.73123659  1
  Na  Na7  1  0.75000000  0.75277657  0.23123659  1
  In  In8  1  0.25000000  0.77244193  0.76801771  1
  In  In9  1  0.75000000  0.22755807  0.23198229  1
  In  In10  1  0.75000000  0.27244193  0.73198229  1
  In  In11  1  0.25000000  0.72755807  0.26801771  1
  Ni  Ni12  1  0.50000000  0.50000000  0.50000000  1
  Ni  Ni13  1  0.50000000  0.00000000  0.00000000  1
  Ni  Ni14  1  0.00000000  0.50000000  0.50000000  1
  Ni  Ni15  1  0.00000000  0.00000000  0.00000000  1
  F  F16  1  0.49479050  0.30323017  0.63125666  1
  F  F17  1  0.99479050  0.69676983  0.36874334  1
  F  F18  1  0.50520950  0.80323017  0.86874334  1
  F  F19  1  0.00520950  0.19676983  0.13125666  1
  F  F20  1  0.50520950  0.69676983  0.36874334  1
  F  F21  1  0.00520950  0.30323017  0.63125666  1
  F  F22  1  0.49479050  0.19676983  0.13125666  1
  F  F23  1  0.99479050  0.80323017  0.86874334  1
  F  F24  1  0.44840593  0.69229891  0.62875863  1
  F  F25  1  0.94840593  0.30770109  0.37124137  1
  F  F26  1  0.55159407  0.19229891  0.87124137  1
  F  F27  1  0.05159407  0.80770109  0.12875863  1
  F  F28  1  0.55159407  0.30770109  0.37124137  1
  F  F29  1  0.05159407  0.69229891  0.62875863  1
  F  F30  1  0.44840593  0.80770109  0.12875863  1
  F  F31  1  0.94840593  0.19229891  0.87124137  1
  F  F32  1  0.25000000  0.01718485  0.93058949  1
  F  F33  1  0.75000000  0.98281515  0.06941051  1
  F  F34  1  0.75000000  0.51718485  0.56941051  1
  F  F35  1  0.25000000  0.48281515  0.43058949  1
  F  F36  1  0.25000000  0.99715899  0.65321507  1
  F  F37  1  0.75000000  0.00284101  0.34678493  1
  F  F38  1  0.75000000  0.49715899  0.84678493  1
  F  F39  1  0.25000000  0.50284101  0.15321507  1
  F  F40  1  0.25000000  0.52453380  0.85988775  1
  F  F41  1  0.75000000  0.47546620  0.14011225  1
  F  F42  1  0.75000000  0.02453380  0.64011225  1
  F  F43  1  0.25000000  0.97546620  0.35988775  1
