# generated using pymatgen
data_KLi4AlO4
_symmetry_space_group_name_H-M   'P 1'
_cell_length_a   5.60137217
_cell_length_b   10.66406231
_cell_length_c   15.59877449
_cell_angle_alpha   90.00000000
_cell_angle_beta   90.00000000
_cell_angle_gamma   100.03632890
_symmetry_Int_Tables_number   1
_chemical_formula_structural   KLi4AlO4
_chemical_formula_sum   'K8 Li32 Al8 O32'
_cell_volume   917.50913563
_cell_formula_units_Z   8
loop_
 _symmetry_equiv_pos_site_id
 _symmetry_equiv_pos_as_xyz
  1  'x, y, z'
loop_
 _atom_site_type_symbol
 _atom_site_label
 _atom_site_symmetry_multiplicity
 _atom_site_fract_x
 _atom_site_fract_y
 _atom_site_fract_z
 _atom_site_occupancy
  K  K0  1  0.36566872  0.77165845  0.79712778  1
  K  K1  1  0.63433128  0.22834155  0.20287222  1
  K  K2  1  0.61729479  0.66627047  0.42807066  1
  K  K3  1  0.88270521  0.83372953  0.92807066  1
  K  K4  1  0.38270521  0.33372953  0.57192934  1
  K  K5  1  0.11729479  0.16627047  0.07192934  1
  K  K6  1  0.86566872  0.27165845  0.70287222  1
  K  K7  1  0.13433128  0.72834155  0.29712778  1
  Li  Li8  1  0.48191541  0.54249954  0.92247873  1
  Li  Li9  1  0.68227167  0.77031292  0.62276694  1
  Li  Li10  1  0.29750835  0.62797277  0.62039178  1
  Li  Li11  1  0.70249165  0.37202723  0.37960822  1
  Li  Li12  1  0.41255970  0.62779416  0.16154213  1
  Li  Li13  1  0.52227252  0.99234112  0.34668005  1
  Li  Li14  1  0.01808459  0.95750046  0.42247873  1
  Li  Li15  1  0.11228901  0.42309261  0.98012841  1
  Li  Li16  1  0.02227252  0.49234112  0.15331995  1
  Li  Li17  1  0.20249165  0.87202723  0.12039178  1
  Li  Li18  1  0.11755715  0.47766700  0.43290911  1
  Li  Li19  1  0.13215273  0.02357616  0.23855857  1
  Li  Li20  1  0.98191541  0.04249954  0.57752127  1
  Li  Li21  1  0.38771099  0.07690739  0.48012841  1
  Li  Li22  1  0.47772748  0.00765888  0.65331995  1
  Li  Li23  1  0.88244285  0.52233300  0.56709089  1
  Li  Li24  1  0.08744030  0.87220584  0.66154213  1
  Li  Li25  1  0.97772748  0.50765888  0.84668005  1
  Li  Li26  1  0.91255970  0.12779416  0.33845787  1
  Li  Li27  1  0.61755715  0.97766700  0.06709089  1
  Li  Li28  1  0.58744030  0.37220584  0.83845787  1
  Li  Li29  1  0.31772833  0.22968708  0.37723306  1
  Li  Li30  1  0.81772833  0.72968708  0.12276694  1
  Li  Li31  1  0.63215273  0.52357616  0.26144143  1
  Li  Li32  1  0.61228901  0.92309261  0.51987159  1
  Li  Li33  1  0.86784727  0.97642384  0.76144143  1
  Li  Li34  1  0.88771099  0.57690739  0.01987159  1
  Li  Li35  1  0.79750835  0.12797277  0.87960822  1
  Li  Li36  1  0.36784727  0.47642384  0.73855857  1
  Li  Li37  1  0.18227167  0.27031292  0.87723306  1
  Li  Li38  1  0.51808459  0.45750046  0.07752127  1
  Li  Li39  1  0.38244285  0.02233300  0.93290911  1
  Al  Al40  1  0.80717943  0.61887286  0.72648912  1
  Al  Al41  1  0.68038990  0.29685553  0.98373027  1
  Al  Al42  1  0.31961010  0.70314447  0.01626973  1
  Al  Al43  1  0.81961010  0.20314447  0.48373027  1
  Al  Al44  1  0.69282057  0.88112714  0.22648912  1
  Al  Al45  1  0.19282057  0.38112714  0.27351088  1
  Al  Al46  1  0.18038990  0.79685553  0.51626973  1
  Al  Al47  1  0.30717943  0.11887286  0.77351088  1
  O  O48  1  0.37438480  0.82495902  0.60912198  1
  O  O49  1  0.11477437  0.07763933  0.86563039  1
  O  O50  1  0.92299185  0.44917329  0.28492222  1
  O  O51  1  0.85294626  0.95102969  0.31777183  1
  O  O52  1  0.38522563  0.42236067  0.36563039  1
  O  O53  1  0.85402535  0.78884161  0.73701042  1
  O  O54  1  0.88522563  0.92236067  0.13436961  1
  O  O55  1  0.07700815  0.55082671  0.71507778  1
  O  O56  1  0.36755607  0.86785807  0.99704039  1
  O  O57  1  0.14597465  0.21115839  0.26298958  1
  O  O58  1  0.12561520  0.67504098  0.10912198  1
  O  O59  1  0.35402535  0.28884161  0.76298958  1
  O  O60  1  0.86755607  0.36785807  0.50295961  1
  O  O61  1  0.63244393  0.13214193  0.00295961  1
  O  O62  1  0.16135600  0.60204395  0.93626985  1
  O  O63  1  0.62561520  0.17504098  0.39087802  1
  O  O64  1  0.09035237  0.13993161  0.46388311  1
  O  O65  1  0.57700815  0.05082671  0.78492222  1
  O  O66  1  0.35294626  0.45102969  0.18222817  1
  O  O67  1  0.64705374  0.54897031  0.81777183  1
  O  O68  1  0.33864400  0.89795605  0.43626985  1
  O  O69  1  0.87438480  0.32495902  0.89087802  1
  O  O70  1  0.61477437  0.57763933  0.63436961  1
  O  O71  1  0.13244393  0.63214193  0.49704039  1
  O  O72  1  0.59035237  0.63993161  0.03611689  1
  O  O73  1  0.66135600  0.10204395  0.56373015  1
  O  O74  1  0.83864400  0.39795605  0.06373015  1
  O  O75  1  0.14705374  0.04897031  0.68222817  1
  O  O76  1  0.42299185  0.94917329  0.21507778  1
  O  O77  1  0.64597465  0.71115839  0.23701042  1
  O  O78  1  0.90964763  0.86006839  0.53611689  1
  O  O79  1  0.40964763  0.36006839  0.96388311  1
