# generated using pymatgen
data_Li2CdSiO4
_symmetry_space_group_name_H-M   'P 1'
_cell_length_a   5.20015820
_cell_length_b   6.53565085
_cell_length_c   10.91827780
_cell_angle_alpha   90.00000000
_cell_angle_beta   90.00000000
_cell_angle_gamma   90.00000000
_symmetry_Int_Tables_number   1
_chemical_formula_structural   Li2CdSiO4
_chemical_formula_sum   'Li8 Cd4 Si4 O16'
_cell_volume   371.07315708
_cell_formula_units_Z   4
loop_
 _symmetry_equiv_pos_site_id
 _symmetry_equiv_pos_as_xyz
  1  'x, y, z'
loop_
 _atom_site_type_symbol
 _atom_site_label
 _atom_site_symmetry_multiplicity
 _atom_site_fract_x
 _atom_site_fract_y
 _atom_site_fract_z
 _atom_site_occupancy
  Li  Li0  1  0.82802916  0.00100339  0.41097870  1
  Li  Li1  1  0.32802916  0.99899661  0.08902130  1
  Li  Li2  1  0.17197084  0.50100339  0.58902130  1
  Li  Li3  1  0.32802916  0.50100339  0.08902130  1
  Li  Li4  1  0.17197084  0.99899661  0.58902130  1
  Li  Li5  1  0.82802916  0.49899661  0.41097870  1
  Li  Li6  1  0.67197084  0.00100339  0.91097870  1
  Li  Li7  1  0.67197084  0.49899661  0.91097870  1
  Cd  Cd8  1  0.67228186  0.75000000  0.66374218  1
  Cd  Cd9  1  0.17228186  0.25000000  0.83625782  1
  Cd  Cd10  1  0.82771814  0.75000000  0.16374218  1
  Cd  Cd11  1  0.32771814  0.25000000  0.33625782  1
  Si  Si12  1  0.66690577  0.25000000  0.65706968  1
  Si  Si13  1  0.16690577  0.75000000  0.84293032  1
  Si  Si14  1  0.83309423  0.25000000  0.15706968  1
  Si  Si15  1  0.33309423  0.75000000  0.34293032  1
  O  O16  1  0.78996178  0.04692690  0.58825713  1
  O  O17  1  0.71003822  0.45307310  0.08825713  1
  O  O18  1  0.15041908  0.25000000  0.14629604  1
  O  O19  1  0.74391676  0.25000000  0.80541874  1
  O  O20  1  0.21003822  0.54692690  0.41174287  1
  O  O21  1  0.28996178  0.95307310  0.91174287  1
  O  O22  1  0.24391676  0.75000000  0.69458126  1
  O  O23  1  0.84958092  0.75000000  0.85370396  1
  O  O24  1  0.78996178  0.45307310  0.58825713  1
  O  O25  1  0.25608324  0.75000000  0.19458126  1
  O  O26  1  0.34958092  0.25000000  0.64629604  1
  O  O27  1  0.21003822  0.95307310  0.41174287  1
  O  O28  1  0.75608324  0.25000000  0.30541874  1
  O  O29  1  0.28996178  0.54692690  0.91174287  1
  O  O30  1  0.71003822  0.04692690  0.08825713  1
  O  O31  1  0.65041908  0.75000000  0.35370396  1
