# generated using pymatgen
data_Ag8Hg(AsO5)2
_symmetry_space_group_name_H-M   'P 1'
_cell_length_a   6.10923459
_cell_length_b   6.10923459
_cell_length_c   22.16307884
_cell_angle_alpha   90.00000000
_cell_angle_beta   90.00000000
_cell_angle_gamma   120.00000115
_symmetry_Int_Tables_number   1
_chemical_formula_structural   Ag8Hg(AsO5)2
_chemical_formula_sum   'Ag16 Hg2 As4 O20'
_cell_volume   716.36493817
_cell_formula_units_Z   2
loop_
 _symmetry_equiv_pos_site_id
 _symmetry_equiv_pos_as_xyz
  1  'x, y, z'
loop_
 _atom_site_type_symbol
 _atom_site_label
 _atom_site_symmetry_multiplicity
 _atom_site_fract_x
 _atom_site_fract_y
 _atom_site_fract_z
 _atom_site_occupancy
  Ag  Ag0  1  0.62501901  0.65110942  0.80403930  1
  Ag  Ag1  1  0.02609040  0.37498099  0.80403930  1
  Ag  Ag2  1  0.97390960  0.34889058  0.30403930  1
  Ag  Ag3  1  0.34889058  0.97390960  0.80403930  1
  Ag  Ag4  1  0.65110942  0.62501901  0.30403930  1
  Ag  Ag5  1  0.37498099  0.02609040  0.30403930  1
  Ag  Ag6  1  0.66666700  0.33333300  0.95177855  1
  Ag  Ag7  1  0.33333300  0.66666700  0.45177855  1
  Ag  Ag8  1  0.66666700  0.33333300  0.20785630  1
  Ag  Ag9  1  0.33333300  0.66666700  0.70785630  1
  Ag  Ag10  1  0.63905883  0.95928814  0.54975486  1
  Ag  Ag11  1  0.32022931  0.36094117  0.54975486  1
  Ag  Ag12  1  0.67977069  0.04071186  0.04975486  1
  Ag  Ag13  1  0.04071186  0.67977069  0.54975486  1
  Ag  Ag14  1  0.95928814  0.63905883  0.04975486  1
  Ag  Ag15  1  0.36094117  0.32022931  0.04975486  1
  Hg  Hg16  1  0.66666700  0.33333300  0.66696357  1
  Hg  Hg17  1  0.33333300  0.66666700  0.16696357  1
  As  As18  1  -0.00000000  -0.00000000  0.92029969  1
  As  As19  1  -0.00000000  -0.00000000  0.42029969  1
  As  As20  1  -0.00000000  -0.00000000  0.67690275  1
  As  As21  1  -0.00000000  -0.00000000  0.17690275  1
  O  O22  1  0.69311915  0.85152211  0.64914429  1
  O  O23  1  0.15840296  0.30688085  0.64914429  1
  O  O24  1  0.84159704  0.14847789  0.14914429  1
  O  O25  1  0.14847789  0.84159704  0.64914429  1
  O  O26  1  0.85152211  0.69311915  0.14914429  1
  O  O27  1  0.30688085  0.15840296  0.14914429  1
  O  O28  1  0.66666700  0.33333300  0.57225365  1
  O  O29  1  0.33333300  0.66666700  0.07225365  1
  O  O30  1  -0.00000000  -0.00000000  0.75518577  1
  O  O31  1  -0.00000000  -0.00000000  0.25518577  1
  O  O32  1  -0.00000000  -0.00000000  0.99973174  1
  O  O33  1  -0.00000000  -0.00000000  0.49973174  1
  O  O34  1  0.86460806  0.17105377  0.89457817  1
  O  O35  1  0.30644571  0.13539194  0.89457817  1
  O  O36  1  0.69355429  0.82894623  0.39457817  1
  O  O37  1  0.82894623  0.69355429  0.89457817  1
  O  O38  1  0.17105377  0.86460806  0.39457817  1
  O  O39  1  0.13539194  0.30644571  0.39457817  1
  O  O40  1  0.66666700  0.33333300  0.76055813  1
  O  O41  1  0.33333300  0.66666700  0.26055813  1
