# generated using pymatgen
data_TiP2Cl8O3
_symmetry_space_group_name_H-M   'P 1'
_cell_length_a   9.03420734
_cell_length_b   10.65722247
_cell_length_c   16.01733338
_cell_angle_alpha   90.00000000
_cell_angle_beta   90.00000000
_cell_angle_gamma   98.23585468
_symmetry_Int_Tables_number   1
_chemical_formula_structural   TiP2Cl8O3
_chemical_formula_sum   'Ti4 P8 Cl32 O12'
_cell_volume   1526.23732485
_cell_formula_units_Z   4
loop_
 _symmetry_equiv_pos_site_id
 _symmetry_equiv_pos_as_xyz
  1  'x, y, z'
loop_
 _atom_site_type_symbol
 _atom_site_label
 _atom_site_symmetry_multiplicity
 _atom_site_fract_x
 _atom_site_fract_y
 _atom_site_fract_z
 _atom_site_occupancy
  Ti  Ti0  1  0.42527104  0.63578537  0.36691221  1
  Ti  Ti1  1  0.92527104  0.13578537  0.13308779  1
  Ti  Ti2  1  0.57472896  0.36421463  0.63308779  1
  Ti  Ti3  1  0.07472896  0.86421463  0.86691221  1
  P  P4  1  0.20393534  0.21620731  0.57018787  1
  P  P5  1  0.39908095  0.62050411  0.58262298  1
  P  P6  1  0.79606466  0.78379269  0.42981213  1
  P  P7  1  0.89908095  0.12050411  0.91737702  1
  P  P8  1  0.10091905  0.87949589  0.08262298  1
  P  P9  1  0.70393534  0.71620731  0.92981213  1
  P  P10  1  0.29606466  0.28379269  0.07018787  1
  P  P11  1  0.60091905  0.37949589  0.41737702  1
  Cl  Cl12  1  0.02374753  0.69960049  0.11483050  1
  Cl  Cl13  1  0.70363908  0.08356128  0.85614989  1
  Cl  Cl14  1  0.96100817  0.84516055  0.74153823  1
  Cl  Cl15  1  0.41249164  0.30136500  0.17535480  1
  Cl  Cl16  1  0.88156765  0.33920382  0.12619717  1
  Cl  Cl17  1  0.61843235  0.16079618  0.62619717  1
  Cl  Cl18  1  0.72168034  0.54024651  0.96585492  1
  Cl  Cl19  1  0.47625247  0.80039951  0.61483050  1
  Cl  Cl20  1  0.52374753  0.19960049  0.38516950  1
  Cl  Cl21  1  0.22168034  0.04024651  0.53414508  1
  Cl  Cl22  1  0.70009906  0.04995305  0.17776124  1
  Cl  Cl23  1  0.08750836  0.19863500  0.67535480  1
  Cl  Cl24  1  0.11843235  0.66079618  0.87380283  1
  Cl  Cl25  1  0.92685513  0.71762921  0.51401062  1
  Cl  Cl26  1  0.42685513  0.21762921  0.98598938  1
  Cl  Cl27  1  0.97625247  0.30039951  0.88516950  1
  Cl  Cl28  1  0.29990094  0.95004695  0.82223876  1
  Cl  Cl29  1  0.91249164  0.80136500  0.32464520  1
  Cl  Cl30  1  0.57314487  0.78237079  0.01401062  1
  Cl  Cl31  1  0.03899183  0.15483945  0.25846177  1
  Cl  Cl32  1  0.79636092  0.41643872  0.35614989  1
  Cl  Cl33  1  0.53899183  0.65483945  0.24153823  1
  Cl  Cl34  1  0.07314487  0.28237079  0.48598938  1
  Cl  Cl35  1  0.46100817  0.34516055  0.75846177  1
  Cl  Cl36  1  0.20009906  0.54995305  0.32223876  1
  Cl  Cl37  1  0.58750836  0.69863500  0.82464520  1
  Cl  Cl38  1  0.77831966  0.95975349  0.46585492  1
  Cl  Cl39  1  0.27831966  0.45975349  0.03414508  1
  Cl  Cl40  1  0.79990094  0.45004695  0.67776124  1
  Cl  Cl41  1  0.29636092  0.91643872  0.14385011  1
  Cl  Cl42  1  0.38156765  0.83920382  0.37380283  1
  Cl  Cl43  1  0.20363908  0.58356128  0.64385011  1
  O  O44  1  0.85042575  0.79877924  0.92313022  1
  O  O45  1  0.50660994  0.53784420  0.61727737  1
  O  O46  1  0.13377551  0.88605771  0.99043145  1
  O  O47  1  0.00660994  0.03784420  0.88272263  1
  O  O48  1  0.49339006  0.46215580  0.38272263  1
  O  O49  1  0.64957425  0.70122076  0.42313022  1
  O  O50  1  0.99339006  0.96215580  0.11727737  1
  O  O51  1  0.14957425  0.20122076  0.07686978  1
  O  O52  1  0.35042575  0.29877924  0.57686978  1
  O  O53  1  0.63377551  0.38605771  0.50956855  1
  O  O54  1  0.86622449  0.11394229  0.00956855  1
  O  O55  1  0.36622449  0.61394229  0.49043145  1
