# generated using pymatgen
data_Rb2Ce(NO3)6
_symmetry_space_group_name_H-M   'P 1'
_cell_length_a   7.01161808
_cell_length_b   8.46719929
_cell_length_c   13.43091270
_cell_angle_alpha   91.55058460
_cell_angle_beta   90.00000000
_cell_angle_gamma   90.00000000
_symmetry_Int_Tables_number   1
_chemical_formula_structural   Rb2Ce(NO3)6
_chemical_formula_sum   'Rb4 Ce2 N12 O36'
_cell_volume   797.08475553
_cell_formula_units_Z   2
loop_
 _symmetry_equiv_pos_site_id
 _symmetry_equiv_pos_as_xyz
  1  'x, y, z'
loop_
 _atom_site_type_symbol
 _atom_site_label
 _atom_site_symmetry_multiplicity
 _atom_site_fract_x
 _atom_site_fract_y
 _atom_site_fract_z
 _atom_site_occupancy
  Rb  Rb0  1  0.23190182  0.02693757  0.66092688  1
  Rb  Rb1  1  0.26809818  0.52693757  0.16092688  1
  Rb  Rb2  1  0.73190182  0.47306243  0.83907312  1
  Rb  Rb3  1  0.76809818  0.97306243  0.33907312  1
  Ce  Ce4  1  0.50000000  0.50000000  0.50000000  1
  Ce  Ce5  1  0.00000000  0.00000000  0.00000000  1
  N  N6  1  0.25284368  0.77457205  0.44599003  1
  N  N7  1  0.75794070  0.53586002  0.32273837  1
  N  N8  1  0.24205930  0.46413998  0.67726163  1
  N  N9  1  0.75284368  0.72542795  0.05400997  1
  N  N10  1  0.74715632  0.22542795  0.55400997  1
  N  N11  1  0.26952511  0.78283910  0.89009725  1
  N  N12  1  0.23047489  0.28283910  0.39009725  1
  N  N13  1  0.25794070  0.96413998  0.17726163  1
  N  N14  1  0.76952511  0.71716090  0.60990275  1
  N  N15  1  0.24715632  0.27457205  0.94599003  1
  N  N16  1  0.74205930  0.03586002  0.82273837  1
  N  N17  1  0.73047489  0.21716090  0.10990275  1
  O  O18  1  0.62543584  0.06051875  0.75644987  1
  O  O19  1  0.37456416  0.93948125  0.24355013  1
  O  O20  1  0.59404151  0.20744395  0.50133760  1
  O  O21  1  0.09404151  0.29255605  0.99866240  1
  O  O22  1  0.88320965  0.80005713  0.65694675  1
  O  O23  1  0.85900808  0.11527935  0.56507031  1
  O  O24  1  0.11679035  0.19994287  0.34305325  1
  O  O25  1  0.22497510  0.57646598  0.61645376  1
  O  O26  1  0.22611153  0.63629646  0.40808015  1
  O  O27  1  0.28387081  0.81126740  0.98407438  1
  O  O28  1  0.40595849  0.79255605  0.49866240  1
  O  O29  1  0.71612919  0.18873260  0.01592562  1
  O  O30  1  0.39059005  0.37518132  0.66419348  1
  O  O31  1  0.10940995  0.87518132  0.16419348  1
  O  O32  1  0.27502490  0.07646598  0.11645376  1
  O  O33  1  0.72497510  0.92353402  0.88354624  1
  O  O34  1  0.61679035  0.30005713  0.15694675  1
  O  O35  1  0.12543584  0.43948125  0.74355013  1
  O  O36  1  0.72611153  0.86370354  0.09191985  1
  O  O37  1  0.14099192  0.88472065  0.43492969  1
  O  O38  1  0.64099192  0.61527935  0.06507031  1
  O  O39  1  0.62586695  0.65102486  0.65240949  1
  O  O40  1  0.38320965  0.69994287  0.84305325  1
  O  O41  1  0.87456416  0.56051875  0.25644987  1
  O  O42  1  0.77502490  0.42353402  0.38354624  1
  O  O43  1  0.77388847  0.36370354  0.59191985  1
  O  O44  1  0.35900808  0.38472065  0.93492969  1
  O  O45  1  0.90595849  0.70744395  0.00133760  1
  O  O46  1  0.12586695  0.84897514  0.84759051  1
  O  O47  1  0.60940995  0.62481868  0.33580652  1
  O  O48  1  0.87413305  0.15102486  0.15240949  1
  O  O49  1  0.27388847  0.13629646  0.90808015  1
  O  O50  1  0.89059005  0.12481868  0.83580652  1
  O  O51  1  0.21612919  0.31126740  0.48407438  1
  O  O52  1  0.37413305  0.34897514  0.34759051  1
  O  O53  1  0.78387081  0.68873260  0.51592562  1
