# generated using pymatgen
data_BaCoF4
_symmetry_space_group_name_H-M   'P 1'
_cell_length_a   4.22761340
_cell_length_b   6.00806770
_cell_length_c   7.72645574
_cell_angle_alpha   90.00000000
_cell_angle_beta   105.87743032
_cell_angle_gamma   90.00000000
_symmetry_Int_Tables_number   1
_chemical_formula_structural   BaCoF4
_chemical_formula_sum   'Ba2 Co2 F8'
_cell_volume   188.76321740
_cell_formula_units_Z   2
loop_
 _symmetry_equiv_pos_site_id
 _symmetry_equiv_pos_as_xyz
  1  'x, y, z'
loop_
 _atom_site_type_symbol
 _atom_site_label
 _atom_site_symmetry_multiplicity
 _atom_site_fract_x
 _atom_site_fract_y
 _atom_site_fract_z
 _atom_site_occupancy
  Ba  Ba0  1  0.85246304  0.95580276  0.70492709  1
  Ba  Ba1  1  0.14753696  0.45580276  0.29507291  1
  Co  Co2  1  0.41382633  0.50215851  0.82765265  1
  Co  Co3  1  0.58617367  0.00215851  0.17234735  1
  F  F4  1  0.92408493  0.51707940  0.84816986  1
  F  F5  1  0.07591507  0.01707940  0.15183014  1
  F  F6  1  0.46935908  0.82532764  0.93871916  1
  F  F7  1  0.53064092  0.32532764  0.06128084  1
  F  F8  1  0.69942941  0.19264992  0.39885783  1
  F  F9  1  0.30057159  0.69264992  0.60114217  1
  F  F10  1  0.66231475  0.72458078  0.32462951  1
  F  F11  1  0.33768525  0.22458078  0.67537049  1
