# generated using pymatgen
data_Ho11Te16ClO48
_symmetry_space_group_name_H-M   'P 1'
_cell_length_a   5.56676924
_cell_length_b   11.99040333
_cell_length_c   18.62240176
_cell_angle_alpha   100.67495429
_cell_angle_beta   95.89006713
_cell_angle_gamma   99.81543566
_symmetry_Int_Tables_number   1
_chemical_formula_structural   Ho11Te16ClO48
_chemical_formula_sum   'Ho11 Te16 Cl1 O48'
_cell_volume   1191.99757345
_cell_formula_units_Z   1
loop_
 _symmetry_equiv_pos_site_id
 _symmetry_equiv_pos_as_xyz
  1  'x, y, z'
loop_
 _atom_site_type_symbol
 _atom_site_label
 _atom_site_symmetry_multiplicity
 _atom_site_fract_x
 _atom_site_fract_y
 _atom_site_fract_z
 _atom_site_occupancy
  Ho  Ho0  1  0.13142078  0.56971030  0.72937604  1
  Ho  Ho1  1  0.08339786  0.88622159  0.18627783  1
  Ho  Ho2  1  0.91660214  0.11377841  0.81372217  1
  Ho  Ho3  1  0.86857922  0.43028970  0.27062396  1
  Ho  Ho4  1  0.71866055  0.78476789  0.70555408  1
  Ho  Ho5  1  0.28330218  0.10375860  0.47781359  1
  Ho  Ho6  1  0.28133945  0.21523211  0.29444592  1
  Ho  Ho7  1  0.00000000  0.00000000  0.00000000  1
  Ho  Ho8  1  0.55708975  0.68070686  0.22249052  1
  Ho  Ho9  1  0.71669782  0.89624140  0.52218641  1
  Ho  Ho10  1  0.44291025  0.31929314  0.77750948  1
  Te  Te11  1  0.79032945  0.20898679  0.61827114  1
  Te  Te12  1  0.49187940  0.80466668  0.04992430  1
  Te  Te13  1  0.16515032  0.68339034  0.56397178  1
  Te  Te14  1  0.06943999  0.44824904  0.89019759  1
  Te  Te15  1  0.64688491  0.11353976  0.16530997  1
  Te  Te16  1  0.79445516  0.99372389  0.33899283  1
  Te  Te17  1  0.20554484  0.00627611  0.66100717  1
  Te  Te18  1  0.22878202  0.32570715  0.11886680  1
  Te  Te19  1  0.83484968  0.31660966  0.43602822  1
  Te  Te20  1  0.77121798  0.67429285  0.88113320  1
  Te  Te21  1  0.20967055  0.79101321  0.38172886  1
  Te  Te22  1  0.50812060  0.19533332  0.95007570  1
  Te  Te23  1  0.35311509  0.88646024  0.83469003  1
  Te  Te24  1  0.50990902  0.55472321  0.39226648  1
  Te  Te25  1  0.49009098  0.44527679  0.60773352  1
  Te  Te26  1  0.93056001  0.55175096  0.10980241  1
  Cl  Cl27  1  0.50000000  0.50000000  0.00000000  1
  O  O28  1  0.47094850  0.73198724  0.43370006  1
  O  O29  1  0.18431913  0.16213816  0.07882097  1
  O  O30  1  0.87190353  0.92470153  0.64791474  1
  O  O31  1  0.30881678  0.39356416  0.68092363  1
  O  O32  1  0.37782282  0.78152385  0.13979786  1
  O  O33  1  0.14749591  0.29133259  0.85424188  1
  O  O34  1  0.10975667  0.31232142  0.21067260  1
  O  O35  1  0.44355806  0.60302633  0.65645991  1
  O  O36  1  0.60006432  0.25671498  0.22110404  1
  O  O37  1  0.65874789  0.19856421  0.70907953  1
  O  O38  1  0.91029535  0.07685982  0.22508988  1
  O  O39  1  0.34125211  0.80143579  0.29092047  1
  O  O40  1  0.08970465  0.92314018  0.77491012  1
  O  O41  1  0.07019380  0.64835661  0.92834038  1
  O  O42  1  0.69118322  0.60643584  0.31907637  1
  O  O43  1  0.81568087  0.83786184  0.92117903  1
  O  O44  1  0.92980620  0.35164339  0.07165962  1
  O  O45  1  0.39666041  0.93460829  0.43726258  1
  O  O46  1  0.15021517  0.14195093  0.72646693  1
  O  O47  1  0.85250409  0.70866741  0.14575812  1
  O  O48  1  0.62217718  0.21847615  0.86020214  1
  O  O49  1  0.69776607  0.08103030  0.95760639  1
  O  O50  1  0.29117698  0.49498599  0.82440786  1
  O  O51  1  0.01978563  0.23149122  0.48830389  1
  O  O52  1  0.81330281  0.45409952  0.65351515  1
  O  O53  1  0.52905150  0.26801276  0.56629994  1
  O  O54  1  0.55426063  0.19590686  0.39992411  1
  O  O55  1  0.60496477  0.95984475  0.78711543  1
  O  O56  1  0.90065147  0.94869856  0.42848717  1
  O  O57  1  0.44573937  0.80409314  0.60007589  1
  O  O58  1  0.84978483  0.85804907  0.27353307  1
  O  O59  1  0.12809647  0.07529847  0.35208526  1
  O  O60  1  0.18669719  0.54590048  0.34648485  1
  O  O61  1  0.09934853  0.05130144  0.57151283  1
  O  O62  1  0.70882302  0.50501401  0.17559214  1
  O  O63  1  0.20104454  0.08550771  0.91166817  1
  O  O64  1  0.20337275  0.55291211  0.18250285  1
  O  O65  1  0.60333959  0.06539171  0.56273742  1
  O  O66  1  0.39503523  0.04015525  0.21288457  1
  O  O67  1  0.55644194  0.39697367  0.34354009  1
  O  O68  1  0.79895546  0.91449229  0.08833183  1
  O  O69  1  0.00195683  0.30886005  0.35142330  1
  O  O70  1  0.79662725  0.44708789  0.81749715  1
  O  O71  1  0.30223393  0.91896970  0.04239361  1
  O  O72  1  0.39993568  0.74328502  0.77889596  1
  O  O73  1  0.98021437  0.76850878  0.51169611  1
  O  O74  1  0.99804317  0.69113995  0.64857670  1
  O  O75  1  0.89024333  0.68767858  0.78932740  1
