# generated using pymatgen
data_MgUB2O7
_symmetry_space_group_name_H-M   'P 1'
_cell_length_a   7.39399212
_cell_length_b   8.02298833
_cell_length_c   9.87627679
_cell_angle_alpha   90.00000000
_cell_angle_beta   90.00000000
_cell_angle_gamma   90.00000000
_symmetry_Int_Tables_number   1
_chemical_formula_structural   MgUB2O7
_chemical_formula_sum   'Mg4 U4 B8 O28'
_cell_volume   585.87962747
_cell_formula_units_Z   4
loop_
 _symmetry_equiv_pos_site_id
 _symmetry_equiv_pos_as_xyz
  1  'x, y, z'
loop_
 _atom_site_type_symbol
 _atom_site_label
 _atom_site_symmetry_multiplicity
 _atom_site_fract_x
 _atom_site_fract_y
 _atom_site_fract_z
 _atom_site_occupancy
  Mg  Mg0  1  0.23443651  0.75000000  0.54795524  1
  Mg  Mg1  1  0.76556349  0.75000000  0.04795524  1
  Mg  Mg2  1  0.23443651  0.25000000  0.95204476  1
  Mg  Mg3  1  0.76556349  0.25000000  0.45204476  1
  U  U4  1  0.22434405  0.25000000  0.55216837  1
  U  U5  1  0.77565595  0.75000000  0.44783163  1
  U  U6  1  0.77565595  0.25000000  0.05216837  1
  U  U7  1  0.22434405  0.75000000  0.94783163  1
  B  B8  1  0.87177996  0.25000000  0.75881846  1
  B  B9  1  0.12822004  0.75000000  0.24118154  1
  B  B10  1  0.53155731  0.75000000  0.78765687  1
  B  B11  1  0.53155731  0.25000000  0.71234313  1
  B  B12  1  0.12822004  0.25000000  0.25881846  1
  B  B13  1  0.46844269  0.25000000  0.21234313  1
  B  B14  1  0.46844269  0.75000000  0.28765687  1
  B  B15  1  0.87177996  0.75000000  0.74118154  1
  O  O16  1  0.54296549  0.75000000  0.92594739  1
  O  O17  1  0.07254471  0.25000000  0.12857857  1
  O  O18  1  0.36092878  0.25000000  0.76638858  1
  O  O19  1  0.77168887  0.02076859  0.04892115  1
  O  O20  1  0.22831113  0.52076859  0.95107885  1
  O  O21  1  0.77168887  0.47923141  0.04892115  1
  O  O22  1  0.68464530  0.75000000  0.70283369  1
  O  O23  1  0.22831113  0.02076859  0.54892115  1
  O  O24  1  0.92745529  0.75000000  0.87142143  1
  O  O25  1  0.45703451  0.75000000  0.42594739  1
  O  O26  1  0.02012027  0.75000000  0.13016530  1
  O  O27  1  0.97987973  0.25000000  0.86983470  1
  O  O28  1  0.63907122  0.75000000  0.23361142  1
  O  O29  1  0.97987973  0.75000000  0.63016530  1
  O  O30  1  0.31535470  0.25000000  0.29716631  1
  O  O31  1  0.77168887  0.97923141  0.45107885  1
  O  O32  1  0.92745529  0.25000000  0.62857857  1
  O  O33  1  0.22831113  0.97923141  0.95107885  1
  O  O34  1  0.45703451  0.25000000  0.07405261  1
  O  O35  1  0.22831113  0.47923141  0.54892115  1
  O  O36  1  0.68464530  0.25000000  0.79716631  1
  O  O37  1  0.63907122  0.25000000  0.26638858  1
  O  O38  1  0.02012027  0.25000000  0.36983470  1
  O  O39  1  0.77168887  0.52076859  0.45107885  1
  O  O40  1  0.07254471  0.75000000  0.37142143  1
  O  O41  1  0.31535470  0.75000000  0.20283369  1
  O  O42  1  0.54296549  0.25000000  0.57405261  1
  O  O43  1  0.36092878  0.75000000  0.73361142  1
