# generated using pymatgen
data_Ge3Pb5O11
_symmetry_space_group_name_H-M   'P 1'
_cell_length_a   10.43567030
_cell_length_b   10.43567043
_cell_length_c   10.89919515
_cell_angle_alpha   90.00000000
_cell_angle_beta   90.00000000
_cell_angle_gamma   119.99999959
_symmetry_Int_Tables_number   1
_chemical_formula_structural   Ge3Pb5O11
_chemical_formula_sum   'Ge9 Pb15 O33'
_cell_volume   1027.93526868
_cell_formula_units_Z   3
loop_
 _symmetry_equiv_pos_site_id
 _symmetry_equiv_pos_as_xyz
  1  'x, y, z'
loop_
 _atom_site_type_symbol
 _atom_site_label
 _atom_site_symmetry_multiplicity
 _atom_site_fract_x
 _atom_site_fract_y
 _atom_site_fract_z
 _atom_site_occupancy
  Ge  Ge0  1  0.60539849  0.62605416  0.14749692  1
  Ge  Ge1  1  0.02065566  0.39460151  0.14749692  1
  Ge  Ge2  1  0.61676582  0.00767837  0.50470784  1
  Ge  Ge3  1  0.37394584  0.97934434  0.14749692  1
  Ge  Ge4  1  0.39091255  0.38323418  0.50470784  1
  Ge  Ge5  1  0.61166149  0.61986138  0.84500660  1
  Ge  Ge6  1  0.00819989  0.38833851  0.84500660  1
  Ge  Ge7  1  0.99232163  0.60908745  0.50470784  1
  Ge  Ge8  1  0.38013862  0.99180011  0.84500660  1
  Pb  Pb9  1  0.73769292  0.73971522  0.52166781  1
  Pb  Pb10  1  0.74033110  0.00338599  0.81639503  1
  Pb  Pb11  1  0.66666700  0.33333300  0.32090519  1
  Pb  Pb12  1  0.00278155  0.72863467  0.18499824  1
  Pb  Pb13  1  0.27136533  0.27414687  0.18499824  1
  Pb  Pb14  1  0.26305489  0.25966890  0.81639503  1
  Pb  Pb15  1  0.26028478  0.99797770  0.52166781  1
  Pb  Pb16  1  0.33333300  0.66666700  1.00166047  1
  Pb  Pb17  1  0.33333300  0.66666700  0.66344044  1
  Pb  Pb18  1  0.00202230  0.26230708  0.52166781  1
  Pb  Pb19  1  0.33333300  0.66666700  0.34050418  1
  Pb  Pb20  1  0.66666700  0.33333300  0.00031022  1
  Pb  Pb21  1  0.99661401  0.73694511  0.81639503  1
  Pb  Pb22  1  0.72585313  0.99721845  0.18499824  1
  Pb  Pb23  1  0.66666700  0.33333300  0.67458039  1
  O  O24  1  0.83010699  0.32500634  0.16151567  1
  O  O25  1  0.23405292  0.91593189  0.73622770  1
  O  O26  1  0.18927720  0.70468135  0.50335460  1
  O  O27  1  0.08406811  0.31812104  0.73622770  1
  O  O28  1  0.67880137  0.76974353  0.25639291  1
  O  O29  1  0.51540414  0.81072280  0.50335460  1
  O  O30  1  0.12390279  0.59362939  0.15349222  1
  O  O31  1  0.67499366  0.50510065  0.16151567  1
  O  O32  1  0.92819105  0.68956169  0.61676711  1
  O  O33  1  0.09094216  0.32119863  0.25639291  1
  O  O34  1  0.70917331  0.52309556  0.83668699  1
  O  O35  1  0.81392225  0.29082669  0.83668699  1
  O  O36  1  0.46972659  0.87609721  0.15349222  1
  O  O37  1  0.58281993  0.49472318  0.53748237  1
  O  O38  1  0.41609194  0.51079635  0.83049528  1
  O  O39  1  0.48920365  0.90529559  0.83049528  1
  O  O40  1  0.71411782  0.08794037  0.36704527  1
  O  O41  1  0.29531865  0.48459586  0.50335460  1
  O  O42  1  0.28725897  0.93122784  0.99446713  1
  O  O43  1  0.09470441  0.58390806  0.83049528  1
  O  O44  1  0.37382255  0.28588218  0.36704527  1
  O  O45  1  0.50527682  0.08809675  0.53748237  1
  O  O46  1  0.31043831  0.23862937  0.61676711  1
  O  O47  1  0.06877216  0.35603113  0.99446713  1
  O  O48  1  0.47690444  0.18607775  0.83668699  1
  O  O49  1  0.91190325  0.41718007  0.53748237  1
  O  O50  1  0.23025647  0.90905784  0.25639291  1
  O  O51  1  0.64396887  0.71274103  0.99446713  1
  O  O52  1  0.40637061  0.53027341  0.15349222  1
  O  O53  1  0.49489935  0.16989301  0.16151567  1
  O  O54  1  0.76137063  0.07180895  0.61676711  1
  O  O55  1  0.68187896  0.76594708  0.73622770  1
  O  O56  1  0.91205963  0.62617745  0.36704527  1
