# generated using pymatgen
data_CdB2F8
_symmetry_space_group_name_H-M   'P 1'
_cell_length_a   8.91843738
_cell_length_b   9.28939051
_cell_length_c   13.49034038
_cell_angle_alpha   90.00000000
_cell_angle_beta   90.00000000
_cell_angle_gamma   90.00000000
_symmetry_Int_Tables_number   1
_chemical_formula_structural   CdB2F8
_chemical_formula_sum   'Cd8 B16 F64'
_cell_volume   1117.63217302
_cell_formula_units_Z   8
loop_
 _symmetry_equiv_pos_site_id
 _symmetry_equiv_pos_as_xyz
  1  'x, y, z'
loop_
 _atom_site_type_symbol
 _atom_site_label
 _atom_site_symmetry_multiplicity
 _atom_site_fract_x
 _atom_site_fract_y
 _atom_site_fract_z
 _atom_site_occupancy
  Cd  Cd0  1  0.78224466  0.53237546  0.39566788  1
  Cd  Cd1  1  0.21775534  0.96762454  0.89566788  1
  Cd  Cd2  1  0.71775534  0.03237546  0.60433212  1
  Cd  Cd3  1  0.28224466  0.46762454  0.10433212  1
  Cd  Cd4  1  0.21775534  0.46762454  0.60433212  1
  Cd  Cd5  1  0.28224466  0.96762454  0.39566788  1
  Cd  Cd6  1  0.71775534  0.53237546  0.89566788  1
  Cd  Cd7  1  0.78224466  0.03237546  0.10433212  1
  B  B8  1  0.99694887  0.72184191  0.05815516  1
  B  B9  1  0.18211306  0.60537236  0.34174176  1
  B  B10  1  0.81788694  0.39462764  0.65825824  1
  B  B11  1  0.18211306  0.10537236  0.15825824  1
  B  B12  1  0.00305113  0.27815809  0.94184484  1
  B  B13  1  0.68211306  0.89462764  0.34174176  1
  B  B14  1  0.49694887  0.27815809  0.44184484  1
  B  B15  1  0.68211306  0.39462764  0.15825824  1
  B  B16  1  0.50305113  0.72184191  0.55815516  1
  B  B17  1  0.31788694  0.10537236  0.65825824  1
  B  B18  1  0.31788694  0.60537236  0.84174176  1
  B  B19  1  0.81788694  0.89462764  0.84174176  1
  B  B20  1  0.00305113  0.77815809  0.55815516  1
  B  B21  1  0.49694887  0.77815809  0.05815516  1
  B  B22  1  0.99694887  0.22184191  0.44184484  1
  B  B23  1  0.50305113  0.22184191  0.94184484  1
  F  F24  1  0.97502351  0.41382663  0.66787575  1
  F  F25  1  0.25753854  0.51070304  0.27601938  1
  F  F26  1  0.42213331  0.62510972  0.61945384  1
  F  F27  1  0.92094447  0.64409120  0.98386524  1
  F  F28  1  0.72773955  0.42373633  0.05985188  1
  F  F29  1  0.47502351  0.58617337  0.83212425  1
  F  F30  1  0.75753854  0.98929696  0.27601938  1
  F  F31  1  0.07786669  0.62510972  0.11945384  1
  F  F32  1  0.39520028  0.69890275  0.11774642  1
  F  F33  1  0.27226045  0.07626367  0.55985188  1
  F  F34  1  0.74246146  0.48929696  0.72398062  1
  F  F35  1  0.74246146  0.98929696  0.77601938  1
  F  F36  1  0.10479972  0.19890275  0.88225358  1
  F  F37  1  0.57905553  0.64409120  0.48386524  1
  F  F38  1  0.27877576  0.24943468  0.68279815  1
  F  F39  1  0.07905553  0.85590880  0.48386524  1
  F  F40  1  0.40162705  0.82018536  0.51329811  1
  F  F41  1  0.42094447  0.85590880  0.98386524  1
  F  F42  1  0.97502351  0.91382663  0.83212425  1
  F  F43  1  0.72122424  0.25056532  0.18279815  1
  F  F44  1  0.92094447  0.14409120  0.51613476  1
  F  F45  1  0.90162705  0.17981464  0.98670189  1
  F  F46  1  0.27877576  0.74943468  0.81720185  1
  F  F47  1  0.47502351  0.08617337  0.66787575  1
  F  F48  1  0.89520028  0.30109725  0.38225358  1
  F  F49  1  0.22122424  0.24943468  0.18279815  1
  F  F50  1  0.22773955  0.57626367  0.44014812  1
  F  F51  1  0.42213331  0.12510972  0.88054616  1
  F  F52  1  0.52497649  0.41382663  0.16787575  1
  F  F53  1  0.72773955  0.92373633  0.44014812  1
  F  F54  1  0.77877576  0.25056532  0.68279815  1
  F  F55  1  0.10479972  0.69890275  0.61774642  1
  F  F56  1  0.60479972  0.80109725  0.61774642  1
  F  F57  1  0.02497649  0.08617337  0.16787575  1
  F  F58  1  0.77226045  0.42373633  0.55985188  1
  F  F59  1  0.07786669  0.12510972  0.38054616  1
  F  F60  1  0.90162705  0.67981464  0.51329811  1
  F  F61  1  0.22773955  0.07626367  0.05985188  1
  F  F62  1  0.24246146  0.01070304  0.72398062  1
  F  F63  1  0.57786669  0.87489028  0.11945384  1
  F  F64  1  0.07905553  0.35590880  0.01613476  1
  F  F65  1  0.57786669  0.37489028  0.38054616  1
  F  F66  1  0.27226045  0.57626367  0.94014812  1
  F  F67  1  0.09837295  0.32018536  0.48670189  1
  F  F68  1  0.60479972  0.30109725  0.88225358  1
  F  F69  1  0.89520028  0.80109725  0.11774642  1
  F  F70  1  0.39520028  0.19890275  0.38225358  1
  F  F71  1  0.22122424  0.74943468  0.31720185  1
  F  F72  1  0.59837295  0.67981464  0.01329811  1
  F  F73  1  0.59837295  0.17981464  0.48670189  1
  F  F74  1  0.92213331  0.37489028  0.88054616  1
  F  F75  1  0.09837295  0.82018536  0.01329811  1
  F  F76  1  0.92213331  0.87489028  0.61945384  1
  F  F77  1  0.42094447  0.35590880  0.51613476  1
  F  F78  1  0.72122424  0.75056532  0.31720185  1
  F  F79  1  0.24246146  0.51070304  0.77601938  1
  F  F80  1  0.25753854  0.01070304  0.22398062  1
  F  F81  1  0.57905553  0.14409120  0.01613476  1
  F  F82  1  0.40162705  0.32018536  0.98670189  1
  F  F83  1  0.52497649  0.91382663  0.33212425  1
  F  F84  1  0.77226045  0.92373633  0.94014812  1
  F  F85  1  0.77877576  0.75056532  0.81720185  1
  F  F86  1  0.02497649  0.58617337  0.33212425  1
  F  F87  1  0.75753854  0.48929696  0.22398062  1
