# generated using pymatgen
data_Rb3U3Ge2O13
_symmetry_space_group_name_H-M   'P 1'
_cell_length_a   9.92373716
_cell_length_b   9.92373680
_cell_length_c   8.52547921
_cell_angle_alpha   90.00000000
_cell_angle_beta   90.00000000
_cell_angle_gamma   120.00000119
_symmetry_Int_Tables_number   1
_chemical_formula_structural   Rb3U3Ge2O13
_chemical_formula_sum   'Rb6 U6 Ge4 O26'
_cell_volume   727.10966364
_cell_formula_units_Z   2
loop_
 _symmetry_equiv_pos_site_id
 _symmetry_equiv_pos_as_xyz
  1  'x, y, z'
loop_
 _atom_site_type_symbol
 _atom_site_label
 _atom_site_symmetry_multiplicity
 _atom_site_fract_x
 _atom_site_fract_y
 _atom_site_fract_z
 _atom_site_occupancy
  Rb  Rb0  1  0.97138206  0.58401487  0.75000000  1
  Rb  Rb1  1  0.38736719  0.41598513  0.25000000  1
  Rb  Rb2  1  0.58401487  0.97138206  0.25000000  1
  Rb  Rb3  1  0.41598513  0.38736719  0.75000000  1
  Rb  Rb4  1  0.61263281  0.02861794  0.75000000  1
  Rb  Rb5  1  0.02861794  0.61263281  0.25000000  1
  U  U6  1  1.00000000  0.23792201  0.50000000  1
  U  U7  1  1.00000000  0.23792201  0.00000000  1
  U  U8  1  0.23792201  0.00000000  0.50000000  1
  U  U9  1  0.23792201  0.00000000  0.00000000  1
  U  U10  1  0.76207799  0.76207799  0.00000000  1
  U  U11  1  0.76207799  0.76207799  0.50000000  1
  Ge  Ge12  1  0.33333300  0.66666700  0.95707542  1
  Ge  Ge13  1  0.66666700  0.33333300  0.04292458  1
  Ge  Ge14  1  0.66666700  0.33333300  0.45707542  1
  Ge  Ge15  1  0.33333300  0.66666700  0.54292458  1
  O  O16  1  0.82324495  0.31206152  0.52083323  1
  O  O17  1  0.51118343  0.68793848  0.47916677  1
  O  O18  1  0.51118343  0.68793848  0.02083323  1
  O  O19  1  0.48881657  0.17675505  0.97916677  1
  O  O20  1  0.00990833  0.25045071  0.75000000  1
  O  O21  1  0.68793848  0.51118343  0.52083323  1
  O  O22  1  0.75945763  0.74954929  0.25000000  1
  O  O23  1  0.66666700  0.33333300  0.25000000  1
  O  O24  1  0.81632304  0.00000000  0.00000000  1
  O  O25  1  0.68793848  0.51118343  0.97916677  1
  O  O26  1  0.18367696  0.18367696  0.50000000  1
  O  O27  1  0.00000000  0.81632304  0.50000000  1
  O  O28  1  0.81632304  0.00000000  0.50000000  1
  O  O29  1  0.18367696  0.18367696  0.00000000  1
  O  O30  1  0.48881657  0.17675505  0.52083323  1
  O  O31  1  0.31206152  0.82324495  0.02083323  1
  O  O32  1  0.24054237  0.99009167  0.75000000  1
  O  O33  1  0.00000000  0.81632304  0.00000000  1
  O  O34  1  0.31206152  0.82324495  0.47916677  1
  O  O35  1  0.33333300  0.66666700  0.75000000  1
  O  O36  1  0.74954929  0.75945763  0.75000000  1
  O  O37  1  0.17675505  0.48881657  0.47916677  1
  O  O38  1  0.82324495  0.31206152  0.97916677  1
  O  O39  1  0.25045071  0.00990833  0.25000000  1
  O  O40  1  0.99009167  0.24054237  0.25000000  1
  O  O41  1  0.17675505  0.48881657  0.02083323  1
