# generated using pymatgen
data_Sr2B5ClO9
_symmetry_space_group_name_H-M   'P 1'
_cell_length_a   6.56679279
_cell_length_b   11.45429034
_cell_length_c   11.54026309
_cell_angle_alpha   90.00000000
_cell_angle_beta   90.00000000
_cell_angle_gamma   90.00000000
_symmetry_Int_Tables_number   1
_chemical_formula_structural   Sr2B5ClO9
_chemical_formula_sum   'Sr8 B20 Cl4 O36'
_cell_volume   868.03494616
_cell_formula_units_Z   4
loop_
 _symmetry_equiv_pos_site_id
 _symmetry_equiv_pos_as_xyz
  1  'x, y, z'
loop_
 _atom_site_type_symbol
 _atom_site_label
 _atom_site_symmetry_multiplicity
 _atom_site_fract_x
 _atom_site_fract_y
 _atom_site_fract_z
 _atom_site_occupancy
  Sr  Sr0  1  0.84163609  0.74150890  0.47346574  1
  Sr  Sr1  1  0.00600059  0.95594248  0.74754019  1
  Sr  Sr2  1  0.50600059  0.45594248  0.75245981  1
  Sr  Sr3  1  0.50600059  0.54405752  0.24754019  1
  Sr  Sr4  1  0.34163609  0.75849110  0.97346574  1
  Sr  Sr5  1  0.00600059  0.04405752  0.25245981  1
  Sr  Sr6  1  0.34163609  0.24150890  0.02653426  1
  Sr  Sr7  1  0.84163609  0.25849110  0.52653426  1
  B  B8  1  0.47422085  0.99346604  0.24940190  1
  B  B9  1  0.47422085  0.00653396  0.75059810  1
  B  B10  1  0.80850371  0.73485137  0.03580754  1
  B  B11  1  0.03009059  0.71513031  0.20664723  1
  B  B12  1  0.80850371  0.26514863  0.96419246  1
  B  B13  1  0.30850371  0.76514863  0.53580754  1
  B  B14  1  0.30850371  0.23485137  0.46419246  1
  B  B15  1  0.84817478  0.29429420  0.18804701  1
  B  B16  1  0.84817478  0.70570580  0.81195299  1
  B  B17  1  0.97422085  0.49346604  0.25059810  1
  B  B18  1  0.20033745  0.32156224  0.27361743  1
  B  B19  1  0.97422085  0.50653396  0.74940190  1
  B  B20  1  0.03009059  0.28486969  0.79335277  1
  B  B21  1  0.70033745  0.17843776  0.77361743  1
  B  B22  1  0.34817478  0.20570580  0.68804701  1
  B  B23  1  0.34817478  0.79429420  0.31195299  1
  B  B24  1  0.70033745  0.82156224  0.22638257  1
  B  B25  1  0.53009059  0.78486969  0.70664723  1
  B  B26  1  0.53009059  0.21513031  0.29335277  1
  B  B27  1  0.20033745  0.67843776  0.72638257  1
  Cl  Cl28  1  0.40365803  0.50000000  0.00000000  1
  Cl  Cl29  1  0.64880647  0.50000000  0.50000000  1
  Cl  Cl30  1  0.14880647  0.00000000  0.00000000  1
  Cl  Cl31  1  0.90365803  0.00000000  0.50000000  1
  O  O32  1  0.74828355  0.26603998  0.07725152  1
  O  O33  1  0.15362066  0.26612777  0.38764398  1
  O  O34  1  0.56870876  0.23392213  0.68481509  1
  O  O35  1  0.56870876  0.76607787  0.31518491  1
  O  O36  1  0.32023016  0.92175433  0.28771607  1
  O  O37  1  0.15362066  0.73387223  0.61235602  1
  O  O38  1  0.24828355  0.23396002  0.57725152  1
  O  O39  1  0.91690110  0.81432832  0.25569564  1
  O  O40  1  0.92938528  0.61024137  0.26309626  1
  O  O41  1  0.82023016  0.57824567  0.78771607  1
  O  O42  1  0.75017038  0.77800838  0.72126266  1
  O  O43  1  0.41690110  0.68567168  0.75569564  1
  O  O44  1  0.41690110  0.31432832  0.24430436  1
  O  O45  1  0.99866515  0.70820924  0.07683375  1
  O  O46  1  0.82023016  0.42175433  0.21228393  1
  O  O47  1  0.16048865  0.55025327  0.71862271  1
  O  O48  1  0.49866515  0.79179076  0.57683375  1
  O  O49  1  0.42938528  0.11024137  0.23690374  1
  O  O50  1  0.25017038  0.27800838  0.77873734  1
  O  O51  1  0.92938528  0.38975863  0.73690374  1
  O  O52  1  0.75017038  0.22199162  0.27873734  1
  O  O53  1  0.24828355  0.76603998  0.42274848  1
  O  O54  1  0.06870876  0.73392213  0.81518491  1
  O  O55  1  0.74828355  0.73396002  0.92274848  1
  O  O56  1  0.65362066  0.76612777  0.11235602  1
  O  O57  1  0.16048865  0.44974673  0.28137729  1
  O  O58  1  0.99866515  0.29179076  0.92316625  1
  O  O59  1  0.06870876  0.26607787  0.18481509  1
  O  O60  1  0.49866515  0.20820924  0.42316625  1
  O  O61  1  0.42938528  0.88975863  0.76309626  1
  O  O62  1  0.65362066  0.23387223  0.88764398  1
  O  O63  1  0.66048865  0.05025327  0.78137729  1
  O  O64  1  0.91690110  0.18567168  0.74430436  1
  O  O65  1  0.32023016  0.07824567  0.71228393  1
  O  O66  1  0.25017038  0.72199162  0.22126266  1
  O  O67  1  0.66048865  0.94974673  0.21862271  1
