# generated using pymatgen
data_K2CaAs2O7
_symmetry_space_group_name_H-M   'P 1'
_cell_length_a   5.93170982
_cell_length_b   9.37101149
_cell_length_c   14.91904097
_cell_angle_alpha   105.93605402
_cell_angle_beta   90.00000000
_cell_angle_gamma   90.00000000
_symmetry_Int_Tables_number   1
_chemical_formula_structural   K2CaAs2O7
_chemical_formula_sum   'K8 Ca4 As8 O28'
_cell_volume   797.42088245
_cell_formula_units_Z   4
loop_
 _symmetry_equiv_pos_site_id
 _symmetry_equiv_pos_as_xyz
  1  'x, y, z'
loop_
 _atom_site_type_symbol
 _atom_site_label
 _atom_site_symmetry_multiplicity
 _atom_site_fract_x
 _atom_site_fract_y
 _atom_site_fract_z
 _atom_site_occupancy
  K  K0  1  0.23293216  0.53377457  0.33583702  1
  K  K1  1  0.75384989  0.03275957  0.11355876  1
  K  K2  1  0.24615011  0.96724043  0.88644124  1
  K  K3  1  0.73293216  0.46622543  0.16416298  1
  K  K4  1  0.26706784  0.53377457  0.83583702  1
  K  K5  1  0.25384989  0.96724043  0.38644124  1
  K  K6  1  0.74615011  0.03275957  0.61355876  1
  K  K7  1  0.76706784  0.46622543  0.66416298  1
  Ca  Ca8  1  0.27189747  0.73427525  0.13742349  1
  Ca  Ca9  1  0.72810253  0.26572475  0.86257651  1
  Ca  Ca10  1  0.77189747  0.26572475  0.36257651  1
  Ca  Ca11  1  0.22810253  0.73427525  0.63742349  1
  As  As12  1  0.70686744  0.68515570  0.47234911  1
  As  As13  1  0.26043631  0.17554276  0.19819820  1
  As  As14  1  0.29313256  0.31484430  0.52765089  1
  As  As15  1  0.73956369  0.82445724  0.80180180  1
  As  As16  1  0.23956369  0.17554276  0.69819820  1
  As  As17  1  0.76043631  0.82445724  0.30180180  1
  As  As18  1  0.79313256  0.68515570  0.97234911  1
  As  As19  1  0.20686744  0.31484430  0.02765089  1
  O  O20  1  0.98864161  0.72659367  0.24940279  1
  O  O21  1  0.51135839  0.72659367  0.74940279  1
  O  O22  1  0.24795269  0.47482211  0.61248012  1
  O  O23  1  0.25204731  0.47482211  0.11248012  1
  O  O24  1  0.42981138  0.72458086  0.49916727  1
  O  O25  1  0.26581292  0.99328233  0.19442525  1
  O  O26  1  0.13016990  0.28475624  0.43076149  1
  O  O27  1  0.92981138  0.27541914  0.00083273  1
  O  O28  1  0.80056245  0.83676677  0.42557439  1
  O  O29  1  0.01135839  0.27340633  0.75059721  1
  O  O30  1  0.00774936  0.26139451  0.22858289  1
  O  O31  1  0.57018862  0.27541914  0.50083273  1
  O  O32  1  0.99225064  0.73860549  0.77141711  1
  O  O33  1  0.74795269  0.52517789  0.88751988  1
  O  O34  1  0.86983010  0.71524376  0.56923851  1
  O  O35  1  0.23418708  0.99328233  0.69442525  1
  O  O36  1  0.07018862  0.72458086  0.99916727  1
  O  O37  1  0.48864161  0.27340633  0.25059721  1
  O  O38  1  0.49225064  0.26139451  0.72858289  1
  O  O39  1  0.50774936  0.73860549  0.27141711  1
  O  O40  1  0.76581292  0.00671767  0.30557475  1
  O  O41  1  0.73418708  0.00671767  0.80557475  1
  O  O42  1  0.19943755  0.16323323  0.57442561  1
  O  O43  1  0.36983010  0.28475624  0.93076149  1
  O  O44  1  0.30056245  0.16323323  0.07442561  1
  O  O45  1  0.69943755  0.83676677  0.92557439  1
  O  O46  1  0.63016990  0.71524376  0.06923851  1
  O  O47  1  0.75204731  0.52517789  0.38751988  1
