# generated using pymatgen
data_Cs2Al2Sb2O7
_symmetry_space_group_name_H-M   'P 1'
_cell_length_a   5.78785315
_cell_length_b   5.78785346
_cell_length_c   9.11824089
_cell_angle_alpha   90.00000000
_cell_angle_beta   90.00000000
_cell_angle_gamma   119.99999827
_symmetry_Int_Tables_number   1
_chemical_formula_structural   Cs2Al2Sb2O7
_chemical_formula_sum   'Cs2 Al2 Sb2 O7'
_cell_volume   264.53109609
_cell_formula_units_Z   1
loop_
 _symmetry_equiv_pos_site_id
 _symmetry_equiv_pos_as_xyz
  1  'x, y, z'
loop_
 _atom_site_type_symbol
 _atom_site_label
 _atom_site_symmetry_multiplicity
 _atom_site_fract_x
 _atom_site_fract_y
 _atom_site_fract_z
 _atom_site_occupancy
  Cs  Cs0  1  0.33333300  0.66666700  0.59746372  1
  Cs  Cs1  1  0.66666700  0.33333300  0.40253628  1
  Al  Al2  1  0.00000000  0.00000000  0.18948139  1
  Al  Al3  1  0.00000000  0.00000000  0.81051861  1
  Sb  Sb4  1  0.33333300  0.66666700  0.14703872  1
  Sb  Sb5  1  0.66666700  0.33333300  0.85296128  1
  O  O6  1  0.33260743  0.16630372  0.73665898  1
  O  O7  1  0.16630372  0.83369628  0.26334102  1
  O  O8  1  0.83369628  0.16630372  0.73665898  1
  O  O9  1  0.66739257  0.83369628  0.26334102  1
  O  O10  1  0.00000000  0.00000000  0.00000000  1
  O  O11  1  0.16630372  0.33260743  0.26334102  1
  O  O12  1  0.83369628  0.66739257  0.73665898  1
