# generated using pymatgen
data_Ca2As3Pb3ClO12
_symmetry_space_group_name_H-M   'P 1'
_cell_length_a   10.39668252
_cell_length_b   10.39668289
_cell_length_c   7.18141251
_cell_angle_alpha   90.00000000
_cell_angle_beta   90.00000000
_cell_angle_gamma   119.99999882
_symmetry_Int_Tables_number   1
_chemical_formula_structural   Ca2As3Pb3ClO12
_chemical_formula_sum   'Ca4 As6 Pb6 Cl2 O24'
_cell_volume   672.24888530
_cell_formula_units_Z   2
loop_
 _symmetry_equiv_pos_site_id
 _symmetry_equiv_pos_as_xyz
  1  'x, y, z'
loop_
 _atom_site_type_symbol
 _atom_site_label
 _atom_site_symmetry_multiplicity
 _atom_site_fract_x
 _atom_site_fract_y
 _atom_site_fract_z
 _atom_site_occupancy
  Ca  Ca0  1  0.66666700  0.33333300  0.50616915  1
  Ca  Ca1  1  0.33333300  0.66666700  0.49383085  1
  Ca  Ca2  1  0.66666700  0.33333300  0.99383085  1
  Ca  Ca3  1  0.33333300  0.66666700  0.00616915  1
  As  As4  1  0.60874280  0.02977535  0.25000000  1
  As  As5  1  0.02977535  0.42103255  0.75000000  1
  As  As6  1  0.57896745  0.60874280  0.75000000  1
  As  As7  1  0.39125720  0.97022465  0.75000000  1
  As  As8  1  0.97022465  0.57896745  0.25000000  1
  As  As9  1  0.42103255  0.39125720  0.25000000  1
  Pb  Pb10  1  0.23550041  0.26203375  0.75000000  1
  Pb  Pb11  1  0.02653334  0.76449959  0.75000000  1
  Pb  Pb12  1  0.76449959  0.73796625  0.25000000  1
  Pb  Pb13  1  0.73796625  0.97346666  0.75000000  1
  Pb  Pb14  1  0.97346666  0.23550041  0.25000000  1
  Pb  Pb15  1  0.26203375  0.02653334  0.25000000  1
  Cl  Cl16  1  0.00000000  0.00000000  0.50000000  1
  Cl  Cl17  1  0.00000000  0.00000000  0.00000000  1
  O  O18  1  0.36352297  0.27456479  0.44074063  1
  O  O19  1  0.53076246  0.14484307  0.25000000  1
  O  O20  1  0.72543521  0.08895818  0.05925937  1
  O  O21  1  0.91104182  0.63647703  0.05925937  1
  O  O22  1  0.46923754  0.85515693  0.75000000  1
  O  O23  1  0.08895818  0.36352297  0.55925937  1
  O  O24  1  0.27456479  0.91104182  0.94074063  1
  O  O25  1  0.63345592  0.47860513  0.75000000  1
  O  O26  1  0.14484307  0.61408061  0.75000000  1
  O  O27  1  0.38591939  0.53076246  0.75000000  1
  O  O28  1  0.36654408  0.52139487  0.25000000  1
  O  O29  1  0.63647703  0.72543521  0.94074063  1
  O  O30  1  0.84514921  0.36654408  0.75000000  1
  O  O31  1  0.15485079  0.63345592  0.25000000  1
  O  O32  1  0.63647703  0.72543521  0.55925937  1
  O  O33  1  0.27456479  0.91104182  0.55925937  1
  O  O34  1  0.08895818  0.36352297  0.94074063  1
  O  O35  1  0.85515693  0.38591939  0.25000000  1
  O  O36  1  0.47860513  0.84514921  0.25000000  1
  O  O37  1  0.36352297  0.27456479  0.05925937  1
  O  O38  1  0.61408061  0.46923754  0.25000000  1
  O  O39  1  0.91104182  0.63647703  0.44074063  1
  O  O40  1  0.72543521  0.08895818  0.44074063  1
  O  O41  1  0.52139487  0.15485079  0.75000000  1
