# generated using pymatgen
data_Rb2SiP4O13
_symmetry_space_group_name_H-M   'P 1'
_cell_length_a   4.92582350
_cell_length_b   7.87630566
_cell_length_c   15.45794040
_cell_angle_alpha   83.85823593
_cell_angle_beta   83.67138977
_cell_angle_gamma   81.83166559
_symmetry_Int_Tables_number   1
_chemical_formula_structural   Rb2SiP4O13
_chemical_formula_sum   'Rb4 Si2 P8 O26'
_cell_volume   587.47663511
_cell_formula_units_Z   2
loop_
 _symmetry_equiv_pos_site_id
 _symmetry_equiv_pos_as_xyz
  1  'x, y, z'
loop_
 _atom_site_type_symbol
 _atom_site_label
 _atom_site_symmetry_multiplicity
 _atom_site_fract_x
 _atom_site_fract_y
 _atom_site_fract_z
 _atom_site_occupancy
  Rb  Rb0  1  0.72545103  0.69645726  0.97218049  1
  Rb  Rb1  1  0.27454897  0.30354274  0.02781951  1
  Rb  Rb2  1  0.32196543  0.25727133  0.51069538  1
  Rb  Rb3  1  0.67803457  0.74272867  0.48930462  1
  Si  Si4  1  0.45518993  0.05692635  0.75842307  1
  Si  Si5  1  0.54481007  0.94307365  0.24157693  1
  P  P6  1  0.68275475  0.31910597  0.21076980  1
  P  P7  1  0.31724525  0.68089403  0.78923020  1
  P  P8  1  0.10666084  0.79422354  0.15004343  1
  P  P9  1  0.32796805  0.59765358  0.30557060  1
  P  P10  1  0.98001463  0.08932566  0.33658538  1
  P  P11  1  0.01998537  0.91067434  0.66341462  1
  P  P12  1  0.89333916  0.20577646  0.84995657  1
  P  P13  1  0.67203195  0.40234642  0.69442940  1
  O  O14  1  0.80552921  0.27663497  0.93570271  1
  O  O15  1  0.28978444  0.01780705  0.32753534  1
  O  O16  1  0.51244276  0.59066350  0.71154061  1
  O  O17  1  0.48755724  0.40933650  0.28845939  1
  O  O18  1  0.45944548  0.27478794  0.71075055  1
  O  O19  1  0.79869314  0.87084573  0.15688883  1
  O  O20  1  0.54939640  0.16171961  0.19447715  1
  O  O21  1  0.19447079  0.72336503  0.06429729  1
  O  O22  1  0.28372669  0.92875193  0.17271204  1
  O  O23  1  0.71627331  0.07124807  0.82728796  1
  O  O24  1  0.73813743  0.43761180  0.13201038  1
  O  O25  1  0.45060360  0.83828039  0.80552285  1
  O  O26  1  0.20130686  0.12915427  0.84311117  1
  O  O27  1  0.71021556  0.98219295  0.67246466  1
  O  O28  1  0.18253434  0.58088597  0.39461498  1
  O  O29  1  0.11569682  0.84692203  0.57664797  1
  O  O30  1  0.86986015  0.36216199  0.77100919  1
  O  O31  1  0.04607733  0.75146281  0.74180738  1
  O  O32  1  0.81746566  0.41911403  0.60538502  1
  O  O33  1  0.54055452  0.72521206  0.28924945  1
  O  O34  1  0.26186257  0.56238820  0.86798962  1
  O  O35  1  0.95392267  0.24853719  0.25819262  1
  O  O36  1  0.88430318  0.15307797  0.42335203  1
  O  O37  1  0.80616805  0.95599620  0.31082843  1
  O  O38  1  0.19383195  0.04400380  0.68917157  1
  O  O39  1  0.13013985  0.63783801  0.22899081  1
