# generated using pymatgen
data_KSnSO4F
_symmetry_space_group_name_H-M   'P 1'
_cell_length_a   6.24680110
_cell_length_b   7.21004501
_cell_length_c   7.37187251
_cell_angle_alpha   106.92953454
_cell_angle_beta   102.57798116
_cell_angle_gamma   109.87224558
_symmetry_Int_Tables_number   1
_chemical_formula_structural   KSnSO4F
_chemical_formula_sum   'K2 Sn2 S2 O8 F2'
_cell_volume   279.59806023
_cell_formula_units_Z   2
loop_
 _symmetry_equiv_pos_site_id
 _symmetry_equiv_pos_as_xyz
  1  'x, y, z'
loop_
 _atom_site_type_symbol
 _atom_site_label
 _atom_site_symmetry_multiplicity
 _atom_site_fract_x
 _atom_site_fract_y
 _atom_site_fract_z
 _atom_site_occupancy
  K  K0  1  0.69114824  0.33890867  0.12997564  1
  K  K1  1  0.30885176  0.66109133  0.87002436  1
  Sn  Sn2  1  0.86339190  0.94218636  0.70787355  1
  Sn  Sn3  1  0.13660810  0.05781364  0.29212645  1
  S  S4  1  0.67007617  0.36188648  0.66006965  1
  S  S5  1  0.32992383  0.63811352  0.33993035  1
  O  O6  1  0.51658391  0.64061883  0.24709435  1
  O  O7  1  0.48341609  0.35938117  0.75290565  1
  O  O8  1  0.18112036  0.41923528  0.32638697  1
  O  O9  1  0.15813186  0.71068373  0.23835198  1
  O  O10  1  0.54834849  0.21118245  0.43725738  1
  O  O11  1  0.45165151  0.78881755  0.56274262  1
  O  O12  1  0.81887964  0.58076472  0.67361303  1
  O  O13  1  0.84186814  0.28931627  0.76164802  1
  F  F14  1  0.23617219  0.02421314  0.03321591  1
  F  F15  1  0.76382781  0.97578686  0.96678409  1
