# generated using pymatgen
data_KBaB5O9
_symmetry_space_group_name_H-M   'P 1'
_cell_length_a   6.79400888
_cell_length_b   8.50327588
_cell_length_c   14.50371104
_cell_angle_alpha   90.00000000
_cell_angle_beta   92.99488545
_cell_angle_gamma   90.00000000
_symmetry_Int_Tables_number   1
_chemical_formula_structural   KBaB5O9
_chemical_formula_sum   'K4 Ba4 B20 O36'
_cell_volume   836.75430351
_cell_formula_units_Z   4
loop_
 _symmetry_equiv_pos_site_id
 _symmetry_equiv_pos_as_xyz
  1  'x, y, z'
loop_
 _atom_site_type_symbol
 _atom_site_label
 _atom_site_symmetry_multiplicity
 _atom_site_fract_x
 _atom_site_fract_y
 _atom_site_fract_z
 _atom_site_occupancy
  K  K0  1  0.49044396  0.14627523  0.59593275  1
  K  K1  1  0.50955604  0.64627523  0.90406725  1
  K  K2  1  0.50955604  0.85372477  0.40406725  1
  K  K3  1  0.49044396  0.35372477  0.09593275  1
  Ba  Ba4  1  0.92654393  0.46803073  0.72735862  1
  Ba  Ba5  1  0.07345607  0.53196927  0.27264138  1
  Ba  Ba6  1  0.07345607  0.96803073  0.77264138  1
  Ba  Ba7  1  0.92654393  0.03196927  0.22735862  1
  B  B8  1  0.79843207  0.27385287  0.39672224  1
  B  B9  1  0.83940492  0.80811109  0.57366647  1
  B  B10  1  0.16059508  0.30811109  0.92633353  1
  B  B11  1  0.93990729  0.30639065  0.05566188  1
  B  B12  1  0.79843207  0.22614713  0.89672224  1
  B  B13  1  0.39799020  0.97996662  0.19120688  1
  B  B14  1  0.06009271  0.80639065  0.44433812  1
  B  B15  1  0.60200980  0.02003338  0.80879312  1
  B  B16  1  0.46428725  0.20744983  0.31878305  1
  B  B17  1  0.16059508  0.19188891  0.42633353  1
  B  B18  1  0.06009271  0.69360935  0.94433812  1
  B  B19  1  0.20156793  0.77385287  0.10327776  1
  B  B20  1  0.20156793  0.72614713  0.60327776  1
  B  B21  1  0.60200980  0.47996662  0.30879312  1
  B  B22  1  0.93990729  0.19360935  0.55566188  1
  B  B23  1  0.39799020  0.52003338  0.69120688  1
  B  B24  1  0.46428725  0.29255017  0.81878305  1
  B  B25  1  0.53571275  0.70744983  0.18121695  1
  B  B26  1  0.53571275  0.79255017  0.68121695  1
  B  B27  1  0.83940492  0.69188891  0.07366647  1
  O  O28  1  0.87529316  0.84044016  0.48225265  1
  O  O29  1  0.75592933  0.44018626  0.37022685  1
  O  O30  1  0.44267719  0.11993965  0.79328602  1
  O  O31  1  0.99059666  0.74527606  0.13310775  1
  O  O32  1  0.00940334  0.25472394  0.86689225  1
  O  O33  1  0.65146103  0.66952979  0.09961249  1
  O  O34  1  0.12470684  0.15955984  0.51774735  1
  O  O35  1  0.91603602  0.17426897  0.64617028  1
  O  O36  1  0.33073881  0.83220690  0.65863675  1
  O  O37  1  0.24407067  0.94018626  0.12977315  1
  O  O38  1  0.20950199  0.75286184  0.00383060  1
  O  O39  1  0.65146103  0.83047021  0.59961249  1
  O  O40  1  0.75592933  0.05981374  0.87022685  1
  O  O41  1  0.99059666  0.75472394  0.63310775  1
  O  O42  1  0.61840615  0.62212628  0.26453362  1
  O  O43  1  0.66926119  0.16779310  0.34136325  1
  O  O44  1  0.00940334  0.24527606  0.36689225  1
  O  O45  1  0.34853897  0.16952979  0.40038751  1
  O  O46  1  0.08396398  0.82573103  0.35382972  1
  O  O47  1  0.79049801  0.25286184  0.49616940  1
  O  O48  1  0.44267719  0.38006035  0.29328602  1
  O  O49  1  0.55732281  0.61993965  0.70671398  1
  O  O50  1  0.38159385  0.12212628  0.23546638  1
  O  O51  1  0.91603602  0.32573103  0.14617028  1
  O  O52  1  0.33073881  0.66779310  0.15863675  1
  O  O53  1  0.79049801  0.24713816  0.99616940  1
  O  O54  1  0.38159385  0.37787372  0.73546638  1
  O  O55  1  0.87529316  0.65955984  0.98225265  1
  O  O56  1  0.24407067  0.55981374  0.62977315  1
  O  O57  1  0.20950199  0.74713816  0.50383060  1
  O  O58  1  0.12470684  0.34044016  0.01774735  1
  O  O59  1  0.34853897  0.33047021  0.90038751  1
  O  O60  1  0.61840615  0.87787372  0.76453362  1
  O  O61  1  0.66926119  0.33220690  0.84136325  1
  O  O62  1  0.08396398  0.67426897  0.85382972  1
  O  O63  1  0.55732281  0.88006035  0.20671398  1
