# generated using pymatgen
data_As2Cl3OF5
_symmetry_space_group_name_H-M   'P 1'
_cell_length_a   6.21434802
_cell_length_b   8.03707362
_cell_length_c   19.37523260
_cell_angle_alpha   90.00000000
_cell_angle_beta   90.00000000
_cell_angle_gamma   108.24625645
_symmetry_Int_Tables_number   1
_chemical_formula_structural   As2Cl3OF5
_chemical_formula_sum   'As8 Cl12 O4 F20'
_cell_volume   919.04301028
_cell_formula_units_Z   4
loop_
 _symmetry_equiv_pos_site_id
 _symmetry_equiv_pos_as_xyz
  1  'x, y, z'
loop_
 _atom_site_type_symbol
 _atom_site_label
 _atom_site_symmetry_multiplicity
 _atom_site_fract_x
 _atom_site_fract_y
 _atom_site_fract_z
 _atom_site_occupancy
  As  As0  1  0.44776683  0.81625212  0.62120725  1
  As  As1  1  0.86060322  0.18376637  0.61307342  1
  As  As2  1  0.44776683  0.31625212  0.87879275  1
  As  As3  1  0.55223317  0.18374788  0.37879275  1
  As  As4  1  0.13939678  0.81623363  0.38692658  1
  As  As5  1  0.55223317  0.68374788  0.12120725  1
  As  As6  1  0.13939678  0.31623363  0.11307342  1
  As  As7  1  0.86060322  0.68376637  0.88692658  1
  Cl  Cl8  1  0.31354178  0.63420073  0.36723592  1
  Cl  Cl9  1  0.03033570  0.15812010  0.70468485  1
  Cl  Cl10  1  0.96966430  0.84187990  0.29531515  1
  Cl  Cl11  1  0.68645822  0.86579927  0.86723592  1
  Cl  Cl12  1  0.03033570  0.65812010  0.79531515  1
  Cl  Cl13  1  0.89287376  0.71089092  0.46275627  1
  Cl  Cl14  1  0.89287376  0.21089092  0.03724373  1
  Cl  Cl15  1  0.96966430  0.34187990  0.20468485  1
  Cl  Cl16  1  0.10712624  0.78910908  0.96275627  1
  Cl  Cl17  1  0.10712624  0.28910908  0.53724373  1
  Cl  Cl18  1  0.68645822  0.36579927  0.63276408  1
  Cl  Cl19  1  0.31354178  0.13420073  0.13276408  1
  O  O20  1  0.69604004  0.99205146  0.57755176  1
  O  O21  1  0.69604004  0.49205146  0.92244824  1
  O  O22  1  0.30395996  0.00794854  0.42244824  1
  O  O23  1  0.30395996  0.50794854  0.07755176  1
  F  F24  1  0.35339857  0.27869557  0.34540491  1
  F  F25  1  0.48074250  0.94897123  0.69613830  1
  F  F26  1  0.35339857  0.77869557  0.15459509  1
  F  F27  1  0.26033061  0.42017202  0.91299281  1
  F  F28  1  0.43602016  0.70008431  0.54315165  1
  F  F29  1  0.56397984  0.29991569  0.45684835  1
  F  F30  1  0.48074250  0.44897123  0.80386170  1
  F  F31  1  0.64660143  0.72130443  0.65459509  1
  F  F32  1  0.26033061  0.92017202  0.58700719  1
  F  F33  1  0.51925750  0.55102877  0.19613830  1
  F  F34  1  0.22210237  0.14764319  0.84269158  1
  F  F35  1  0.22210237  0.64764319  0.65730842  1
  F  F36  1  0.51925750  0.05102877  0.30386170  1
  F  F37  1  0.73966939  0.57982798  0.08700719  1
  F  F38  1  0.77789763  0.35235681  0.34269158  1
  F  F39  1  0.73966939  0.07982798  0.41299281  1
  F  F40  1  0.64660143  0.22130443  0.84540491  1
  F  F41  1  0.56397984  0.79991569  0.04315165  1
  F  F42  1  0.43602016  0.20008431  0.95684835  1
  F  F43  1  0.77789763  0.85235681  0.15730842  1
