# generated using pymatgen
data_GeClO2F5
_symmetry_space_group_name_H-M   'P 1'
_cell_length_a   7.59144484
_cell_length_b   8.53146387
_cell_length_c   9.04218782
_cell_angle_alpha   90.00000000
_cell_angle_beta   90.00000000
_cell_angle_gamma   116.41749697
_symmetry_Int_Tables_number   1
_chemical_formula_structural   GeClO2F5
_chemical_formula_sum   'Ge4 Cl4 O8 F20'
_cell_volume   524.47396671
_cell_formula_units_Z   4
loop_
 _symmetry_equiv_pos_site_id
 _symmetry_equiv_pos_as_xyz
  1  'x, y, z'
loop_
 _atom_site_type_symbol
 _atom_site_label
 _atom_site_symmetry_multiplicity
 _atom_site_fract_x
 _atom_site_fract_y
 _atom_site_fract_z
 _atom_site_occupancy
  Ge  Ge0  1  0.76868434  0.77262773  0.18276084  1
  Ge  Ge1  1  0.23131566  0.22737227  0.68276084  1
  Ge  Ge2  1  -0.00394338  0.22737227  0.31723916  1
  Ge  Ge3  1  1.00394338  0.77262773  0.81723916  1
  Cl  Cl4  1  0.61275278  0.22550556  0.00000000  1
  Cl  Cl5  1  0.72567281  0.45134561  0.50000000  1
  Cl  Cl6  1  0.38724722  0.77449444  0.50000000  1
  Cl  Cl7  1  0.27432719  0.54865439  0.00000000  1
  O  O8  1  0.52550582  0.86817081  0.61231662  1
  O  O9  1  0.47449418  0.13182919  0.11231662  1
  O  O10  1  0.61109628  0.35733475  0.37661511  1
  O  O11  1  0.34266499  0.86817081  0.38768338  1
  O  O12  1  0.74623847  0.35733475  0.62338489  1
  O  O13  1  0.25376153  0.64266525  0.12338489  1
  O  O14  1  0.38890372  0.64266525  0.87661511  1
  O  O15  1  0.65733501  0.13182919  0.88768338  1
  F  F16  1  0.23973794  0.31315397  0.25097530  1
  F  F17  1  0.96687575  0.56569575  0.90013801  1
  F  F18  1  0.03235321  0.00000000  0.75000000  1
  F  F19  1  0.76026206  0.68684603  0.75097530  1
  F  F20  1  0.24672895  0.88150649  0.88495483  1
  F  F21  1  0.40118000  0.43430425  0.59986199  1
  F  F22  1  0.03312425  0.43430425  0.40013801  1
  F  F23  1  0.75327105  0.11849351  0.38495483  1
  F  F24  1  0.63861679  0.72482697  0.36164942  1
  F  F25  1  0.59882000  0.56569575  0.09986199  1
  F  F26  1  0.96764679  0.00000000  0.25000000  1
  F  F27  1  0.91962367  0.83924733  0.00000000  1
  F  F28  1  0.36522247  0.11849351  0.61504517  1
  F  F29  1  0.63477753  0.88150649  0.11504517  1
  F  F30  1  0.07341603  0.31315397  0.74902470  1
  F  F31  1  0.91378983  0.27517303  0.13835058  1
  F  F32  1  0.36138321  0.27517303  0.86164942  1
  F  F33  1  0.08621017  0.72482697  0.63835058  1
  F  F34  1  0.92658397  0.68684603  0.24902470  1
  F  F35  1  0.08037633  0.16075267  0.50000000  1
