# generated using pymatgen
data_BaSi6N8O
_symmetry_space_group_name_H-M   'P 1'
_cell_length_a   4.86937387
_cell_length_b   6.82807179
_cell_length_c   6.82807273
_cell_angle_alpha   73.46510658
_cell_angle_beta   69.11029232
_cell_angle_gamma   69.11029392
_symmetry_Int_Tables_number   1
_chemical_formula_structural   BaSi6N8O
_chemical_formula_sum   'Ba1 Si6 N8 O1'
_cell_volume   194.90769328
_cell_formula_units_Z   1
loop_
 _symmetry_equiv_pos_site_id
 _symmetry_equiv_pos_as_xyz
  1  'x, y, z'
loop_
 _atom_site_type_symbol
 _atom_site_label
 _atom_site_symmetry_multiplicity
 _atom_site_fract_x
 _atom_site_fract_y
 _atom_site_fract_z
 _atom_site_occupancy
  Ba  Ba0  1  0.49814189  0.50000000  0.50000000  1
  Si  Si1  1  0.17964423  0.64467744  0.03796341  1
  Si  Si2  1  0.68523364  0.83941254  0.83941254  1
  Si  Si3  1  0.17964423  0.03796341  0.64467744  1
  Si  Si4  1  0.36405873  0.16058746  0.16058746  1
  Si  Si5  1  0.86228509  0.96203659  0.35532256  1
  Si  Si6  1  0.86228509  0.35532256  0.96203659  1
  N  N7  1  0.05281779  0.72553758  0.27446242  1
  N  N8  1  0.90253359  0.95452837  0.60308089  1
  N  N9  1  0.05281779  0.27446242  0.72553758  1
  N  N10  1  0.98771101  0.18681651  0.18681651  1
  N  N11  1  0.90253359  0.60308089  0.95452837  1
  N  N12  1  0.36134404  0.81318349  0.81318349  1
  N  N13  1  0.46014285  0.39691911  0.04547163  1
  N  N14  1  0.46014285  0.04547163  0.39691911  1
  O  O15  1  0.61216360  1.00000000  0.00000000  1
