# generated using pymatgen
data_Na6PbO5
_symmetry_space_group_name_H-M   'P 1'
_cell_length_a   5.78536057
_cell_length_b   6.13228187
_cell_length_c   11.06125555
_cell_angle_alpha   90.00000000
_cell_angle_beta   90.00000000
_cell_angle_gamma   118.14558270
_symmetry_Int_Tables_number   1
_chemical_formula_structural   Na6PbO5
_chemical_formula_sum   'Na12 Pb2 O10'
_cell_volume   346.02171379
_cell_formula_units_Z   2
loop_
 _symmetry_equiv_pos_site_id
 _symmetry_equiv_pos_as_xyz
  1  'x, y, z'
loop_
 _atom_site_type_symbol
 _atom_site_label
 _atom_site_symmetry_multiplicity
 _atom_site_fract_x
 _atom_site_fract_y
 _atom_site_fract_z
 _atom_site_occupancy
  Na  Na0  1  0.32276970  0.00000000  0.06093350  1
  Na  Na1  1  0.32276970  0.00000000  0.43906650  1
  Na  Na2  1  0.67723030  0.00000000  0.56093350  1
  Na  Na3  1  0.43047091  0.59518521  0.75000000  1
  Na  Na4  1  0.78012544  0.56025088  0.00000000  1
  Na  Na5  1  0.83528570  0.40481479  0.75000000  1
  Na  Na6  1  0.21987456  0.43974912  0.50000000  1
  Na  Na7  1  0.67723030  0.00000000  0.93906650  1
  Na  Na8  1  0.16471430  0.59518521  0.25000000  1
  Na  Na9  1  0.21987456  0.43974912  0.00000000  1
  Na  Na10  1  0.78012544  0.56025088  0.50000000  1
  Na  Na11  1  0.56952909  0.40481479  0.25000000  1
  Pb  Pb12  1  0.20538814  0.00000000  0.75000000  1
  Pb  Pb13  1  0.79461186  0.00000000  0.25000000  1
  O  O14  1  0.16670429  0.00000000  0.25000000  1
  O  O15  1  0.44332792  0.27878246  0.88616812  1
  O  O16  1  0.16454546  0.72121754  0.61383188  1
  O  O17  1  0.44332792  0.27878246  0.61383188  1
  O  O18  1  0.55667208  0.72121754  0.38616812  1
  O  O19  1  0.55667208  0.72121754  0.11383188  1
  O  O20  1  0.16454546  0.72121754  0.88616812  1
  O  O21  1  0.83545454  0.27878246  0.11383188  1
  O  O22  1  0.83329571  0.00000000  0.75000000  1
  O  O23  1  0.83545454  0.27878246  0.38616812  1
