# generated using pymatgen
data_V2Ni2O7
_symmetry_space_group_name_H-M   'P 1'
_cell_length_a   6.63248677
_cell_length_b   8.42682848
_cell_length_c   9.51028537
_cell_angle_alpha   90.00000000
_cell_angle_beta   100.11026197
_cell_angle_gamma   90.00000000
_symmetry_Int_Tables_number   1
_chemical_formula_structural   V2Ni2O7
_chemical_formula_sum   'V8 Ni8 O28'
_cell_volume   523.28387995
_cell_formula_units_Z   4
loop_
 _symmetry_equiv_pos_site_id
 _symmetry_equiv_pos_as_xyz
  1  'x, y, z'
loop_
 _atom_site_type_symbol
 _atom_site_label
 _atom_site_symmetry_multiplicity
 _atom_site_fract_x
 _atom_site_fract_y
 _atom_site_fract_z
 _atom_site_occupancy
  O  O0  1  0.85360320  0.11981096  0.50533556  1
  O  O1  1  0.14639680  0.61981096  0.99466444  1
  O  O2  1  0.14639680  0.88018904  0.49466444  1
  O  O3  1  0.85360320  0.38018904  0.00533556  1
  O  O4  1  0.02963740  0.41749001  0.74765848  1
  O  O5  1  0.97036260  0.91749001  0.75234152  1
  O  O6  1  0.97036260  0.58250999  0.25234152  1
  O  O7  1  0.02963740  0.08250999  0.24765848  1
  O  O8  1  0.67871928  0.12404919  0.84868398  1
  O  O9  1  0.32128072  0.62404919  0.65131602  1
  O  O10  1  0.32128072  0.87595081  0.15131602  1
  O  O11  1  0.67871928  0.37595081  0.34868398  1
  O  O12  1  0.25477012  0.14280639  0.67990813  1
  O  O13  1  0.74522988  0.64280639  0.82009187  1
  O  O14  1  0.74522988  0.85719361  0.32009187  1
  O  O15  1  0.25477012  0.35719361  0.17990813  1
  O  O16  1  0.60434887  0.13147824  0.12458415  1
  O  O17  1  0.39565113  0.63147824  0.37541585  1
  O  O18  1  0.39565113  0.86852176  0.87541585  1
  O  O19  1  0.60434887  0.36852176  0.62458415  1
  O  O20  1  0.42593507  0.12625257  0.39406871  1
  O  O21  1  0.57406493  0.62625257  0.10593129  1
  O  O22  1  0.57406493  0.87374743  0.60593129  1
  O  O23  1  0.42593507  0.37374743  0.89406871  1
  O  O24  1  0.17086301  0.36803253  0.45948943  1
  O  O25  1  0.82913699  0.86803253  0.04051057  1
  O  O26  1  0.82913699  0.63196747  0.54051057  1
  O  O27  1  0.17086301  0.13196747  0.95948943  1
  V  V28  1  0.19488992  0.48057514  0.31210540  1
  V  V29  1  0.80511008  0.98057514  0.18789460  1
  V  V30  1  0.80511008  0.51942486  0.68789460  1
  V  V31  1  0.19488992  0.01942486  0.81210540  1
  V  V32  1  0.36247782  0.74032758  0.03121802  1
  V  V33  1  0.63752218  0.24032758  0.46878198  1
  V  V34  1  0.63752218  0.25967242  0.96878198  1
  V  V35  1  0.36247782  0.75967242  0.53121802  1
  Ni  Ni36  1  0.30312788  0.11282027  0.17875910  1
  Ni  Ni37  1  0.69687212  0.61282027  0.32124090  1
  Ni  Ni38  1  0.69687212  0.88717973  0.82124090  1
  Ni  Ni39  1  0.30312788  0.38717973  0.67875910  1
  Ni  Ni40  1  0.14621843  0.37892339  0.96267072  1
  Ni  Ni41  1  0.85378157  0.87892339  0.53732928  1
  Ni  Ni42  1  0.85378157  0.62107661  0.03732928  1
  Ni  Ni43  1  0.14621843  0.12107661  0.46267072  1
