# generated using pymatgen
data_KRb2VF6
_symmetry_space_group_name_H-M   'P 1'
_cell_length_a   6.38961346
_cell_length_b   6.39003656
_cell_length_c   6.42266947
_cell_angle_alpha   60.17142130
_cell_angle_beta   60.17237141
_cell_angle_gamma   59.98933139
_symmetry_Int_Tables_number   1
_chemical_formula_structural   KRb2VF6
_chemical_formula_sum   'K1 Rb2 V1 F6'
_cell_volume   185.89461558
_cell_formula_units_Z   1
loop_
 _symmetry_equiv_pos_site_id
 _symmetry_equiv_pos_as_xyz
  1  'x, y, z'
loop_
 _atom_site_type_symbol
 _atom_site_label
 _atom_site_symmetry_multiplicity
 _atom_site_fract_x
 _atom_site_fract_y
 _atom_site_fract_z
 _atom_site_occupancy
  F  F0  1  0.21860075  0.78049535  0.78231355  1
  F  F1  1  0.21876092  0.78163342  0.21847606  1
  F  F2  1  0.78124377  0.21836959  0.78152495  1
  F  F3  1  0.21890521  0.21839170  0.78143444  1
  F  F4  1  0.78139558  0.21950528  0.21769199  1
  F  F5  1  0.78108868  0.78161382  0.21856867  1
  K  K6  1  0.49999995  0.50000200  0.50000040  1
  V  V7  1  0.99999756  -0.00001111  0.99999687  1
  Rb  Rb8  1  0.74900484  0.74904733  0.75294569  1
  Rb  Rb9  1  0.25100273  0.25095261  0.24704736  1
