# generated using pymatgen
data_KBi(PS3)2
_symmetry_space_group_name_H-M   'P 1'
_cell_length_a   6.75892593
_cell_length_b   7.57116312
_cell_length_c   10.05756157
_cell_angle_alpha   90.00000000
_cell_angle_beta   92.21903742
_cell_angle_gamma   90.00000000
_symmetry_Int_Tables_number   1
_chemical_formula_structural   KBi(PS3)2
_chemical_formula_sum   'K2 Bi2 P4 S12'
_cell_volume   514.28895033
_cell_formula_units_Z   2
loop_
 _symmetry_equiv_pos_site_id
 _symmetry_equiv_pos_as_xyz
  1  'x, y, z'
loop_
 _atom_site_type_symbol
 _atom_site_label
 _atom_site_symmetry_multiplicity
 _atom_site_fract_x
 _atom_site_fract_y
 _atom_site_fract_z
 _atom_site_occupancy
  K  K0  1  0.29835363  0.52480502  0.49805615  1
  K  K1  1  0.70164637  0.02480502  0.50194385  1
  Bi  Bi2  1  0.78941112  0.77200456  0.98241907  1
  Bi  Bi3  1  0.21058888  0.27200456  0.01758093  1
  P  P4  1  0.68766666  0.31552889  0.82836723  1
  P  P5  1  0.20392011  0.04078031  0.29770967  1
  P  P6  1  0.31233334  0.81552889  0.17163277  1
  P  P7  1  0.79607989  0.54078031  0.70229033  1
  S  S8  1  0.42776183  0.22809336  0.75001104  1
  S  S9  1  0.82271923  0.46021037  0.51685391  1
  S  S10  1  0.41143354  0.23147100  0.26910442  1
  S  S11  1  0.65531046  0.42986329  0.01396133  1
  S  S12  1  0.04755574  0.62020076  0.80956161  1
  S  S13  1  0.58856646  0.73147100  0.73089558  1
  S  S14  1  0.34468954  0.92986329  0.98603867  1
  S  S15  1  0.95244426  0.12020076  0.19043839  1
  S  S16  1  0.17728077  0.96021037  0.48314609  1
  S  S17  1  0.09124288  0.62815244  0.16994497  1
  S  S18  1  0.90875712  0.12815244  0.83005503  1
  S  S19  1  0.57223817  0.72809336  0.24998896  1
