# generated using pymatgen
data_CsReOF6
_symmetry_space_group_name_H-M   'P 1'
_cell_length_a   7.27523534
_cell_length_b   8.21828274
_cell_length_c   10.98976201
_cell_angle_alpha   92.65120985
_cell_angle_beta   90.00000000
_cell_angle_gamma   90.00000000
_symmetry_Int_Tables_number   1
_chemical_formula_structural   CsReOF6
_chemical_formula_sum   'Cs4 Re4 O4 F24'
_cell_volume   656.37390413
_cell_formula_units_Z   4
loop_
 _symmetry_equiv_pos_site_id
 _symmetry_equiv_pos_as_xyz
  1  'x, y, z'
loop_
 _atom_site_type_symbol
 _atom_site_label
 _atom_site_symmetry_multiplicity
 _atom_site_fract_x
 _atom_site_fract_y
 _atom_site_fract_z
 _atom_site_occupancy
  Cs  Cs0  1  0.25871331  0.78030263  0.00045646  1
  Cs  Cs1  1  0.74128669  0.21969737  0.99954354  1
  Cs  Cs2  1  0.75871331  0.21969737  0.49954354  1
  Cs  Cs3  1  0.24128669  0.78030263  0.50045646  1
  Re  Re4  1  0.22017608  0.28336212  0.26294163  1
  Re  Re5  1  0.27982392  0.28336212  0.76294163  1
  Re  Re6  1  0.77982392  0.71663788  0.73705837  1
  Re  Re7  1  0.72017608  0.71663788  0.23705837  1
  O  O8  1  0.23999823  0.42131710  0.15209313  1
  O  O9  1  0.76000177  0.57868290  0.84790687  1
  O  O10  1  0.26000177  0.42131710  0.65209313  1
  O  O11  1  0.73999823  0.57868290  0.34790687  1
  F  F12  1  0.95311249  0.26955294  0.24648312  1
  F  F13  1  0.45311249  0.73044706  0.25351688  1
  F  F14  1  0.44698714  0.17234054  0.22073194  1
  F  F15  1  0.66191879  0.89607611  0.35079636  1
  F  F16  1  0.54688751  0.26955294  0.74648312  1
  F  F17  1  0.16191879  0.10392389  0.14920364  1
  F  F18  1  0.33808121  0.10392389  0.64920364  1
  F  F19  1  0.91340594  0.62278969  0.13521356  1
  F  F20  1  0.18671532  0.12747833  0.39077903  1
  F  F21  1  0.04688751  0.73044706  0.75351688  1
  F  F22  1  0.89008940  0.55985936  0.62153567  1
  F  F23  1  0.41340594  0.37721031  0.36478644  1
  F  F24  1  0.55301286  0.82765946  0.77926806  1
  F  F25  1  0.83808121  0.89607611  0.85079636  1
  F  F26  1  0.58659406  0.62278969  0.63521356  1
  F  F27  1  0.10991060  0.44014064  0.37846433  1
  F  F28  1  0.68671532  0.87252167  0.10922097  1
  F  F29  1  0.05301286  0.17234054  0.72073194  1
  F  F30  1  0.81328468  0.87252167  0.60922097  1
  F  F31  1  0.39008940  0.44014064  0.87846433  1
  F  F32  1  0.31328468  0.12747833  0.89077903  1
  F  F33  1  0.08659406  0.37721031  0.86478644  1
  F  F34  1  0.60991060  0.55985936  0.12153567  1
  F  F35  1  0.94698714  0.82765946  0.27926806  1
