# generated using pymatgen
data_K2Be2(SiO3)3
_symmetry_space_group_name_H-M   'P 1'
_cell_length_a   6.98091842
_cell_length_b   10.31488323
_cell_length_c   12.24735790
_cell_angle_alpha   106.71651919
_cell_angle_beta   90.00000000
_cell_angle_gamma   90.00000000
_symmetry_Int_Tables_number   1
_chemical_formula_structural   K2Be2(SiO3)3
_chemical_formula_sum   'K8 Be8 Si12 O36'
_cell_volume   844.63045171
_cell_formula_units_Z   4
loop_
 _symmetry_equiv_pos_site_id
 _symmetry_equiv_pos_as_xyz
  1  'x, y, z'
loop_
 _atom_site_type_symbol
 _atom_site_label
 _atom_site_symmetry_multiplicity
 _atom_site_fract_x
 _atom_site_fract_y
 _atom_site_fract_z
 _atom_site_occupancy
  K  K0  1  0.37373999  0.45976560  0.14391440  1
  K  K1  1  0.10672024  0.93721834  0.35230811  1
  K  K2  1  0.87373999  0.54023440  0.35608560  1
  K  K3  1  0.62626001  0.54023440  0.85608560  1
  K  K4  1  0.12626001  0.45976560  0.64391440  1
  K  K5  1  0.39327976  0.93721834  0.85230811  1
  K  K6  1  0.89327976  0.06278166  0.64769189  1
  K  K7  1  0.60672024  0.06278166  0.14769189  1
  Be  Be8  1  0.07193912  0.93522928  0.05751864  1
  Be  Be9  1  0.92806088  0.06477072  0.94248136  1
  Be  Be10  1  0.57193912  0.06477072  0.44248136  1
  Be  Be11  1  0.09057497  0.57111910  0.95808500  1
  Be  Be12  1  0.59057497  0.42888090  0.54191500  1
  Be  Be13  1  0.42806088  0.93522928  0.55751864  1
  Be  Be14  1  0.40942503  0.57111910  0.45808500  1
  Be  Be15  1  0.90942503  0.42888090  0.04191500  1
  Si  Si16  1  0.31814837  0.25762173  0.37342037  1
  Si  Si17  1  0.88509204  0.23784446  0.41945364  1
  Si  Si18  1  0.11490796  0.76215554  0.58054636  1
  Si  Si19  1  0.61490796  0.23784446  0.91945364  1
  Si  Si20  1  0.96868656  0.75814012  0.81851915  1
  Si  Si21  1  0.18185163  0.25762173  0.87342037  1
  Si  Si22  1  0.38509204  0.76215554  0.08054636  1
  Si  Si23  1  0.81814837  0.74237827  0.12657963  1
  Si  Si24  1  0.53131344  0.75814012  0.31851915  1
  Si  Si25  1  0.03131344  0.24185988  0.18148085  1
  Si  Si26  1  0.68185163  0.74237827  0.62657963  1
  Si  Si27  1  0.46868656  0.24185988  0.68148085  1
  O  O28  1  0.80042477  0.37804901  0.50000385  1
  O  O29  1  0.19957523  0.62195099  0.49999615  1
  O  O30  1  0.87346872  0.23535004  0.28205236  1
  O  O31  1  0.30042477  0.62195099  0.99999615  1
  O  O32  1  0.45089093  0.12727709  0.36003515  1
  O  O33  1  0.37346872  0.76464996  0.21794764  1
  O  O34  1  0.69957523  0.37804901  0.00000385  1
  O  O35  1  0.12653128  0.76464996  0.71794764  1
  O  O36  1  0.98119477  0.89888571  0.92193886  1
  O  O37  1  0.54910907  0.87272291  0.63996485  1
  O  O38  1  0.87887774  0.75947222  0.55508693  1
  O  O39  1  0.74604562  0.74198562  0.25639674  1
  O  O40  1  0.50678794  0.37648861  0.64361774  1
  O  O41  1  0.48119477  0.10111429  0.57806114  1
  O  O42  1  0.25395438  0.25801438  0.74360326  1
  O  O43  1  0.00678794  0.62351139  0.85638226  1
  O  O44  1  0.99321206  0.37648861  0.14361774  1
  O  O45  1  0.12112226  0.24052778  0.44491307  1
  O  O46  1  0.20263981  0.89887336  0.56041809  1
  O  O47  1  0.62112226  0.75947222  0.05508693  1
  O  O48  1  0.42563431  0.40133773  0.43362619  1
  O  O49  1  0.79736019  0.10112664  0.43958191  1
  O  O50  1  0.04910907  0.12727709  0.86003515  1
  O  O51  1  0.92563431  0.59866227  0.06637381  1
  O  O52  1  0.07436569  0.40133773  0.93362619  1
  O  O53  1  0.49321206  0.62351139  0.35638226  1
  O  O54  1  0.57436569  0.59866227  0.56637381  1
  O  O55  1  0.37887774  0.24052778  0.94491307  1
  O  O56  1  0.75395438  0.74198562  0.75639674  1
  O  O57  1  0.51880523  0.89888571  0.42193886  1
  O  O58  1  0.24604562  0.25801438  0.24360326  1
  O  O59  1  0.01880523  0.10111429  0.07806114  1
  O  O60  1  0.29736019  0.89887336  0.06041809  1
  O  O61  1  0.95089093  0.87272291  0.13996485  1
  O  O62  1  0.70263981  0.10112664  0.93958191  1
  O  O63  1  0.62653128  0.23535004  0.78205236  1
