# generated using pymatgen
data_K5V3F14
_symmetry_space_group_name_H-M   'P 1'
_cell_length_a   7.78491779
_cell_length_b   7.78491779
_cell_length_c   11.93086512
_cell_angle_alpha   90.00000000
_cell_angle_beta   90.00000000
_cell_angle_gamma   90.00000000
_symmetry_Int_Tables_number   1
_chemical_formula_structural   K5V3F14
_chemical_formula_sum   'K10 V6 F28'
_cell_volume   723.06942436
_cell_formula_units_Z   2
loop_
 _symmetry_equiv_pos_site_id
 _symmetry_equiv_pos_as_xyz
  1  'x, y, z'
loop_
 _atom_site_type_symbol
 _atom_site_label
 _atom_site_symmetry_multiplicity
 _atom_site_fract_x
 _atom_site_fract_y
 _atom_site_fract_z
 _atom_site_occupancy
  K  K0  1  0.21734290  0.28265710  0.75000000  1
  K  K1  1  0.71734290  0.21734290  0.75000000  1
  K  K2  1  0.28265710  0.78265710  0.75000000  1
  K  K3  1  0.78265710  0.71734290  0.75000000  1
  K  K4  1  0.78265710  0.71734290  0.25000000  1
  K  K5  1  0.28265710  0.78265710  0.25000000  1
  K  K6  1  0.71734290  0.21734290  0.25000000  1
  K  K7  1  0.21734290  0.28265710  0.25000000  1
  K  K8  1  0.00000000  0.00000000  0.00000000  1
  K  K9  1  0.50000000  0.50000000  0.50000000  1
  V  V10  1  0.50000000  0.50000000  0.00000000  1
  V  V11  1  0.00000000  0.00000000  0.50000000  1
  V  V12  1  0.50000000  0.00000000  0.00000000  1
  V  V13  1  0.00000000  0.50000000  0.00000000  1
  V  V14  1  0.00000000  0.50000000  0.50000000  1
  V  V15  1  0.50000000  0.00000000  0.50000000  1
  F  F16  1  0.50000000  0.50000000  0.83567483  1
  F  F17  1  0.00000000  0.00000000  0.66432517  1
  F  F18  1  0.50000000  0.50000000  0.16432517  1
  F  F19  1  0.00000000  0.00000000  0.33567483  1
  F  F20  1  0.42692276  0.74698755  0.00000000  1
  F  F21  1  0.57307724  0.25301245  0.00000000  1
  F  F22  1  0.24698755  0.92692276  0.50000000  1
  F  F23  1  0.74698755  0.57307724  0.00000000  1
  F  F24  1  0.25301245  0.42692276  0.00000000  1
  F  F25  1  0.07307724  0.24698755  0.50000000  1
  F  F26  1  0.92692276  0.75301245  0.50000000  1
  F  F27  1  0.75301245  0.07307724  0.50000000  1
  F  F28  1  0.67460732  0.95846667  0.88578880  1
  F  F29  1  0.32539268  0.04153333  0.88578880  1
  F  F30  1  0.45846667  0.17460732  0.61421120  1
  F  F31  1  0.95846667  0.32539268  0.88578880  1
  F  F32  1  0.45846667  0.17460732  0.38578880  1
  F  F33  1  0.82539268  0.45846667  0.38578880  1
  F  F34  1  0.17460732  0.54153333  0.38578880  1
  F  F35  1  0.95846667  0.32539268  0.11421120  1
  F  F36  1  0.04153333  0.67460732  0.11421120  1
  F  F37  1  0.54153333  0.82539268  0.38578880  1
  F  F38  1  0.67460732  0.95846667  0.11421120  1
  F  F39  1  0.32539268  0.04153333  0.11421120  1
  F  F40  1  0.54153333  0.82539268  0.61421120  1
  F  F41  1  0.17460732  0.54153333  0.61421120  1
  F  F42  1  0.82539268  0.45846667  0.61421120  1
  F  F43  1  0.04153333  0.67460732  0.88578880  1
