# generated using pymatgen
data_Ba2CaUO6
_symmetry_space_group_name_H-M   'P 1'
_cell_length_a   6.19140065
_cell_length_b   6.22773119
_cell_length_c   8.74402226
_cell_angle_alpha   90.16970209
_cell_angle_beta   90.00000000
_cell_angle_gamma   90.00000000
_symmetry_Int_Tables_number   1
_chemical_formula_structural   Ba2CaUO6
_chemical_formula_sum   'Ba4 Ca2 U2 O12'
_cell_volume   337.15384459
_cell_formula_units_Z   2
loop_
 _symmetry_equiv_pos_site_id
 _symmetry_equiv_pos_as_xyz
  1  'x, y, z'
loop_
 _atom_site_type_symbol
 _atom_site_label
 _atom_site_symmetry_multiplicity
 _atom_site_fract_x
 _atom_site_fract_y
 _atom_site_fract_z
 _atom_site_occupancy
  Ba  Ba0  1  0.98465133  0.00519454  0.25010145  1
  Ba  Ba1  1  0.48465133  0.49480546  0.24989855  1
  Ba  Ba2  1  0.01534867  0.99480546  0.74989855  1
  Ba  Ba3  1  0.51534867  0.50519454  0.75010145  1
  Ca  Ca4  1  0.00000000  0.50000000  0.00000000  1
  Ca  Ca5  1  0.50000000  0.00000000  0.50000000  1
  U  U6  1  0.00000000  0.50000000  0.50000000  1
  U  U7  1  0.50000000  0.00000000  0.00000000  1
  O  O8  1  0.21632613  0.24531910  0.46428766  1
  O  O9  1  0.48793063  0.06942671  0.76514711  1
  O  O10  1  0.74316867  0.28569519  0.46086159  1
  O  O11  1  0.78367387  0.75468090  0.53571234  1
  O  O12  1  0.01206937  0.56942671  0.26514711  1
  O  O13  1  0.24316867  0.21430481  0.03913841  1
  O  O14  1  0.28367387  0.74531910  0.96428766  1
  O  O15  1  0.71632613  0.25468090  0.03571234  1
  O  O16  1  0.98793063  0.43057329  0.73485289  1
  O  O17  1  0.51206937  0.93057329  0.23485289  1
  O  O18  1  0.75683133  0.78569519  0.96086159  1
  O  O19  1  0.25683133  0.71430481  0.53913841  1
