# generated using pymatgen
data_Li4Ca(BO3)2
_symmetry_space_group_name_H-M   'P 1'
_cell_length_a   3.50884554
_cell_length_b   8.14579551
_cell_length_c   9.32077107
_cell_angle_alpha   90.00000000
_cell_angle_beta   90.00000000
_cell_angle_gamma   90.00000000
_symmetry_Int_Tables_number   1
_chemical_formula_structural   Li4Ca(BO3)2
_chemical_formula_sum   'Li8 Ca2 B4 O12'
_cell_volume   266.40943143
_cell_formula_units_Z   2
loop_
 _symmetry_equiv_pos_site_id
 _symmetry_equiv_pos_as_xyz
  1  'x, y, z'
loop_
 _atom_site_type_symbol
 _atom_site_label
 _atom_site_symmetry_multiplicity
 _atom_site_fract_x
 _atom_site_fract_y
 _atom_site_fract_z
 _atom_site_occupancy
  Li  Li0  1  -0.00000000  0.48758792  0.19778310  1
  Li  Li1  1  -0.00000000  0.51241208  0.80221690  1
  Li  Li2  1  0.50000000  0.01241208  0.69778310  1
  Li  Li3  1  0.50000000  0.98758792  0.30221690  1
  Li  Li4  1  0.50000000  0.66904783  0.95096820  1
  Li  Li5  1  0.50000000  0.33095217  0.04903180  1
  Li  Li6  1  -0.00000000  0.83095217  0.45096820  1
  Li  Li7  1  -0.00000000  0.16904783  0.54903180  1
  Ca  Ca8  1  0.50000000  0.50000000  0.50000000  1
  Ca  Ca9  1  0.00000000  -0.00000000  -0.00000000  1
  B  B10  1  0.50000000  0.72828481  0.20929907  1
  B  B11  1  0.50000000  0.27171519  0.79070093  1
  B  B12  1  -0.00000000  0.77171519  0.70929907  1
  B  B13  1  -0.00000000  0.22828481  0.29070093  1
  O  O14  1  0.50000000  0.75239309  0.35740786  1
  O  O15  1  0.50000000  0.24760691  0.64259214  1
  O  O16  1  -0.00000000  0.74760691  0.85740786  1
  O  O17  1  -0.00000000  0.25239309  0.14259214  1
  O  O18  1  0.50000000  0.57298885  0.14908050  1
  O  O19  1  0.50000000  0.42701115  0.85091950  1
  O  O20  1  0.00000000  0.92701115  0.64908050  1
  O  O21  1  -0.00000000  0.07298885  0.35091950  1
  O  O22  1  -0.00000000  0.36547621  0.38090669  1
  O  O23  1  -0.00000000  0.63452379  0.61909331  1
  O  O24  1  0.50000000  0.13452379  0.88090669  1
  O  O25  1  0.50000000  0.86547621  0.11909331  1
