# generated using pymatgen
data_TmSeO3F
_symmetry_space_group_name_H-M   'P 1'
_cell_length_a   6.58846400
_cell_length_b   6.92551036
_cell_length_c   7.16186427
_cell_angle_alpha   90.00000000
_cell_angle_beta   98.32041740
_cell_angle_gamma   90.00000000
_symmetry_Int_Tables_number   1
_chemical_formula_structural   TmSeO3F
_chemical_formula_sum   'Tm4 Se4 O12 F4'
_cell_volume   323.34530434
_cell_formula_units_Z   4
loop_
 _symmetry_equiv_pos_site_id
 _symmetry_equiv_pos_as_xyz
  1  'x, y, z'
loop_
 _atom_site_type_symbol
 _atom_site_label
 _atom_site_symmetry_multiplicity
 _atom_site_fract_x
 _atom_site_fract_y
 _atom_site_fract_z
 _atom_site_occupancy
  Tm  Tm0  1  0.13809540  0.14098904  0.82466147  1
  Tm  Tm1  1  0.86190460  0.85901096  0.17533853  1
  Tm  Tm2  1  0.13809540  0.35901096  0.32466147  1
  Tm  Tm3  1  0.86190460  0.64098904  0.67533853  1
  Se  Se4  1  0.64848703  0.11955626  0.71024031  1
  Se  Se5  1  0.64848703  0.38044374  0.21024031  1
  Se  Se6  1  0.35151297  0.88044374  0.28975969  1
  Se  Se7  1  0.35151297  0.61955626  0.78975969  1
  O  O8  1  0.82789670  0.53048479  0.35270089  1
  O  O9  1  0.17210330  0.46951521  0.64729911  1
  O  O10  1  0.17398442  0.80771468  0.77914498  1
  O  O11  1  0.17398442  0.69228532  0.27914498  1
  O  O12  1  0.48175784  0.18607179  0.86108388  1
  O  O13  1  0.82789670  0.96951521  0.85270089  1
  O  O14  1  0.82601558  0.30771468  0.72085502  1
  O  O15  1  0.48175784  0.31392821  0.36108388  1
  O  O16  1  0.17210330  0.03048479  0.14729911  1
  O  O17  1  0.51824216  0.81392821  0.13891612  1
  O  O18  1  0.51824216  0.68607179  0.63891612  1
  O  O19  1  0.82601558  0.19228532  0.22085502  1
  F  F20  1  0.16528012  0.37956389  0.02623377  1
  F  F21  1  0.83471988  0.62043611  0.97376623  1
  F  F22  1  0.83471988  0.87956389  0.47376623  1
  F  F23  1  0.16528012  0.12043611  0.52623377  1
