# generated using pymatgen
data_KAu(IO3)4
_symmetry_space_group_name_H-M   'P 1'
_cell_length_a   5.90511371
_cell_length_b   7.41267530
_cell_length_c   8.24552607
_cell_angle_alpha   104.96433322
_cell_angle_beta   93.78116707
_cell_angle_gamma   112.43619639
_symmetry_Int_Tables_number   1
_chemical_formula_structural   KAu(IO3)4
_chemical_formula_sum   'K1 Au1 I4 O12'
_cell_volume   316.77892755
_cell_formula_units_Z   1
loop_
 _symmetry_equiv_pos_site_id
 _symmetry_equiv_pos_as_xyz
  1  'x, y, z'
loop_
 _atom_site_type_symbol
 _atom_site_label
 _atom_site_symmetry_multiplicity
 _atom_site_fract_x
 _atom_site_fract_y
 _atom_site_fract_z
 _atom_site_occupancy
  K  K0  1  0.19092481  0.09934078  0.88544180  1
  Au  Au1  1  0.41527667  0.09741355  0.37356405  1
  I  I2  1  0.50129274  0.78933478  0.58450519  1
  I  I3  1  0.88283183  0.40278747  0.23541052  1
  I  I4  1  0.80662020  0.44434821  0.74438171  1
  I  I5  1  0.50399265  0.74310023  0.06549008  1
  O  O6  1  0.35391344  0.78113483  0.77156222  1
  O  O7  1  0.48029277  0.29857470  0.60755518  1
  O  O8  1  0.26626482  0.86348468  0.47242521  1
  O  O9  1  0.81836108  0.69495111  0.75118264  1
  O  O10  1  0.75951708  0.04133052  0.66100533  1
  O  O11  1  0.86540412  0.15349518  0.11898181  1
  O  O12  1  0.22287427  0.50408006  0.00344125  1
  O  O13  1  0.64129810  0.75518753  0.27389654  1
  O  O14  1  0.68245009  0.42904532  0.93995979  1
  O  O15  1  0.31377913  0.90172803  0.13461293  1
  O  O16  1  0.54575648  0.33115887  0.27145228  1
  O  O17  1  0.02714968  0.43024414  0.44876147  1
