# generated using pymatgen
data_NaZr2CoF11
_symmetry_space_group_name_H-M   'P 1'
_cell_length_a   5.75203762
_cell_length_b   5.75203727
_cell_length_c   7.90405860
_cell_angle_alpha   69.19540578
_cell_angle_beta   69.19540705
_cell_angle_gamma   72.68121020
_symmetry_Int_Tables_number   1
_chemical_formula_structural   NaZr2CoF11
_chemical_formula_sum   'Na1 Zr2 Co1 F11'
_cell_volume   224.07614442
_cell_formula_units_Z   1
loop_
 _symmetry_equiv_pos_site_id
 _symmetry_equiv_pos_as_xyz
  1  'x, y, z'
loop_
 _atom_site_type_symbol
 _atom_site_label
 _atom_site_symmetry_multiplicity
 _atom_site_fract_x
 _atom_site_fract_y
 _atom_site_fract_z
 _atom_site_occupancy
  Na  Na0  1  0.00000000  0.00000000  0.00000000  1
  Zr  Zr1  1  0.50595582  0.50595582  0.76366824  1
  Zr  Zr2  1  0.49404418  0.49404418  0.23633176  1
  Co  Co3  1  0.00000000  0.00000000  0.50000000  1
  F  F4  1  0.18975880  0.78023811  0.31185230  1
  F  F5  1  0.81024120  0.21976189  0.68814770  1
  F  F6  1  0.26760271  0.26760271  0.88997998  1
  F  F7  1  0.32864232  0.67135768  0.00000000  1
  F  F8  1  0.75313060  0.75313060  0.64837720  1
  F  F9  1  0.67135768  0.32864232  0.00000000  1
  F  F10  1  0.21976189  0.81024120  0.68814770  1
  F  F11  1  0.78023811  0.18975880  0.31185230  1
  F  F12  1  0.73239729  0.73239729  0.11002002  1
  F  F13  1  0.24686940  0.24686940  0.35162280  1
  F  F14  1  0.50000000  0.50000000  0.50000000  1
