# generated using pymatgen
data_Zr3MnCo8
_symmetry_space_group_name_H-M   'P 1'
_cell_length_a   4.80736060
_cell_length_b   4.80736060
_cell_length_c   8.30856541
_cell_angle_alpha   106.81614149
_cell_angle_beta   73.18385851
_cell_angle_gamma   120.00000000
_symmetry_Int_Tables_number   1
_chemical_formula_structural   Zr3MnCo8
_chemical_formula_sum   'Zr3 Mn1 Co8'
_cell_volume   156.73856467
_cell_formula_units_Z   1
loop_
 _symmetry_equiv_pos_site_id
 _symmetry_equiv_pos_as_xyz
  1  'x, y, z'
loop_
 _atom_site_type_symbol
 _atom_site_label
 _atom_site_symmetry_multiplicity
 _atom_site_fract_x
 _atom_site_fract_y
 _atom_site_fract_z
 _atom_site_occupancy
  Zr  Zr0  1  0.37715535  0.62284465  0.86853395  1
  Zr  Zr1  1  0.98952840  0.01047160  0.03141480  1
  Zr  Zr2  1  0.50690242  0.49309758  0.47929273  1
  Mn  Mn3  1  0.86350580  0.13649420  0.40948261  1
  Co  Co4  1  0.43719644  0.56280356  0.18732112  1
  Co  Co5  1  0.94046501  0.05953499  0.67814268  1
  Co  Co6  1  0.43719644  0.06171401  0.18732112  1
  Co  Co7  1  0.94046501  0.55907270  0.67814268  1
  Co  Co8  1  0.18945326  0.81054674  0.43164021  1
  Co  Co9  1  0.68891858  0.31108142  0.93324426  1
  Co  Co10  1  0.93828599  0.56280356  0.18732112  1
  Co  Co11  1  0.44092730  0.05953499  0.67814268  1
