# generated using pymatgen
data_K2Sb2S(O2F3)2
_symmetry_space_group_name_H-M   'P 1'
_cell_length_a   5.72118726
_cell_length_b   9.41348968
_cell_length_c   19.79859946
_cell_angle_alpha   103.74461239
_cell_angle_beta   90.00000000
_cell_angle_gamma   90.00000000
_symmetry_Int_Tables_number   1
_chemical_formula_structural   K2Sb2S(O2F3)2
_chemical_formula_sum   'K8 Sb8 S4 O16 F24'
_cell_volume   1035.74649681
_cell_formula_units_Z   4
loop_
 _symmetry_equiv_pos_site_id
 _symmetry_equiv_pos_as_xyz
  1  'x, y, z'
loop_
 _atom_site_type_symbol
 _atom_site_label
 _atom_site_symmetry_multiplicity
 _atom_site_fract_x
 _atom_site_fract_y
 _atom_site_fract_z
 _atom_site_occupancy
  K  K0  1  0.74599328  0.13871368  0.82668784  1
  K  K1  1  0.24599328  0.86128632  0.67331216  1
  K  K2  1  0.75400672  0.13871368  0.32668784  1
  K  K3  1  0.75011590  0.48112090  0.57540652  1
  K  K4  1  0.25400672  0.86128632  0.17331216  1
  K  K5  1  0.74988410  0.48112090  0.07540652  1
  K  K6  1  0.24988410  0.51887910  0.42459348  1
  K  K7  1  0.25011590  0.51887910  0.92459348  1
  Sb  Sb8  1  0.77714912  0.81391346  0.50125336  1
  Sb  Sb9  1  0.72285088  0.81391346  0.00125336  1
  Sb  Sb10  1  0.22285088  0.18608654  0.49874664  1
  Sb  Sb11  1  0.25962715  0.32287334  0.72174385  1
  Sb  Sb12  1  0.27714912  0.18608654  0.99874664  1
  Sb  Sb13  1  0.74037285  0.67712666  0.27825615  1
  Sb  Sb14  1  0.24037285  0.32287334  0.22174385  1
  Sb  Sb15  1  0.75962715  0.67712666  0.77825615  1
  S  S16  1  0.73824561  0.13025167  0.62098704  1
  S  S17  1  0.76175439  0.13025167  0.12098704  1
  S  S18  1  0.23824561  0.86974833  0.87901296  1
  S  S19  1  0.26175439  0.86974833  0.37901296  1
  O  O20  1  0.11743928  0.00740360  0.39267166  1
  O  O21  1  0.88256072  0.99259640  0.60732834  1
  O  O22  1  0.39577852  0.74009247  0.85788492  1
  O  O23  1  0.93446718  0.12683059  0.17724688  1
  O  O24  1  0.88226515  0.13735263  0.05507537  1
  O  O25  1  0.38256072  0.00740360  0.89267166  1
  O  O26  1  0.38226515  0.86264737  0.44492463  1
  O  O27  1  0.11773485  0.86264737  0.94492463  1
  O  O28  1  0.60422148  0.25990753  0.14211508  1
  O  O29  1  0.43446718  0.87316941  0.32275312  1
  O  O30  1  0.56553282  0.12683059  0.67724688  1
  O  O31  1  0.06553282  0.87316941  0.82275312  1
  O  O32  1  0.61773485  0.13735263  0.55507537  1
  O  O33  1  0.61743928  0.99259640  0.10732834  1
  O  O34  1  0.89577852  0.25990753  0.64211508  1
  O  O35  1  0.10422148  0.74009247  0.35788492  1
  F  F36  1  0.05141770  0.23900168  0.93390794  1
  F  F37  1  0.02622988  0.43328340  0.79110951  1
  F  F38  1  0.47377012  0.43328340  0.29110951  1
  F  F39  1  0.94858230  0.76099832  0.06609206  1
  F  F40  1  0.15052282  0.14722205  0.75086978  1
  F  F41  1  0.97377012  0.56671660  0.20889049  1
  F  F42  1  0.52622988  0.56671660  0.70889049  1
  F  F43  1  0.55141770  0.76099832  0.56609206  1
  F  F44  1  0.21097653  0.39109915  0.05574342  1
  F  F45  1  0.97277417  0.63905030  0.69596253  1
  F  F46  1  0.78902347  0.60890085  0.94425658  1
  F  F47  1  0.52192056  0.29280463  0.95783430  1
  F  F48  1  0.97807944  0.29280463  0.45783430  1
  F  F49  1  0.44858230  0.23900168  0.43390794  1
  F  F50  1  0.02192056  0.70719537  0.54216570  1
  F  F51  1  0.28902347  0.39109915  0.55574342  1
  F  F52  1  0.71097653  0.60890085  0.44425658  1
  F  F53  1  0.47277417  0.36094970  0.80403747  1
  F  F54  1  0.02722583  0.36094970  0.30403747  1
  F  F55  1  0.65052282  0.85277795  0.74913022  1
  F  F56  1  0.47807944  0.70719537  0.04216570  1
  F  F57  1  0.84947718  0.85277795  0.24913022  1
  F  F58  1  0.34947718  0.14722205  0.25086978  1
  F  F59  1  0.52722583  0.63905030  0.19596253  1
