# generated using pymatgen
data_Li4Al3Ge3IO12
_symmetry_space_group_name_H-M   'P 1'
_cell_length_a   8.84635457
_cell_length_b   8.84635457
_cell_length_c   8.84635457
_cell_angle_alpha   90.00000000
_cell_angle_beta   90.00000000
_cell_angle_gamma   90.00000000
_symmetry_Int_Tables_number   1
_chemical_formula_structural   Li4Al3Ge3IO12
_chemical_formula_sum   'Li8 Al6 Ge6 I2 O24'
_cell_volume   692.29792021
_cell_formula_units_Z   2
loop_
 _symmetry_equiv_pos_site_id
 _symmetry_equiv_pos_as_xyz
  1  'x, y, z'
loop_
 _atom_site_type_symbol
 _atom_site_label
 _atom_site_symmetry_multiplicity
 _atom_site_fract_x
 _atom_site_fract_y
 _atom_site_fract_z
 _atom_site_occupancy
  Li  Li0  1  0.69096572  0.30903428  0.30903428  1
  Li  Li1  1  0.80903428  0.19096572  0.80903428  1
  Li  Li2  1  0.30903428  0.30903428  0.69096572  1
  Li  Li3  1  0.69096572  0.69096572  0.69096572  1
  Li  Li4  1  0.19096572  0.80903428  0.80903428  1
  Li  Li5  1  0.19096572  0.19096572  0.19096572  1
  Li  Li6  1  0.30903428  0.69096572  0.30903428  1
  Li  Li7  1  0.80903428  0.80903428  0.19096572  1
  Al  Al8  1  0.00000000  0.75000000  0.50000000  1
  Al  Al9  1  0.25000000  0.50000000  0.00000000  1
  Al  Al10  1  0.50000000  0.00000000  0.75000000  1
  Al  Al11  1  0.50000000  0.00000000  0.25000000  1
  Al  Al12  1  0.00000000  0.25000000  0.50000000  1
  Al  Al13  1  0.75000000  0.50000000  0.00000000  1
  Ge  Ge14  1  0.00000000  0.50000000  0.25000000  1
  Ge  Ge15  1  0.50000000  0.75000000  0.00000000  1
  Ge  Ge16  1  0.50000000  0.25000000  0.00000000  1
  Ge  Ge17  1  0.00000000  0.50000000  0.75000000  1
  Ge  Ge18  1  0.75000000  0.00000000  0.50000000  1
  Ge  Ge19  1  0.25000000  0.00000000  0.50000000  1
  I  I20  1  0.00000000  0.00000000  0.00000000  1
  I  I21  1  0.50000000  0.50000000  0.50000000  1
  O  O22  1  0.59089023  0.85907399  0.14062552  1
  O  O23  1  0.64092601  0.09089023  0.35937448  1
  O  O24  1  0.40910977  0.85907399  0.85937448  1
  O  O25  1  0.14092601  0.85937448  0.59089023  1
  O  O26  1  0.85907399  0.85937448  0.40910977  1
  O  O27  1  0.09089023  0.35937448  0.64092601  1
  O  O28  1  0.85937448  0.40910977  0.85907399  1
  O  O29  1  0.09089023  0.64062552  0.35907399  1
  O  O30  1  0.35907399  0.90910977  0.35937448  1
  O  O31  1  0.14062552  0.40910977  0.14092601  1
  O  O32  1  0.14062552  0.59089023  0.85907399  1
  O  O33  1  0.14092601  0.14062552  0.40910977  1
  O  O34  1  0.85907399  0.14062552  0.59089023  1
  O  O35  1  0.90910977  0.35937448  0.35907399  1
  O  O36  1  0.90910977  0.64062552  0.64092601  1
  O  O37  1  0.40910977  0.14092601  0.14062552  1
  O  O38  1  0.35937448  0.64092601  0.09089023  1
  O  O39  1  0.64092601  0.90910977  0.64062552  1
  O  O40  1  0.35907399  0.09089023  0.64062552  1
  O  O41  1  0.59089023  0.14092601  0.85937448  1
  O  O42  1  0.85937448  0.59089023  0.14092601  1
  O  O43  1  0.64062552  0.35907399  0.09089023  1
  O  O44  1  0.64062552  0.64092601  0.90910977  1
  O  O45  1  0.35937448  0.35907399  0.90910977  1
