# generated using pymatgen
data_RbFeF4
_symmetry_space_group_name_H-M   'P 1'
_cell_length_a   6.34826966
_cell_length_b   7.79589551
_cell_length_c   7.82953043
_cell_angle_alpha   90.00000000
_cell_angle_beta   90.00000000
_cell_angle_gamma   90.00000000
_symmetry_Int_Tables_number   1
_chemical_formula_structural   RbFeF4
_chemical_formula_sum   'Rb4 Fe4 F16'
_cell_volume   387.48696030
_cell_formula_units_Z   4
loop_
 _symmetry_equiv_pos_site_id
 _symmetry_equiv_pos_as_xyz
  1  'x, y, z'
loop_
 _atom_site_type_symbol
 _atom_site_label
 _atom_site_symmetry_multiplicity
 _atom_site_fract_x
 _atom_site_fract_y
 _atom_site_fract_z
 _atom_site_occupancy
  F  F0  1  0.71590835  0.05521209  0.45245868  1
  F  F1  1  0.71590835  0.44478791  0.54754132  1
  F  F2  1  0.28409165  0.55521209  0.04754132  1
  F  F3  1  0.28409165  0.94478791  0.95245868  1
  F  F4  1  0.28409165  0.94478791  0.54754132  1
  F  F5  1  0.28409165  0.55521209  0.45245868  1
  F  F6  1  0.71590835  0.44478791  0.95245868  1
  F  F7  1  0.71590835  0.05521209  0.04754132  1
  F  F8  1  0.08633966  0.25000000  0.00000000  1
  F  F9  1  0.91366034  0.75000000  0.50000000  1
  F  F10  1  0.91366034  0.75000000  0.00000000  1
  F  F11  1  0.08633966  0.25000000  0.50000000  1
  F  F12  1  0.07161552  0.98593674  0.25000000  1
  F  F13  1  0.07161552  0.51406326  0.75000000  1
  F  F14  1  0.92838448  0.48593674  0.25000000  1
  F  F15  1  0.92838448  0.01406326  0.75000000  1
  Fe  Fe16  1  0.00000000  0.00000000  0.00000000  1
  Fe  Fe17  1  0.00000000  0.50000000  0.00000000  1
  Fe  Fe18  1  0.00000000  0.50000000  0.50000000  1
  Fe  Fe19  1  0.00000000  0.00000000  0.50000000  1
  Rb  Rb20  1  0.49454205  0.29850661  0.25000000  1
  Rb  Rb21  1  0.49454205  0.20149339  0.75000000  1
  Rb  Rb22  1  0.50545795  0.79850661  0.25000000  1
  Rb  Rb23  1  0.50545795  0.70149339  0.75000000  1
