# generated using pymatgen
data_Na3Ca2BiO6
_symmetry_space_group_name_H-M   'P 1'
_cell_length_a   5.94067043
_cell_length_b   5.94066983
_cell_length_c   10.64853600
_cell_angle_alpha   100.49725131
_cell_angle_beta   100.49722914
_cell_angle_gamma   110.28606814
_symmetry_Int_Tables_number   1
_chemical_formula_structural   Na3Ca2BiO6
_chemical_formula_sum   'Na6 Ca4 Bi2 O12'
_cell_volume   334.10441100
_cell_formula_units_Z   2
loop_
 _symmetry_equiv_pos_site_id
 _symmetry_equiv_pos_as_xyz
  1  'x, y, z'
loop_
 _atom_site_type_symbol
 _atom_site_label
 _atom_site_symmetry_multiplicity
 _atom_site_fract_x
 _atom_site_fract_y
 _atom_site_fract_z
 _atom_site_occupancy
  Na  Na0  1  0.96173153  0.71173276  0.42346665  1
  Na  Na1  1  0.28826740  0.03826869  0.07653350  1
  Na  Na2  1  0.03826847  0.28826724  0.57653335  1
  Na  Na3  1  0.71173260  0.96173131  0.92346650  1
  Na  Na4  1  0.87500073  0.12499936  0.25000003  1
  Na  Na5  1  0.12499927  0.87500064  0.74999997  1
  Ca  Ca6  1  0.45553521  0.20553270  0.41107473  1
  Ca  Ca7  1  0.20553307  0.45553575  0.91107533  1
  Ca  Ca8  1  0.79446693  0.54446425  0.08892467  1
  Ca  Ca9  1  0.54446479  0.79446730  0.58892527  1
  Bi  Bi10  1  0.62500172  0.37499833  0.75000013  1
  Bi  Bi11  1  0.37499828  0.62500167  0.24999987  1
  O  O12  1  0.32755907  0.06785530  0.59516563  1
  O  O13  1  0.93214494  0.67244079  0.90483429  1
  O  O14  1  0.47269832  0.23240541  0.90484582  1
  O  O15  1  0.06785506  0.32755921  0.09516571  1
  O  O16  1  0.15210607  0.84789359  0.24999989  1
  O  O17  1  0.23240554  0.47269820  0.40484577  1
  O  O18  1  0.84789393  0.15210641  0.75000011  1
  O  O19  1  0.40210568  0.59789405  0.74999998  1
  O  O20  1  0.52730168  0.76759459  0.09515418  1
  O  O21  1  0.67244093  0.93214470  0.40483437  1
  O  O22  1  0.76759446  0.52730180  0.59515423  1
  O  O23  1  0.59789432  0.40210595  0.25000002  1
