# generated using pymatgen
data_NaBi2AuO5
_symmetry_space_group_name_H-M   'P 1'
_cell_length_a   3.62009769
_cell_length_b   12.56700254
_cell_length_c   12.56700254
_cell_angle_alpha   90.00000000
_cell_angle_beta   90.00000000
_cell_angle_gamma   90.00000000
_symmetry_Int_Tables_number   1
_chemical_formula_structural   NaBi2AuO5
_chemical_formula_sum   'Na4 Bi8 Au4 O20'
_cell_volume   571.72040942
_cell_formula_units_Z   4
loop_
 _symmetry_equiv_pos_site_id
 _symmetry_equiv_pos_as_xyz
  1  'x, y, z'
loop_
 _atom_site_type_symbol
 _atom_site_label
 _atom_site_symmetry_multiplicity
 _atom_site_fract_x
 _atom_site_fract_y
 _atom_site_fract_z
 _atom_site_occupancy
  Na  Na0  1  0.50000000  0.80073310  0.30073310  1
  Na  Na1  1  0.50000000  0.69926690  0.80073310  1
  Na  Na2  1  0.50000000  0.19926690  0.69926690  1
  Na  Na3  1  0.50000000  0.30073310  0.19926690  1
  Bi  Bi4  1  0.00604868  0.76798373  0.05022867  1
  Bi  Bi5  1  0.99395132  0.55022867  0.26798373  1
  Bi  Bi6  1  0.99395132  0.94977133  0.76798373  1
  Bi  Bi7  1  0.00604868  0.26798373  0.44977133  1
  Bi  Bi8  1  0.00604868  0.23201627  0.94977133  1
  Bi  Bi9  1  0.00604868  0.73201627  0.55022867  1
  Bi  Bi10  1  0.99395132  0.05022867  0.23201627  1
  Bi  Bi11  1  0.99395132  0.44977133  0.73201627  1
  Au  Au12  1  0.50000000  0.50000000  0.00000000  1
  Au  Au13  1  0.50000000  0.00000000  0.00000000  1
  Au  Au14  1  0.50000000  0.50000000  0.50000000  1
  Au  Au15  1  0.50000000  0.00000000  0.50000000  1
  O  O16  1  0.50197089  0.16146437  0.50426673  1
  O  O17  1  0.00000000  0.71225274  0.21225274  1
  O  O18  1  0.50016356  0.11407847  0.11591147  1
  O  O19  1  0.50016356  0.38592153  0.61591147  1
  O  O20  1  0.49802911  0.99573327  0.33853563  1
  O  O21  1  0.49802911  0.49573327  0.16146437  1
  O  O22  1  0.49983644  0.11591147  0.88592153  1
  O  O23  1  0.50197089  0.83853563  0.49573327  1
  O  O24  1  0.50197089  0.66146437  0.99573327  1
  O  O25  1  0.00000000  0.21225274  0.28774726  1
  O  O26  1  0.00000000  0.28774726  0.78774726  1
  O  O27  1  0.49802911  0.50426673  0.83853563  1
  O  O28  1  0.49983644  0.61591147  0.61407847  1
  O  O29  1  0.50016356  0.61407847  0.38408853  1
  O  O30  1  0.49983644  0.38408853  0.38592153  1
  O  O31  1  0.49983644  0.88408853  0.11407847  1
  O  O32  1  0.00000000  0.78774726  0.71225274  1
  O  O33  1  0.50016356  0.88592153  0.88408853  1
  O  O34  1  0.50197089  0.33853563  0.00426673  1
  O  O35  1  0.49802911  0.00426673  0.66146437  1
