# generated using pymatgen
data_NaLaH2S2O9
_symmetry_space_group_name_H-M   'P 1'
_cell_length_a   7.14952207
_cell_length_b   7.14952207
_cell_length_c   13.05880008
_cell_angle_alpha   90.00000000
_cell_angle_beta   90.00000000
_cell_angle_gamma   120.00000002
_symmetry_Int_Tables_number   1
_chemical_formula_structural   NaLaH2S2O9
_chemical_formula_sum   'Na3 La3 H6 S6 O27'
_cell_volume   578.07997754
_cell_formula_units_Z   3
loop_
 _symmetry_equiv_pos_site_id
 _symmetry_equiv_pos_as_xyz
  1  'x, y, z'
loop_
 _atom_site_type_symbol
 _atom_site_label
 _atom_site_symmetry_multiplicity
 _atom_site_fract_x
 _atom_site_fract_y
 _atom_site_fract_z
 _atom_site_occupancy
  Na  Na0  1  0.52783360  0.52783360  0.50000000  1
  Na  Na1  1  0.47216640  0.00000000  0.83333300  1
  Na  Na2  1  0.00000000  0.47216640  0.16666700  1
  La  La3  1  0.56430810  0.56430810  0.00000000  1
  La  La4  1  0.00000000  0.43569190  0.66666700  1
  La  La5  1  0.43569190  0.00000000  0.33333300  1
  H  H6  1  0.04678478  0.09588189  0.37229887  1
  H  H7  1  0.04909711  0.95321522  0.03896587  1
  H  H8  1  0.95090289  0.90411811  0.29436713  1
  H  H9  1  0.95321522  0.04909711  0.96103413  1
  H  H10  1  0.09588189  0.04678478  0.62770113  1
  H  H11  1  0.90411811  0.95090289  0.70563287  1
  S  S12  1  0.45279445  0.01217935  0.08732437  1
  S  S13  1  0.98782065  0.44061510  0.42065837  1
  S  S14  1  0.54720555  0.55938490  0.24600863  1
  S  S15  1  0.55938490  0.54720555  0.75399137  1
  S  S16  1  0.44061510  0.98782065  0.57934163  1
  S  S17  1  0.01217935  0.45279445  0.91267563  1
  O  O18  1  0.88000516  0.49588506  0.98620960  1
  O  O19  1  0.87274982  0.25973211  0.84739166  1
  O  O20  1  0.13124990  0.63701969  0.84030842  1
  O  O21  1  0.74026789  0.61301771  0.18072466  1
  O  O22  1  0.83664259  0.24643402  0.36023237  1
  O  O23  1  0.38698229  0.12725018  0.51405766  1
  O  O24  1  0.12725018  0.38698229  0.48594234  1
  O  O25  1  0.36298031  0.49423022  0.17364142  1
  O  O26  1  0.75356598  0.59020857  0.69356637  1
  O  O27  1  0.50576978  0.86875010  0.50697442  1
  O  O28  1  0.16335741  0.40979143  0.97310063  1
  O  O29  1  0.59020857  0.75356598  0.30643363  1
  O  O30  1  0.00000000  0.08072505  0.66666700  1
  O  O31  1  0.38412010  0.50411494  0.68045740  1
  O  O32  1  0.11999484  0.61587990  0.34712340  1
  O  O33  1  0.50411494  0.38412010  0.31954260  1
  O  O34  1  0.24643402  0.83664259  0.63976763  1
  O  O35  1  0.08072505  0.00000000  0.33333300  1
  O  O36  1  0.49423022  0.36298031  0.82635858  1
  O  O37  1  0.86875010  0.50576978  0.49302558  1
  O  O38  1  0.91927495  0.91927495  0.00000000  1
  O  O39  1  0.49588506  0.88000516  0.01379040  1
  O  O40  1  0.61301771  0.74026789  0.81927534  1
  O  O41  1  0.25973211  0.87274982  0.15260834  1
  O  O42  1  0.40979143  0.16335741  0.02689937  1
  O  O43  1  0.61587990  0.11999484  0.65287660  1
  O  O44  1  0.63701969  0.13124990  0.15969158  1
