# generated using pymatgen
data_Tb3CuGeS7
_symmetry_space_group_name_H-M   'P 1'
_cell_length_a   9.90966298
_cell_length_b   9.90966303
_cell_length_c   5.84075660
_cell_angle_alpha   90.00000000
_cell_angle_beta   90.00000000
_cell_angle_gamma   119.99999986
_symmetry_Int_Tables_number   1
_chemical_formula_structural   Tb3CuGeS7
_chemical_formula_sum   'Tb6 Cu2 Ge2 S14'
_cell_volume   496.72670841
_cell_formula_units_Z   2
loop_
 _symmetry_equiv_pos_site_id
 _symmetry_equiv_pos_as_xyz
  1  'x, y, z'
loop_
 _atom_site_type_symbol
 _atom_site_label
 _atom_site_symmetry_multiplicity
 _atom_site_fract_x
 _atom_site_fract_y
 _atom_site_fract_z
 _atom_site_occupancy
  Tb  Tb0  1  0.13278007  0.77555724  0.75527070  1
  Tb  Tb1  1  0.22444276  0.35722283  0.75527070  1
  Tb  Tb2  1  0.77555724  0.64277717  0.25527070  1
  Tb  Tb3  1  0.64277717  0.86721993  0.75527070  1
  Tb  Tb4  1  0.35722283  0.13278007  0.25527070  1
  Tb  Tb5  1  0.86721993  0.22444276  0.25527070  1
  Cu  Cu6  1  0.00000000  0.00000000  0.68755951  1
  Cu  Cu7  1  0.00000000  0.00000000  0.18755951  1
  Ge  Ge8  1  0.66666700  0.33333300  0.83586253  1
  Ge  Ge9  1  0.33333300  0.66666700  0.33586253  1
  S  S10  1  0.90143656  0.48048334  0.99734311  1
  S  S11  1  0.33333300  0.66666700  0.95806291  1
  S  S12  1  0.15958216  0.25842239  0.21632455  1
  S  S13  1  0.48048334  0.57904678  0.49734311  1
  S  S14  1  0.09856344  0.51951666  0.49734311  1
  S  S15  1  0.25842239  0.09884023  0.71632455  1
  S  S16  1  0.42095322  0.90143656  0.49734311  1
  S  S17  1  0.90115977  0.15958216  0.71632455  1
  S  S18  1  0.74157761  0.90115977  0.21632455  1
  S  S19  1  0.51951666  0.42095322  0.99734311  1
  S  S20  1  0.09884023  0.84041784  0.21632455  1
  S  S21  1  0.66666700  0.33333300  0.45806291  1
  S  S22  1  0.57904678  0.09856344  0.99734311  1
  S  S23  1  0.84041784  0.74157761  0.71632455  1
