# generated using pymatgen
data_Ca5As3O12F
_symmetry_space_group_name_H-M   'P 1'
_cell_length_a   7.04169879
_cell_length_b   9.78123965
_cell_length_c   9.83988358
_cell_angle_alpha   60.30781866
_cell_angle_beta   88.67664154
_cell_angle_gamma   89.35367633
_symmetry_Int_Tables_number   1
_chemical_formula_structural   Ca5As3O12F
_chemical_formula_sum   'Ca10 As6 O24 F2'
_cell_volume   588.59263763
_cell_formula_units_Z   2
loop_
 _symmetry_equiv_pos_site_id
 _symmetry_equiv_pos_as_xyz
  1  'x, y, z'
loop_
 _atom_site_type_symbol
 _atom_site_label
 _atom_site_symmetry_multiplicity
 _atom_site_fract_x
 _atom_site_fract_y
 _atom_site_fract_z
 _atom_site_occupancy
  Ca  Ca0  1  0.00298402  0.64821965  0.69111190  1
  Ca  Ca1  1  0.99701598  0.35178035  0.30888810  1
  Ca  Ca2  1  0.23987492  0.76349337  0.00144037  1
  Ca  Ca3  1  0.73881634  0.75497602  0.24598822  1
  Ca  Ca4  1  0.26118366  0.24502398  0.75401178  1
  Ca  Ca5  1  0.50255320  0.31497461  0.34651531  1
  Ca  Ca6  1  0.49744680  0.68502539  0.65348469  1
  Ca  Ca7  1  0.25174209  0.99933826  0.24196266  1
  Ca  Ca8  1  0.74825791  0.00066174  0.75803734  1
  Ca  Ca9  1  0.76012508  0.23650663  0.99855963  1
  As  As10  1  0.75840077  0.97403920  0.39668510  1
  As  As11  1  0.75970918  0.39361325  0.62879863  1
  As  As12  1  0.73256311  0.62869446  0.97345178  1
  As  As13  1  0.26743689  0.37130554  0.02654822  1
  As  As14  1  0.24159923  0.02596080  0.60331490  1
  As  As15  1  0.24029082  0.60638675  0.37120137  1
  O  O16  1  0.92943234  0.92241696  0.30361436  1
  O  O17  1  0.06007596  0.26419488  0.08812099  1
  O  O18  1  0.45124552  0.09732760  0.63180977  1
  O  O19  1  0.41558471  0.70431533  0.23292302  1
  O  O20  1  0.27426111  0.48650666  0.82673852  1
  O  O21  1  0.72573889  0.51349334  0.17326148  1
  O  O22  1  0.24609989  0.82596389  0.68302477  1
  O  O23  1  0.95912642  0.36363910  0.73942064  1
  O  O24  1  0.07056766  0.07758304  0.69638564  1
  O  O25  1  0.77186073  0.31738986  0.50530712  1
  O  O26  1  0.93992404  0.73580512  0.91187901  1
  O  O27  1  0.04087358  0.63636090  0.26057936  1
  O  O28  1  0.58441529  0.29568467  0.76707698  1
  O  O29  1  0.54875448  0.90267240  0.36819023  1
  O  O30  1  0.21460473  0.12692993  0.40259150  1
  O  O31  1  0.44721190  0.23438168  0.09720060  1
  O  O32  1  0.72375774  0.59462499  0.53026592  1
  O  O33  1  0.55278810  0.76561832  0.90279940  1
  O  O34  1  0.75390011  0.17403611  0.31697523  1
  O  O35  1  0.27624226  0.40537501  0.46973408  1
  O  O36  1  0.27377286  0.47593190  0.12574467  1
  O  O37  1  0.72622714  0.52406810  0.87425533  1
  O  O38  1  0.78539527  0.87307007  0.59740850  1
  O  O39  1  0.22813927  0.68261014  0.49469288  1
  F  F40  1  0.24622096  0.00931587  0.99734887  1
  F  F41  1  0.75377904  0.99068413  0.00265113  1
