# generated using pymatgen
data_Sr4RhO6
_symmetry_space_group_name_H-M   'P 1'
_cell_length_a   6.93252072
_cell_length_b   6.93252080
_cell_length_c   6.93252050
_cell_angle_alpha   90.26093174
_cell_angle_beta   90.26093173
_cell_angle_gamma   90.26093288
_symmetry_Int_Tables_number   1
_chemical_formula_structural   Sr4RhO6
_chemical_formula_sum   'Sr8 Rh2 O12'
_cell_volume   333.16545777
_cell_formula_units_Z   2
loop_
 _symmetry_equiv_pos_site_id
 _symmetry_equiv_pos_as_xyz
  1  'x, y, z'
loop_
 _atom_site_type_symbol
 _atom_site_label
 _atom_site_symmetry_multiplicity
 _atom_site_fract_x
 _atom_site_fract_y
 _atom_site_fract_z
 _atom_site_occupancy
  Sr  Sr0  1  0.61701482  0.88298518  0.25000000  1
  Sr  Sr1  1  0.38298518  0.11701482  0.75000000  1
  Sr  Sr2  1  0.88298518  0.25000000  0.61701482  1
  Sr  Sr3  1  0.25000000  0.61701482  0.88298518  1
  Sr  Sr4  1  0.75000000  0.75000000  0.75000000  1
  Sr  Sr5  1  0.75000000  0.38298518  0.11701482  1
  Sr  Sr6  1  0.25000000  0.25000000  0.25000000  1
  Sr  Sr7  1  0.11701482  0.75000000  0.38298518  1
  Rh  Rh8  1  0.00000000  0.00000000  0.00000000  1
  Rh  Rh9  1  0.50000000  0.50000000  0.50000000  1
  O  O10  1  0.57130466  0.44257101  0.78539755  1
  O  O11  1  0.78539755  0.57130466  0.44257101  1
  O  O12  1  0.28539755  0.94257101  0.07130466  1
  O  O13  1  0.42869534  0.55742899  0.21460245  1
  O  O14  1  0.55742899  0.21460245  0.42869534  1
  O  O15  1  0.71460245  0.05742899  0.92869534  1
  O  O16  1  0.44257101  0.78539755  0.57130466  1
  O  O17  1  0.92869534  0.71460245  0.05742899  1
  O  O18  1  0.94257101  0.07130466  0.28539755  1
  O  O19  1  0.05742899  0.92869534  0.71460245  1
  O  O20  1  0.21460245  0.42869534  0.55742899  1
  O  O21  1  0.07130466  0.28539755  0.94257101  1
