# generated using pymatgen
data_Zn2Mo(WO4)2
_symmetry_space_group_name_H-M   'P 1'
_cell_length_a   6.33827036
_cell_length_b   6.30344502
_cell_length_c   9.48810720
_cell_angle_alpha   89.72611406
_cell_angle_beta   89.62006646
_cell_angle_gamma   60.41295857
_symmetry_Int_Tables_number   1
_chemical_formula_structural   Zn2Mo(WO4)2
_chemical_formula_sum   'Zn4 Mo2 W4 O16'
_cell_volume   329.64079299
_cell_formula_units_Z   2
loop_
 _symmetry_equiv_pos_site_id
 _symmetry_equiv_pos_as_xyz
  1  'x, y, z'
loop_
 _atom_site_type_symbol
 _atom_site_label
 _atom_site_symmetry_multiplicity
 _atom_site_fract_x
 _atom_site_fract_y
 _atom_site_fract_z
 _atom_site_occupancy
  Zn  Zn0  1  0.66268335  0.66794742  0.96332865  1
  Zn  Zn1  1  0.32784140  0.34096707  0.46030624  1
  Zn  Zn2  1  0.66572410  0.66833883  0.58417969  1
  Zn  Zn3  1  0.33672492  0.32604401  0.08467200  1
  Mo  Mo4  1  0.32898803  0.83418201  0.25828541  1
  Mo  Mo5  1  0.83419866  0.83278132  0.25478124  1
  W  W6  1  0.83745617  0.32369600  0.25694391  1
  W  W7  1  0.67112207  0.16429982  0.75687665  1
  W  W8  1  0.16318932  0.16480070  0.75669962  1
  W  W9  1  0.16329147  0.67191118  0.75693022  1
  O  O10  1  0.00100381  0.01113852  0.14589153  1
  O  O11  1  0.99906833  0.00076774  0.64503175  1
  O  O12  1  0.97034617  0.49539426  0.13439064  1
  O  O13  1  0.52272158  0.51219439  0.13260691  1
  O  O14  1  0.50916893  0.96789688  0.13156420  1
  O  O15  1  0.03227088  0.48459969  0.63280369  1
  O  O16  1  0.48367959  0.48461513  0.63547973  1
  O  O17  1  0.48170387  0.03703908  0.63059631  1
  O  O18  1  0.67034743  0.65139488  0.37212967  1
  O  O19  1  0.33252534  0.33356390  0.87367122  1
  O  O20  1  0.32974028  0.83509922  0.85676265  1
  O  O21  1  0.83384555  0.83370399  0.85749493  1
  O  O22  1  0.83525760  0.32903079  0.85764732  1
  O  O23  1  0.66821390  0.19040257  0.35871600  1
  O  O24  1  0.16227209  0.16806631  0.35611474  1
  O  O25  1  0.17661516  0.67012431  0.35909507  1
