# generated using pymatgen
data_KUP3O11
_symmetry_space_group_name_H-M   'P 1'
_cell_length_a   8.70180872
_cell_length_b   15.09259241
_cell_length_c   15.22550213
_cell_angle_alpha   96.25717154
_cell_angle_beta   90.00000000
_cell_angle_gamma   90.00000000
_symmetry_Int_Tables_number   1
_chemical_formula_structural   KUP3O11
_chemical_formula_sum   'K8 U8 P24 O88'
_cell_volume   1987.69636162
_cell_formula_units_Z   8
loop_
 _symmetry_equiv_pos_site_id
 _symmetry_equiv_pos_as_xyz
  1  'x, y, z'
loop_
 _atom_site_type_symbol
 _atom_site_label
 _atom_site_symmetry_multiplicity
 _atom_site_fract_x
 _atom_site_fract_y
 _atom_site_fract_z
 _atom_site_occupancy
  K  K0  1  0.59015485  0.74009287  0.77967532  1
  K  K1  1  0.15313780  0.72424530  0.22488750  1
  K  K2  1  0.90984515  0.24009287  0.27967532  1
  K  K3  1  0.34686220  0.22424530  0.72488750  1
  K  K4  1  0.09015485  0.75990713  0.72032468  1
  K  K5  1  0.84686220  0.27575470  0.77511250  1
  K  K6  1  0.40984515  0.25990713  0.22032468  1
  K  K7  1  0.65313780  0.77575470  0.27511250  1
  U  U8  1  0.61072930  0.24282164  0.51460727  1
  U  U9  1  0.83060082  0.98171541  0.74127219  1
  U  U10  1  0.16939918  0.01828459  0.25872781  1
  U  U11  1  0.66939918  0.48171541  0.24127219  1
  U  U12  1  0.11072930  0.25717836  0.98539273  1
  U  U13  1  0.88927070  0.74282164  0.01460727  1
  U  U14  1  0.33060082  0.51828459  0.75872781  1
  U  U15  1  0.38927070  0.75717836  0.48539273  1
  P  P16  1  0.82276966  0.98020491  0.10282850  1
  P  P17  1  0.17723034  0.01979509  0.89717150  1
  P  P18  1  0.60087216  0.03870599  0.23878640  1
  P  P19  1  0.77248509  0.10275545  0.96102572  1
  P  P20  1  0.80000435  0.03330259  0.39286984  1
  P  P21  1  0.10087216  0.46129401  0.26121360  1
  P  P22  1  0.89912784  0.53870599  0.73878640  1
  P  P23  1  0.46457430  0.76215442  0.04037433  1
  P  P24  1  0.53542570  0.23784558  0.95962567  1
  P  P25  1  0.32276966  0.51979509  0.39717150  1
  P  P26  1  0.24666196  0.60857450  0.99102035  1
  P  P27  1  0.30000435  0.46669741  0.10713016  1
  P  P28  1  0.72751491  0.60275545  0.46102572  1
  P  P29  1  0.69999565  0.53330259  0.89286984  1
  P  P30  1  0.22751491  0.89724455  0.03897428  1
  P  P31  1  0.03542570  0.26215442  0.54037433  1
  P  P32  1  0.96457430  0.73784558  0.45962567  1
  P  P33  1  0.25333804  0.10857450  0.49102035  1
  P  P34  1  0.67723034  0.48020491  0.60282850  1
  P  P35  1  0.19999565  0.96669741  0.60713016  1
  P  P36  1  0.75333804  0.39142550  0.00897965  1
  P  P37  1  0.74666196  0.89142550  0.50897965  1
  P  P38  1  0.27248509  0.39724455  0.53897428  1
  P  P39  1  0.39912784  0.96129401  0.76121360  1
  O  O40  1  0.11950929  0.82344726  0.05747098  1
  O  O41  1  0.32103317  0.43097811  0.44649962  1
  O  O42  1  0.71080034  0.09851951  0.45464694  1
  O  O43  1  0.64574673  0.23522901  0.63114489  1
  O  O44  1  0.63875258  0.31081037  0.02055315  1
  O  O45  1  0.44488500  0.75425486  0.13608731  1
  O  O46  1  0.14892030  0.36690698  0.26194668  1
  O  O47  1  0.28919966  0.90148049  0.54535306  1
  O  O48  1  0.14574673  0.26477099  0.86885511  1
  O  O49  1  0.56160774  0.25549309  0.40161473  1
  O  O50  1  0.38049071  0.32344726  0.55747098  1
  O  O51  1  0.06160774  0.24450691  0.09838527  1
  O  O52  1  0.85107970  0.63309302  0.73805332  1
  O  O53  1  0.64892030  0.13309302  0.23805332  1
  O  O54  1  0.94267358  0.99611933  0.17358103  1
  O  O55  1  0.69069748  0.98883969  0.31392944  1
  O  O56  1  0.35425327  0.76477099  0.36885511  1
  O  O57  1  0.84003730  0.94519529  0.43979613  1
  O  O58  1  0.93508514  0.48591070  0.25136061  1
  O  O59  1  0.60704876  0.14532448  0.98765442  1
  O  O60  1  0.89295124  0.64532448  0.48765442  1
  O  O61  1  0.67732391  0.36429655  0.25825224  1
  O  O62  1  0.23664127  0.55365288  0.90317817  1
  O  O63  1  0.93839226  0.75549309  0.90161473  1
  O  O64  1  0.62078888  0.75773685  0.99631966  1
  O  O65  1  0.44267358  0.50388067  0.32641897  1
  O  O66  1  0.66737166  0.39901614  0.53706941  1
  O  O67  1  0.16737166  0.10098386  0.96293059  1
  O  O68  1  0.34342022  0.40258649  0.77787086  1
  O  O69  1  0.40200910  0.14164947  0.53376984  1
  O  O70  1  0.37921112  0.24226315  0.00368034  1
  O  O71  1  0.43508514  0.01408930  0.24863939  1
  O  O72  1  0.67896683  0.56902189  0.55350038  1
  O  O73  1  0.25546989  0.47475816  0.60859242  1
  O  O74  1  0.26335873  0.05365288  0.40317817  1
  O  O75  1  0.65996270  0.44519529  0.93979613  1
  O  O76  1  0.73664127  0.94634712  0.59682183  1
  O  O77  1  0.34338120  0.02241913  0.85069228  1
  O  O78  1  0.82267609  0.86429655  0.75825224  1
  O  O79  1  0.32267609  0.63570345  0.74174776  1
  O  O80  1  0.39295124  0.85467552  0.01234558  1
  O  O81  1  0.82103317  0.06902189  0.05350038  1
  O  O82  1  0.44754761  0.43644744  0.14581957  1
  O  O83  1  0.56491486  0.98591070  0.75136061  1
  O  O84  1  0.05511500  0.25425486  0.63608731  1
  O  O85  1  0.94754761  0.06355256  0.35418043  1
  O  O86  1  0.15657978  0.90258649  0.27787086  1
  O  O87  1  0.84338120  0.47758087  0.64930772  1
  O  O88  1  0.17732391  0.13570345  0.24174776  1
  O  O89  1  0.19069748  0.51116031  0.18607056  1
  O  O90  1  0.55245239  0.56355256  0.85418043  1
  O  O91  1  0.05732642  0.00388067  0.82641897  1
  O  O92  1  0.85425327  0.73522901  0.13114489  1
  O  O93  1  0.30930252  0.01116031  0.68607056  1
  O  O94  1  0.87921112  0.25773685  0.49631966  1
  O  O95  1  0.33262834  0.60098386  0.46293059  1
  O  O96  1  0.36124742  0.68918963  0.97944685  1
  O  O97  1  0.15661880  0.52241913  0.35069228  1
  O  O98  1  0.06491486  0.51408930  0.74863939  1
  O  O99  1  0.83262834  0.89901614  0.03706941  1
  O  O100  1  0.94488500  0.74574514  0.36391269  1
  O  O101  1  0.61950929  0.67655274  0.44252902  1
  O  O102  1  0.09799090  0.64164947  0.03376984  1
  O  O103  1  0.78919966  0.59851951  0.95464694  1
  O  O104  1  0.84342022  0.09741351  0.72212914  1
  O  O105  1  0.76335873  0.44634712  0.09682183  1
  O  O106  1  0.80930252  0.48883969  0.81392944  1
  O  O107  1  0.65657978  0.59741351  0.22212914  1
  O  O108  1  0.90200910  0.35835053  0.96623016  1
  O  O109  1  0.21080034  0.40148049  0.04535306  1
  O  O110  1  0.74453011  0.52524184  0.39140758  1
  O  O111  1  0.59799090  0.85835053  0.46623016  1
  O  O112  1  0.75546989  0.02524184  0.89140758  1
  O  O113  1  0.10704876  0.35467552  0.51234558  1
  O  O114  1  0.43839226  0.74450691  0.59838527  1
  O  O115  1  0.24453011  0.97475816  0.10859242  1
  O  O116  1  0.55732642  0.49611933  0.67358103  1
  O  O117  1  0.12078888  0.74226315  0.50368034  1
  O  O118  1  0.86124742  0.81081037  0.52055315  1
  O  O119  1  0.34003730  0.55480471  0.06020387  1
  O  O120  1  0.55511500  0.24574514  0.86391269  1
  O  O121  1  0.17896683  0.93097811  0.94649962  1
  O  O122  1  0.05245239  0.93644744  0.64581957  1
  O  O123  1  0.88049071  0.17655274  0.94252902  1
  O  O124  1  0.65661880  0.97758087  0.14930772  1
  O  O125  1  0.35107970  0.86690698  0.76194668  1
  O  O126  1  0.15996270  0.05480471  0.56020387  1
  O  O127  1  0.13875258  0.18918963  0.47944685  1
