# generated using pymatgen
data_K5LiGe2O7
_symmetry_space_group_name_H-M   'P 1'
_cell_length_a   6.32563024
_cell_length_b   10.47981859
_cell_length_c   16.10275025
_cell_angle_alpha   90.00000000
_cell_angle_beta   90.00000000
_cell_angle_gamma   105.08365774
_symmetry_Int_Tables_number   1
_chemical_formula_structural   K5LiGe2O7
_chemical_formula_sum   'K20 Li4 Ge8 O28'
_cell_volume   1030.69695987
_cell_formula_units_Z   4
loop_
 _symmetry_equiv_pos_site_id
 _symmetry_equiv_pos_as_xyz
  1  'x, y, z'
loop_
 _atom_site_type_symbol
 _atom_site_label
 _atom_site_symmetry_multiplicity
 _atom_site_fract_x
 _atom_site_fract_y
 _atom_site_fract_z
 _atom_site_occupancy
  K  K0  1  0.82981301  0.58284485  0.43231879  1
  K  K1  1  0.67018699  0.91715515  0.93231879  1
  K  K2  1  0.68069259  0.42045797  0.05656132  1
  K  K3  1  0.21365752  0.91389996  0.83541504  1
  K  K4  1  0.18069259  0.92045797  0.44343868  1
  K  K5  1  0.32981301  0.08284485  0.06768121  1
  K  K6  1  0.71365752  0.41389996  0.66458496  1
  K  K7  1  0.28634248  0.58610004  0.33541504  1
  K  K8  1  0.31930741  0.57954203  0.94343868  1
  K  K9  1  0.17018699  0.41715515  0.56768121  1
  K  K10  1  0.67047995  0.88975286  0.34637123  1
  K  K11  1  0.81930741  0.07954203  0.55656132  1
  K  K12  1  0.32952005  0.11024714  0.65362877  1
  K  K13  1  0.00466050  0.23386700  0.36823578  1
  K  K14  1  0.50466050  0.73386700  0.13176422  1
  K  K15  1  0.82952005  0.61024714  0.84637123  1
  K  K16  1  0.99533950  0.76613300  0.63176422  1
  K  K17  1  0.78634248  0.08610004  0.16458496  1
  K  K18  1  0.49533950  0.26613300  0.86823578  1
  K  K19  1  0.17047995  0.38975286  0.15362877  1
  Li  Li20  1  0.40019059  0.10374268  0.28015735  1
  Li  Li21  1  0.09980941  0.39625732  0.78015735  1
  Li  Li22  1  0.90019059  0.60374268  0.21984265  1
  Li  Li23  1  0.59980941  0.89625732  0.71984265  1
  Ge  Ge24  1  0.00933172  0.74454193  0.05384624  1
  Ge  Ge25  1  0.49066828  0.75545807  0.55384624  1
  Ge  Ge26  1  0.88260674  0.11304805  0.76540756  1
  Ge  Ge27  1  0.99066828  0.25545807  0.94615376  1
  Ge  Ge28  1  0.50933172  0.24454193  0.44615376  1
  Ge  Ge29  1  0.11739326  0.88695195  0.23459244  1
  Ge  Ge30  1  0.61739326  0.38695195  0.26540756  1
  Ge  Ge31  1  0.38260674  0.61304805  0.73459244  1
  O  O32  1  0.75709230  0.69520171  0.99966612  1
  O  O33  1  0.06133486  0.61084934  0.11107344  1
  O  O34  1  0.98648144  0.25243638  0.70238460  1
  O  O35  1  0.93728943  0.97040647  0.71934175  1
  O  O36  1  0.09537708  0.57194044  0.71810011  1
  O  O37  1  0.90462292  0.42805956  0.28189989  1
  O  O38  1  0.01351856  0.74756362  0.29761540  1
  O  O39  1  0.51351856  0.24756362  0.20238460  1
  O  O40  1  0.25709230  0.19520171  0.50033388  1
  O  O41  1  0.74290770  0.80479829  0.49966612  1
  O  O42  1  0.56271057  0.52959353  0.21934175  1
  O  O43  1  0.40462292  0.92805956  0.21810011  1
  O  O44  1  0.53092619  0.63218939  0.63355252  1
  O  O45  1  0.93866514  0.38915066  0.88892656  1
  O  O46  1  0.43866514  0.88915066  0.61107344  1
  O  O47  1  0.56133486  0.11084934  0.38892656  1
  O  O48  1  0.59537708  0.07194044  0.78189989  1
  O  O49  1  0.73438046  0.32511733  0.50875831  1
  O  O50  1  0.23438046  0.82511733  0.99124169  1
  O  O51  1  0.24290770  0.30479829  0.00033388  1
  O  O52  1  0.46907381  0.36781061  0.36644748  1
  O  O53  1  0.43728943  0.47040647  0.78065825  1
  O  O54  1  0.76561954  0.17488267  0.00875831  1
  O  O55  1  0.48648144  0.75243638  0.79761540  1
  O  O56  1  0.03092619  0.13218939  0.86644748  1
  O  O57  1  0.96907381  0.86781061  0.13355252  1
  O  O58  1  0.06271057  0.02959353  0.28065825  1
  O  O59  1  0.26561954  0.67488267  0.49124169  1
