# generated using pymatgen
data_MoF3
_symmetry_space_group_name_H-M   'P 1'
_cell_length_a   5.81993209
_cell_length_b   5.81993208
_cell_length_c   5.81993208
_cell_angle_alpha   55.76709434
_cell_angle_beta   55.76709435
_cell_angle_gamma   55.76709437
_symmetry_Int_Tables_number   1
_chemical_formula_structural   MoF3
_chemical_formula_sum   'Mo2 F6'
_cell_volume   125.70869614
_cell_formula_units_Z   2
loop_
 _symmetry_equiv_pos_site_id
 _symmetry_equiv_pos_as_xyz
  1  'x, y, z'
loop_
 _atom_site_type_symbol
 _atom_site_label
 _atom_site_symmetry_multiplicity
 _atom_site_fract_x
 _atom_site_fract_y
 _atom_site_fract_z
 _atom_site_occupancy
  F  F0  1  0.37491150  0.75000000  0.12508850  1
  F  F1  1  0.75000000  0.12508850  0.37491150  1
  F  F2  1  0.87491150  0.62508850  0.25000000  1
  F  F3  1  0.25000000  0.87491150  0.62508850  1
  F  F4  1  0.62508850  0.25000000  0.87491150  1
  F  F5  1  0.12508850  0.37491150  0.75000000  1
  Mo  Mo6  1  0.50000000  0.50000000  0.50000000  1
  Mo  Mo7  1  0.00000000  0.00000000  0.00000000  1
