# generated using pymatgen
data_Rb2AgSbS4
_symmetry_space_group_name_H-M   'P 1'
_cell_length_a   8.38154325
_cell_length_b   10.63665909
_cell_length_c   10.99247265
_cell_angle_alpha   90.00000000
_cell_angle_beta   90.00000000
_cell_angle_gamma   91.46574530
_symmetry_Int_Tables_number   1
_chemical_formula_structural   Rb2AgSbS4
_chemical_formula_sum   'Rb8 Ag4 Sb4 S16'
_cell_volume   979.67606691
_cell_formula_units_Z   4
loop_
 _symmetry_equiv_pos_site_id
 _symmetry_equiv_pos_as_xyz
  1  'x, y, z'
loop_
 _atom_site_type_symbol
 _atom_site_label
 _atom_site_symmetry_multiplicity
 _atom_site_fract_x
 _atom_site_fract_y
 _atom_site_fract_z
 _atom_site_occupancy
  Rb  Rb0  1  0.62490330  0.73740844  0.00800053  1
  Rb  Rb1  1  0.35953198  0.98940478  0.27117223  1
  Rb  Rb2  1  0.85953198  0.48940478  0.22882777  1
  Rb  Rb3  1  0.12490330  0.23740844  0.49199947  1
  Rb  Rb4  1  0.14046802  0.51059522  0.77117223  1
  Rb  Rb5  1  0.64046802  0.01059522  0.72882777  1
  Rb  Rb6  1  0.37509670  0.26259156  0.99199947  1
  Rb  Rb7  1  0.87509670  0.76259156  0.50800053  1
  Ag  Ag8  1  0.87067922  0.22017661  0.96763020  1
  Ag  Ag9  1  0.12932078  0.77982339  0.03236980  1
  Ag  Ag10  1  0.37067922  0.72017661  0.53236980  1
  Ag  Ag11  1  0.62932078  0.27982339  0.46763020  1
  Sb  Sb12  1  0.35596063  0.54017862  0.27602237  1
  Sb  Sb13  1  0.64403937  0.45982138  0.72397763  1
  Sb  Sb14  1  0.85596063  0.04017862  0.22397763  1
  Sb  Sb15  1  0.14403937  0.95982138  0.77602237  1
  S  S16  1  0.48345933  0.34343628  0.27520553  1
  S  S17  1  0.24164705  0.56230882  0.07786425  1
  S  S18  1  0.74164705  0.06230882  0.42213575  1
  S  S19  1  0.83837273  0.44903738  0.56845857  1
  S  S20  1  0.51654067  0.65656372  0.72479447  1
  S  S21  1  0.16162727  0.55096262  0.43154143  1
  S  S22  1  0.53994295  0.70759586  0.31667715  1
  S  S23  1  0.25835295  0.93769118  0.57786425  1
  S  S24  1  0.33837273  0.94903738  0.93154143  1
  S  S25  1  0.98345933  0.84343628  0.22479447  1
  S  S26  1  0.01654067  0.15656372  0.77520553  1
  S  S27  1  0.96005705  0.79240414  0.81667715  1
  S  S28  1  0.75835295  0.43769118  0.92213575  1
  S  S29  1  0.03994295  0.20759586  0.18332285  1
  S  S30  1  0.46005705  0.29240414  0.68332285  1
  S  S31  1  0.66162727  0.05096262  0.06845857  1
