# generated using pymatgen
data_Na2Gd2MgSi4(O6F)2
_symmetry_space_group_name_H-M   'P 1'
_cell_length_a   5.22693482
_cell_length_b   7.59545869
_cell_length_c   14.49932689
_cell_angle_alpha   90.00000000
_cell_angle_beta   90.16352898
_cell_angle_gamma   90.00000000
_symmetry_Int_Tables_number   1
_chemical_formula_structural   Na2Gd2MgSi4(O6F)2
_chemical_formula_sum   'Na4 Gd4 Mg2 Si8 O24 F4'
_cell_volume   575.63496098
_cell_formula_units_Z   2
loop_
 _symmetry_equiv_pos_site_id
 _symmetry_equiv_pos_as_xyz
  1  'x, y, z'
loop_
 _atom_site_type_symbol
 _atom_site_label
 _atom_site_symmetry_multiplicity
 _atom_site_fract_x
 _atom_site_fract_y
 _atom_site_fract_z
 _atom_site_occupancy
  Na  Na0  1  0.50270272  0.45773601  0.21052558  1
  Na  Na1  1  0.49729728  0.54226399  0.78947442  1
  Na  Na2  1  0.50270272  0.04226399  0.71052558  1
  Na  Na3  1  0.49729728  0.95773601  0.28947442  1
  Gd  Gd4  1  0.51555100  0.22825274  0.95750103  1
  Gd  Gd5  1  0.51555100  0.27174726  0.45750103  1
  Gd  Gd6  1  0.48444900  0.77174726  0.04249897  1
  Gd  Gd7  1  0.48444900  0.72825274  0.54249897  1
  Mg  Mg8  1  0.00000000  0.50000000  0.00000000  1
  Mg  Mg9  1  0.00000000  0.00000000  0.50000000  1
  Si  Si10  1  0.02332113  0.25974723  0.31446121  1
  Si  Si11  1  0.97667887  0.75974723  0.18553879  1
  Si  Si12  1  0.96266184  0.62855399  0.38519713  1
  Si  Si13  1  0.03733816  0.37144601  0.61480287  1
  Si  Si14  1  0.96266184  0.87144601  0.88519713  1
  Si  Si15  1  0.03733816  0.12855399  0.11480287  1
  Si  Si16  1  0.97667887  0.74025277  0.68553879  1
  Si  Si17  1  0.02332113  0.24025277  0.81446121  1
  O  O18  1  0.86067790  0.26048837  0.05369148  1
  O  O19  1  0.13848728  0.45882558  0.34654840  1
  O  O20  1  0.13932210  0.73951163  0.94630852  1
  O  O21  1  0.28810763  0.05761487  0.05869677  1
  O  O22  1  0.86067790  0.23951163  0.55369148  1
  O  O23  1  0.14399459  0.22819580  0.21005086  1
  O  O24  1  0.28810763  0.44238513  0.55869677  1
  O  O25  1  0.16693435  0.12711715  0.38590962  1
  O  O26  1  0.86151272  0.54117442  0.65345160  1
  O  O27  1  0.71189237  0.94238513  0.94130323  1
  O  O28  1  0.83306565  0.87288285  0.61409038  1
  O  O29  1  0.16693435  0.37288285  0.88590962  1
  O  O30  1  0.13848728  0.04117442  0.84654840  1
  O  O31  1  0.86151272  0.95882558  0.15345160  1
  O  O32  1  0.14399459  0.27180420  0.71005086  1
  O  O33  1  0.71420745  0.25712380  0.31465144  1
  O  O34  1  0.83306565  0.62711715  0.11409038  1
  O  O35  1  0.71189237  0.55761487  0.44130323  1
  O  O36  1  0.85600541  0.72819580  0.28994914  1
  O  O37  1  0.28579255  0.75712380  0.18534856  1
  O  O38  1  0.71420745  0.24287620  0.81465144  1
  O  O39  1  0.85600541  0.77180420  0.78994914  1
  O  O40  1  0.28579255  0.74287620  0.68534856  1
  O  O41  1  0.13932210  0.76048837  0.44630852  1
  F  F42  1  0.66315723  0.53882661  0.93871618  1
  F  F43  1  0.33684277  0.46117339  0.06128382  1
  F  F44  1  0.33684277  0.03882661  0.56128382  1
  F  F45  1  0.66315723  0.96117339  0.43871618  1
