# generated using pymatgen
data_Zn4P6N12O
_symmetry_space_group_name_H-M   'P 1'
_cell_length_a   7.01382880
_cell_length_b   7.01382935
_cell_length_c   7.01382935
_cell_angle_alpha   109.47122067
_cell_angle_beta   109.47122226
_cell_angle_gamma   109.47122127
_symmetry_Int_Tables_number   1
_chemical_formula_structural   Zn4P6N12O
_chemical_formula_sum   'Zn4 P6 N12 O1'
_cell_volume   265.60952652
_cell_formula_units_Z   1
loop_
 _symmetry_equiv_pos_site_id
 _symmetry_equiv_pos_as_xyz
  1  'x, y, z'
loop_
 _atom_site_type_symbol
 _atom_site_label
 _atom_site_symmetry_multiplicity
 _atom_site_fract_x
 _atom_site_fract_y
 _atom_site_fract_z
 _atom_site_occupancy
  Zn  Zn0  1  0.00000000  0.00000000  0.70120089  1
  Zn  Zn1  1  1.00000000  0.70120089  1.00000000  1
  Zn  Zn2  1  0.70120089  0.00000000  0.00000000  1
  Zn  Zn3  1  0.29879911  0.29879911  0.29879911  1
  P  P4  1  0.75000000  0.50000000  0.25000000  1
  P  P5  1  0.25000000  0.50000000  0.75000000  1
  P  P6  1  0.25000000  0.75000000  0.50000000  1
  P  P7  1  0.50000000  0.25000000  0.75000000  1
  P  P8  1  0.50000000  0.75000000  0.25000000  1
  P  P9  1  0.75000000  0.25000000  0.50000000  1
  N  N10  1  0.45919723  1.00000000  0.73512351  1
  N  N11  1  0.54080277  0.27592628  0.54080277  1
  N  N12  1  0.00000000  0.73512351  0.45919723  1
  N  N13  1  0.26487649  0.26487649  0.72407372  1
  N  N14  1  0.73512351  0.45919723  1.00000000  1
  N  N15  1  0.26487649  0.72407372  0.26487649  1
  N  N16  1  0.54080277  0.54080277  0.27592628  1
  N  N17  1  0.45919723  0.73512351  1.00000000  1
  N  N18  1  0.72407372  0.26487649  0.26487649  1
  N  N19  1  0.00000000  0.45919723  0.73512351  1
  N  N20  1  0.27592628  0.54080277  0.54080277  1
  N  N21  1  0.73512351  1.00000000  0.45919723  1
  O  O22  1  0.00000000  0.00000000  0.00000000  1
