# generated using pymatgen
data_Fe(PO3)3
_symmetry_space_group_name_H-M   'P 1'
_cell_length_a   9.58955039
_cell_length_b   10.81436684
_cell_length_c   11.78753536
_cell_angle_alpha   113.59729032
_cell_angle_beta   109.95664482
_cell_angle_gamma   98.22376208
_symmetry_Int_Tables_number   1
_chemical_formula_structural   Fe(PO3)3
_chemical_formula_sum   'Fe6 P18 O54'
_cell_volume   995.89554148
_cell_formula_units_Z   6
loop_
 _symmetry_equiv_pos_site_id
 _symmetry_equiv_pos_as_xyz
  1  'x, y, z'
loop_
 _atom_site_type_symbol
 _atom_site_label
 _atom_site_symmetry_multiplicity
 _atom_site_fract_x
 _atom_site_fract_y
 _atom_site_fract_z
 _atom_site_occupancy
  Fe  Fe0  1  0.69518488  0.76668655  0.84136059  1
  Fe  Fe1  1  0.35408124  0.92534939  0.15845008  1
  Fe  Fe2  1  0.04425279  0.58327779  0.51122846  1
  Fe  Fe3  1  0.03299448  0.07216232  0.48873134  1
  Fe  Fe4  1  0.68581802  0.25985615  0.82315452  1
  Fe  Fe5  1  0.36287089  0.43678330  0.17700857  1
  P  P6  1  0.99256161  0.74046754  0.06252068  1
  P  P7  1  0.42981009  0.67783010  0.93741105  1
  P  P8  1  0.67209848  0.39657059  0.39704236  1
  P  P9  1  0.77531224  0.99973023  0.60288159  1
  P  P10  1  0.10522855  0.33123200  0.27489639  1
  P  P11  1  0.33012514  0.05640620  0.72485578  1
  P  P12  1  0.24481758  0.09049334  0.95904536  1
  P  P13  1  0.78563333  0.13122954  0.04100842  1
  P  P14  1  0.58479586  0.41109623  0.62703672  1
  P  P15  1  0.45814979  0.78406407  0.37290045  1
  P  P16  1  0.05516457  0.46373331  0.94555844  1
  P  P17  1  0.60989966  0.51854381  0.05468858  1
  P  P18  1  0.14508635  0.42672715  0.71053934  1
  P  P19  1  0.93481474  0.71693805  0.28970486  1
  P  P20  1  0.29406129  0.17115807  0.39114944  1
  P  P21  1  0.40290822  0.78033589  0.60865231  1
  P  P22  1  0.95562920  0.84096723  0.72738898  1
  P  P23  1  0.72837168  0.11378315  0.27277914  1
  O  O24  1  0.32669571  0.51731573  0.81630778  1
  O  O25  1  0.01121213  0.70192427  0.18431176  1
  O  O26  1  0.59373895  0.55152047  0.73199412  1
  O  O27  1  0.36225076  0.81909719  0.26746758  1
  O  O28  1  0.87005681  0.77086637  0.78284169  1
  O  O29  1  0.58765287  0.98782974  0.21706359  1
  O  O30  1  0.06850088  0.51037817  0.64837604  1
  O  O31  1  0.91965943  0.86249484  0.35117336  1
  O  O32  1  0.88785897  0.08541938  0.57819387  1
  O  O33  1  0.80947188  0.50674382  0.42164465  1
  O  O34  1  0.91763666  0.35950119  0.92775554  1
  O  O35  1  0.49051941  0.43230267  0.07294330  1
  O  O36  1  0.06458487  0.40296562  0.80181828  1
  O  O37  1  0.76329890  0.60157683  0.19820932  1
  O  O38  1  0.51354888  0.76117439  0.89054666  1
  O  O39  1  0.12302429  0.87049087  0.10874689  1
  O  O40  1  0.14503748  0.28346756  0.61781442  1
  O  O41  1  0.02733309  0.66688530  0.38304381  1
  O  O42  1  0.66374739  0.44778727  0.54061228  1
  O  O43  1  0.62355238  0.90710904  0.45919285  1
  O  O44  1  0.45233808  0.16306636  0.72828598  1
  O  O45  1  0.22407843  0.43443357  0.27151709  1
  O  O46  1  0.69284625  0.19055033  0.95732946  1
  O  O47  1  0.23542048  0.23343473  0.04233228  1
  O  O48  1  0.01270428  0.60475037  0.95489667  1
  O  O49  1  0.55791529  0.65015413  0.04525584  1
  O  O50  1  0.65914030  0.31680795  0.67539670  1
  O  O51  1  0.48406781  0.64139024  0.32511871  1
  O  O52  1  0.40170207  0.32629191  0.52128145  1
  O  O53  1  0.38071206  0.80559480  0.47865041  1
  O  O54  1  0.38104678  0.91857659  0.70964943  1
  O  O55  1  0.17136830  0.20858137  0.29012848  1
  O  O56  1  0.83395741  0.87425505  0.62070813  1
  O  O57  1  0.71263264  0.25322130  0.37936569  1
  O  O58  1  0.73005593  0.08016577  0.71404892  1
  O  O59  1  0.51563805  0.36567299  0.28573784  1
  O  O60  1  0.65131716  0.44112074  0.93990572  1
  O  O61  1  0.21158000  0.50125410  0.06024344  1
  O  O62  1  0.27596712  0.65276926  0.57142386  1
  O  O63  1  0.20410779  0.08072620  0.42813010  1
  O  O64  1  0.82893067  0.74419590  0.00077172  1
  O  O65  1  0.32797575  0.74356663  0.99900412  1
  O  O66  1  0.56890175  0.78351250  0.67546426  1
  O  O67  1  0.39342943  0.10754439  0.32461405  1
  O  O68  1  0.04736020  0.76377816  0.66068103  1
  O  O69  1  0.88714628  0.10399705  0.33976976  1
  O  O70  1  0.16414539  0.01469103  0.62152354  1
  O  O71  1  0.04258769  0.39310911  0.37814980  1
  O  O72  1  0.33793949  0.11226562  0.87507471  1
  O  O73  1  0.96283296  0.23677637  0.12463391  1
  O  O74  1  0.06690488  0.99936908  0.84645013  1
  O  O75  1  0.72064821  0.15349692  0.15391701  1
  O  O76  1  0.78558185  0.98155337  0.96952818  1
  O  O77  1  0.31696482  0.01285039  0.03096033  1
