# generated using pymatgen
data_Sm6Si4S17
_symmetry_space_group_name_H-M   'P 1'
_cell_length_a   8.93801835
_cell_length_b   9.89135235
_cell_length_c   14.17923129
_cell_angle_alpha   82.03676345
_cell_angle_beta   87.33921471
_cell_angle_gamma   88.98518440
_symmetry_Int_Tables_number   1
_chemical_formula_structural   Sm6Si4S17
_chemical_formula_sum   'Sm12 Si8 S34'
_cell_volume   1240.06584077
_cell_formula_units_Z   2
loop_
 _symmetry_equiv_pos_site_id
 _symmetry_equiv_pos_as_xyz
  1  'x, y, z'
loop_
 _atom_site_type_symbol
 _atom_site_label
 _atom_site_symmetry_multiplicity
 _atom_site_fract_x
 _atom_site_fract_y
 _atom_site_fract_z
 _atom_site_occupancy
  Sm  Sm0  1  0.91284015  0.91893058  0.83449364  1
  Sm  Sm1  1  0.66459009  0.59115029  0.65768070  1
  Sm  Sm2  1  0.08715985  0.08106942  0.16550636  1
  Sm  Sm3  1  0.01206109  0.76646542  0.46380170  1
  Sm  Sm4  1  0.36361038  0.06051413  0.67827644  1
  Sm  Sm5  1  0.44996671  0.73761858  0.00202401  1
  Sm  Sm6  1  0.10593411  0.38389616  0.81419452  1
  Sm  Sm7  1  0.63638962  0.93948587  0.32172356  1
  Sm  Sm8  1  0.98793891  0.23353458  0.53619830  1
  Sm  Sm9  1  0.55003329  0.26238142  0.99797599  1
  Sm  Sm10  1  0.89406589  0.61610384  0.18580548  1
  Sm  Sm11  1  0.33540991  0.40884971  0.34231930  1
  Si  Si12  1  0.76797016  0.56052249  0.90055193  1
  Si  Si13  1  0.24843302  0.05923997  0.92256394  1
  Si  Si14  1  0.23202984  0.43947751  0.09944807  1
  Si  Si15  1  0.72061735  0.94391275  0.60727037  1
  Si  Si16  1  0.75000453  0.49947836  0.41642908  1
  Si  Si17  1  0.24999547  0.50052164  0.58357092  1
  Si  Si18  1  0.75156698  0.94076003  0.07743606  1
  Si  Si19  1  0.27938265  0.05608725  0.39272963  1
  S  S20  1  0.48752748  0.15388379  0.39746386  1
  S  S21  1  0.70013958  0.69509271  0.45894317  1
  S  S22  1  0.69712538  0.36554741  0.54174061  1
  S  S23  1  0.65886962  0.00050046  0.94240598  1
  S  S24  1  0.99132097  0.62563860  0.88345196  1
  S  S25  1  0.10947344  0.20269274  0.34311658  1
  S  S26  1  0.00867903  0.37436140  0.11654804  1
  S  S27  1  0.98589880  0.50899547  0.37738283  1
  S  S28  1  0.64476903  0.46708980  0.29192866  1
  S  S29  1  0.34113038  0.99949954  0.05759402  1
  S  S30  1  0.32207188  0.48302136  0.95571832  1
  S  S31  1  0.81641062  0.02126078  0.46878631  1
  S  S32  1  0.68640708  0.08747564  0.70260382  1
  S  S33  1  0.74923677  0.38369141  0.83065953  1
  S  S34  1  0.37025168  0.28000671  0.16653655  1
  S  S35  1  0.74486247  0.11883538  0.14907040  1
  S  S36  1  0.51247252  0.84611621  0.60253614  1
  S  S37  1  0.67792812  0.51697864  0.04428168  1
  S  S38  1  0.29986042  0.30490729  0.54105683  1
  S  S39  1  0.93733572  0.85859834  0.27974612  1
  S  S40  1  0.03806988  0.15100705  0.95211319  1
  S  S41  1  0.62000393  0.78620793  0.16242811  1
  S  S42  1  0.96193012  0.84899295  0.04788681  1
  S  S43  1  0.25076323  0.61630859  0.16934047  1
  S  S44  1  0.01410120  0.49100453  0.62261717  1
  S  S45  1  0.62974832  0.71999329  0.83346345  1
  S  S46  1  0.25513753  0.88116462  0.85092960  1
  S  S47  1  0.37999607  0.21379207  0.83757189  1
  S  S48  1  0.31359292  0.91252436  0.29739618  1
  S  S49  1  0.89052656  0.79730726  0.65688342  1
  S  S50  1  0.35523097  0.53291020  0.70807134  1
  S  S51  1  0.18358938  0.97873922  0.53121369  1
  S  S52  1  0.06266428  0.14140166  0.72025388  1
  S  S53  1  0.30287462  0.63445259  0.45825939  1
