# generated using pymatgen
data_Pb2S(O2F)2
_symmetry_space_group_name_H-M   'P 1'
_cell_length_a   4.49722736
_cell_length_b   7.61560368
_cell_length_c   8.75000371
_cell_angle_alpha   107.16477969
_cell_angle_beta   90.00000000
_cell_angle_gamma   107.17336923
_symmetry_Int_Tables_number   1
_chemical_formula_structural   Pb2S(O2F)2
_chemical_formula_sum   'Pb4 S2 O8 F4'
_cell_volume   272.31689017
_cell_formula_units_Z   2
loop_
 _symmetry_equiv_pos_site_id
 _symmetry_equiv_pos_as_xyz
  1  'x, y, z'
loop_
 _atom_site_type_symbol
 _atom_site_label
 _atom_site_symmetry_multiplicity
 _atom_site_fract_x
 _atom_site_fract_y
 _atom_site_fract_z
 _atom_site_occupancy
  Pb  Pb0  1  0.64970427  0.30852932  0.07600108  1
  Pb  Pb1  1  0.35029573  0.69147068  0.92399892  1
  Pb  Pb2  1  0.34117494  0.69147068  0.42399892  1
  Pb  Pb3  1  0.65882506  0.30852932  0.57600108  1
  S  S4  1  0.04869160  0.00000000  0.25000000  1
  S  S5  1  0.95130840  0.00000000  0.75000000  1
  O  O6  1  0.22387668  0.17855207  0.79368184  1
  O  O7  1  0.75330750  -0.00280921  0.60996177  1
  O  O8  1  0.75611672  1.00280921  0.89003823  1
  O  O9  1  0.04532461  0.82144793  0.70631816  1
  O  O10  1  0.77612332  0.82144793  0.20631816  1
  O  O11  1  0.95467539  0.17855207  0.29368184  1
  O  O12  1  0.24388328  -0.00280921  0.10996177  1
  O  O13  1  0.24669250  1.00280921  0.39003823  1
  F  F14  1  0.77589999  0.50587781  0.87668727  1
  F  F15  1  0.27002217  0.49412219  0.62331273  1
  F  F16  1  0.22410001  0.49412219  0.12331273  1
  F  F17  1  0.72997783  0.50587781  0.37668727  1
