# generated using pymatgen
data_K3LuSi2O7
_symmetry_space_group_name_H-M   'P 1'
_cell_length_a   5.76515518
_cell_length_b   5.76515545
_cell_length_c   14.06422984
_cell_angle_alpha   90.00000000
_cell_angle_beta   90.00000000
_cell_angle_gamma   119.99999842
_symmetry_Int_Tables_number   1
_chemical_formula_structural   K3LuSi2O7
_chemical_formula_sum   'K6 Lu2 Si4 O14'
_cell_volume   404.82620539
_cell_formula_units_Z   2
loop_
 _symmetry_equiv_pos_site_id
 _symmetry_equiv_pos_as_xyz
  1  'x, y, z'
loop_
 _atom_site_type_symbol
 _atom_site_label
 _atom_site_symmetry_multiplicity
 _atom_site_fract_x
 _atom_site_fract_y
 _atom_site_fract_z
 _atom_site_occupancy
  K  K0  1  0.66666700  0.33333300  0.90837779  1
  K  K1  1  0.33333300  0.66666700  0.09162221  1
  K  K2  1  0.66666700  0.33333300  0.59162221  1
  K  K3  1  0.33333300  0.66666700  0.40837779  1
  K  K4  1  0.00000000  0.00000000  0.75000000  1
  K  K5  1  0.00000000  0.00000000  0.25000000  1
  Lu  Lu6  1  0.00000000  0.00000000  0.00000000  1
  Lu  Lu7  1  0.00000000  0.00000000  0.50000000  1
  Si  Si8  1  0.66666700  0.33333300  0.36874749  1
  Si  Si9  1  0.66666700  0.33333300  0.13125251  1
  Si  Si10  1  0.33333300  0.66666700  0.86874749  1
  Si  Si11  1  0.33333300  0.66666700  0.63125251  1
  O  O12  1  0.17745929  0.35491857  0.59476799  1
  O  O13  1  0.82254071  0.17745929  0.09476799  1
  O  O14  1  0.64508143  0.82254071  0.90523201  1
  O  O15  1  0.82254071  0.64508143  0.09476799  1
  O  O16  1  0.17745929  0.82254071  0.90523201  1
  O  O17  1  0.82254071  0.64508143  0.40523201  1
  O  O18  1  0.82254071  0.17745929  0.40523201  1
  O  O19  1  0.17745929  0.82254071  0.59476799  1
  O  O20  1  0.64508143  0.82254071  0.59476799  1
  O  O21  1  0.35491857  0.17745929  0.09476799  1
  O  O22  1  0.66666700  0.33333300  0.25000000  1
  O  O23  1  0.17745929  0.35491857  0.90523201  1
  O  O24  1  0.35491857  0.17745929  0.40523201  1
  O  O25  1  0.33333300  0.66666700  0.75000000  1
