# generated using pymatgen
data_TlZn(PO3)3
_symmetry_space_group_name_H-M   'P 1'
_cell_length_a   5.22583482
_cell_length_b   12.11874406
_cell_length_c   13.15465631
_cell_angle_alpha   90.00000000
_cell_angle_beta   90.00000000
_cell_angle_gamma   90.00000000
_symmetry_Int_Tables_number   1
_chemical_formula_structural   TlZn(PO3)3
_chemical_formula_sum   'Tl4 Zn4 P12 O36'
_cell_volume   833.09168078
_cell_formula_units_Z   4
loop_
 _symmetry_equiv_pos_site_id
 _symmetry_equiv_pos_as_xyz
  1  'x, y, z'
loop_
 _atom_site_type_symbol
 _atom_site_label
 _atom_site_symmetry_multiplicity
 _atom_site_fract_x
 _atom_site_fract_y
 _atom_site_fract_z
 _atom_site_occupancy
  Tl  Tl0  1  0.07879915  0.14085210  0.25000000  1
  Tl  Tl1  1  0.92120085  0.85914790  0.75000000  1
  Tl  Tl2  1  0.07879915  0.35914790  0.75000000  1
  Tl  Tl3  1  0.92120085  0.64085210  0.25000000  1
  Zn  Zn4  1  0.00000000  0.00000000  0.00000000  1
  Zn  Zn5  1  0.00000000  0.50000000  0.50000000  1
  Zn  Zn6  1  0.00000000  0.00000000  0.50000000  1
  Zn  Zn7  1  0.00000000  0.50000000  0.00000000  1
  P  P8  1  0.51020953  0.91554758  0.13469566  1
  P  P9  1  0.48979047  0.08445242  0.63469566  1
  P  P10  1  0.51020953  0.58445242  0.86530434  1
  P  P11  1  0.25049459  0.75000000  0.00000000  1
  P  P12  1  0.51020953  0.91554758  0.36530434  1
  P  P13  1  0.48979047  0.41554758  0.36530434  1
  P  P14  1  0.25049459  0.75000000  0.50000000  1
  P  P15  1  0.74950541  0.25000000  0.50000000  1
  P  P16  1  0.48979047  0.41554758  0.13469566  1
  P  P17  1  0.51020953  0.58445242  0.63469566  1
  P  P18  1  0.48979047  0.08445242  0.86530434  1
  P  P19  1  0.74950541  0.25000000  0.00000000  1
  O  O20  1  0.55069894  0.29758964  0.41738921  1
  O  O21  1  0.55069894  0.29758964  0.08261079  1
  O  O22  1  0.79197291  0.93733048  0.37388129  1
  O  O23  1  0.44930106  0.79758964  0.41738921  1
  O  O24  1  0.32314672  0.00288939  0.39889900  1
  O  O25  1  0.44930106  0.70241036  0.91738921  1
  O  O26  1  0.55069894  0.20241036  0.58261079  1
  O  O27  1  0.10459409  0.65759157  0.04940446  1
  O  O28  1  0.32314672  0.49711061  0.89889900  1
  O  O29  1  0.55705990  0.37934500  0.25000000  1
  O  O30  1  0.67685328  0.50288939  0.39889900  1
  O  O31  1  0.44294010  0.62065500  0.75000000  1
  O  O32  1  0.79197291  0.56266952  0.62611871  1
  O  O33  1  0.67685328  0.99711061  0.89889900  1
  O  O34  1  0.20802709  0.43733048  0.12611871  1
  O  O35  1  0.10459409  0.65759157  0.45059554  1
  O  O36  1  0.44294010  0.87934500  0.25000000  1
  O  O37  1  0.67685328  0.99711061  0.60110100  1
  O  O38  1  0.10459409  0.84240843  0.95059554  1
  O  O39  1  0.44930106  0.70241036  0.58261079  1
  O  O40  1  0.20802709  0.06266952  0.62611871  1
  O  O41  1  0.32314672  0.00288939  0.10110100  1
  O  O42  1  0.67685328  0.50288939  0.10110100  1
  O  O43  1  0.20802709  0.06266952  0.87388129  1
  O  O44  1  0.20802709  0.43733048  0.37388129  1
  O  O45  1  0.89540591  0.15759157  0.45059554  1
  O  O46  1  0.79197291  0.56266952  0.87388129  1
  O  O47  1  0.55705990  0.12065500  0.75000000  1
  O  O48  1  0.10459409  0.84240843  0.54940446  1
  O  O49  1  0.32314672  0.49711061  0.60110100  1
  O  O50  1  0.89540591  0.15759157  0.04940446  1
  O  O51  1  0.55069894  0.20241036  0.91738921  1
  O  O52  1  0.79197291  0.93733048  0.12611871  1
  O  O53  1  0.89540591  0.34240843  0.95059554  1
  O  O54  1  0.89540591  0.34240843  0.54940446  1
  O  O55  1  0.44930106  0.79758964  0.08261079  1
