# generated using pymatgen
data_CrAg(PS3)2
_symmetry_space_group_name_H-M   'P 1'
_cell_length_a   5.96965300
_cell_length_b   7.36758123
_cell_length_c   10.67979517
_cell_angle_alpha   90.00000000
_cell_angle_beta   90.00000000
_cell_angle_gamma   104.56821360
_symmetry_Int_Tables_number   1
_chemical_formula_structural   CrAg(PS3)2
_chemical_formula_sum   'Cr2 Ag2 P4 S12'
_cell_volume   454.61576109
_cell_formula_units_Z   2
loop_
 _symmetry_equiv_pos_site_id
 _symmetry_equiv_pos_as_xyz
  1  'x, y, z'
loop_
 _atom_site_type_symbol
 _atom_site_label
 _atom_site_symmetry_multiplicity
 _atom_site_fract_x
 _atom_site_fract_y
 _atom_site_fract_z
 _atom_site_occupancy
  Cr  Cr0  1  0.25000000  0.00000000  0.08220901  1
  Cr  Cr1  1  0.75000000  0.00000000  0.91779099  1
  Ag  Ag2  1  0.25000000  0.00000000  0.43865103  1
  Ag  Ag3  1  0.75000000  0.00000000  0.56134897  1
  P  P4  1  0.20733861  0.84437332  0.75564413  1
  P  P5  1  0.79266139  0.15562668  0.24435587  1
  P  P6  1  0.70733861  0.84437332  0.24435587  1
  P  P7  1  0.29266139  0.15562668  0.75564413  1
  S  S8  1  0.01588636  0.79582006  0.92572101  1
  S  S9  1  0.47918005  0.21864531  0.23095200  1
  S  S10  1  0.52081995  0.78135469  0.76904800  1
  S  S11  1  0.47594009  0.26300939  0.60693784  1
  S  S12  1  0.98411364  0.20417994  0.07427899  1
  S  S13  1  0.97918005  0.21864531  0.76904800  1
  S  S14  1  0.52405991  0.73699061  0.39306216  1
  S  S15  1  0.51588636  0.79582006  0.07427899  1
  S  S16  1  0.48411364  0.20417994  0.92572101  1
  S  S17  1  0.02405991  0.73699061  0.60693784  1
  S  S18  1  0.97594009  0.26300939  0.39306216  1
  S  S19  1  0.02081995  0.78135469  0.23095200  1
