# generated using pymatgen
data_YAlNi
_symmetry_space_group_name_H-M   'P 1'
_cell_length_a   5.39052483
_cell_length_b   5.27978995
_cell_length_c   8.61583457
_cell_angle_alpha   90.00000000
_cell_angle_beta   90.00000000
_cell_angle_gamma   59.30212690
_symmetry_Int_Tables_number   1
_chemical_formula_structural   YAlNi
_chemical_formula_sum   'Y4 Al4 Ni4'
_cell_volume   210.85235816
_cell_formula_units_Z   4
loop_
 _symmetry_equiv_pos_site_id
 _symmetry_equiv_pos_as_xyz
  1  'x, y, z'
loop_
 _atom_site_type_symbol
 _atom_site_label
 _atom_site_symmetry_multiplicity
 _atom_site_fract_x
 _atom_site_fract_y
 _atom_site_fract_z
 _atom_site_occupancy
  Y  Y0  1  0.33855641  0.32287422  0.54322098  1
  Y  Y1  1  0.66910088  0.66167978  0.43196553  1
  Y  Y2  1  0.66910088  0.66167978  0.06803447  1
  Y  Y3  1  0.33855641  0.32287422  0.95677902  1
  Al  Al4  1  0.83518366  0.32957874  0.75000000  1
  Al  Al5  1  0.33172313  0.83086603  0.75000000  1
  Al  Al6  1  0.83737075  0.83091103  0.75000000  1
  Al  Al7  1  0.14730993  0.70531533  0.25000000  1
  Ni  Ni8  1  0.66766800  0.17810347  0.25000000  1
  Ni  Ni9  1  0.15438866  0.17808243  0.25000000  1
  Ni  Ni10  1  0.00552065  0.98901748  0.50981515  1
  Ni  Ni11  1  0.00552065  0.98901748  0.99018485  1
