# generated using pymatgen
data_Lu(PO3)3
_symmetry_space_group_name_H-M   'P 1'
_cell_length_a   12.87231410
_cell_length_b   12.87231461
_cell_length_c   12.87231479
_cell_angle_alpha   110.44552620
_cell_angle_beta   110.44552698
_cell_angle_gamma   110.44552448
_symmetry_Int_Tables_number   1
_chemical_formula_structural   Lu(PO3)3
_chemical_formula_sum   'Lu8 P24 O72'
_cell_volume   1579.90656491
_cell_formula_units_Z   8
loop_
 _symmetry_equiv_pos_site_id
 _symmetry_equiv_pos_as_xyz
  1  'x, y, z'
loop_
 _atom_site_type_symbol
 _atom_site_label
 _atom_site_symmetry_multiplicity
 _atom_site_fract_x
 _atom_site_fract_y
 _atom_site_fract_z
 _atom_site_occupancy
  Lu  Lu0  1  0.02125398  0.73155176  0.53833409  1
  Lu  Lu1  1  0.50000000  0.50000000  0.50000000  1
  Lu  Lu2  1  0.97874602  0.26844824  0.46166591  1
  Lu  Lu3  1  0.73155176  0.53833409  0.02125398  1
  Lu  Lu4  1  0.46166591  0.97874602  0.26844824  1
  Lu  Lu5  1  0.26844824  0.46166591  0.97874602  1
  Lu  Lu6  1  0.53833409  0.02125398  0.73155176  1
  Lu  Lu7  1  0.00000000  0.00000000  0.00000000  1
  P  P8  1  0.32976198  0.79125025  0.37734635  1
  P  P9  1  0.20874975  0.62265365  0.67023802  1
  P  P10  1  0.26990269  0.27160591  0.51809573  1
  P  P11  1  0.27160591  0.51809573  0.26990269  1
  P  P12  1  0.28721722  0.06716650  0.76592187  1
  P  P13  1  0.20015766  0.01754758  0.29697880  1
  P  P14  1  0.79984234  0.98245242  0.70302120  1
  P  P15  1  0.98245242  0.70302120  0.79984234  1
  P  P16  1  0.06716650  0.76592187  0.28721722  1
  P  P17  1  0.70302120  0.79984234  0.98245242  1
  P  P18  1  0.23407813  0.71278278  0.93283350  1
  P  P19  1  0.51809573  0.26990269  0.27160591  1
  P  P20  1  0.48190427  0.73009731  0.72839409  1
  P  P21  1  0.71278278  0.93283350  0.23407813  1
  P  P22  1  0.76592187  0.28721722  0.06716650  1
  P  P23  1  0.79125025  0.37734635  0.32976198  1
  P  P24  1  0.73009731  0.72839409  0.48190427  1
  P  P25  1  0.01754758  0.29697880  0.20015766  1
  P  P26  1  0.67023802  0.20874975  0.62265365  1
  P  P27  1  0.37734635  0.32976198  0.79125025  1
  P  P28  1  0.72839409  0.48190427  0.73009731  1
  P  P29  1  0.93283350  0.23407813  0.71278278  1
  P  P30  1  0.29697880  0.20015766  0.01754758  1
  P  P31  1  0.62265365  0.67023802  0.20874975  1
  O  O32  1  0.27337333  0.14746201  0.43737071  1
  O  O33  1  0.86127373  0.76709280  0.49782119  1
  O  O34  1  0.59954433  0.17546418  0.68864180  1
  O  O35  1  0.18972930  0.10730826  0.02047606  1
  O  O36  1  0.32567733  0.84711412  0.05506389  1
  O  O37  1  0.67290274  0.62601079  0.50978818  1
  O  O38  1  0.31815268  0.66283062  0.37666114  1
  O  O39  1  0.49782119  0.86127373  0.76709280  1
  O  O40  1  0.82453582  0.31135820  0.40045567  1
  O  O41  1  0.72018560  0.82122882  0.25916649  1
  O  O42  1  0.30406904  0.99685895  0.28549103  1
  O  O43  1  0.17546418  0.68864180  0.59954433  1
  O  O44  1  0.72662667  0.85253799  0.56262929  1
  O  O45  1  0.51696241  0.38410188  0.89072967  1
  O  O46  1  0.60052983  0.94016534  0.23729817  1
  O  O47  1  0.74083351  0.27981440  0.17877118  1
  O  O48  1  0.88116505  0.08617902  0.67692865  1
  O  O49  1  0.81027070  0.89269174  0.97952394  1
  O  O50  1  0.05506389  0.32567733  0.84711412  1
  O  O51  1  0.84711412  0.05506389  0.32567733  1
  O  O52  1  0.49021182  0.32709726  0.37398921  1
  O  O53  1  0.08617902  0.67692865  0.88116505  1
  O  O54  1  0.91382098  0.32307135  0.11883495  1
  O  O55  1  0.67432267  0.15288588  0.94493611  1
  O  O56  1  0.17877118  0.74083351  0.27981440  1
  O  O57  1  0.43737071  0.27337333  0.14746201  1
  O  O58  1  0.82122882  0.25916649  0.72018560  1
  O  O59  1  0.62333886  0.68184732  0.33716938  1
  O  O60  1  0.00314105  0.71450897  0.69593096  1
  O  O61  1  0.71450897  0.69593096  0.00314105  1
  O  O62  1  0.13872627  0.23290720  0.50217881  1
  O  O63  1  0.56262929  0.72662667  0.85253799  1
  O  O64  1  0.02047606  0.18972930  0.10730826  1
  O  O65  1  0.50217881  0.13872627  0.23290720  1
  O  O66  1  0.32307135  0.11883495  0.91382098  1
  O  O67  1  0.23729817  0.60052983  0.94016534  1
  O  O68  1  0.66283062  0.37666114  0.31815268  1
  O  O69  1  0.31135820  0.40045567  0.82453582  1
  O  O70  1  0.38410188  0.89072967  0.51696241  1
  O  O71  1  0.61589812  0.10927033  0.48303759  1
  O  O72  1  0.05983466  0.76270183  0.39947017  1
  O  O73  1  0.76709280  0.49782119  0.86127373  1
  O  O74  1  0.27981440  0.17877118  0.74083351  1
  O  O75  1  0.25916649  0.72018560  0.82122882  1
  O  O76  1  0.62601079  0.50978818  0.67290274  1
  O  O77  1  0.99685895  0.28549103  0.30406904  1
  O  O78  1  0.37666114  0.31815268  0.66283062  1
  O  O79  1  0.10730826  0.02047606  0.18972930  1
  O  O80  1  0.68184732  0.33716938  0.62333886  1
  O  O81  1  0.14746201  0.43737071  0.27337333  1
  O  O82  1  0.69593096  0.00314105  0.71450897  1
  O  O83  1  0.89072967  0.51696241  0.38410188  1
  O  O84  1  0.23290720  0.50217881  0.13872627  1
  O  O85  1  0.15288588  0.94493611  0.67432267  1
  O  O86  1  0.85253799  0.56262929  0.72662667  1
  O  O87  1  0.33716938  0.62333886  0.68184732  1
  O  O88  1  0.11883495  0.91382098  0.32307135  1
  O  O89  1  0.10927033  0.48303759  0.61589812  1
  O  O90  1  0.39947017  0.05983466  0.76270183  1
  O  O91  1  0.40045567  0.82453582  0.31135820  1
  O  O92  1  0.76270183  0.39947017  0.05983466  1
  O  O93  1  0.68864180  0.59954433  0.17546418  1
  O  O94  1  0.67692865  0.88116505  0.08617902  1
  O  O95  1  0.28549103  0.30406904  0.99685895  1
  O  O96  1  0.94016534  0.23729817  0.60052983  1
  O  O97  1  0.37398921  0.49021182  0.32709726  1
  O  O98  1  0.89269174  0.97952394  0.81027070  1
  O  O99  1  0.50978818  0.67290274  0.62601079  1
  O  O100  1  0.94493611  0.67432267  0.15288588  1
  O  O101  1  0.48303759  0.61589812  0.10927033  1
  O  O102  1  0.32709726  0.37398921  0.49021182  1
  O  O103  1  0.97952394  0.81027070  0.89269174  1
