# generated using pymatgen
data_Rb4CuSi2O7
_symmetry_space_group_name_H-M   'P 1'
_cell_length_a   6.38369124
_cell_length_b   7.17551907
_cell_length_c   7.25038456
_cell_angle_alpha   114.28975727
_cell_angle_beta   100.46781768
_cell_angle_gamma   107.78776121
_symmetry_Int_Tables_number   1
_chemical_formula_structural   Rb4CuSi2O7
_chemical_formula_sum   'Rb4 Cu1 Si2 O7'
_cell_volume   269.56340597
_cell_formula_units_Z   1
loop_
 _symmetry_equiv_pos_site_id
 _symmetry_equiv_pos_as_xyz
  1  'x, y, z'
loop_
 _atom_site_type_symbol
 _atom_site_label
 _atom_site_symmetry_multiplicity
 _atom_site_fract_x
 _atom_site_fract_y
 _atom_site_fract_z
 _atom_site_occupancy
  Rb  Rb0  1  0.32133387  0.07886329  0.72002661  1
  Rb  Rb1  1  0.67866613  0.92113671  0.27997339  1
  Rb  Rb2  1  0.93017970  0.45762536  0.22151576  1
  Rb  Rb3  1  0.06982030  0.54237464  0.77848424  1
  Cu  Cu4  1  0.50000000  0.50000000  0.50000000  1
  Si  Si5  1  0.21658487  0.08025458  0.22365663  1
  Si  Si6  1  0.78341513  0.91974542  0.77634337  1
  O  O7  1  0.47164474  0.24075727  0.22962882  1
  O  O8  1  0.81507536  0.72994348  0.56630391  1
  O  O9  1  0.18492464  0.27005652  0.43369609  1
  O  O10  1  0.79371380  0.14113664  0.76346080  1
  O  O11  1  0.20628620  0.85886336  0.23653920  1
  O  O12  1  0.52835526  0.75924273  0.77037118  1
  O  O13  1  0.00000000  0.00000000  0.00000000  1
