# generated using pymatgen
data_Rb2Bi(ClO4)5
_symmetry_space_group_name_H-M   'P 1'
_cell_length_a   8.29751847
_cell_length_b   10.69245842
_cell_length_c   11.83006743
_cell_angle_alpha   94.93381500
_cell_angle_beta   109.96377547
_cell_angle_gamma   105.18313330
_symmetry_Int_Tables_number   1
_chemical_formula_structural   Rb2Bi(ClO4)5
_chemical_formula_sum   'Rb4 Bi2 Cl10 O40'
_cell_volume   934.09473246
_cell_formula_units_Z   2
loop_
 _symmetry_equiv_pos_site_id
 _symmetry_equiv_pos_as_xyz
  1  'x, y, z'
loop_
 _atom_site_type_symbol
 _atom_site_label
 _atom_site_symmetry_multiplicity
 _atom_site_fract_x
 _atom_site_fract_y
 _atom_site_fract_z
 _atom_site_occupancy
  Rb  Rb0  1  0.09425754  0.46593124  0.23691790  1
  Rb  Rb1  1  0.43054128  0.11215393  0.20932678  1
  Rb  Rb2  1  0.90574246  0.53406876  0.76308210  1
  Rb  Rb3  1  0.56945872  0.88784607  0.79067322  1
  Bi  Bi4  1  0.74386567  0.78090059  0.27920982  1
  Bi  Bi5  1  0.25613433  0.21909941  0.72079018  1
  Cl  Cl6  1  0.70898889  0.47312857  0.37177993  1
  Cl  Cl7  1  0.45156560  0.79623006  0.41525116  1
  Cl  Cl8  1  0.00808914  0.10281443  0.35911248  1
  Cl  Cl9  1  0.99191086  0.89718557  0.64088752  1
  Cl  Cl10  1  0.37372188  0.69964874  0.04541724  1
  Cl  Cl11  1  0.62627812  0.30035126  0.95458276  1
  Cl  Cl12  1  0.29101111  0.52687143  0.62822007  1
  Cl  Cl13  1  0.09510778  0.19578953  0.93626191  1
  Cl  Cl14  1  0.90489222  0.80421047  0.06373809  1
  Cl  Cl15  1  0.54843440  0.20376994  0.58474884  1
  O  O16  1  0.46894477  0.07568508  0.60796515  1
  O  O17  1  0.74240452  0.24342669  0.63227292  1
  O  O18  1  0.91721563  0.11076534  0.91381724  1
  O  O19  1  0.91402594  0.71830428  0.15910085  1
  O  O20  1  0.93457742  0.81355509  0.71838340  1
  O  O21  1  0.20604485  0.62309494  0.05076696  1
  O  O22  1  0.19460076  0.62112314  0.62967991  1
  O  O23  1  0.51579037  0.63319927  0.09856184  1
  O  O24  1  0.52160958  0.41957060  0.29148783  1
  O  O25  1  0.26832134  0.47277080  0.50637317  1
  O  O26  1  0.25759548  0.75657331  0.36772708  1
  O  O27  1  0.82484189  0.72082517  0.94349532  1
  O  O28  1  0.44434263  0.83186151  0.12371688  1
  O  O29  1  0.21328583  0.11854129  0.92197390  1
  O  O30  1  0.08692466  0.17669802  0.48595429  1
  O  O31  1  0.18978113  0.94090615  0.68140642  1
  O  O32  1  0.64757272  0.29173923  0.07951232  1
  O  O33  1  0.19974846  0.41360719  0.68222663  1
  O  O34  1  0.73167866  0.52722920  0.49362683  1
  O  O35  1  0.81021887  0.05909385  0.31859358  1
  O  O36  1  0.93533718  0.01629685  0.64645469  1
  O  O37  1  0.49758360  0.30485683  0.65595542  1
  O  O38  1  0.35242728  0.70826077  0.92048768  1
  O  O39  1  0.80025154  0.58639281  0.31777337  1
  O  O40  1  0.06466282  0.98370315  0.35354531  1
  O  O41  1  0.50241640  0.69514317  0.34404458  1
  O  O42  1  0.08597406  0.28169572  0.84089915  1
  O  O43  1  0.08278437  0.88923466  0.08618276  1
  O  O44  1  0.48420963  0.36680073  0.90143816  1
  O  O45  1  0.06542258  0.18644491  0.28161660  1
  O  O46  1  0.79395515  0.37690506  0.94923304  1
  O  O47  1  0.91307534  0.82330198  0.51404571  1
  O  O48  1  0.52598081  0.79002365  0.54294709  1
  O  O49  1  0.78671417  0.88145871  0.07802610  1
  O  O50  1  0.17515811  0.27917483  0.05650468  1
  O  O51  1  0.80539924  0.37887686  0.37032009  1
  O  O52  1  0.47839042  0.58042940  0.70851217  1
  O  O53  1  0.47401919  0.20997635  0.45705291  1
  O  O54  1  0.55565737  0.16813849  0.87628312  1
  O  O55  1  0.53105523  0.92431492  0.39203485  1
