# generated using pymatgen
data_AsS(IF3)2
_symmetry_space_group_name_H-M   'P 1'
_cell_length_a   8.21646749
_cell_length_b   8.21646680
_cell_length_c   14.17221843
_cell_angle_alpha   92.74835059
_cell_angle_beta   92.74835051
_cell_angle_gamma   108.47967846
_symmetry_Int_Tables_number   1
_chemical_formula_structural   AsS(IF3)2
_chemical_formula_sum   'As4 S4 I8 F24'
_cell_volume   904.37669180
_cell_formula_units_Z   4
loop_
 _symmetry_equiv_pos_site_id
 _symmetry_equiv_pos_as_xyz
  1  'x, y, z'
loop_
 _atom_site_type_symbol
 _atom_site_label
 _atom_site_symmetry_multiplicity
 _atom_site_fract_x
 _atom_site_fract_y
 _atom_site_fract_z
 _atom_site_occupancy
  As  As0  1  0.82241145  0.17758855  0.75000000  1
  As  As1  1  0.17758855  0.82241145  0.25000000  1
  As  As2  1  0.50000000  0.50000000  0.50000000  1
  As  As3  1  0.50000000  0.50000000  0.00000000  1
  S  S4  1  0.59580046  0.21012899  0.24621461  1
  S  S5  1  0.40419954  0.78987101  0.75378539  1
  S  S6  1  0.21012899  0.59580046  0.74621461  1
  S  S7  1  0.78987101  0.40419954  0.25378539  1
  I  I8  1  0.01911307  0.74085344  0.58095629  1
  I  I9  1  0.74085344  0.01911307  0.08095629  1
  I  I10  1  0.31443432  0.99001420  0.61259901  1
  I  I11  1  0.98088693  0.25914656  0.41904371  1
  I  I12  1  0.68556568  0.00998580  0.38740099  1
  I  I13  1  0.00998580  0.68556568  0.88740099  1
  I  I14  1  0.99001420  0.31443432  0.11259901  1
  I  I15  1  0.25914656  0.98088693  0.91904371  1
  F  F16  1  0.45945352  0.40083119  0.60851559  1
  F  F17  1  0.08024625  0.72113650  0.13830796  1
  F  F18  1  0.19452877  0.02669120  0.20829613  1
  F  F19  1  0.91975375  0.27886350  0.86169204  1
  F  F20  1  0.54054648  0.59916881  0.39148441  1
  F  F21  1  0.15912275  0.61524397  0.28974078  1
  F  F22  1  0.27886350  0.91975375  0.36169204  1
  F  F23  1  0.61524397  0.15912275  0.78974078  1
  F  F24  1  0.70981648  0.47658946  0.50387206  1
  F  F25  1  0.47658946  0.70981648  0.00387206  1
  F  F26  1  0.40083119  0.45945352  0.10851559  1
  F  F27  1  0.02669120  0.19452877  0.70829613  1
  F  F28  1  0.80547123  0.97330880  0.79170387  1
  F  F29  1  0.52341054  0.29018352  0.99612794  1
  F  F30  1  0.84087725  0.38475603  0.71025922  1
  F  F31  1  0.38475603  0.84087725  0.21025922  1
  F  F32  1  0.70399961  0.58684969  0.06225910  1
  F  F33  1  0.59916881  0.54054648  0.89148441  1
  F  F34  1  0.72113650  0.08024625  0.63830796  1
  F  F35  1  0.29018352  0.52341054  0.49612794  1
  F  F36  1  0.97330880  0.80547123  0.29170387  1
  F  F37  1  0.29600039  0.41315031  0.93774090  1
  F  F38  1  0.41315031  0.29600039  0.43774090  1
  F  F39  1  0.58684969  0.70399961  0.56225910  1
