# generated using pymatgen
data_Gd2TiO5
_symmetry_space_group_name_H-M   'P 1'
_cell_length_a   3.77093926
_cell_length_b   10.56307670
_cell_length_c   11.41706072
_cell_angle_alpha   90.00000000
_cell_angle_beta   90.00000000
_cell_angle_gamma   90.00000000
_symmetry_Int_Tables_number   1
_chemical_formula_structural   Gd2TiO5
_chemical_formula_sum   'Gd8 Ti4 O20'
_cell_volume   454.77259013
_cell_formula_units_Z   4
loop_
 _symmetry_equiv_pos_site_id
 _symmetry_equiv_pos_as_xyz
  1  'x, y, z'
loop_
 _atom_site_type_symbol
 _atom_site_label
 _atom_site_symmetry_multiplicity
 _atom_site_fract_x
 _atom_site_fract_y
 _atom_site_fract_z
 _atom_site_occupancy
  Gd  Gd0  1  0.75000000  0.86321366  0.94391795  1
  Gd  Gd1  1  0.25000000  0.13678634  0.05608205  1
  Gd  Gd2  1  0.75000000  0.38807538  0.22267464  1
  Gd  Gd3  1  0.75000000  0.88807538  0.27732536  1
  Gd  Gd4  1  0.25000000  0.61192462  0.77732536  1
  Gd  Gd5  1  0.25000000  0.11192462  0.72267464  1
  Gd  Gd6  1  0.75000000  0.36321366  0.55608205  1
  Gd  Gd7  1  0.25000000  0.63678634  0.44391795  1
  Ti  Ti8  1  0.25000000  0.67691235  0.12071390  1
  Ti  Ti9  1  0.75000000  0.82308765  0.62071390  1
  Ti  Ti10  1  0.75000000  0.32308765  0.87928610  1
  Ti  Ti11  1  0.25000000  0.17691235  0.37928610  1
  O  O12  1  0.75000000  0.73938101  0.77000464  1
  O  O13  1  0.25000000  0.76061899  0.27000464  1
  O  O14  1  0.25000000  0.72411916  0.95907127  1
  O  O15  1  0.75000000  0.50648306  0.39568708  1
  O  O16  1  0.75000000  0.48790571  0.84439817  1
  O  O17  1  0.25000000  0.99351694  0.89568708  1
  O  O18  1  0.75000000  0.00648306  0.10431292  1
  O  O19  1  0.75000000  0.27588084  0.04092873  1
  O  O20  1  0.25000000  0.26516473  0.88213231  1
  O  O21  1  0.75000000  0.23483527  0.38213231  1
  O  O22  1  0.75000000  0.77588084  0.45907127  1
  O  O23  1  0.75000000  0.98790571  0.65560183  1
  O  O24  1  0.25000000  0.76516473  0.61786769  1
  O  O25  1  0.25000000  0.51209429  0.15560183  1
  O  O26  1  0.75000000  0.73483527  0.11786769  1
  O  O27  1  0.25000000  0.49351694  0.60431292  1
  O  O28  1  0.75000000  0.23938101  0.72999536  1
  O  O29  1  0.25000000  0.22411916  0.54092873  1
  O  O30  1  0.25000000  0.01209429  0.34439817  1
  O  O31  1  0.25000000  0.26061899  0.22999536  1
