# generated using pymatgen
data_TlInAs2O7
_symmetry_space_group_name_H-M   'P 1'
_cell_length_a   7.97513501
_cell_length_b   8.80857724
_cell_length_c   10.70454696
_cell_angle_alpha   88.74619028
_cell_angle_beta   89.99063150
_cell_angle_gamma   74.31025158
_symmetry_Int_Tables_number   1
_chemical_formula_structural   TlInAs2O7
_chemical_formula_sum   'Tl4 In4 As8 O28'
_cell_volume   723.78475585
_cell_formula_units_Z   4
loop_
 _symmetry_equiv_pos_site_id
 _symmetry_equiv_pos_as_xyz
  1  'x, y, z'
loop_
 _atom_site_type_symbol
 _atom_site_label
 _atom_site_symmetry_multiplicity
 _atom_site_fract_x
 _atom_site_fract_y
 _atom_site_fract_z
 _atom_site_occupancy
  Tl  Tl0  1  0.68194973  0.94221748  0.81578913  1
  Tl  Tl1  1  0.31805027  0.05778252  0.18421087  1
  Tl  Tl2  1  0.34593902  0.53833136  0.31877317  1
  Tl  Tl3  1  0.65406098  0.46166864  0.68122683  1
  In  In4  1  0.26170068  0.26144744  0.59603893  1
  In  In5  1  0.73829932  0.73855256  0.40396107  1
  In  In6  1  0.26348969  0.76892439  0.89793245  1
  In  In7  1  0.73651031  0.23107561  0.10206755  1
  As  As8  1  0.37106627  0.33084644  0.90029778  1
  As  As9  1  0.93274804  0.32689373  0.35844280  1
  As  As10  1  0.62893373  0.66915356  0.09970222  1
  As  As11  1  0.06725196  0.67310627  0.64155720  1
  As  As12  1  0.65637147  0.14938663  0.42695105  1
  As  As13  1  0.94999768  0.79833646  0.13242104  1
  As  As14  1  0.34362853  0.85061337  0.57304895  1
  As  As15  1  0.05000232  0.20166354  0.86757896  1
  O  O16  1  0.51077740  0.78040918  0.97971680  1
  O  O17  1  0.95557304  0.76895150  0.29097244  1
  O  O18  1  0.04171411  0.74716765  0.78936482  1
  O  O19  1  0.50807729  0.28616242  0.51067276  1
  O  O20  1  0.87283210  0.66108469  0.58412622  1
  O  O21  1  0.83047481  0.97479009  0.07255327  1
  O  O22  1  0.85247901  0.65540075  0.06439023  1
  O  O23  1  0.49192271  0.71383758  0.48932724  1
  O  O24  1  0.68861527  0.96439784  0.48746914  1
  O  O25  1  0.23396842  0.50677400  0.63026036  1
  O  O26  1  0.95828589  0.25283235  0.21063518  1
  O  O27  1  0.04442696  0.23104850  0.70902756  1
  O  O28  1  0.31138473  0.03560216  0.51253086  1
  O  O29  1  0.12716790  0.33891531  0.41587378  1
  O  O30  1  0.39679765  0.82224531  0.72820177  1
  O  O31  1  0.83916137  0.25917205  0.91768211  1
  O  O32  1  0.16952519  0.02520991  0.92744673  1
  O  O33  1  0.60462728  0.48497602  0.11656730  1
  O  O34  1  0.39537272  0.51502398  0.88343270  1
  O  O35  1  0.16083863  0.74082795  0.08231789  1
  O  O36  1  0.60320235  0.17775469  0.27179823  1
  O  O37  1  0.42302036  0.22151656  0.76766487  1
  O  O38  1  0.48922260  0.21959082  0.02028320  1
  O  O39  1  0.13579346  0.81415772  0.54473583  1
  O  O40  1  0.57697964  0.77848344  0.23233513  1
  O  O41  1  0.86420654  0.18584228  0.45526417  1
  O  O42  1  0.14752099  0.34459925  0.93560977  1
  O  O43  1  0.76603158  0.49322600  0.36973964  1
