# generated using pymatgen
data_K3Np(H3O4)2
_symmetry_space_group_name_H-M   'P 1'
_cell_length_a   7.96821564
_cell_length_b   7.66479094
_cell_length_c   8.46462304
_cell_angle_alpha   90.00000000
_cell_angle_beta   90.00000000
_cell_angle_gamma   117.11639427
_symmetry_Int_Tables_number   1
_chemical_formula_structural   K3Np(H3O4)2
_chemical_formula_sum   'K6 Np2 H12 O16'
_cell_volume   460.14980091
_cell_formula_units_Z   2
loop_
 _symmetry_equiv_pos_site_id
 _symmetry_equiv_pos_as_xyz
  1  'x, y, z'
loop_
 _atom_site_type_symbol
 _atom_site_label
 _atom_site_symmetry_multiplicity
 _atom_site_fract_x
 _atom_site_fract_y
 _atom_site_fract_z
 _atom_site_occupancy
  K  K0  1  0.50000000  0.00000000  0.00000000  1
  K  K1  1  0.54227238  0.58705783  0.80964023  1
  K  K2  1  0.45772762  0.41294217  0.19035977  1
  K  K3  1  0.95772762  0.41294217  0.30964023  1
  K  K4  1  0.00000000  0.00000000  0.50000000  1
  K  K5  1  0.04227238  0.58705783  0.69035977  1
  Np  Np6  1  0.50000000  0.00000000  0.50000000  1
  Np  Np7  1  0.00000000  0.00000000  0.00000000  1
  H  H8  1  0.32311172  0.17050717  0.80220402  1
  H  H9  1  0.82950011  0.35447959  0.96789369  1
  H  H10  1  0.17688828  0.82949283  0.30220402  1
  H  H11  1  0.67688828  0.82949283  0.19779598  1
  H  H12  1  0.32950011  0.35447959  0.53210631  1
  H  H13  1  0.87252595  0.57268695  0.01825938  1
  H  H14  1  0.67049989  0.64552041  0.46789369  1
  H  H15  1  0.82311172  0.17050717  0.69779598  1
  H  H16  1  0.17049989  0.64552041  0.03210631  1
  H  H17  1  0.62747405  0.42731305  0.51825938  1
  H  H18  1  0.12747405  0.42731305  0.98174062  1
  H  H19  1  0.37252595  0.57268695  0.48174062  1
  O  O20  1  0.20034219  0.80630223  0.41247767  1
  O  O21  1  0.79965781  0.19369777  0.58752233  1
  O  O22  1  0.42455914  0.20383045  0.56889942  1
  O  O23  1  0.57472943  0.12798847  0.30302943  1
  O  O24  1  0.29965781  0.19369777  0.91247767  1
  O  O25  1  0.57544086  0.79616955  0.43110058  1
  O  O26  1  0.73125374  0.55827891  0.48936323  1
  O  O27  1  0.92455914  0.20383045  0.93110058  1
  O  O28  1  0.92527057  0.87201153  0.80302943  1
  O  O29  1  0.07544086  0.79616955  0.06889942  1
  O  O30  1  0.70034219  0.80630223  0.08752233  1
  O  O31  1  0.42527057  0.87201153  0.69697057  1
  O  O32  1  0.26874626  0.44172109  0.51063677  1
  O  O33  1  0.07472943  0.12798847  0.19697057  1
  O  O34  1  0.76874626  0.44172109  0.98936323  1
  O  O35  1  0.23125374  0.55827891  0.01063677  1
