# generated using pymatgen
data_K3Sn5Cl3F10
_symmetry_space_group_name_H-M   'P 1'
_cell_length_a   4.37854678
_cell_length_b   10.11677707
_cell_length_c   20.90941575
_cell_angle_alpha   90.00000000
_cell_angle_beta   90.00000000
_cell_angle_gamma   102.49769162
_symmetry_Int_Tables_number   1
_chemical_formula_structural   K3Sn5Cl3F10
_chemical_formula_sum   'K6 Sn10 Cl6 F20'
_cell_volume   904.27279210
_cell_formula_units_Z   2
loop_
 _symmetry_equiv_pos_site_id
 _symmetry_equiv_pos_as_xyz
  1  'x, y, z'
loop_
 _atom_site_type_symbol
 _atom_site_label
 _atom_site_symmetry_multiplicity
 _atom_site_fract_x
 _atom_site_fract_y
 _atom_site_fract_z
 _atom_site_occupancy
  K  K0  1  0.00000000  0.00000000  0.00000000  1
  K  K1  1  0.44051329  0.88102658  0.16266386  1
  K  K2  1  0.44051329  0.88102658  0.33733614  1
  K  K3  1  0.55948671  0.11897342  0.66266386  1
  K  K4  1  0.55948671  0.11897342  0.83733614  1
  K  K5  1  0.00000000  0.00000000  0.50000000  1
  Sn  Sn6  1  0.79764388  0.59528777  0.25000000  1
  Sn  Sn7  1  0.20235612  0.40471223  0.75000000  1
  Sn  Sn8  1  0.12677253  0.25354505  0.14931420  1
  Sn  Sn9  1  0.87322747  0.74645495  0.85068580  1
  Sn  Sn10  1  0.32846792  0.65693585  0.50035716  1
  Sn  Sn11  1  0.67153208  0.34306415  0.00035716  1
  Sn  Sn12  1  0.12677253  0.25354505  0.35068580  1
  Sn  Sn13  1  0.32846792  0.65693585  0.99964284  1
  Sn  Sn14  1  0.87322747  0.74645495  0.64931420  1
  Sn  Sn15  1  0.67153208  0.34306415  0.49964284  1
  Cl  Cl16  1  0.18438127  0.36876254  0.88706369  1
  Cl  Cl17  1  0.42061750  0.84123500  0.75000000  1
  Cl  Cl18  1  0.57938250  0.15876500  0.25000000  1
  Cl  Cl19  1  0.81561873  0.63123746  0.11293631  1
  Cl  Cl20  1  0.81561873  0.63123746  0.38706369  1
  Cl  Cl21  1  0.18438127  0.36876254  0.61293631  1
  F  F22  1  0.14314111  0.28628221  0.03819330  1
  F  F23  1  0.02474337  0.04948675  0.12769123  1
  F  F24  1  0.37447212  0.74894424  0.60150806  1
  F  F25  1  0.09584818  0.19169636  0.75000000  1
  F  F26  1  0.85685889  0.71371779  0.96180670  1
  F  F27  1  0.02474337  0.04948675  0.37230877  1
  F  F28  1  0.97525663  0.95051325  0.87230877  1
  F  F29  1  0.97525663  0.95051325  0.62769123  1
  F  F30  1  0.67359798  0.34719596  0.75000000  1
  F  F31  1  0.57303224  0.14606449  0.53330330  1
  F  F32  1  0.62552788  0.25105576  0.10150806  1
  F  F33  1  0.32640202  0.65280404  0.25000000  1
  F  F34  1  0.42696776  0.85393551  0.46669670  1
  F  F35  1  0.62552788  0.25105576  0.39849194  1
  F  F36  1  0.85685889  0.71371779  0.53819330  1
  F  F37  1  0.42696776  0.85393551  0.03330330  1
  F  F38  1  0.37447212  0.74894424  0.89849194  1
  F  F39  1  0.14314111  0.28628221  0.46180670  1
  F  F40  1  0.90415182  0.80830364  0.25000000  1
  F  F41  1  0.57303224  0.14606449  0.96669670  1
