# generated using pymatgen
data_K2SrCu(NO2)6
_symmetry_space_group_name_H-M   'P 1'
_cell_length_a   7.47921592
_cell_length_b   7.47921527
_cell_length_c   7.63690874
_cell_angle_alpha   119.25288669
_cell_angle_beta   119.25288400
_cell_angle_gamma   90.11822432
_symmetry_Int_Tables_number   1
_chemical_formula_structural   K2SrCu(NO2)6
_chemical_formula_sum   'K2 Sr1 Cu1 N6 O12'
_cell_volume   308.47841929
_cell_formula_units_Z   1
loop_
 _symmetry_equiv_pos_site_id
 _symmetry_equiv_pos_as_xyz
  1  'x, y, z'
loop_
 _atom_site_type_symbol
 _atom_site_label
 _atom_site_symmetry_multiplicity
 _atom_site_fract_x
 _atom_site_fract_y
 _atom_site_fract_z
 _atom_site_occupancy
  K  K0  1  0.25000000  0.75000000  0.50000000  1
  K  K1  1  0.75000000  0.25000000  0.50000000  1
  Sr  Sr2  1  0.50000000  0.50000000  -0.00000000  1
  Cu  Cu3  1  0.00000000  0.00000000  -0.00000000  1
  N  N4  1  0.80220083  0.80220083  0.00000000  1
  N  N5  1  0.78827507  0.78827507  0.57655013  1
  N  N6  1  0.19779006  0.80220994  1.00000000  1
  N  N7  1  0.80220994  0.19779006  0.00000000  1
  N  N8  1  0.21172493  0.21172493  0.42344987  1
  N  N9  1  0.19779917  0.19779917  1.00000000  1
  O  O10  1  0.35745996  0.35745996  0.19595136  1
  O  O11  1  0.16150860  0.16150860  0.80404864  1
  O  O12  1  0.15710598  0.63857158  0.00000000  1
  O  O13  1  0.64254004  0.64254004  0.80404864  1
  O  O14  1  0.62571834  0.82910981  0.45482815  1
  O  O15  1  0.37428166  0.17089019  0.54517185  1
  O  O16  1  0.63857158  0.15710598  1.00000000  1
  O  O17  1  0.83849140  0.83849140  0.19595136  1
  O  O18  1  0.82910981  0.62571834  0.45482815  1
  O  O19  1  0.36142842  0.84289402  0.00000000  1
  O  O20  1  0.17089019  0.37428166  0.54517185  1
  O  O21  1  0.84289402  0.36142842  1.00000000  1
