# generated using pymatgen
data_Ca2Mg5Si8(O11F)2
_symmetry_space_group_name_H-M   'P 1'
_cell_length_a   5.32796318
_cell_length_b   9.93591980
_cell_length_c   10.37304346
_cell_angle_alpha   61.38447143
_cell_angle_beta   83.13018361
_cell_angle_gamma   75.53715245
_symmetry_Int_Tables_number   1
_chemical_formula_structural   Ca2Mg5Si8(O11F)2
_chemical_formula_sum   'Ca2 Mg5 Si8 O22 F2'
_cell_volume   466.77943398
_cell_formula_units_Z   1
loop_
 _symmetry_equiv_pos_site_id
 _symmetry_equiv_pos_as_xyz
  1  'x, y, z'
loop_
 _atom_site_type_symbol
 _atom_site_label
 _atom_site_symmetry_multiplicity
 _atom_site_fract_x
 _atom_site_fract_y
 _atom_site_fract_z
 _atom_site_occupancy
  Ca  Ca0  1  0.50000000  0.27758960  0.44482079  1
  Ca  Ca1  1  0.50000000  0.72241040  0.55517921  1
  Mg  Mg2  1  0.50000000  0.08845774  0.82308451  1
  Mg  Mg3  1  0.00000000  0.00000000  0.00000000  1
  Mg  Mg4  1  0.50000000  0.91154226  0.17691549  1
  Mg  Mg5  1  0.00000000  0.82326590  0.35346820  1
  Mg  Mg6  1  1.00000000  0.17673410  0.64653180  1
  Si  Si7  1  0.70426381  0.19786091  0.16712858  1
  Si  Si8  1  0.19673160  0.45954122  0.65853293  1
  Si  Si9  1  0.29573619  0.63501051  0.16712858  1
  Si  Si10  1  0.19673160  0.11807415  0.34146707  1
  Si  Si11  1  0.29573619  0.80213909  0.83287142  1
  Si  Si12  1  0.80326840  0.54045878  0.34146707  1
  Si  Si13  1  0.80326840  0.88192585  0.65853293  1
  Si  Si14  1  0.70426381  0.36498949  0.83287142  1
  O  O15  1  0.09866395  0.51887333  0.26903280  1
  O  O16  1  0.21761092  0.80290710  0.16974853  1
  O  O17  1  0.58555641  0.77488823  0.76114303  1
  O  O18  1  0.41444359  0.22511177  0.23885697  1
  O  O19  1  0.27588909  0.28873264  0.66001047  1
  O  O20  1  0.27588909  0.94874311  0.33998953  1
  O  O21  1  0.70742815  0.33997481  1.00000000  1
  O  O22  1  0.41444359  0.46396874  0.76114303  1
  O  O23  1  0.78238908  0.02734437  0.16974853  1
  O  O24  1  0.79226463  0.88230953  0.50412348  1
  O  O25  1  0.78238908  0.19709290  0.83025147  1
  O  O26  1  0.90133605  0.48112667  0.73096720  1
  O  O27  1  0.20773537  0.11769047  0.49587652  1
  O  O28  1  0.21761092  0.97265563  0.83025147  1
  O  O29  1  0.72411091  0.71126736  0.33998953  1
  O  O30  1  0.79226463  0.38643301  0.49587652  1
  O  O31  1  0.72411091  0.05125689  0.66001047  1
  O  O32  1  0.90133605  0.21209388  0.26903280  1
  O  O33  1  0.29257185  0.66002519  0.00000000  1
  O  O34  1  0.20773537  0.61356699  0.50412348  1
  O  O35  1  0.09866395  0.78790612  0.73096720  1
  O  O36  1  0.58555641  0.53603126  0.23885697  1
  F  F37  1  0.71165330  0.89882790  0.00000000  1
  F  F38  1  0.28834670  0.10117210  1.00000000  1
