# generated using pymatgen
data_MnPtF6
_symmetry_space_group_name_H-M   'P 1'
_cell_length_a   5.63553072
_cell_length_b   5.63553072
_cell_length_c   5.63553073
_cell_angle_alpha   56.22558948
_cell_angle_beta   56.22558944
_cell_angle_gamma   56.22558946
_symmetry_Int_Tables_number   1
_chemical_formula_structural   MnPtF6
_chemical_formula_sum   'Mn1 Pt1 F6'
_cell_volume   115.50286793
_cell_formula_units_Z   1
loop_
 _symmetry_equiv_pos_site_id
 _symmetry_equiv_pos_as_xyz
  1  'x, y, z'
loop_
 _atom_site_type_symbol
 _atom_site_label
 _atom_site_symmetry_multiplicity
 _atom_site_fract_x
 _atom_site_fract_y
 _atom_site_fract_z
 _atom_site_occupancy
  F  F0  1  0.86685815  0.61333699  0.26256417  1
  F  F1  1  0.61333699  0.26256417  0.86685815  1
  F  F2  1  0.73743583  0.13314185  0.38666301  1
  F  F3  1  0.38666301  0.73743583  0.13314185  1
  F  F4  1  0.13314185  0.38666301  0.73743583  1
  F  F5  1  0.26256417  0.86685815  0.61333699  1
  Mn  Mn6  1  0.00000000  0.00000000  0.00000000  1
  Pt  Pt7  1  0.50000000  0.50000000  0.50000000  1
