# generated using pymatgen
data_K2Ce(Si2O5)3
_symmetry_space_group_name_H-M   'P 1'
_cell_length_a   8.83779336
_cell_length_b   9.96865245
_cell_length_c   9.97618773
_cell_angle_alpha   74.07267025
_cell_angle_beta   63.70810065
_cell_angle_gamma   63.68669863
_symmetry_Int_Tables_number   1
_chemical_formula_structural   K2Ce(Si2O5)3
_chemical_formula_sum   'K4 Ce2 Si12 O30'
_cell_volume   702.99771861
_cell_formula_units_Z   2
loop_
 _symmetry_equiv_pos_site_id
 _symmetry_equiv_pos_as_xyz
  1  'x, y, z'
loop_
 _atom_site_type_symbol
 _atom_site_label
 _atom_site_symmetry_multiplicity
 _atom_site_fract_x
 _atom_site_fract_y
 _atom_site_fract_z
 _atom_site_occupancy
  K  K0  1  0.90280798  0.34450375  0.49873289  1
  K  K1  1  0.74604463  0.15549625  0.00126711  1
  K  K2  1  0.09719202  0.65549625  0.50126711  1
  K  K3  1  0.25395537  0.84450375  0.99873289  1
  Ce  Ce4  1  0.16716901  0.25000000  0.75000000  1
  Ce  Ce5  1  0.83283099  0.75000000  0.25000000  1
  Si  Si6  1  0.25349948  0.42700286  0.12288615  1
  Si  Si7  1  0.80338850  0.07299714  0.37711385  1
  Si  Si8  1  0.56353041  0.58313353  0.22579799  1
  Si  Si9  1  0.43646959  0.41686647  0.77420201  1
  Si  Si10  1  0.42662294  0.31654685  0.35554381  1
  Si  Si11  1  0.19661150  0.92700286  0.62288615  1
  Si  Si12  1  0.62753807  0.08313353  0.72579799  1
  Si  Si13  1  0.57337706  0.68345315  0.64445619  1
  Si  Si14  1  0.37246193  0.91686647  0.27420201  1
  Si  Si15  1  0.90128640  0.81654685  0.85554381  1
  Si  Si16  1  0.74650052  0.57299714  0.87711385  1
  Si  Si17  1  0.09871360  0.18345315  0.14445619  1
  O  O18  1  0.62746254  0.54223459  0.05544570  1
  O  O19  1  0.27801249  0.03411808  0.15654021  1
  O  O20  1  0.72198751  0.96588192  0.84345979  1
  O  O21  1  0.60697619  0.25000000  0.75000000  1
  O  O22  1  0.46867078  0.46588192  0.34345979  1
  O  O23  1  0.59343312  0.68339737  0.80141088  1
  O  O24  1  0.39302381  0.75000000  0.25000000  1
  O  O25  1  0.60552408  0.16720734  0.36061471  1
  O  O26  1  0.27251829  0.41709555  0.74338235  1
  O  O27  1  0.39447592  0.83279266  0.63938529  1
  O  O28  1  0.43299618  0.08290445  0.75661765  1
  O  O29  1  0.40656688  0.31660263  0.19858912  1
  O  O30  1  0.07824138  0.81660263  0.69858912  1
  O  O31  1  0.87652824  0.42028723  0.79503183  1
  O  O32  1  0.22514283  0.95776541  0.44455430  1
  O  O33  1  0.77485717  0.04223459  0.55544570  1
  O  O34  1  0.53132922  0.53411808  0.65654021  1
  O  O35  1  0.86665388  0.66720734  0.86061471  1
  O  O36  1  0.24242060  0.32107936  0.49852497  1
  O  O37  1  0.56700382  0.91709555  0.24338235  1
  O  O38  1  0.12347176  0.57971277  0.20496817  1
  O  O39  1  0.06202493  0.17892064  0.00147503  1
  O  O40  1  0.09184730  0.07971277  0.70496817  1
  O  O41  1  0.90815270  0.92028723  0.29503183  1
  O  O42  1  0.93797507  0.82107936  0.99852497  1
  O  O43  1  0.92175862  0.18339737  0.30141088  1
  O  O44  1  0.72748171  0.58290445  0.25661765  1
  O  O45  1  0.75757940  0.67892064  0.50147503  1
  O  O46  1  0.13334612  0.33279266  0.13938529  1
  O  O47  1  0.37253746  0.45776541  0.94455430  1
