# generated using pymatgen
data_RbNaSi2O5
_symmetry_space_group_name_H-M   'P 1'
_cell_length_a   4.94364283
_cell_length_b   7.91030928
_cell_length_c   13.78370686
_cell_angle_alpha   90.00000000
_cell_angle_beta   90.00000000
_cell_angle_gamma   91.00043792
_symmetry_Int_Tables_number   1
_chemical_formula_structural   RbNaSi2O5
_chemical_formula_sum   'Rb4 Na4 Si8 O20'
_cell_volume   538.93994088
_cell_formula_units_Z   4
loop_
 _symmetry_equiv_pos_site_id
 _symmetry_equiv_pos_as_xyz
  1  'x, y, z'
loop_
 _atom_site_type_symbol
 _atom_site_label
 _atom_site_symmetry_multiplicity
 _atom_site_fract_x
 _atom_site_fract_y
 _atom_site_fract_z
 _atom_site_occupancy
  Rb  Rb0  1  0.72016950  0.78437500  0.80285423  1
  Rb  Rb1  1  0.72016950  0.28437500  0.69714577  1
  Rb  Rb2  1  0.27983050  0.71562500  0.30285423  1
  Rb  Rb3  1  0.27983050  0.21562500  0.19714577  1
  Na  Na4  1  0.77017223  0.96133800  0.09230093  1
  Na  Na5  1  0.77017223  0.46133800  0.40769907  1
  Na  Na6  1  0.22982777  0.03866200  0.90769907  1
  Na  Na7  1  0.22982777  0.53866200  0.59230093  1
  Si  Si8  1  0.70264291  0.78972809  0.54541320  1
  Si  Si9  1  0.20754211  0.97939328  0.63057108  1
  Si  Si10  1  0.79245789  0.52060672  0.13057108  1
  Si  Si11  1  0.29735709  0.71027191  0.04541320  1
  Si  Si12  1  0.79245789  0.02060672  0.36942892  1
  Si  Si13  1  0.29735709  0.21027191  0.45458680  1
  Si  Si14  1  0.70264291  0.28972809  0.95458680  1
  Si  Si15  1  0.20754211  0.47939328  0.86942892  1
  O  O16  1  0.38242380  0.33291397  0.92793517  1
  O  O17  1  0.24171432  0.90480621  0.06534796  1
  O  O18  1  0.38242380  0.83291397  0.57206483  1
  O  O19  1  0.11501898  0.57486540  0.11130978  1
  O  O20  1  0.75828568  0.59519379  0.56534796  1
  O  O21  1  0.61757620  0.66708603  0.07206483  1
  O  O22  1  0.25439193  0.16273787  0.57142747  1
  O  O23  1  0.25439193  0.66273787  0.92857253  1
  O  O24  1  0.27164615  -0.00019972  0.74243637  1
  O  O25  1  0.88498102  0.42513460  0.88869022  1
  O  O26  1  0.74560807  0.33726213  0.07142747  1
  O  O27  1  0.61757620  0.16708603  0.42793517  1
  O  O28  1  0.74560807  0.83726213  0.42857253  1
  O  O29  1  0.88498102  0.92513460  0.61130978  1
  O  O30  1  0.72835385  1.00019972  0.25756363  1
  O  O31  1  0.24171432  0.40480621  0.43465204  1
  O  O32  1  0.27164615  0.49980028  0.75756363  1
  O  O33  1  0.75828568  0.09519379  0.93465204  1
  O  O34  1  0.11501898  0.07486540  0.38869022  1
  O  O35  1  0.72835385  0.50019972  0.24243637  1
