# generated using pymatgen
data_RbBe2P3O10
_symmetry_space_group_name_H-M   'P 1'
_cell_length_a   7.57423864
_cell_length_b   7.57423837
_cell_length_c   9.03831661
_cell_angle_alpha   68.13650527
_cell_angle_beta   68.13650606
_cell_angle_gamma   71.03169895
_symmetry_Int_Tables_number   1
_chemical_formula_structural   RbBe2P3O10
_chemical_formula_sum   'Rb2 Be4 P6 O20'
_cell_volume   436.03225219
_cell_formula_units_Z   2
loop_
 _symmetry_equiv_pos_site_id
 _symmetry_equiv_pos_as_xyz
  1  'x, y, z'
loop_
 _atom_site_type_symbol
 _atom_site_label
 _atom_site_symmetry_multiplicity
 _atom_site_fract_x
 _atom_site_fract_y
 _atom_site_fract_z
 _atom_site_occupancy
  Rb  Rb0  1  0.30081861  0.69918139  0.75000000  1
  Rb  Rb1  1  0.69918139  0.30081861  0.25000000  1
  Be  Be2  1  0.29968259  0.21159518  0.06338658  1
  Be  Be3  1  0.70031741  0.78840482  0.93661342  1
  Be  Be4  1  0.78840482  0.70031741  0.43661342  1
  Be  Be5  1  0.21159518  0.29968259  0.56338658  1
  P  P6  1  0.13191260  0.50210119  0.24717617  1
  P  P7  1  0.50210119  0.13191260  0.74717617  1
  P  P8  1  0.86808740  0.49789881  0.75282383  1
  P  P9  1  0.88120984  0.11879016  0.75000000  1
  P  P10  1  0.11879016  0.88120984  0.25000000  1
  P  P11  1  0.49789881  0.86808740  0.25282383  1
  O  O12  1  0.39673446  0.25988748  0.86407734  1
  O  O13  1  0.60326554  0.74011252  0.13592266  1
  O  O14  1  0.74011252  0.60326554  0.63592266  1
  O  O15  1  0.08635229  0.46341018  0.66434970  1
  O  O16  1  0.27792272  0.81927341  0.34775425  1
  O  O17  1  0.92154358  0.86723811  0.37554136  1
  O  O18  1  0.18072659  0.72207728  0.15224575  1
  O  O19  1  0.80981738  0.58096646  0.89745178  1
  O  O20  1  0.25988748  0.39673446  0.36407734  1
  O  O21  1  0.72207728  0.18072659  0.65224575  1
  O  O22  1  0.46341018  0.08635229  0.16434970  1
  O  O23  1  0.13276189  0.07845642  0.12445864  1
  O  O24  1  0.53658982  0.91364771  0.83565030  1
  O  O25  1  0.91364771  0.53658982  0.33565030  1
  O  O26  1  0.41903354  0.19018262  0.60254822  1
  O  O27  1  0.07845642  0.13276189  0.62445864  1
  O  O28  1  0.81927341  0.27792272  0.84775425  1
  O  O29  1  0.58096646  0.80981738  0.39745178  1
  O  O30  1  0.19018262  0.41903354  0.10254822  1
  O  O31  1  0.86723811  0.92154358  0.87554136  1
