# generated using pymatgen
data_K3Nb3(BO6)2
_symmetry_space_group_name_H-M   'P 1'
_cell_length_a   4.05015994
_cell_length_b   15.43126918
_cell_length_c   17.80539891
_cell_angle_alpha   90.00000000
_cell_angle_beta   90.00000000
_cell_angle_gamma   90.00000000
_symmetry_Int_Tables_number   1
_chemical_formula_structural   K3Nb3(BO6)2
_chemical_formula_sum   'K12 Nb12 B8 O48'
_cell_volume   1112.82155402
_cell_formula_units_Z   4
loop_
 _symmetry_equiv_pos_site_id
 _symmetry_equiv_pos_as_xyz
  1  'x, y, z'
loop_
 _atom_site_type_symbol
 _atom_site_label
 _atom_site_symmetry_multiplicity
 _atom_site_fract_x
 _atom_site_fract_y
 _atom_site_fract_z
 _atom_site_occupancy
  K  K0  1  0.50861819  0.70150083  0.11616300  1
  K  K1  1  0.49686647  0.20165331  0.86635100  1
  K  K2  1  0.50313353  0.79834669  0.36635100  1
  K  K3  1  0.50313353  0.20165331  0.36635100  1
  K  K4  1  0.49317209  0.50000000  0.91891981  1
  K  K5  1  0.49138181  0.29849917  0.61616300  1
  K  K6  1  0.48526735  0.00000000  0.66894727  1
  K  K7  1  0.49138181  0.70150083  0.61616300  1
  K  K8  1  0.50861819  0.29849917  0.11616300  1
  K  K9  1  0.51473265  0.00000000  0.16894727  1
  K  K10  1  0.49686647  0.79834669  0.86635100  1
  K  K11  1  0.50682791  0.50000000  0.41891981  1
  Nb  Nb12  1  0.03546578  0.87646068  0.02899599  1
  Nb  Nb13  1  0.02431116  0.37644431  0.27899339  1
  Nb  Nb14  1  0.95729929  0.00000000  0.84364344  1
  Nb  Nb15  1  0.96453422  0.12353932  0.52899599  1
  Nb  Nb16  1  0.02431116  0.62355569  0.27899339  1
  Nb  Nb17  1  0.03546578  0.12353932  0.02899599  1
  Nb  Nb18  1  0.04270071  0.00000000  0.34364344  1
  Nb  Nb19  1  0.97568884  0.62355569  0.77899339  1
  Nb  Nb20  1  0.02160741  0.50000000  0.09344498  1
  Nb  Nb21  1  0.97568884  0.37644431  0.77899339  1
  Nb  Nb22  1  0.96453422  0.87646068  0.52899599  1
  Nb  Nb23  1  0.97839259  0.50000000  0.59344498  1
  B  B24  1  0.99662576  0.33333869  0.96711928  1
  B  B25  1  0.00910062  0.83326153  0.71722609  1
  B  B26  1  0.99089938  0.16673847  0.21722609  1
  B  B27  1  0.00337424  0.66666131  0.46711928  1
  B  B28  1  0.99662576  0.66666131  0.96711928  1
  B  B29  1  0.99089938  0.83326153  0.21722609  1
  B  B30  1  0.00910062  0.16673847  0.71722609  1
  B  B31  1  0.00337424  0.33333869  0.46711928  1
  O  O32  1  0.00021451  0.90598470  0.26195430  1
  O  O33  1  0.99591594  0.91042672  0.92240174  1
  O  O34  1  0.50035485  0.00000000  0.33627945  1
  O  O35  1  0.00867484  0.15841475  0.64021847  1
  O  O36  1  0.97596892  0.40603148  0.01174903  1
  O  O37  1  0.00867484  0.84158525  0.64021847  1
  O  O38  1  0.99978549  0.90598470  0.76195430  1
  O  O39  1  0.02001795  0.24780822  0.74944271  1
  O  O40  1  0.00034418  0.00000000  0.05711914  1
  O  O41  1  0.97998205  0.75219178  0.24944271  1
  O  O42  1  0.00679725  0.25220152  0.49927445  1
  O  O43  1  0.49314545  0.86918069  0.03245157  1
  O  O44  1  0.02078309  0.34179485  0.89031220  1
  O  O45  1  0.48183364  0.63079904  0.28251560  1
  O  O46  1  0.47926355  0.50000000  0.08605736  1
  O  O47  1  0.50685455  0.86918069  0.53245157  1
  O  O48  1  0.02078309  0.65820515  0.89031220  1
  O  O49  1  0.00408406  0.08957328  0.42240174  1
  O  O50  1  0.99320275  0.25220152  0.99927445  1
  O  O51  1  0.50685455  0.13081931  0.53245157  1
  O  O52  1  0.49314545  0.13081931  0.03245157  1
  O  O53  1  0.51816636  0.63079904  0.78251560  1
  O  O54  1  0.99965582  0.00000000  0.55711914  1
  O  O55  1  0.02001795  0.75219178  0.74944271  1
  O  O56  1  0.99591594  0.08957328  0.92240174  1
  O  O57  1  0.98737841  0.41035735  0.17227946  1
  O  O58  1  0.49964515  0.00000000  0.83627945  1
  O  O59  1  0.00408406  0.91042672  0.42240174  1
  O  O60  1  0.99978549  0.09401530  0.76195430  1
  O  O61  1  0.98737841  0.58964265  0.17227946  1
  O  O62  1  0.01262159  0.41035735  0.67227946  1
  O  O63  1  0.97596892  0.59396852  0.01174903  1
  O  O64  1  0.97921691  0.65820515  0.39031220  1
  O  O65  1  0.51816636  0.36920096  0.78251560  1
  O  O66  1  0.00021451  0.09401530  0.26195430  1
  O  O67  1  0.01105719  0.50000000  0.80696194  1
  O  O68  1  0.97998205  0.24780822  0.24944271  1
  O  O69  1  0.52073645  0.50000000  0.58605736  1
  O  O70  1  0.02403108  0.59396852  0.51174903  1
  O  O71  1  0.97921691  0.34179485  0.39031220  1
  O  O72  1  0.48183364  0.36920096  0.28251560  1
  O  O73  1  0.00679725  0.74779848  0.49927445  1
  O  O74  1  0.99132516  0.15841475  0.14021847  1
  O  O75  1  0.01262159  0.58964265  0.67227946  1
  O  O76  1  0.99132516  0.84158525  0.14021847  1
  O  O77  1  0.02403108  0.40603148  0.51174903  1
  O  O78  1  0.99320275  0.74779848  0.99927445  1
  O  O79  1  0.98894281  0.50000000  0.30696194  1
