# generated using pymatgen
data_BaCuTe2O7
_symmetry_space_group_name_H-M   'P 1'
_cell_length_a   5.56078029
_cell_length_b   7.29755148
_cell_length_c   8.74940661
_cell_angle_alpha   114.64729698
_cell_angle_beta   90.00000000
_cell_angle_gamma   90.00000000
_symmetry_Int_Tables_number   1
_chemical_formula_structural   BaCuTe2O7
_chemical_formula_sum   'Ba2 Cu2 Te4 O14'
_cell_volume   322.70363914
_cell_formula_units_Z   2
loop_
 _symmetry_equiv_pos_site_id
 _symmetry_equiv_pos_as_xyz
  1  'x, y, z'
loop_
 _atom_site_type_symbol
 _atom_site_label
 _atom_site_symmetry_multiplicity
 _atom_site_fract_x
 _atom_site_fract_y
 _atom_site_fract_z
 _atom_site_occupancy
  Ba  Ba0  1  0.25000000  0.21677453  0.41904344  1
  Ba  Ba1  1  0.75000000  0.79773110  0.58095656  1
  Cu  Cu2  1  0.25000000  0.62884007  0.26205724  1
  Cu  Cu3  1  0.75000000  0.36678283  0.73794276  1
  Te  Te4  1  0.75000000  0.32548646  0.15478177  1
  Te  Te5  1  0.75000000  0.82212514  0.14217521  1
  Te  Te6  1  0.25000000  0.67994992  0.85782479  1
  Te  Te7  1  0.25000000  0.17070469  0.84521823  1
  O  O8  1  0.25000000  0.46343553  0.96242020  1
  O  O9  1  0.99768978  0.47529517  0.31348039  1
  O  O10  1  0.50231022  0.47529517  0.31348039  1
  O  O11  1  0.75000000  0.50101533  0.03757980  1
  O  O12  1  0.50000000  0.13788431  1.00000000  1
  O  O13  1  0.00231022  0.16181478  0.68651961  1
  O  O14  1  0.49163291  0.84084168  0.28955870  1
  O  O15  1  0.00836709  0.84084168  0.28955870  1
  O  O16  1  0.75000000  0.13968274  0.26704893  1
  O  O17  1  0.50836709  0.55128298  0.71044130  1
  O  O18  1  0.99163291  0.55128298  0.71044130  1
  O  O19  1  0.49768978  0.16181478  0.68651961  1
  O  O20  1  0.25000000  0.87263381  0.73295107  1
  O  O21  1  0.00000000  0.13788431  1.00000000  1
