# generated using pymatgen
data_Hg2Sb2O7
_symmetry_space_group_name_H-M   'P 1'
_cell_length_a   7.46032465
_cell_length_b   7.46032455
_cell_length_c   7.46032463
_cell_angle_alpha   60.00000440
_cell_angle_beta   60.00000484
_cell_angle_gamma   60.00000545
_symmetry_Int_Tables_number   1
_chemical_formula_structural   Hg2Sb2O7
_chemical_formula_sum   'Hg4 Sb4 O14'
_cell_volume   293.60146929
_cell_formula_units_Z   2
loop_
 _symmetry_equiv_pos_site_id
 _symmetry_equiv_pos_as_xyz
  1  'x, y, z'
loop_
 _atom_site_type_symbol
 _atom_site_label
 _atom_site_symmetry_multiplicity
 _atom_site_fract_x
 _atom_site_fract_y
 _atom_site_fract_z
 _atom_site_occupancy
  Hg  Hg0  1  0.50000000  0.00000000  0.50000000  1
  Hg  Hg1  1  0.50000000  0.50000000  0.50000000  1
  Hg  Hg2  1  0.50000000  0.50000000  0.00000000  1
  Hg  Hg3  1  0.00000000  0.50000000  0.50000000  1
  Sb  Sb4  1  0.00000000  0.00000000  0.00000000  1
  Sb  Sb5  1  0.00000000  0.50000000  0.00000000  1
  Sb  Sb6  1  0.00000000  0.00000000  0.50000000  1
  Sb  Sb7  1  0.50000000  0.00000000  0.00000000  1
  O  O8  1  0.32067017  0.92932983  0.92932983  1
  O  O9  1  0.32067017  0.92932983  0.32067017  1
  O  O10  1  0.07067017  0.67932983  0.67932983  1
  O  O11  1  0.32067017  0.32067017  0.92932983  1
  O  O12  1  0.67932983  0.07067017  0.07067017  1
  O  O13  1  0.07067017  0.67932983  0.07067017  1
  O  O14  1  0.92932983  0.92932983  0.32067017  1
  O  O15  1  0.67932983  0.07067017  0.67932983  1
  O  O16  1  0.62500000  0.62500000  0.62500000  1
  O  O17  1  0.92932983  0.32067017  0.92932983  1
  O  O18  1  0.92932983  0.32067017  0.32067017  1
  O  O19  1  0.37500000  0.37500000  0.37500000  1
  O  O20  1  0.67932983  0.67932983  0.07067017  1
  O  O21  1  0.07067017  0.07067017  0.67932983  1
