# generated using pymatgen
data_Cd(AuF6)2
_symmetry_space_group_name_H-M   'P 1'
_cell_length_a   7.28140484
_cell_length_b   7.28140483
_cell_length_c   10.24353899
_cell_angle_alpha   101.96362717
_cell_angle_beta   109.76279670
_cell_angle_gamma   103.45621453
_symmetry_Int_Tables_number   1
_chemical_formula_structural   Cd(AuF6)2
_chemical_formula_sum   'Cd2 Au4 F24'
_cell_volume   472.19476253
_cell_formula_units_Z   2
loop_
 _symmetry_equiv_pos_site_id
 _symmetry_equiv_pos_as_xyz
  1  'x, y, z'
loop_
 _atom_site_type_symbol
 _atom_site_label
 _atom_site_symmetry_multiplicity
 _atom_site_fract_x
 _atom_site_fract_y
 _atom_site_fract_z
 _atom_site_occupancy
  Cd  Cd0  1  0.42423463  0.17423463  0.25000000  1
  Cd  Cd1  1  0.57576537  0.82576537  0.75000000  1
  Au  Au2  1  0.37593465  0.24774755  0.62849110  1
  Au  Au3  1  0.88074355  0.25255645  0.12849110  1
  Au  Au4  1  0.62406535  0.75225245  0.37150890  1
  Au  Au5  1  0.11925645  0.74744355  0.87150890  1
  F  F6  1  0.90651156  0.86128728  0.77597985  1
  F  F7  1  0.09348844  0.13871272  0.22402015  1
  F  F8  1  0.51387888  0.29552088  0.49482792  1
  F  F9  1  0.20994850  0.98677908  0.49247279  1
  F  F10  1  0.00569370  0.28252428  0.99247279  1
  F  F11  1  0.17885200  0.36721807  0.53699889  1
  F  F12  1  0.66978082  0.35814689  0.03699889  1
  F  F13  1  0.41469257  0.86946828  0.27597985  1
  F  F14  1  0.24747804  0.78246708  0.73125033  1
  F  F15  1  0.30069296  0.01905096  0.00517208  1
  F  F16  1  0.48612112  0.70447912  0.50517208  1
  F  F17  1  0.69930704  0.98094904  0.99482792  1
  F  F18  1  0.05569641  0.51355822  0.25942229  1
  F  F19  1  0.82114800  0.63278193  0.46300111  1
  F  F20  1  0.75252196  0.21753292  0.26874967  1
  F  F21  1  0.33021918  0.64185311  0.96300111  1
  F  F22  1  0.44878325  0.48377229  0.23125033  1
  F  F23  1  0.75413593  0.79627412  0.24057771  1
  F  F24  1  0.55121675  0.51622771  0.76874967  1
  F  F25  1  0.94430359  0.48644178  0.74057771  1
  F  F26  1  0.24586407  0.20372588  0.75942229  1
  F  F27  1  0.99430630  0.71747572  0.00752721  1
  F  F28  1  0.58530743  0.13053172  0.72402015  1
  F  F29  1  0.79005150  0.01322092  0.50752721  1
