# generated using pymatgen
data_Ga2Pb2S5
_symmetry_space_group_name_H-M   'P 1'
_cell_length_a   11.21487811
_cell_length_b   12.12488241
_cell_length_c   12.57454898
_cell_angle_alpha   90.00000000
_cell_angle_beta   90.00000000
_cell_angle_gamma   90.00000000
_symmetry_Int_Tables_number   1
_chemical_formula_structural   Ga2Pb2S5
_chemical_formula_sum   'Ga16 Pb16 S40'
_cell_volume   1709.87558067
_cell_formula_units_Z   8
loop_
 _symmetry_equiv_pos_site_id
 _symmetry_equiv_pos_as_xyz
  1  'x, y, z'
loop_
 _atom_site_type_symbol
 _atom_site_label
 _atom_site_symmetry_multiplicity
 _atom_site_fract_x
 _atom_site_fract_y
 _atom_site_fract_z
 _atom_site_occupancy
  Ga  Ga0  1  0.26482898  0.54014947  0.47466709  1
  Ga  Ga1  1  0.43568839  0.80077780  0.95683379  1
  Ga  Ga2  1  0.26482898  0.04014947  0.02533291  1
  Ga  Ga3  1  0.56431161  0.69922220  0.45683379  1
  Ga  Ga4  1  0.93568839  0.69922220  0.95683379  1
  Ga  Ga5  1  0.56431161  0.19922220  0.04316621  1
  Ga  Ga6  1  0.23517102  0.54014947  0.97466709  1
  Ga  Ga7  1  0.06431161  0.30077780  0.04316621  1
  Ga  Ga8  1  0.93568839  0.19922220  0.54316621  1
  Ga  Ga9  1  0.76482898  0.45985053  0.02533291  1
  Ga  Ga10  1  0.43568839  0.30077780  0.54316621  1
  Ga  Ga11  1  0.73517102  0.95985053  0.97466709  1
  Ga  Ga12  1  0.23517102  0.04014947  0.52533291  1
  Ga  Ga13  1  0.06431161  0.80077780  0.45683379  1
  Ga  Ga14  1  0.73517102  0.45985053  0.52533291  1
  Ga  Ga15  1  0.76482898  0.95985053  0.47466709  1
  Pb  Pb16  1  0.23578147  0.75498905  0.19346076  1
  Pb  Pb17  1  0.49024546  0.98279891  0.29318969  1
  Pb  Pb18  1  0.00975454  0.98279891  0.79318969  1
  Pb  Pb19  1  0.26421853  0.75498905  0.69346076  1
  Pb  Pb20  1  0.50975454  0.01720109  0.70681031  1
  Pb  Pb21  1  0.73578147  0.24501095  0.30653924  1
  Pb  Pb22  1  0.76421853  0.74501095  0.69346076  1
  Pb  Pb23  1  0.99024546  0.51720109  0.29318969  1
  Pb  Pb24  1  0.49024546  0.48279891  0.20681031  1
  Pb  Pb25  1  0.26421853  0.25498905  0.80653924  1
  Pb  Pb26  1  0.00975454  0.48279891  0.70681031  1
  Pb  Pb27  1  0.76421853  0.24501095  0.80653924  1
  Pb  Pb28  1  0.50975454  0.51720109  0.79318969  1
  Pb  Pb29  1  0.99024546  0.01720109  0.20681031  1
  Pb  Pb30  1  0.73578147  0.74501095  0.19346076  1
  Pb  Pb31  1  0.23578147  0.25498905  0.30653924  1
  S  S32  1  0.74223307  0.13716242  0.53525772  1
  S  S33  1  0.24223307  0.36283758  0.53525772  1
  S  S34  1  0.00677443  0.78957018  0.28522044  1
  S  S35  1  0.58871062  0.37623484  0.97165646  1
  S  S36  1  0.07401378  0.11338945  0.43242828  1
  S  S37  1  0.42598622  0.11338945  0.93242828  1
  S  S38  1  0.25776693  0.86283758  0.46474228  1
  S  S39  1  0.99322557  0.71042982  0.78522044  1
  S  S40  1  0.24223307  0.86283758  0.96474228  1
  S  S41  1  0.99322557  0.21042982  0.71477956  1
  S  S42  1  0.75384326  0.47060701  0.20508387  1
  S  S43  1  0.74615674  0.47060701  0.70508387  1
  S  S44  1  0.57401378  0.88661055  0.06757172  1
  S  S45  1  0.08871062  0.12376516  0.97165646  1
  S  S46  1  0.25384326  0.52939299  0.29491613  1
  S  S47  1  0.75776693  0.63716242  0.46474228  1
  S  S48  1  0.91128938  0.87623484  0.02834354  1
  S  S49  1  0.24615674  0.02939299  0.70508387  1
  S  S50  1  0.50677443  0.21042982  0.21477956  1
  S  S51  1  0.74223307  0.63716242  0.96474228  1
  S  S52  1  0.41128938  0.62376516  0.02834354  1
  S  S53  1  0.25384326  0.02939299  0.20508387  1
  S  S54  1  0.24615674  0.52939299  0.79491613  1
  S  S55  1  0.57401378  0.38661055  0.43242828  1
  S  S56  1  0.92598622  0.88661055  0.56757172  1
  S  S57  1  0.91128938  0.37623484  0.47165646  1
  S  S58  1  0.92598622  0.38661055  0.93242828  1
  S  S59  1  0.07401378  0.61338945  0.06757172  1
  S  S60  1  0.25776693  0.36283758  0.03525772  1
  S  S61  1  0.42598622  0.61338945  0.56757172  1
  S  S62  1  0.74615674  0.97060701  0.79491613  1
  S  S63  1  0.41128938  0.12376516  0.47165646  1
  S  S64  1  0.75776693  0.13716242  0.03525772  1
  S  S65  1  0.50677443  0.71042982  0.28522044  1
  S  S66  1  0.00677443  0.28957018  0.21477956  1
  S  S67  1  0.08871062  0.62376516  0.52834354  1
  S  S68  1  0.49322557  0.28957018  0.71477956  1
  S  S69  1  0.58871062  0.87623484  0.52834354  1
  S  S70  1  0.49322557  0.78957018  0.78522044  1
  S  S71  1  0.75384326  0.97060701  0.29491613  1
