# generated using pymatgen
data_CsZnPO4
_symmetry_space_group_name_H-M   'P 1'
_cell_length_a   5.51492727
_cell_length_b   9.36537293
_cell_length_c   18.76988808
_cell_angle_alpha   90.37098012
_cell_angle_beta   90.00000000
_cell_angle_gamma   90.00000000
_symmetry_Int_Tables_number   1
_chemical_formula_structural   CsZnPO4
_chemical_formula_sum   'Cs8 Zn8 P8 O32'
_cell_volume   969.43220759
_cell_formula_units_Z   8
loop_
 _symmetry_equiv_pos_site_id
 _symmetry_equiv_pos_as_xyz
  1  'x, y, z'
loop_
 _atom_site_type_symbol
 _atom_site_label
 _atom_site_symmetry_multiplicity
 _atom_site_fract_x
 _atom_site_fract_y
 _atom_site_fract_z
 _atom_site_occupancy
  Cs  Cs0  1  0.24235069  0.20645220  0.00329291  1
  Cs  Cs1  1  0.25764931  0.20645220  0.50329291  1
  Cs  Cs2  1  0.28071187  0.31041082  0.74933949  1
  Cs  Cs3  1  0.78071187  0.68958918  0.75066051  1
  Cs  Cs4  1  0.71928813  0.68958918  0.25066051  1
  Cs  Cs5  1  0.74235069  0.79354780  0.49670709  1
  Cs  Cs6  1  0.21928813  0.31041082  0.24933949  1
  Cs  Cs7  1  0.75764931  0.79354780  0.99670709  1
  Zn  Zn8  1  0.78507162  0.08750575  0.66665602  1
  Zn  Zn9  1  0.21492838  0.91249425  0.33334398  1
  Zn  Zn10  1  0.71492838  0.08750575  0.16665602  1
  Zn  Zn11  1  0.25320856  0.58457863  0.08780031  1
  Zn  Zn12  1  0.75320856  0.41542137  0.41219969  1
  Zn  Zn13  1  0.74679144  0.41542137  0.91219969  1
  Zn  Zn14  1  0.28507162  0.91249425  0.83334398  1
  Zn  Zn15  1  0.24679144  0.58457863  0.58780031  1
  P  P16  1  0.25289263  0.58290598  0.40342683  1
  P  P17  1  0.71785836  0.09239033  0.34508374  1
  P  P18  1  0.21785836  0.90760967  0.15491626  1
  P  P19  1  0.24710737  0.58290598  0.90342683  1
  P  P20  1  0.78214164  0.09239033  0.84508374  1
  P  P21  1  0.74710737  0.41709402  0.59657317  1
  P  P22  1  0.75289263  0.41709402  0.09657317  1
  P  P23  1  0.28214164  0.90760967  0.65491626  1
  O  O24  1  0.26104020  0.85341543  0.73263757  1
  O  O25  1  0.18702713  0.78959717  0.60336734  1
  O  O26  1  0.75176624  0.43873445  0.51553804  1
  O  O27  1  0.74823376  0.43873445  0.01553804  1
  O  O28  1  0.81297287  0.21040283  0.39663266  1
  O  O29  1  0.81194306  0.25906635  0.11360047  1
  O  O30  1  0.23895980  0.85341543  0.23263757  1
  O  O31  1  0.45116357  0.48468497  0.36914215  1
  O  O32  1  0.31297287  0.78959717  0.10336734  1
  O  O33  1  0.99601834  0.45995911  0.63017886  1
  O  O34  1  0.04883643  0.48468497  0.86914215  1
  O  O35  1  0.55199111  0.94003684  0.63590531  1
  O  O36  1  0.12719963  0.04501206  0.64356416  1
  O  O37  1  0.68702713  0.21040283  0.89663266  1
  O  O38  1  0.76104020  0.14658457  0.76736243  1
  O  O39  1  0.44800889  0.05996316  0.36409469  1
  O  O40  1  0.00398166  0.54004089  0.36982114  1
  O  O41  1  0.54883643  0.51531503  0.63085785  1
  O  O42  1  0.95116357  0.51531503  0.13085785  1
  O  O43  1  0.25176624  0.56126555  0.98446196  1
  O  O44  1  0.73895980  0.14658457  0.26736243  1
  O  O45  1  0.37280037  0.04501206  0.14356416  1
  O  O46  1  0.18805694  0.74093365  0.88639953  1
  O  O47  1  0.62719963  0.95498794  0.85643584  1
  O  O48  1  0.24823376  0.56126555  0.48446196  1
  O  O49  1  0.05199111  0.05996316  0.86409469  1
  O  O50  1  0.31194306  0.74093365  0.38639953  1
  O  O51  1  0.49601834  0.54004089  0.86982114  1
  O  O52  1  0.68805694  0.25906635  0.61360047  1
  O  O53  1  0.87280037  0.95498794  0.35643584  1
  O  O54  1  0.50398166  0.45995911  0.13017886  1
  O  O55  1  0.94800889  0.94003684  0.13590531  1
