# generated using pymatgen
data_ZnFe(Mo3S4)4
_symmetry_space_group_name_H-M   'P 1'
_cell_length_a   8.93354467
_cell_length_b   8.93354467
_cell_length_c   8.93354468
_cell_angle_alpha   115.97157091
_cell_angle_beta   115.97157091
_cell_angle_gamma   64.02842902
_symmetry_Int_Tables_number   1
_chemical_formula_structural   ZnFe(Mo3S4)4
_chemical_formula_sum   'Zn1 Fe1 Mo12 S16'
_cell_volume   548.86393322
_cell_formula_units_Z   1
loop_
 _symmetry_equiv_pos_site_id
 _symmetry_equiv_pos_as_xyz
  1  'x, y, z'
loop_
 _atom_site_type_symbol
 _atom_site_label
 _atom_site_symmetry_multiplicity
 _atom_site_fract_x
 _atom_site_fract_y
 _atom_site_fract_z
 _atom_site_occupancy
  Zn  Zn0  1  0.50000000  0.50000000  0.50000000  1
  Fe  Fe1  1  -0.00000000  0.00000000  0.00000000  1
  Mo  Mo2  1  0.46082566  0.32161713  0.86956436  1
  Mo  Mo3  1  0.95969754  0.82195744  0.36988051  1
  Mo  Mo4  1  0.13043564  0.46082566  0.67838287  1
  Mo  Mo5  1  0.63011949  0.95969754  0.17804256  1
  Mo  Mo6  1  0.32161713  0.13043564  0.53917434  1
  Mo  Mo7  1  0.82195744  0.63011949  0.04030246  1
  Mo  Mo8  1  0.04030246  0.17804256  0.63011949  1
  Mo  Mo9  1  0.53917434  0.67838287  0.13043564  1
  Mo  Mo10  1  0.36988051  0.04030246  0.82195744  1
  Mo  Mo11  1  0.86956436  0.53917434  0.32161713  1
  Mo  Mo12  1  0.17804256  0.36988051  0.95969754  1
  Mo  Mo13  1  0.67838287  0.86956436  0.46082566  1
  S  S14  1  0.39233502  0.39233502  0.60766498  1
  S  S15  1  0.89319050  0.89319050  0.10680950  1
  S  S16  1  0.10680950  0.10680950  0.89319050  1
  S  S17  1  0.60766498  0.60766498  0.39233502  1
  S  S18  1  0.61299134  0.01537939  0.74660039  1
  S  S19  1  0.11046968  0.51397477  0.24408442  1
  S  S20  1  0.25339961  0.61299134  0.98462061  1
  S  S21  1  0.75591558  0.11046968  0.48602523  1
  S  S22  1  0.01537939  0.25339961  0.38700866  1
  S  S23  1  0.51397477  0.75591558  0.88953032  1
  S  S24  1  0.88953032  0.48602523  0.75591558  1
  S  S25  1  0.38700866  0.98462061  0.25339961  1
  S  S26  1  0.24408442  0.88953032  0.51397477  1
  S  S27  1  0.74660039  0.38700866  0.01537939  1
  S  S28  1  0.48602523  0.24408442  0.11046968  1
  S  S29  1  0.98462061  0.74660039  0.61299134  1
