# generated using pymatgen
data_K2RuI5NO
_symmetry_space_group_name_H-M   'P 1'
_cell_length_a   7.95313449
_cell_length_b   11.78730856
_cell_length_c   15.33482629
_cell_angle_alpha   90.00000000
_cell_angle_beta   90.00000000
_cell_angle_gamma   90.00000000
_symmetry_Int_Tables_number   1
_chemical_formula_structural   K2RuI5NO
_chemical_formula_sum   'K8 Ru4 I20 N4 O4'
_cell_volume   1437.57939600
_cell_formula_units_Z   4
loop_
 _symmetry_equiv_pos_site_id
 _symmetry_equiv_pos_as_xyz
  1  'x, y, z'
loop_
 _atom_site_type_symbol
 _atom_site_label
 _atom_site_symmetry_multiplicity
 _atom_site_fract_x
 _atom_site_fract_y
 _atom_site_fract_z
 _atom_site_occupancy
  K  K0  1  0.65654250  0.00058762  0.85701688  1
  K  K1  1  0.34345750  0.99941238  0.14298312  1
  K  K2  1  0.15654250  0.50058762  0.64298312  1
  K  K3  1  0.84345750  0.00058762  0.35701688  1
  K  K4  1  0.84345750  0.49941238  0.35701688  1
  K  K5  1  0.15654250  0.99941238  0.64298312  1
  K  K6  1  0.34345750  0.50058762  0.14298312  1
  K  K7  1  0.65654250  0.49941238  0.85701688  1
  Ru  Ru8  1  0.18425295  0.25000000  0.89080671  1
  Ru  Ru9  1  0.81574705  0.75000000  0.10919329  1
  Ru  Ru10  1  0.31574705  0.25000000  0.39080671  1
  Ru  Ru11  1  0.68425295  0.75000000  0.60919329  1
  I  I12  1  0.08685904  0.75000000  0.22162050  1
  I  I13  1  0.19210278  0.48370082  0.88747641  1
  I  I14  1  0.39129079  0.25000000  0.74658266  1
  I  I15  1  0.58685904  0.25000000  0.27837950  1
  I  I16  1  0.96583480  0.75000000  0.50353536  1
  I  I17  1  0.89129079  0.75000000  0.75341734  1
  I  I18  1  0.80789722  0.51629918  0.11252359  1
  I  I19  1  0.03416520  0.25000000  0.49646464  1
  I  I20  1  0.60870921  0.75000000  0.25341734  1
  I  I21  1  0.69210278  0.98370082  0.61252359  1
  I  I22  1  0.19210278  0.01629918  0.88747641  1
  I  I23  1  0.53416520  0.75000000  0.00353536  1
  I  I24  1  0.30789722  0.01629918  0.38747641  1
  I  I25  1  0.91314096  0.25000000  0.77837950  1
  I  I26  1  0.46583480  0.25000000  0.99646464  1
  I  I27  1  0.41314096  0.75000000  0.72162050  1
  I  I28  1  0.69210278  0.51629918  0.61252359  1
  I  I29  1  0.30789722  0.48370082  0.38747641  1
  I  I30  1  0.10870921  0.25000000  0.24658266  1
  I  I31  1  0.80789722  0.98370082  0.11252359  1
  N  N32  1  0.95752926  0.75000000  0.02268055  1
  N  N33  1  0.54247074  0.75000000  0.52268055  1
  N  N34  1  0.04247074  0.25000000  0.97731945  1
  N  N35  1  0.45752926  0.25000000  0.47731945  1
  O  O36  1  0.06089178  0.75000000  0.96834413  1
  O  O37  1  0.56089178  0.25000000  0.53165587  1
  O  O38  1  0.43910822  0.75000000  0.46834413  1
  O  O39  1  0.93910822  0.25000000  0.03165587  1
