# generated using pymatgen
data_Sr2Ni(PO4)2
_symmetry_space_group_name_H-M   'P 1'
_cell_length_a   9.12289778
_cell_length_b   10.11725819
_cell_length_c   11.80459134
_cell_angle_alpha   90.00000000
_cell_angle_beta   97.84890814
_cell_angle_gamma   90.00000000
_symmetry_Int_Tables_number   1
_chemical_formula_structural   Sr2Ni(PO4)2
_chemical_formula_sum   'Sr12 Ni6 P12 O48'
_cell_volume   1079.34128721
_cell_formula_units_Z   6
loop_
 _symmetry_equiv_pos_site_id
 _symmetry_equiv_pos_as_xyz
  1  'x, y, z'
loop_
 _atom_site_type_symbol
 _atom_site_label
 _atom_site_symmetry_multiplicity
 _atom_site_fract_x
 _atom_site_fract_y
 _atom_site_fract_z
 _atom_site_occupancy
  Sr  Sr0  1  0.83249130  0.84974792  0.84773096  1
  Sr  Sr1  1  0.66750870  0.34974792  0.15226904  1
  Sr  Sr2  1  0.16750870  0.15025208  0.15226904  1
  Sr  Sr3  1  0.33249130  0.65025208  0.84773096  1
  Sr  Sr4  1  0.30346539  0.11839175  0.50465638  1
  Sr  Sr5  1  0.19653461  0.61839175  0.49534362  1
  Sr  Sr6  1  0.69653461  0.88160825  0.49534362  1
  Sr  Sr7  1  0.80346539  0.38160825  0.50465638  1
  Sr  Sr8  1  0.83699366  0.72507553  0.18970928  1
  Sr  Sr9  1  0.66300634  0.22507553  0.81029072  1
  Sr  Sr10  1  0.16300634  0.27492447  0.81029072  1
  Sr  Sr11  1  0.33699366  0.77492447  0.18970928  1
  Ni  Ni12  1  0.12530486  0.89073587  0.67660687  1
  Ni  Ni13  1  0.37469514  0.39073587  0.32339313  1
  Ni  Ni14  1  0.87469514  0.10926413  0.32339313  1
  Ni  Ni15  1  0.62530486  0.60926413  0.67660687  1
  Ni  Ni16  1  0.00000000  0.50000000  0.00000000  1
  Ni  Ni17  1  0.50000000  0.00000000  0.00000000  1
  P  P18  1  0.28942901  0.43302927  0.04278549  1
  P  P19  1  0.21057099  0.93302927  0.95721451  1
  P  P20  1  0.71057099  0.56697073  0.95721451  1
  P  P21  1  0.78942901  0.06697073  0.04278549  1
  P  P22  1  0.49440199  0.07596438  0.28669676  1
  P  P23  1  0.00559801  0.57596438  0.71330324  1
  P  P24  1  0.50559801  0.92403562  0.71330324  1
  P  P25  1  0.99440199  0.42403562  0.28669676  1
  P  P26  1  0.43739509  0.39919958  0.62572932  1
  P  P27  1  0.06260491  0.89919958  0.37427068  1
  P  P28  1  0.56260491  0.60080042  0.37427068  1
  P  P29  1  0.93739509  0.10080042  0.62572932  1
  O  O30  1  0.23129395  0.57669062  0.05761200  1
  O  O31  1  0.26870605  0.07669062  0.94238800  1
  O  O32  1  0.76870605  0.42330938  0.94238800  1
  O  O33  1  0.73129395  0.92330938  0.05761200  1
  O  O34  1  0.38920973  0.38224227  0.15032826  1
  O  O35  1  0.11079027  0.88224227  0.84967174  1
  O  O36  1  0.61079027  0.61775773  0.84967174  1
  O  O37  1  0.88920973  0.11775773  0.15032826  1
  O  O38  1  0.36761801  0.41955569  0.93593220  1
  O  O39  1  0.13238199  0.91955569  0.06406780  1
  O  O40  1  0.63238199  0.58044431  0.06406780  1
  O  O41  1  0.86761801  0.08044431  0.93593220  1
  O  O42  1  0.14330384  0.34528601  0.02075698  1
  O  O43  1  0.35669616  0.84528601  0.97924302  1
  O  O44  1  0.85669616  0.65471399  0.97924302  1
  O  O45  1  0.64330384  0.15471399  0.02075698  1
  O  O46  1  0.38701555  0.18851816  0.31542458  1
  O  O47  1  0.11298445  0.68851816  0.68457542  1
  O  O48  1  0.61298445  0.81148184  0.68457542  1
  O  O49  1  0.88701555  0.31148184  0.31542458  1
  O  O50  1  0.47763050  0.96418469  0.37354000  1
  O  O51  1  0.02236950  0.46418469  0.62646000  1
  O  O52  1  0.52236950  0.03581531  0.62646000  1
  O  O53  1  0.97763050  0.53581531  0.37354000  1
  O  O54  1  0.65116355  0.13363015  0.29328701  1
  O  O55  1  0.84883645  0.63363015  0.70671299  1
  O  O56  1  0.34883645  0.86636985  0.70671299  1
  O  O57  1  0.15116355  0.36636985  0.29328701  1
  O  O58  1  0.43507545  0.02176256  0.16507117  1
  O  O59  1  0.06492455  0.52176256  0.83492883  1
  O  O60  1  0.86690525  0.13193733  0.50128841  1
  O  O61  1  0.63309475  0.63193733  0.49871159  1
  O  O62  1  0.13309475  0.86806267  0.49871159  1
  O  O63  1  0.36690525  0.36806267  0.50128841  1
  O  O64  1  0.89745002  0.95535557  0.65558458  1
  O  O65  1  0.60254998  0.45535557  0.34441542  1
  O  O66  1  0.10254998  0.04464443  0.34441542  1
  O  O67  1  0.39745002  0.54464443  0.65558458  1
  O  O68  1  0.11152038  0.10195660  0.64283338  1
  O  O69  1  0.38847962  0.60195660  0.35716662  1
  O  O70  1  0.88847962  0.89804340  0.35716662  1
  O  O71  1  0.61152038  0.39804340  0.64283338  1
  O  O72  1  0.88440610  0.20619250  0.70493232  1
  O  O73  1  0.61559390  0.70619250  0.29506768  1
  O  O74  1  0.11559390  0.79380750  0.29506768  1
  O  O75  1  0.38440610  0.29380750  0.70493232  1
  O  O76  1  0.93507545  0.47823744  0.16507117  1
  O  O77  1  0.56492455  0.97823744  0.83492883  1
