# generated using pymatgen
data_KCaAl2F9
_symmetry_space_group_name_H-M   'P 1'
_cell_length_a   7.24723451
_cell_length_b   7.24723458
_cell_length_c   23.00917665
_cell_angle_alpha   90.00000000
_cell_angle_beta   90.00000000
_cell_angle_gamma   119.80701015
_symmetry_Int_Tables_number   1
_chemical_formula_structural   KCaAl2F9
_chemical_formula_sum   'K6 Ca6 Al12 F54'
_cell_volume   1048.61878362
_cell_formula_units_Z   6
loop_
 _symmetry_equiv_pos_site_id
 _symmetry_equiv_pos_as_xyz
  1  'x, y, z'
loop_
 _atom_site_type_symbol
 _atom_site_label
 _atom_site_symmetry_multiplicity
 _atom_site_fract_x
 _atom_site_fract_y
 _atom_site_fract_z
 _atom_site_occupancy
  K  K0  1  0.01045915  0.98954085  0.00000000  1
  K  K1  1  0.96416993  0.00704429  0.83348247  1
  K  K2  1  0.98954085  0.01045915  0.50000000  1
  K  K3  1  0.00704429  0.96416993  0.66651753  1
  K  K4  1  0.99295571  0.03583007  0.16651753  1
  K  K5  1  0.03583007  0.99295571  0.33348247  1
  Ca  Ca6  1  0.50083475  0.98827504  0.58347624  1
  Ca  Ca7  1  0.51532388  0.51532388  0.25000000  1
  Ca  Ca8  1  0.98827504  0.50083475  0.91652376  1
  Ca  Ca9  1  0.48467612  0.48467612  0.75000000  1
  Ca  Ca10  1  0.01172496  0.49916525  0.41652376  1
  Ca  Ca11  1  0.49916525  0.01172496  0.08347624  1
  Al  Al12  1  0.00167928  0.48451907  0.58626859  1
  Al  Al13  1  0.52061813  0.01759581  0.25322583  1
  Al  Al14  1  0.98240419  0.47938187  0.74677417  1
  Al  Al15  1  0.48451907  0.00167928  0.91373141  1
  Al  Al16  1  0.49685669  0.51255947  0.08011260  1
  Al  Al17  1  0.99832072  0.51548093  0.08626859  1
  Al  Al18  1  0.47938187  0.98240419  0.75322583  1
  Al  Al19  1  0.01759581  0.52061813  0.24677417  1
  Al  Al20  1  0.48744053  0.50314331  0.91988740  1
  Al  Al21  1  0.51255947  0.49685669  0.41988740  1
  Al  Al22  1  0.50314331  0.48744053  0.58011260  1
  Al  Al23  1  0.51548093  0.99832072  0.41373141  1
  F  F24  1  0.45977096  0.52084905  0.84319818  1
  F  F25  1  0.22652416  0.33487376  0.41544700  1
  F  F26  1  0.79757893  0.66011054  0.42792233  1
  F  F27  1  0.52084905  0.45977096  0.65680182  1
  F  F28  1  0.24773217  0.71304519  0.76135517  1
  F  F29  1  0.41499994  0.96631488  0.67684181  1
  F  F30  1  0.48592753  0.51407247  0.50000000  1
  F  F31  1  0.88633248  0.67211574  0.23260010  1
  F  F32  1  0.47915095  0.54022904  0.15680182  1
  F  F33  1  0.20242107  0.33988946  0.92792233  1
  F  F34  1  0.79557965  0.13070846  0.39700984  1
  F  F35  1  0.54022904  0.47915095  0.34319818  1
  F  F36  1  0.75226783  0.28695481  0.26135517  1
  F  F37  1  0.64108407  0.85949695  0.74280029  1
  F  F38  1  0.27007929  0.52049977  0.59421738  1
  F  F39  1  0.00550490  0.46071763  0.16647448  1
  F  F40  1  0.72992071  0.47950023  0.09421738  1
  F  F41  1  0.58500006  0.03368512  0.17684181  1
  F  F42  1  0.23279230  0.87349618  0.42620672  1
  F  F43  1  0.51407247  0.48592753  0.00000000  1
  F  F44  1  0.52049977  0.27007929  0.90578262  1
  F  F45  1  0.67211574  0.88633248  0.26739990  1
  F  F46  1  0.12650382  0.76720770  0.57379328  1
  F  F47  1  0.98839054  0.57352954  0.01028446  1
  F  F48  1  0.73787084  0.45465463  0.57171601  1
  F  F49  1  0.86929154  0.20442035  0.60299016  1
  F  F50  1  0.47950023  0.72992071  0.40578262  1
  F  F51  1  0.66011054  0.79757893  0.07207767  1
  F  F52  1  0.77347584  0.66512624  0.91544700  1
  F  F53  1  0.87349618  0.23279230  0.07379328  1
  F  F54  1  0.54534537  0.26212916  0.42828399  1
  F  F55  1  0.28695481  0.75226783  0.23864483  1
  F  F56  1  0.71304519  0.24773217  0.73864483  1
  F  F57  1  0.13070846  0.79557965  0.10299016  1
  F  F58  1  0.96631488  0.41499994  0.82315819  1
  F  F59  1  0.99449510  0.53928237  0.66647448  1
  F  F60  1  0.32788426  0.11366752  0.76739990  1
  F  F61  1  0.46071763  0.00550490  0.33352552  1
  F  F62  1  0.03368512  0.58500006  0.32315819  1
  F  F63  1  0.01160946  0.42647046  0.51028446  1
  F  F64  1  0.76720770  0.12650382  0.92620672  1
  F  F65  1  0.66512624  0.77347584  0.58455300  1
  F  F66  1  0.35891593  0.14050305  0.24280029  1
  F  F67  1  0.33487376  0.22652416  0.08455300  1
  F  F68  1  0.85949695  0.64108407  0.75719971  1
  F  F69  1  0.45465463  0.73787084  0.92828399  1
  F  F70  1  0.33988946  0.20242107  0.57207767  1
  F  F71  1  0.11366752  0.32788426  0.73260010  1
  F  F72  1  0.14050305  0.35891593  0.25719971  1
  F  F73  1  0.20442035  0.86929154  0.89700984  1
  F  F74  1  0.42647046  0.01160946  0.98971554  1
  F  F75  1  0.57352954  0.98839054  0.48971554  1
  F  F76  1  0.53928237  0.99449510  0.83352552  1
  F  F77  1  0.26212916  0.54534537  0.07171601  1
