# generated using pymatgen
data_Ba17Tm16Zn8Pt4O57
_symmetry_space_group_name_H-M   'P 1'
_cell_length_a   5.72361249
_cell_length_b   16.49256386
_cell_length_c   16.49256390
_cell_angle_alpha   88.27458935
_cell_angle_beta   80.00739674
_cell_angle_gamma   80.00739881
_symmetry_Int_Tables_number   1
_chemical_formula_structural   Ba17Tm16Zn8Pt4O57
_chemical_formula_sum   'Ba17 Tm16 Zn8 Pt4 O57'
_cell_volume   1509.97326386
_cell_formula_units_Z   1
loop_
 _symmetry_equiv_pos_site_id
 _symmetry_equiv_pos_as_xyz
  1  'x, y, z'
loop_
 _atom_site_type_symbol
 _atom_site_label
 _atom_site_symmetry_multiplicity
 _atom_site_fract_x
 _atom_site_fract_y
 _atom_site_fract_z
 _atom_site_occupancy
  Ba  Ba0  1  0.18900258  0.07885967  0.54313517  1
  Ba  Ba1  1  0.35051475  0.30633665  0.99263385  1
  Ba  Ba2  1  0.26786225  0.54313517  0.92114033  1
  Ba  Ba3  1  0.64948525  0.69366335  0.00736615  1
  Ba  Ba4  1  0.55772525  0.37439246  0.51015704  1
  Ba  Ba5  1  0.88832533  0.38761002  0.83573932  1
  Ba  Ba6  1  0.65685140  0.99263385  0.69366335  1
  Ba  Ba7  1  0.06788229  0.48984296  0.37439246  1
  Ba  Ba8  1  0.27593535  0.83573932  0.61238998  1
  Ba  Ba9  1  0.81099742  0.92114033  0.45686483  1
  Ba  Ba10  1  0.34314860  0.00736615  0.30633665  1
  Ba  Ba11  1  0.93211771  0.51015704  0.62560754  1
  Ba  Ba12  1  0.11167467  0.61238998  0.16426068  1
  Ba  Ba13  1  0.44227475  0.62560754  0.48984296  1
  Ba  Ba14  1  0.73213775  0.45686483  0.07885967  1
  Ba  Ba15  1  0.72406465  0.16426068  0.38761002  1
  Ba  Ba16  1  0.00000000  0.00000000  0.00000000  1
  Tm  Tm17  1  0.67484951  0.37464915  0.27565182  1
  Tm  Tm18  1  0.95050133  0.72434818  0.37464915  1
  Tm  Tm19  1  0.32515049  0.62535085  0.72434818  1
  Tm  Tm20  1  0.50629418  0.74513834  0.24227331  1
  Tm  Tm21  1  0.17172672  0.77641257  0.88013400  1
  Tm  Tm22  1  0.25143252  0.24227331  0.25486166  1
  Tm  Tm23  1  0.49370582  0.25486166  0.75772669  1
  Tm  Tm24  1  0.82827328  0.22358743  0.11986600  1
  Tm  Tm25  1  0.94813929  0.88013400  0.22358743  1
  Tm  Tm26  1  0.48862789  0.11052677  0.91221745  1
  Tm  Tm27  1  0.05186071  0.11986600  0.77641257  1
  Tm  Tm28  1  0.04949867  0.27565182  0.62535085  1
  Tm  Tm29  1  0.59915466  0.91221745  0.88947323  1
  Tm  Tm30  1  0.40084534  0.08778255  0.11052677  1
  Tm  Tm31  1  0.74856748  0.75772669  0.74513834  1
  Tm  Tm32  1  0.51137211  0.88947323  0.08778255  1
  Zn  Zn33  1  0.78781019  0.59221890  0.83216072  1
  Zn  Zn34  1  0.92472220  0.20789155  0.94266404  1
  Zn  Zn35  1  0.21218981  0.40778110  0.16783928  1
  Zn  Zn36  1  0.07527780  0.79210845  0.05733596  1
  Zn  Zn37  1  0.13261375  0.94266404  0.79210845  1
  Zn  Zn38  1  0.61997091  0.16783928  0.59221890  1
  Zn  Zn39  1  0.86738625  0.05733596  0.20789155  1
  Zn  Zn40  1  0.38002909  0.83216072  0.40778110  1
  Pt  Pt41  1  0.14432998  0.27320158  0.43813846  1
  Pt  Pt42  1  0.58246844  0.56186154  0.27320158  1
  Pt  Pt43  1  0.41753156  0.43813846  0.72679842  1
  Pt  Pt44  1  0.85567002  0.72679842  0.56186154  1
  O  O45  1  0.00011547  0.31750536  0.17633390  1
  O  O46  1  0.82355063  0.17633390  0.68249464  1
  O  O47  1  0.76272178  0.64736394  0.31014672  1
  O  O48  1  0.22379459  0.20207193  0.85196933  1
  O  O49  1  0.49395473  0.68249464  0.82366610  1
  O  O50  1  0.27783585  0.79792807  0.14803067  1
  O  O51  1  0.76098956  0.53808536  0.93993551  1
  O  O52  1  0.88684368  0.47777487  0.23306590  1
  O  O53  1  0.68352859  0.97482552  0.15423371  1
  O  O54  1  0.11990958  0.76693410  0.47777487  1
  O  O55  1  0.76808926  0.83881848  0.62500301  1
  O  O56  1  0.40231555  0.47777487  0.23306590  1
  O  O57  1  0.68237917  0.82366610  0.31750536  1
  O  O58  1  0.17644937  0.82366610  0.31750536  1
  O  O59  1  0.07576391  0.14803067  0.20207193  1
  O  O60  1  0.63538145  0.76693410  0.47777487  1
  O  O61  1  0.50604527  0.31750536  0.17633390  1
  O  O62  1  0.84208573  0.00015094  0.31567760  1
  O  O63  1  0.70092508  0.06006449  0.53808536  1
  O  O64  1  0.60690774  0.62500301  0.16118152  1
  O  O65  1  0.58991428  0.68985328  0.64736394  1
  O  O66  1  0.29907492  0.93993551  0.46191464  1
  O  O67  1  0.50000000  0.00000000  0.00000000  1
  O  O68  1  0.42586652  0.85196933  0.79792807  1
  O  O69  1  0.18741217  0.97482552  0.15423371  1
  O  O70  1  0.72023244  0.35263606  0.68985328  1
  O  O71  1  0.36461855  0.23306590  0.52222513  1
  O  O72  1  0.41008572  0.31014672  0.35263606  1
  O  O73  1  0.92423609  0.85196933  0.79792807  1
  O  O74  1  0.72216415  0.20207193  0.85196933  1
  O  O75  1  0.15791427  0.99984906  0.68432240  1
  O  O76  1  0.34164589  0.84576629  0.97482552  1
  O  O77  1  0.99988453  0.68249464  0.82366610  1
  O  O78  1  0.27976756  0.64736394  0.31014672  1
  O  O79  1  0.39309226  0.37499699  0.83881848  1
  O  O80  1  0.88009042  0.23306590  0.52222513  1
  O  O81  1  0.92713150  0.31014672  0.35263606  1
  O  O82  1  0.23191074  0.16118152  0.37499699  1
  O  O83  1  0.23727822  0.35263606  0.68985328  1
  O  O84  1  0.94564748  0.61938243  0.48932260  1
  O  O85  1  0.05435252  0.38061757  0.51067740  1
  O  O86  1  0.11315632  0.52222513  0.76693410  1
  O  O87  1  0.43497008  0.51067740  0.61938243  1
  O  O88  1  0.83776230  0.84576629  0.97482552  1
  O  O89  1  0.81258783  0.02517448  0.84576629  1
  O  O90  1  0.23901044  0.46191464  0.06006449  1
  O  O91  1  0.15776333  0.68432240  0.00015094  1
  O  O92  1  0.56502992  0.48932260  0.38061757  1
  O  O93  1  0.31647141  0.02517448  0.84576629  1
  O  O94  1  0.77620541  0.79792807  0.14803067  1
  O  O95  1  0.84223667  0.31567760  0.99984906  1
  O  O96  1  0.59768445  0.52222513  0.76693410  1
  O  O97  1  0.57413348  0.14803067  0.20207193  1
  O  O98  1  0.07286850  0.68985328  0.64736394  1
  O  O99  1  0.16223770  0.15423371  0.02517448  1
  O  O100  1  0.31762083  0.17633390  0.68249464  1
  O  O101  1  0.65835411  0.15423371  0.02517448  1
