# generated using pymatgen
data_Zn2SeCl2O3
_symmetry_space_group_name_H-M   'P 1'
_cell_length_a   7.83107878
_cell_length_b   10.42750136
_cell_length_c   15.73808725
_cell_angle_alpha   90.00000000
_cell_angle_beta   90.00000000
_cell_angle_gamma   90.00000000
_symmetry_Int_Tables_number   1
_chemical_formula_structural   Zn2SeCl2O3
_chemical_formula_sum   'Zn16 Se8 Cl16 O24'
_cell_volume   1285.14992960
_cell_formula_units_Z   8
loop_
 _symmetry_equiv_pos_site_id
 _symmetry_equiv_pos_as_xyz
  1  'x, y, z'
loop_
 _atom_site_type_symbol
 _atom_site_label
 _atom_site_symmetry_multiplicity
 _atom_site_fract_x
 _atom_site_fract_y
 _atom_site_fract_z
 _atom_site_occupancy
  Zn  Zn0  1  0.39563708  0.22170172  0.53650233  1
  Zn  Zn1  1  0.35126252  0.49167828  0.38918475  1
  Zn  Zn2  1  0.89563708  0.27829828  0.53650233  1
  Zn  Zn3  1  0.85126252  0.49167828  0.11081525  1
  Zn  Zn4  1  0.60436292  0.72170172  0.03650233  1
  Zn  Zn5  1  0.14873748  0.50832172  0.88918475  1
  Zn  Zn6  1  0.64873748  0.99167828  0.88918475  1
  Zn  Zn7  1  0.35126252  0.00832172  0.11081525  1
  Zn  Zn8  1  0.89563708  0.22170172  0.96349767  1
  Zn  Zn9  1  0.10436292  0.72170172  0.46349767  1
  Zn  Zn10  1  0.85126252  0.00832172  0.38918475  1
  Zn  Zn11  1  0.14873748  0.99167828  0.61081525  1
  Zn  Zn12  1  0.60436292  0.77829828  0.46349767  1
  Zn  Zn13  1  0.64873748  0.50832172  0.61081525  1
  Zn  Zn14  1  0.10436292  0.77829828  0.03650233  1
  Zn  Zn15  1  0.39563708  0.27829828  0.96349767  1
  Se  Se16  1  0.22311741  0.46489510  0.59143776  1
  Se  Se17  1  0.77688259  0.96489510  0.09143776  1
  Se  Se18  1  0.72311741  0.03510490  0.59143776  1
  Se  Se19  1  0.77688259  0.53510490  0.40856224  1
  Se  Se20  1  0.27688259  0.53510490  0.09143776  1
  Se  Se21  1  0.72311741  0.46489510  0.90856224  1
  Se  Se22  1  0.27688259  0.96489510  0.40856224  1
  Se  Se23  1  0.22311741  0.03510490  0.90856224  1
  Cl  Cl24  1  0.33216797  0.40704523  0.80522619  1
  Cl  Cl25  1  0.92927607  0.28401191  0.11365414  1
  Cl  Cl26  1  0.16783203  0.59295477  0.30522619  1
  Cl  Cl27  1  0.16783203  0.90704523  0.19477381  1
  Cl  Cl28  1  0.42927607  0.21598809  0.11365414  1
  Cl  Cl29  1  0.57072393  0.78401191  0.88634586  1
  Cl  Cl30  1  0.66783203  0.59295477  0.19477381  1
  Cl  Cl31  1  0.42927607  0.28401191  0.38634586  1
  Cl  Cl32  1  0.66783203  0.90704523  0.30522619  1
  Cl  Cl33  1  0.92927607  0.21598809  0.38634586  1
  Cl  Cl34  1  0.57072393  0.71598809  0.61365414  1
  Cl  Cl35  1  0.07072393  0.71598809  0.88634586  1
  Cl  Cl36  1  0.07072393  0.78401191  0.61365414  1
  Cl  Cl37  1  0.33216797  0.09295477  0.69477381  1
  Cl  Cl38  1  0.83216797  0.40704523  0.69477381  1
  Cl  Cl39  1  0.83216797  0.09295477  0.80522619  1
  O  O40  1  0.64693644  0.31648695  0.94083959  1
  O  O41  1  0.85306356  0.68351305  0.44083959  1
  O  O42  1  0.78505795  0.04847366  0.99465521  1
  O  O43  1  0.06768756  0.90818872  0.41130353  1
  O  O44  1  0.28505795  0.45152634  0.99465521  1
  O  O45  1  0.78505795  0.45152634  0.50534479  1
  O  O46  1  0.06768756  0.59181128  0.08869647  1
  O  O47  1  0.21494205  0.54847366  0.49465521  1
  O  O48  1  0.35306356  0.68351305  0.05916041  1
  O  O49  1  0.85306356  0.81648695  0.05916041  1
  O  O50  1  0.28505795  0.04847366  0.50534479  1
  O  O51  1  0.71494205  0.54847366  0.00534479  1
  O  O52  1  0.14693644  0.18351305  0.94083959  1
  O  O53  1  0.43231244  0.40818872  0.58869647  1
  O  O54  1  0.21494205  0.95152634  0.00534479  1
  O  O55  1  0.93231244  0.40818872  0.91130353  1
  O  O56  1  0.56768756  0.59181128  0.41130353  1
  O  O57  1  0.71494205  0.95152634  0.49465521  1
  O  O58  1  0.93231244  0.09181128  0.58869647  1
  O  O59  1  0.43231244  0.09181128  0.91130353  1
  O  O60  1  0.64693644  0.18351305  0.55916041  1
  O  O61  1  0.14693644  0.31648695  0.55916041  1
  O  O62  1  0.35306356  0.81648695  0.44083959  1
  O  O63  1  0.56768756  0.90818872  0.08869647  1
