# generated using pymatgen
data_LaMg(BO2)5
_symmetry_space_group_name_H-M   'P 1'
_cell_length_a   7.67640540
_cell_length_b   8.89872087
_cell_length_c   9.54274083
_cell_angle_alpha   92.19395051
_cell_angle_beta   90.00000000
_cell_angle_gamma   90.00000000
_symmetry_Int_Tables_number   1
_chemical_formula_structural   LaMg(BO2)5
_chemical_formula_sum   'La4 Mg4 B20 O40'
_cell_volume   651.38858715
_cell_formula_units_Z   4
loop_
 _symmetry_equiv_pos_site_id
 _symmetry_equiv_pos_as_xyz
  1  'x, y, z'
loop_
 _atom_site_type_symbol
 _atom_site_label
 _atom_site_symmetry_multiplicity
 _atom_site_fract_x
 _atom_site_fract_y
 _atom_site_fract_z
 _atom_site_occupancy
  La  La0  1  0.81062333  0.81526276  0.76476616  1
  La  La1  1  0.31062333  0.68473724  0.73523384  1
  La  La2  1  0.18937667  0.18473724  0.23523384  1
  La  La3  1  0.68937667  0.31526276  0.26476616  1
  Mg  Mg4  1  0.58728993  0.39041109  0.87895589  1
  Mg  Mg5  1  0.08728993  0.10958891  0.62104411  1
  Mg  Mg6  1  0.41271007  0.60958891  0.12104411  1
  Mg  Mg7  1  0.91271007  0.89041109  0.37895589  1
  B  B8  1  0.32938015  0.48745659  0.38911436  1
  B  B9  1  0.18489382  0.42786707  0.91537073  1
  B  B10  1  0.53304604  0.71667411  0.44799887  1
  B  B11  1  0.68489382  0.07213293  0.58462927  1
  B  B12  1  0.03304604  0.78332589  0.05200113  1
  B  B13  1  0.08435536  0.58823761  0.23076838  1
  B  B14  1  0.82938015  0.01254341  0.11088564  1
  B  B15  1  0.67061985  0.51254341  0.61088564  1
  B  B16  1  0.91564464  0.41176239  0.76923162  1
  B  B17  1  0.58435536  0.91176239  0.26923162  1
  B  B18  1  0.46695396  0.28332589  0.55200113  1
  B  B19  1  0.09408912  0.64952133  0.49094998  1
  B  B20  1  0.17061985  0.98745659  0.88911436  1
  B  B21  1  0.90591088  0.35047867  0.50905002  1
  B  B22  1  0.40591088  0.14952133  0.99094998  1
  B  B23  1  0.81510618  0.57213293  0.08462927  1
  B  B24  1  0.59408912  0.85047867  0.00905002  1
  B  B25  1  0.31510618  0.92786707  0.41537073  1
  B  B26  1  0.96695396  0.21667411  0.94799887  1
  B  B27  1  0.41564464  0.08823761  0.73076838  1
  O  O28  1  0.57775529  0.01117038  0.68467844  1
  O  O29  1  0.52327879  0.41181582  0.64542986  1
  O  O30  1  0.47672121  0.58818418  0.35457014  1
  O  O31  1  0.22134404  0.54016986  0.50845293  1
  O  O32  1  0.96441045  0.27176754  0.39360185  1
  O  O33  1  0.07775529  0.48882962  0.81532156  1
  O  O34  1  0.22314840  0.47606401  0.25787460  1
  O  O35  1  0.62693055  0.19172664  0.50993688  1
  O  O36  1  0.34692861  0.49318175  0.93072181  1
  O  O37  1  0.89595671  0.16696562  0.08617145  1
  O  O38  1  0.02327879  0.08818418  0.85457014  1
  O  O39  1  0.72314840  0.02393599  0.24212540  1
  O  O40  1  0.10404329  0.83303438  0.91382855  1
  O  O41  1  0.65307139  0.50681825  0.06927819  1
  O  O42  1  0.39595671  0.33303438  0.41382855  1
  O  O43  1  0.77865596  0.45983014  0.49154707  1
  O  O44  1  0.15307139  0.99318175  0.43072181  1
  O  O45  1  0.65507406  0.81284709  0.37545635  1
  O  O46  1  0.97672121  0.91181582  0.14542986  1
  O  O47  1  0.27865596  0.04016986  0.00845293  1
  O  O48  1  0.84692861  0.00681825  0.56927819  1
  O  O49  1  0.46337966  0.18199666  0.85902485  1
  O  O50  1  0.15507406  0.68715291  0.12454365  1
  O  O51  1  0.34492594  0.18715291  0.62454365  1
  O  O52  1  0.77685160  0.52393599  0.74212540  1
  O  O53  1  0.60404329  0.66696562  0.58617145  1
  O  O54  1  0.96337966  0.31800334  0.64097515  1
  O  O55  1  0.84492594  0.31284709  0.87545635  1
  O  O56  1  0.12693055  0.30827336  0.99006312  1
  O  O57  1  0.72134404  0.95983014  0.99154707  1
  O  O58  1  0.87306945  0.69172664  0.00993688  1
  O  O59  1  0.53662034  0.81800334  0.14097515  1
  O  O60  1  0.27685160  0.97606401  0.75787460  1
  O  O61  1  0.42224471  0.98882962  0.31532156  1
  O  O62  1  0.46441045  0.22823246  0.10639815  1
  O  O63  1  0.37306945  0.80827336  0.49006312  1
  O  O64  1  0.53558955  0.77176754  0.89360185  1
  O  O65  1  0.03558955  0.72823246  0.60639815  1
  O  O66  1  0.03662034  0.68199666  0.35902485  1
  O  O67  1  0.92224471  0.51117038  0.18467844  1
