# generated using pymatgen
data_Nd3NbO7
_symmetry_space_group_name_H-M   'P 1'
_cell_length_a   7.77407832
_cell_length_b   7.68346955
_cell_length_c   10.98873662
_cell_angle_alpha   90.00000000
_cell_angle_beta   90.00000000
_cell_angle_gamma   90.00000000
_symmetry_Int_Tables_number   1
_chemical_formula_structural   Nd3NbO7
_chemical_formula_sum   'Nd12 Nb4 O28'
_cell_volume   656.37805154
_cell_formula_units_Z   4
loop_
 _symmetry_equiv_pos_site_id
 _symmetry_equiv_pos_as_xyz
  1  'x, y, z'
loop_
 _atom_site_type_symbol
 _atom_site_label
 _atom_site_symmetry_multiplicity
 _atom_site_fract_x
 _atom_site_fract_y
 _atom_site_fract_z
 _atom_site_occupancy
  Nd  Nd0  1  0.70455418  0.51311414  0.25000000  1
  Nd  Nd1  1  0.45776787  0.25061167  0.47625439  1
  Nd  Nd2  1  0.54223213  0.74938833  0.52374561  1
  Nd  Nd3  1  0.79544582  0.01311414  0.25000000  1
  Nd  Nd4  1  0.95776787  0.24938833  0.97625439  1
  Nd  Nd5  1  0.95776787  0.24938833  0.52374561  1
  Nd  Nd6  1  0.29544582  0.48688586  0.75000000  1
  Nd  Nd7  1  0.54223213  0.74938833  0.97625439  1
  Nd  Nd8  1  0.20455418  0.98688586  0.75000000  1
  Nd  Nd9  1  0.04223213  0.75061167  0.02374561  1
  Nd  Nd10  1  0.45776787  0.25061167  0.02374561  1
  Nd  Nd11  1  0.04223213  0.75061167  0.47625439  1
  Nb  Nb12  1  0.24630200  0.50491396  0.25000000  1
  Nb  Nb13  1  0.25369800  0.00491396  0.25000000  1
  Nb  Nb14  1  0.74630200  0.99508604  0.75000000  1
  Nb  Nb15  1  0.75369800  0.49508604  0.75000000  1
  O  O16  1  0.95000849  0.96448473  0.62680960  1
  O  O17  1  0.04999151  0.03551527  0.12680960  1
  O  O18  1  0.32903119  0.24733432  0.25000000  1
  O  O19  1  0.54999151  0.46448473  0.62680960  1
  O  O20  1  0.04999151  0.03551527  0.37319040  1
  O  O21  1  0.27060175  0.74387007  0.61707429  1
  O  O22  1  0.17096881  0.74733432  0.25000000  1
  O  O23  1  0.45000849  0.53551527  0.37319040  1
  O  O24  1  0.77060175  0.75612993  0.38292571  1
  O  O25  1  0.90652099  0.54238230  0.61348203  1
  O  O26  1  0.72939825  0.25612993  0.11707429  1
  O  O27  1  0.90652099  0.54238230  0.88651797  1
  O  O28  1  0.72939825  0.25612993  0.38292571  1
  O  O29  1  0.59347901  0.04238230  0.88651797  1
  O  O30  1  0.67096881  0.75266568  0.75000000  1
  O  O31  1  0.09347901  0.45761770  0.38651797  1
  O  O32  1  0.40652099  0.95761770  0.11348203  1
  O  O33  1  0.59347901  0.04238230  0.61348203  1
  O  O34  1  0.77060175  0.75612993  0.11707429  1
  O  O35  1  0.09347901  0.45761770  0.11348203  1
  O  O36  1  0.82903119  0.25266568  0.75000000  1
  O  O37  1  0.45000849  0.53551527  0.12680960  1
  O  O38  1  0.22939825  0.24387007  0.88292571  1
  O  O39  1  0.27060175  0.74387007  0.88292571  1
  O  O40  1  0.54999151  0.46448473  0.87319040  1
  O  O41  1  0.40652099  0.95761770  0.38651797  1
  O  O42  1  0.22939825  0.24387007  0.61707429  1
  O  O43  1  0.95000849  0.96448473  0.87319040  1
