# generated using pymatgen
data_NaUBO5
_symmetry_space_group_name_H-M   'P 1'
_cell_length_a   5.92790791
_cell_length_b   6.90112342
_cell_length_c   10.82057451
_cell_angle_alpha   90.00000000
_cell_angle_beta   90.00000000
_cell_angle_gamma   90.00000000
_symmetry_Int_Tables_number   1
_chemical_formula_structural   NaUBO5
_chemical_formula_sum   'Na4 U4 B4 O20'
_cell_volume   442.66130762
_cell_formula_units_Z   4
loop_
 _symmetry_equiv_pos_site_id
 _symmetry_equiv_pos_as_xyz
  1  'x, y, z'
loop_
 _atom_site_type_symbol
 _atom_site_label
 _atom_site_symmetry_multiplicity
 _atom_site_fract_x
 _atom_site_fract_y
 _atom_site_fract_z
 _atom_site_occupancy
  Na  Na0  1  0.60237679  0.00000000  0.75000000  1
  Na  Na1  1  0.39762321  0.50000000  0.25000000  1
  Na  Na2  1  0.60237679  0.50000000  0.75000000  1
  Na  Na3  1  0.39762321  0.00000000  0.25000000  1
  U  U4  1  0.90250432  0.75000000  0.43240036  1
  U  U5  1  0.09749568  0.25000000  0.56759964  1
  U  U6  1  0.90250432  0.25000000  0.06759964  1
  U  U7  1  0.09749568  0.75000000  0.93240036  1
  B  B8  1  0.19623382  0.75000000  0.64863913  1
  B  B9  1  0.80376618  0.25000000  0.35136087  1
  B  B10  1  0.80376618  0.75000000  0.14863913  1
  B  B11  1  0.19623382  0.25000000  0.85136087  1
  O  O12  1  0.87187450  0.08236036  0.41140535  1
  O  O13  1  0.87187450  0.58236036  0.08859465  1
  O  O14  1  0.15268789  0.75000000  0.32877477  1
  O  O15  1  0.65910840  0.25000000  0.96195492  1
  O  O16  1  0.12812550  0.08236036  0.91140535  1
  O  O17  1  0.68656034  0.75000000  0.25835324  1
  O  O18  1  0.12812550  0.91763964  0.58859465  1
  O  O19  1  0.31343966  0.25000000  0.74164676  1
  O  O20  1  0.65910840  0.75000000  0.53804508  1
  O  O21  1  0.84731211  0.75000000  0.82877477  1
  O  O22  1  0.34089160  0.25000000  0.46195492  1
  O  O23  1  0.12812550  0.58236036  0.58859465  1
  O  O24  1  0.31343966  0.75000000  0.75835324  1
  O  O25  1  0.87187450  0.41763964  0.41140535  1
  O  O26  1  0.15268789  0.25000000  0.17122523  1
  O  O27  1  0.68656034  0.25000000  0.24164676  1
  O  O28  1  0.12812550  0.41763964  0.91140535  1
  O  O29  1  0.34089160  0.75000000  0.03804508  1
  O  O30  1  0.87187450  0.91763964  0.08859465  1
  O  O31  1  0.84731211  0.25000000  0.67122523  1
