# generated using pymatgen
data_K2SrP2O7
_symmetry_space_group_name_H-M   'P 1'
_cell_length_a   5.79651527
_cell_length_b   9.28772167
_cell_length_c   14.94606584
_cell_angle_alpha   105.84183714
_cell_angle_beta   90.00000000
_cell_angle_gamma   90.00000000
_symmetry_Int_Tables_number   1
_chemical_formula_structural   K2SrP2O7
_chemical_formula_sum   'K8 Sr4 P8 O28'
_cell_volume   774.08148649
_cell_formula_units_Z   4
loop_
 _symmetry_equiv_pos_site_id
 _symmetry_equiv_pos_as_xyz
  1  'x, y, z'
loop_
 _atom_site_type_symbol
 _atom_site_label
 _atom_site_symmetry_multiplicity
 _atom_site_fract_x
 _atom_site_fract_y
 _atom_site_fract_z
 _atom_site_occupancy
  K  K0  1  0.73820916  0.46570200  0.16368067  1
  K  K1  1  0.26638665  0.96818292  0.38650497  1
  K  K2  1  0.73361335  0.03181708  0.61349503  1
  K  K3  1  0.23820916  0.53429800  0.33631933  1
  K  K4  1  0.26179084  0.53429800  0.83631933  1
  K  K5  1  0.76638665  0.03181708  0.11349503  1
  K  K6  1  0.23361335  0.96818292  0.88650497  1
  K  K7  1  0.76179084  0.46570200  0.66368067  1
  Sr  Sr8  1  0.27368916  0.73678310  0.13249033  1
  Sr  Sr9  1  0.22631084  0.73678310  0.63249033  1
  Sr  Sr10  1  0.77368916  0.26321690  0.36750967  1
  Sr  Sr11  1  0.72631084  0.26321690  0.86750967  1
  P  P12  1  0.80006058  0.69121449  0.96564450  1
  P  P13  1  0.73116397  0.81892510  0.80618272  1
  P  P14  1  0.69993942  0.69121449  0.46564450  1
  P  P15  1  0.23116397  0.18107490  0.69381728  1
  P  P16  1  0.76883603  0.81892510  0.30618272  1
  P  P17  1  0.30006058  0.30878551  0.53435550  1
  P  P18  1  0.26883603  0.18107490  0.19381728  1
  P  P19  1  0.19993942  0.30878551  0.03435550  1
  O  O20  1  0.51946323  0.73435113  0.75694064  1
  O  O21  1  0.01946323  0.26564887  0.74305936  1
  O  O22  1  0.55480474  0.26576252  0.51303843  1
  O  O23  1  0.72825749  0.98609222  0.81281002  1
  O  O24  1  0.27174251  0.01390778  0.18718998  1
  O  O25  1  0.44519526  0.73423748  0.48696157  1
  O  O26  1  0.96102838  0.74196730  0.77175514  1
  O  O27  1  0.15541116  0.28286576  0.44582531  1
  O  O28  1  0.22825749  0.01390778  0.68718998  1
  O  O29  1  0.48053677  0.26564887  0.24305936  1
  O  O30  1  0.03897162  0.25803270  0.22824486  1
  O  O31  1  0.84458884  0.71713424  0.55417469  1
  O  O32  1  0.23454434  0.46128800  0.10468803  1
  O  O33  1  0.46102838  0.25803270  0.72824486  1
  O  O34  1  0.94519526  0.26576252  0.01303843  1
  O  O35  1  0.65541116  0.71713424  0.05417469  1
  O  O36  1  0.34458884  0.28286576  0.94582531  1
  O  O37  1  0.73454434  0.53871200  0.39531197  1
  O  O38  1  0.53897162  0.74196730  0.27175514  1
  O  O39  1  0.05480474  0.73423748  0.98696157  1
  O  O40  1  0.77174251  0.98609222  0.31281002  1
  O  O41  1  0.76545566  0.53871200  0.89531197  1
  O  O42  1  0.98053677  0.73435113  0.25694064  1
  O  O43  1  0.69955008  0.81946540  0.91702283  1
  O  O44  1  0.26545566  0.46128800  0.60468803  1
  O  O45  1  0.30044992  0.18053460  0.08297717  1
  O  O46  1  0.19955008  0.18053460  0.58297717  1
  O  O47  1  0.80044992  0.81946540  0.41702283  1
