# generated using pymatgen
data_LaNbTeO6
_symmetry_space_group_name_H-M   'P 1'
_cell_length_a   6.86447515
_cell_length_b   7.50167444
_cell_length_c   10.90006737
_cell_angle_alpha   79.71278277
_cell_angle_beta   77.01885746
_cell_angle_gamma   89.77545984
_symmetry_Int_Tables_number   1
_chemical_formula_structural   LaNbTeO6
_chemical_formula_sum   'La4 Nb4 Te4 O24'
_cell_volume   537.77905812
_cell_formula_units_Z   4
loop_
 _symmetry_equiv_pos_site_id
 _symmetry_equiv_pos_as_xyz
  1  'x, y, z'
loop_
 _atom_site_type_symbol
 _atom_site_label
 _atom_site_symmetry_multiplicity
 _atom_site_fract_x
 _atom_site_fract_y
 _atom_site_fract_z
 _atom_site_occupancy
  La  La0  1  0.76063727  0.86069230  0.49462069  1
  La  La1  1  0.66958447  0.71488384  0.15603980  1
  La  La2  1  0.23936273  0.13930770  0.50537931  1
  La  La3  1  0.33041553  0.28511616  0.84396020  1
  Nb  Nb4  1  0.81682860  0.54592224  0.80301969  1
  Nb  Nb5  1  0.82665051  0.04082858  0.80067143  1
  Nb  Nb6  1  0.18317140  0.45407776  0.19698031  1
  Nb  Nb7  1  0.17334949  0.95917142  0.19932857  1
  Te  Te8  1  0.67028305  0.20101339  0.20101092  1
  Te  Te9  1  0.26402581  0.62874120  0.50318490  1
  Te  Te10  1  0.32971695  0.79898661  0.79898908  1
  Te  Te11  1  0.73597419  0.37125880  0.49681510  1
  O  O12  1  0.50009879  0.60003350  0.78981416  1
  O  O13  1  0.08964038  0.50028896  0.77838756  1
  O  O14  1  0.14316248  0.18390589  0.28128752  1
  O  O15  1  0.60616737  0.12895111  0.38514452  1
  O  O16  1  0.46567880  0.32253848  0.59549567  1
  O  O17  1  0.24453552  0.43148114  0.02963414  1
  O  O18  1  0.14970005  0.84923733  0.42780406  1
  O  O19  1  0.18281784  0.05635305  0.03419908  1
  O  O20  1  0.10715183  0.11129639  0.74177364  1
  O  O21  1  0.85683752  0.81609411  0.71871248  1
  O  O22  1  0.39383263  0.87104889  0.61485548  1
  O  O23  1  0.85029995  0.15076267  0.57219594  1
  O  O24  1  0.50574658  0.98241906  0.81918236  1
  O  O25  1  0.91035962  0.49971104  0.22161244  1
  O  O26  1  0.53432120  0.67746152  0.40450433  1
  O  O27  1  0.75546448  0.56851886  0.97036586  1
  O  O28  1  0.49990121  0.39996650  0.21018584  1
  O  O29  1  0.49425342  0.01758094  0.18081764  1
  O  O30  1  0.71217767  0.28593367  0.81974466  1
  O  O31  1  0.28782233  0.71406633  0.18025534  1
  O  O32  1  0.81718216  0.94364695  0.96580092  1
  O  O33  1  0.81878832  0.54572446  0.58816829  1
  O  O34  1  0.18121168  0.45427554  0.41183171  1
  O  O35  1  0.89284817  0.88870361  0.25822636  1
