# generated using pymatgen
data_CsSi2HO5
_symmetry_space_group_name_H-M   'P 1'
_cell_length_a   5.04919696
_cell_length_b   8.98412872
_cell_length_c   13.04073080
_cell_angle_alpha   90.00000000
_cell_angle_beta   89.86387586
_cell_angle_gamma   90.00000000
_symmetry_Int_Tables_number   1
_chemical_formula_structural   CsSi2HO5
_chemical_formula_sum   'Cs4 Si8 H4 O20'
_cell_volume   591.56024691
_cell_formula_units_Z   4
loop_
 _symmetry_equiv_pos_site_id
 _symmetry_equiv_pos_as_xyz
  1  'x, y, z'
loop_
 _atom_site_type_symbol
 _atom_site_label
 _atom_site_symmetry_multiplicity
 _atom_site_fract_x
 _atom_site_fract_y
 _atom_site_fract_z
 _atom_site_occupancy
  Cs  Cs0  1  0.06776504  0.75000000  0.44043254  1
  Cs  Cs1  1  0.56646838  0.75000000  0.05675473  1
  Cs  Cs2  1  0.43353162  0.25000000  0.94324527  1
  Cs  Cs3  1  0.93223496  0.25000000  0.55956746  1
  Si  Si4  1  0.03081224  0.07116617  0.18208969  1
  Si  Si5  1  0.96918776  0.57116617  0.81791031  1
  Si  Si6  1  0.47067277  0.57122539  0.68171826  1
  Si  Si7  1  0.96918776  0.92883383  0.81791031  1
  Si  Si8  1  0.52932723  0.42877461  0.31828174  1
  Si  Si9  1  0.47067277  0.92877461  0.68171826  1
  Si  Si10  1  0.52932723  0.07122539  0.31828174  1
  Si  Si11  1  0.03081224  0.42883383  0.18208969  1
  H  H12  1  0.50000000  0.50000000  0.50000000  1
  H  H13  1  0.50000000  0.00000000  0.50000000  1
  H  H14  1  0.00000000  0.50000000  0.00000000  1
  H  H15  1  0.00000000  0.00000000  0.00000000  1
  O  O16  1  0.39716079  0.47483818  0.58216616  1
  O  O17  1  0.72681338  0.03325416  0.22071636  1
  O  O18  1  0.60283921  0.52516182  0.41783384  1
  O  O19  1  0.54752141  0.25000000  0.34448913  1
  O  O20  1  0.27318662  0.96674584  0.77928364  1
  O  O21  1  0.94595396  0.75000000  0.84308841  1
  O  O22  1  0.22671817  0.46888506  0.27934062  1
  O  O23  1  0.22671817  0.03111494  0.27934062  1
  O  O24  1  0.89613332  0.02433114  0.91807627  1
  O  O25  1  0.72681338  0.46674584  0.22071636  1
  O  O26  1  0.60283921  0.97483818  0.41783384  1
  O  O27  1  0.10386668  0.97566886  0.08192373  1
  O  O28  1  0.77328183  0.53111494  0.72065938  1
  O  O29  1  0.10386668  0.52433114  0.08192373  1
  O  O30  1  0.77328183  0.96888506  0.72065938  1
  O  O31  1  0.05404604  0.25000000  0.15691159  1
  O  O32  1  0.27318662  0.53325416  0.77928364  1
  O  O33  1  0.45247859  0.75000000  0.65551087  1
  O  O34  1  0.39716079  0.02516182  0.58216616  1
  O  O35  1  0.89613332  0.47566886  0.91807627  1
