# generated using pymatgen
data_VFeCoO4
_symmetry_space_group_name_H-M   'P 1'
_cell_length_a   6.06049190
_cell_length_b   6.05583823
_cell_length_c   6.04794692
_cell_angle_alpha   90.00000000
_cell_angle_beta   60.06845013
_cell_angle_gamma   119.97460235
_symmetry_Int_Tables_number   1
_chemical_formula_structural   VFeCoO4
_chemical_formula_sum   'V2 Fe2 Co2 O8'
_cell_volume   157.17734177
_cell_formula_units_Z   2
loop_
 _symmetry_equiv_pos_site_id
 _symmetry_equiv_pos_as_xyz
  1  'x, y, z'
loop_
 _atom_site_type_symbol
 _atom_site_label
 _atom_site_symmetry_multiplicity
 _atom_site_fract_x
 _atom_site_fract_y
 _atom_site_fract_z
 _atom_site_occupancy
  V  V0  1  0.24535689  0.12267845  0.12732155  1
  V  V1  1  0.75464311  0.87732155  0.87267845  1
  Fe  Fe2  1  0.50000000  0.00000000  0.50000000  1
  Fe  Fe3  1  0.50000000  0.50000000  0.50000000  1
  Co  Co4  1  0.00000000  0.50000000  -0.00000000  1
  Co  Co5  1  0.00000000  0.50000000  0.50000000  1
  O  O6  1  0.97714054  0.72879140  0.26142973  1
  O  O7  1  0.97714054  0.24834914  0.26142973  1
  O  O8  1  0.50530594  0.25265297  0.72737740  1
  O  O9  1  0.50530594  0.25265297  0.26731666  1
  O  O10  1  0.02285946  0.27120860  0.73857027  1
  O  O11  1  0.02285946  0.75165086  0.73857027  1
  O  O12  1  0.49469406  0.74734703  0.27262260  1
  O  O13  1  0.49469406  0.74734703  0.73268334  1
