# generated using pymatgen
data_K5Li2NdF10
_symmetry_space_group_name_H-M   'P 1'
_cell_length_a   7.01387921
_cell_length_b   7.86770344
_cell_length_c   20.96485510
_cell_angle_alpha   90.00000000
_cell_angle_beta   90.00000000
_cell_angle_gamma   90.00000000
_symmetry_Int_Tables_number   1
_chemical_formula_structural   K5Li2NdF10
_chemical_formula_sum   'K20 Li8 Nd4 F40'
_cell_volume   1156.90614806
_cell_formula_units_Z   4
loop_
 _symmetry_equiv_pos_site_id
 _symmetry_equiv_pos_as_xyz
  1  'x, y, z'
loop_
 _atom_site_type_symbol
 _atom_site_label
 _atom_site_symmetry_multiplicity
 _atom_site_fract_x
 _atom_site_fract_y
 _atom_site_fract_z
 _atom_site_occupancy
  K  K0  1  0.24984671  0.52194766  0.45698314  1
  K  K1  1  0.92343340  0.52683231  0.21695973  1
  K  K2  1  0.56696541  0.25000000  0.85984633  1
  K  K3  1  0.43303459  0.75000000  0.14015367  1
  K  K4  1  0.07656660  0.47316769  0.78304027  1
  K  K5  1  0.42343340  0.47316769  0.28304027  1
  K  K6  1  0.93303459  0.25000000  0.35984633  1
  K  K7  1  0.24984671  0.97805234  0.45698314  1
  K  K8  1  0.07656660  0.02683231  0.78304027  1
  K  K9  1  0.06696541  0.75000000  0.64015367  1
  K  K10  1  0.74984671  0.47805234  0.04301686  1
  K  K11  1  0.57656660  0.52683231  0.71695973  1
  K  K12  1  0.75015329  0.02194766  0.54301686  1
  K  K13  1  0.92343340  0.97316769  0.21695973  1
  K  K14  1  0.75015329  0.47805234  0.54301686  1
  K  K15  1  0.74984671  0.02194766  0.04301686  1
  K  K16  1  0.25015329  0.52194766  0.95698314  1
  K  K17  1  0.57656660  0.97316769  0.71695973  1
  K  K18  1  0.25015329  0.97805234  0.95698314  1
  K  K19  1  0.42343340  0.02683231  0.28304027  1
  Li  Li20  1  0.97358881  0.25000000  0.92224208  1
  Li  Li21  1  0.34595051  0.75000000  0.82695221  1
  Li  Li22  1  0.84595051  0.25000000  0.67304779  1
  Li  Li23  1  0.65404949  0.25000000  0.17304779  1
  Li  Li24  1  0.47358881  0.75000000  0.57775792  1
  Li  Li25  1  0.15404949  0.75000000  0.32695221  1
  Li  Li26  1  0.52641119  0.25000000  0.42224208  1
  Li  Li27  1  0.02641119  0.75000000  0.07775792  1
  Nd  Nd28  1  0.73510542  0.75000000  0.39289212  1
  Nd  Nd29  1  0.76489458  0.75000000  0.89289212  1
  Nd  Nd30  1  0.26489458  0.25000000  0.60710788  1
  Nd  Nd31  1  0.23510542  0.25000000  0.10710788  1
  F  F32  1  0.04481084  0.25000000  0.00914367  1
  F  F33  1  0.70335129  0.25000000  0.25955011  1
  F  F34  1  0.99779433  0.92545910  0.35337294  1
  F  F35  1  0.39110111  0.75000000  0.36851586  1
  F  F36  1  0.49779433  0.07454090  0.14662706  1
  F  F37  1  0.60889889  0.25000000  0.63148414  1
  F  F38  1  0.95518916  0.75000000  0.99085633  1
  F  F39  1  0.00220567  0.07454090  0.64662706  1
  F  F40  1  0.29664871  0.75000000  0.74044989  1
  F  F41  1  0.80963693  0.75000000  0.78161433  1
  F  F42  1  0.49779433  0.42545910  0.14662706  1
  F  F43  1  0.89110111  0.25000000  0.13148414  1
  F  F44  1  0.15270476  0.95983501  0.09072747  1
  F  F45  1  0.50220567  0.57454090  0.85337294  1
  F  F46  1  0.15270476  0.54016499  0.09072747  1
  F  F47  1  0.19276821  0.25000000  0.87380557  1
  F  F48  1  0.45518916  0.25000000  0.50914367  1
  F  F49  1  0.20335129  0.75000000  0.24044989  1
  F  F50  1  0.54692379  0.75000000  0.98024261  1
  F  F51  1  0.30723179  0.25000000  0.37380557  1
  F  F52  1  0.65270476  0.04016499  0.40927253  1
  F  F53  1  0.34729524  0.54016499  0.59072747  1
  F  F54  1  0.45307621  0.25000000  0.01975739  1
  F  F55  1  0.84729524  0.45983501  0.90927253  1
  F  F56  1  0.19036307  0.25000000  0.21838567  1
  F  F57  1  0.54481084  0.75000000  0.49085633  1
  F  F58  1  0.00220567  0.42545910  0.64662706  1
  F  F59  1  0.04692379  0.25000000  0.51975739  1
  F  F60  1  0.95307621  0.75000000  0.48024261  1
  F  F61  1  0.99779433  0.57454090  0.35337294  1
  F  F62  1  0.10889889  0.75000000  0.86851586  1
  F  F63  1  0.69036307  0.75000000  0.28161433  1
  F  F64  1  0.80723179  0.75000000  0.12619443  1
  F  F65  1  0.79664871  0.25000000  0.75955011  1
  F  F66  1  0.65270476  0.45983501  0.40927253  1
  F  F67  1  0.69276821  0.75000000  0.62619443  1
  F  F68  1  0.34729524  0.95983501  0.59072747  1
  F  F69  1  0.84729524  0.04016499  0.90927253  1
  F  F70  1  0.50220567  0.92545910  0.85337294  1
  F  F71  1  0.30963693  0.25000000  0.71838567  1
