# generated using pymatgen
data_CsK2AuO2
_symmetry_space_group_name_H-M   'P 1'
_cell_length_a   6.36480640
_cell_length_b   7.46010049
_cell_length_c   12.71218689
_cell_angle_alpha   90.00000000
_cell_angle_beta   90.00000000
_cell_angle_gamma   90.00000000
_symmetry_Int_Tables_number   1
_chemical_formula_structural   CsK2AuO2
_chemical_formula_sum   'Cs4 K8 Au4 O8'
_cell_volume   603.60126993
_cell_formula_units_Z   4
loop_
 _symmetry_equiv_pos_site_id
 _symmetry_equiv_pos_as_xyz
  1  'x, y, z'
loop_
 _atom_site_type_symbol
 _atom_site_label
 _atom_site_symmetry_multiplicity
 _atom_site_fract_x
 _atom_site_fract_y
 _atom_site_fract_z
 _atom_site_occupancy
  Cs  Cs0  1  0.18273811  0.75000000  0.09421013  1
  Cs  Cs1  1  0.81726189  0.25000000  0.90578987  1
  Cs  Cs2  1  0.68273811  0.25000000  0.40578987  1
  Cs  Cs3  1  0.31726189  0.75000000  0.59421013  1
  K  K4  1  0.13887315  0.99769447  0.36062338  1
  K  K5  1  0.63887315  0.49769447  0.13937662  1
  K  K6  1  0.36112685  0.99769447  0.86062338  1
  K  K7  1  0.63887315  0.00230553  0.13937662  1
  K  K8  1  0.13887315  0.50230553  0.36062338  1
  K  K9  1  0.36112685  0.50230553  0.86062338  1
  K  K10  1  0.86112685  0.00230553  0.63937662  1
  K  K11  1  0.86112685  0.49769447  0.63937662  1
  Au  Au12  1  0.67252319  0.75000000  0.37711327  1
  Au  Au13  1  0.17252319  0.25000000  0.12288673  1
  Au  Au14  1  0.32747681  0.25000000  0.62288673  1
  Au  Au15  1  0.82747681  0.75000000  0.87711327  1
  O  O16  1  0.58480844  0.75000000  0.98184270  1
  O  O17  1  0.08480844  0.25000000  0.51815730  1
  O  O18  1  0.57219372  0.25000000  0.72613888  1
  O  O19  1  0.41519156  0.25000000  0.01815730  1
  O  O20  1  0.91519156  0.75000000  0.48184270  1
  O  O21  1  0.42780628  0.75000000  0.27386112  1
  O  O22  1  0.92780628  0.25000000  0.22613888  1
  O  O23  1  0.07219372  0.75000000  0.77386112  1
