# generated using pymatgen
data_K2Be(Si2O5)2
_symmetry_space_group_name_H-M   'P 1'
_cell_length_a   7.04252709
_cell_length_b   9.87156209
_cell_length_c   13.96788131
_cell_angle_alpha   90.00000000
_cell_angle_beta   93.82101700
_cell_angle_gamma   90.00000000
_symmetry_Int_Tables_number   1
_chemical_formula_structural   K2Be(Si2O5)2
_chemical_formula_sum   'K8 Be4 Si16 O40'
_cell_volume   968.89892031
_cell_formula_units_Z   4
loop_
 _symmetry_equiv_pos_site_id
 _symmetry_equiv_pos_as_xyz
  1  'x, y, z'
loop_
 _atom_site_type_symbol
 _atom_site_label
 _atom_site_symmetry_multiplicity
 _atom_site_fract_x
 _atom_site_fract_y
 _atom_site_fract_z
 _atom_site_occupancy
  K  K0  1  0.75939696  0.07815463  0.86694690  1
  K  K1  1  0.74060304  0.57815463  0.63305310  1
  K  K2  1  0.45806192  0.12451708  0.59210292  1
  K  K3  1  0.25939696  0.42184537  0.36694690  1
  K  K4  1  0.54193808  0.87548292  0.40789708  1
  K  K5  1  0.95806192  0.37548292  0.09210292  1
  K  K6  1  0.24060304  0.92184537  0.13305310  1
  K  K7  1  0.04193808  0.62451708  0.90789708  1
  Be  Be8  1  0.04445292  0.63556971  0.19523003  1
  Be  Be9  1  0.95554708  0.36443029  0.80476997  1
  Be  Be10  1  0.45554708  0.13556971  0.30476997  1
  Be  Be11  1  0.54445292  0.86443029  0.69523003  1
  Si  Si12  1  0.01779947  0.78360550  0.36992558  1
  Si  Si13  1  0.73293170  0.76538129  0.06669387  1
  Si  Si14  1  0.98220053  0.21639450  0.63007442  1
  Si  Si15  1  0.27094513  0.95153809  0.82941868  1
  Si  Si16  1  0.48220053  0.28360550  0.13007442  1
  Si  Si17  1  0.46288867  0.57403304  0.16622424  1
  Si  Si18  1  0.53711133  0.42596696  0.83377576  1
  Si  Si19  1  0.96288867  0.92596696  0.66622424  1
  Si  Si20  1  0.03711133  0.07403304  0.33377576  1
  Si  Si21  1  0.76706830  0.26538129  0.43330613  1
  Si  Si22  1  0.51779947  0.71639450  0.86992558  1
  Si  Si23  1  0.23293170  0.73461871  0.56669387  1
  Si  Si24  1  0.72905487  0.04846191  0.17058132  1
  Si  Si25  1  0.22905487  0.45153809  0.67058132  1
  Si  Si26  1  0.26706830  0.23461871  0.93330613  1
  Si  Si27  1  0.77094513  0.54846191  0.32941868  1
  O  O28  1  0.75488972  0.92949425  0.08948873  1
  O  O29  1  0.44445550  0.42269031  0.72083770  1
  O  O30  1  0.76258974  0.43384019  0.83747425  1
  O  O31  1  0.26258974  0.06615981  0.33747425  1
  O  O32  1  0.08428482  0.76550923  0.26377901  1
  O  O33  1  0.53766111  0.71322346  0.11455709  1
  O  O34  1  0.74511028  0.42949425  0.41051127  1
  O  O35  1  0.25488972  0.57050575  0.58948873  1
  O  O36  1  0.55554450  0.57730969  0.27916230  1
  O  O37  1  0.55155739  0.44101436  0.11126641  1
  O  O38  1  0.05554450  0.92269031  0.77916230  1
  O  O39  1  0.07967923  0.32042181  0.90443868  1
  O  O40  1  0.80666922  0.25918118  0.55140034  1
  O  O41  1  0.19333078  0.74081882  0.44859966  1
  O  O42  1  0.30666922  0.24081882  0.05140034  1
  O  O43  1  0.92032077  0.67957819  0.09556132  1
  O  O44  1  0.24511028  0.07050575  0.91051127  1
  O  O45  1  0.33005745  0.81216348  0.89253508  1
  O  O46  1  0.42032077  0.82042181  0.59556132  1
  O  O47  1  0.93102357  0.51667632  0.25645346  1
  O  O48  1  0.91571518  0.23449077  0.73622099  1
  O  O49  1  0.06897643  0.48332368  0.74354654  1
  O  O50  1  0.69333078  0.75918118  0.94859966  1
  O  O51  1  0.83005745  0.68783652  0.39253508  1
  O  O52  1  0.16994255  0.31216348  0.60746492  1
  O  O53  1  0.73741026  0.93384019  0.66252575  1
  O  O54  1  0.03766111  0.78677654  0.61455709  1
  O  O55  1  0.94844261  0.94101436  0.38873359  1
  O  O56  1  0.46233889  0.28677654  0.88544291  1
  O  O57  1  0.58428482  0.73449077  0.76377901  1
  O  O58  1  0.44844261  0.55898564  0.88873359  1
  O  O59  1  0.94445550  0.07730969  0.22083770  1
  O  O60  1  0.41571518  0.26550923  0.23622099  1
  O  O61  1  0.43102357  0.98332368  0.75645346  1
  O  O62  1  0.96233889  0.21322346  0.38544291  1
  O  O63  1  0.57967923  0.17957819  0.40443868  1
  O  O64  1  0.05155739  0.05898564  0.61126641  1
  O  O65  1  0.56897643  0.01667632  0.24354654  1
  O  O66  1  0.66994255  0.18783652  0.10746492  1
  O  O67  1  0.23741026  0.56615981  0.16252575  1
