# generated using pymatgen
data_Lu2Te5O13
_symmetry_space_group_name_H-M   'P 1'
_cell_length_a   6.89789740
_cell_length_b   8.74477436
_cell_length_c   10.70256227
_cell_angle_alpha   88.57737434
_cell_angle_beta   86.94368805
_cell_angle_gamma   74.58339379
_symmetry_Int_Tables_number   1
_chemical_formula_structural   Lu2Te5O13
_chemical_formula_sum   'Lu4 Te10 O26'
_cell_volume   621.43205898
_cell_formula_units_Z   2
loop_
 _symmetry_equiv_pos_site_id
 _symmetry_equiv_pos_as_xyz
  1  'x, y, z'
loop_
 _atom_site_type_symbol
 _atom_site_label
 _atom_site_symmetry_multiplicity
 _atom_site_fract_x
 _atom_site_fract_y
 _atom_site_fract_z
 _atom_site_occupancy
  Lu  Lu0  1  0.99826344  0.25695549  0.75890779  1
  Lu  Lu1  1  0.55141295  0.53110098  0.18071033  1
  Lu  Lu2  1  0.00173656  0.74304451  0.24109221  1
  Lu  Lu3  1  0.44858705  0.46889902  0.81928967  1
  Te  Te4  1  0.87337450  0.64619767  0.89477585  1
  Te  Te5  1  0.55779872  0.09755668  0.70040200  1
  Te  Te6  1  0.12662550  0.35380233  0.10522415  1
  Te  Te7  1  0.70965236  0.12507155  0.02307695  1
  Te  Te8  1  0.44220128  0.90244332  0.29959800  1
  Te  Te9  1  0.72875744  0.60380565  0.51217825  1
  Te  Te10  1  0.84100443  0.19773298  0.35710012  1
  Te  Te11  1  0.29034764  0.87492845  0.97692305  1
  Te  Te12  1  0.15899557  0.80226702  0.64289988  1
  Te  Te13  1  0.27124256  0.39619435  0.48782175  1
  O  O14  1  0.52908921  0.33108894  0.99680479  1
  O  O15  1  0.67907921  0.77027266  0.22263209  1
  O  O16  1  0.92890365  0.98311774  0.30803577  1
  O  O17  1  0.66023415  0.48766984  0.38023285  1
  O  O18  1  0.23235814  0.50253269  0.18686239  1
  O  O19  1  0.03903213  0.35211729  0.56894915  1
  O  O20  1  0.05453930  0.81993195  0.04342305  1
  O  O21  1  0.66294392  0.26571344  0.22474751  1
  O  O22  1  0.93224853  0.73485396  0.72388231  1
  O  O23  1  0.86848836  0.50712144  0.10076999  1
  O  O24  1  0.47091079  0.66891106  0.00319521  1
  O  O25  1  0.94546070  0.18006805  0.95657695  1
  O  O26  1  0.07109635  0.01688226  0.69196423  1
  O  O27  1  0.96096787  0.64788271  0.43105085  1
  O  O28  1  0.32092079  0.22972734  0.77736791  1
  O  O29  1  0.35134966  0.98440309  0.12245404  1
  O  O30  1  0.76764186  0.49746731  0.81313761  1
  O  O31  1  0.31466567  0.73692827  0.28418811  1
  O  O32  1  0.33976585  0.51233016  0.61976715  1
  O  O33  1  0.33705608  0.73428656  0.77525249  1
  O  O34  1  0.46184199  0.19358214  0.52012269  1
  O  O35  1  0.06775147  0.26514604  0.27611769  1
  O  O36  1  0.13151164  0.49287856  0.89923001  1
  O  O37  1  0.68533433  0.26307173  0.71581189  1
  O  O38  1  0.53815801  0.80641786  0.47987731  1
  O  O39  1  0.64865034  0.01559691  0.87754596  1
