# generated using pymatgen
data_HfSCl6O
_symmetry_space_group_name_H-M   'P 1'
_cell_length_a   7.01628395
_cell_length_b   7.60977750
_cell_length_c   22.25344589
_cell_angle_alpha   90.00000000
_cell_angle_beta   90.00000000
_cell_angle_gamma   115.00776779
_symmetry_Int_Tables_number   1
_chemical_formula_structural   HfSCl6O
_chemical_formula_sum   'Hf4 S4 Cl24 O4'
_cell_volume   1076.77418706
_cell_formula_units_Z   4
loop_
 _symmetry_equiv_pos_site_id
 _symmetry_equiv_pos_as_xyz
  1  'x, y, z'
loop_
 _atom_site_type_symbol
 _atom_site_label
 _atom_site_symmetry_multiplicity
 _atom_site_fract_x
 _atom_site_fract_y
 _atom_site_fract_z
 _atom_site_occupancy
  Hf  Hf0  1  0.50173651  0.65131605  0.07411753  1
  Hf  Hf1  1  0.49826349  0.84868395  0.57411753  1
  Hf  Hf2  1  0.50173651  0.15131605  0.42588247  1
  Hf  Hf3  1  0.49826349  0.34868395  0.92588247  1
  S  S4  1  0.12799180  0.67970202  0.36044326  1
  S  S5  1  0.87200820  0.32029798  0.63955674  1
  S  S6  1  0.12799180  0.17970202  0.13955674  1
  S  S7  1  0.87200820  0.82029798  0.86044326  1
  Cl  Cl8  1  0.31812786  0.83114038  0.66513204  1
  Cl  Cl9  1  0.73807591  0.94738310  0.03388070  1
  Cl  Cl10  1  0.73807591  0.44738310  0.46611930  1
  Cl  Cl11  1  0.26192409  0.05261690  0.96611930  1
  Cl  Cl12  1  0.24736831  0.25145268  0.39118779  1
  Cl  Cl13  1  0.68187214  0.16885962  0.33486796  1
  Cl  Cl14  1  0.09454704  0.23810707  0.67409638  1
  Cl  Cl15  1  0.68187214  0.66885962  0.16513204  1
  Cl  Cl16  1  0.69674735  0.96231013  0.47393054  1
  Cl  Cl17  1  0.26192409  0.55261690  0.53388070  1
  Cl  Cl18  1  0.90545296  0.76189293  0.32590362  1
  Cl  Cl19  1  0.30325265  0.53768987  0.97393054  1
  Cl  Cl20  1  0.30325265  0.03768987  0.52606946  1
  Cl  Cl21  1  0.90545296  0.26189293  0.17409638  1
  Cl  Cl22  1  0.09454704  0.73810707  0.82590362  1
  Cl  Cl23  1  0.28695409  0.18084312  0.21789817  1
  Cl  Cl24  1  0.69674735  0.46231013  0.02606946  1
  Cl  Cl25  1  0.31812786  0.33114038  0.83486796  1
  Cl  Cl26  1  0.75263169  0.24854732  0.89118779  1
  Cl  Cl27  1  0.24736831  0.75145268  0.10881221  1
  Cl  Cl28  1  0.71304591  0.81915688  0.78210183  1
  Cl  Cl29  1  0.75263169  0.74854732  0.60881221  1
  Cl  Cl30  1  0.28695409  0.68084312  0.28210183  1
  Cl  Cl31  1  0.71304591  0.31915688  0.71789817  1
  O  O32  1  0.27314678  0.34281033  0.10275970  1
  O  O33  1  0.72685322  0.65718967  0.89724030  1
  O  O34  1  0.72685322  0.15718967  0.60275970  1
  O  O35  1  0.27314678  0.84281033  0.39724030  1
