# generated using pymatgen
data_SbSCl9
_symmetry_space_group_name_H-M   'P 1'
_cell_length_a   7.74786720
_cell_length_b   7.74786729
_cell_length_c   14.30601904
_cell_angle_alpha   90.81375014
_cell_angle_beta   106.13330389
_cell_angle_gamma   117.43222385
_symmetry_Int_Tables_number   1
_chemical_formula_structural   SbSCl9
_chemical_formula_sum   'Sb2 S2 Cl18'
_cell_volume   721.94188733
_cell_formula_units_Z   2
loop_
 _symmetry_equiv_pos_site_id
 _symmetry_equiv_pos_as_xyz
  1  'x, y, z'
loop_
 _atom_site_type_symbol
 _atom_site_label
 _atom_site_symmetry_multiplicity
 _atom_site_fract_x
 _atom_site_fract_y
 _atom_site_fract_z
 _atom_site_occupancy
  Sb  Sb0  1  0.00000000  0.00000000  0.00000000  1
  Sb  Sb1  1  0.00000000  0.50000000  0.50000000  1
  S  S2  1  0.56468190  0.15495237  0.71963427  1
  S  S3  1  0.43531810  0.84504763  0.28036573  1
  Cl  Cl4  1  0.23364309  0.57801054  0.19900890  1
  Cl  Cl5  1  0.65139207  0.31340844  0.38950969  1
  Cl  Cl6  1  0.92389875  0.26188237  0.61049031  1
  Cl  Cl7  1  0.62099835  0.96536580  0.19900890  1
  Cl  Cl8  1  0.07610125  0.73811763  0.38950969  1
  Cl  Cl9  1  0.10558673  0.31112014  0.41670687  1
  Cl  Cl10  1  0.60757965  0.78784467  0.39542433  1
  Cl  Cl11  1  0.37900165  0.03463420  0.80099110  1
  Cl  Cl12  1  0.70383873  0.70383873  0.00000000  1
  Cl  Cl13  1  0.34860793  0.68659156  0.61049031  1
  Cl  Cl14  1  0.76635691  0.42198946  0.80099110  1
  Cl  Cl15  1  0.39242035  0.21215533  0.60457567  1
  Cl  Cl16  1  0.84375054  0.19199574  0.03574628  1
  Cl  Cl17  1  0.14974077  0.02685434  0.17659511  1
  Cl  Cl18  1  0.89441327  0.68887986  0.58329313  1
  Cl  Cl19  1  0.15624946  0.80800426  0.96425372  1
  Cl  Cl20  1  0.29616127  0.29616127  1.00000000  1
  Cl  Cl21  1  0.85025923  0.97314566  0.82340489  1
