# generated using pymatgen
data_BaH6F8
_symmetry_space_group_name_H-M   'P 1'
_cell_length_a   7.92505983
_cell_length_b   7.92505999
_cell_length_c   12.83681993
_cell_angle_alpha   90.00000000
_cell_angle_beta   90.00000000
_cell_angle_gamma   120.00000309
_symmetry_Int_Tables_number   1
_chemical_formula_structural   BaH6F8
_chemical_formula_sum   'Ba4 H24 F32'
_cell_volume   698.22143134
_cell_formula_units_Z   4
loop_
 _symmetry_equiv_pos_site_id
 _symmetry_equiv_pos_as_xyz
  1  'x, y, z'
loop_
 _atom_site_type_symbol
 _atom_site_label
 _atom_site_symmetry_multiplicity
 _atom_site_fract_x
 _atom_site_fract_y
 _atom_site_fract_z
 _atom_site_occupancy
  Ba  Ba0  1  0.66666700  0.33333300  0.56282353  1
  Ba  Ba1  1  0.33333300  0.66666700  0.06282353  1
  Ba  Ba2  1  0.33333300  0.66666700  0.43717647  1
  Ba  Ba3  1  0.66666700  0.33333300  0.93717647  1
  H  H4  1  0.61008949  0.72300966  0.66535694  1
  H  H5  1  0.11292017  0.38991051  0.83464306  1
  H  H6  1  0.83010107  1.00000000  0.00000000  1
  H  H7  1  0.88707983  0.27699034  0.16535694  1
  H  H8  1  0.02727114  0.70797735  0.25000000  1
  H  H9  1  0.29202265  0.31929379  0.25000000  1
  H  H10  1  0.72300966  0.61008949  0.16535694  1
  H  H11  1  0.27699034  0.88707983  0.83464306  1
  H  H12  1  0.38991051  0.11292017  0.33464306  1
  H  H13  1  0.27699034  0.88707983  0.66535694  1
  H  H14  1  0.68070621  0.97272886  0.25000000  1
  H  H15  1  0.16989893  0.16989893  0.00000000  1
  H  H16  1  1.00000000  0.83010107  0.00000000  1
  H  H17  1  0.61008949  0.72300966  0.83464306  1
  H  H18  1  0.97272886  0.68070621  0.75000000  1
  H  H19  1  0.31929379  0.29202265  0.75000000  1
  H  H20  1  0.88707983  0.27699034  0.33464306  1
  H  H21  1  0.83010107  1.00000000  0.50000000  1
  H  H22  1  0.16989893  0.16989893  0.50000000  1
  H  H23  1  0.38991051  0.11292017  0.16535694  1
  H  H24  1  0.70797735  0.02727114  0.75000000  1
  H  H25  1  0.11292017  0.38991051  0.66535694  1
  H  H26  1  0.72300966  0.61008949  0.33464306  1
  H  H27  1  1.00000000  0.83010107  0.50000000  1
  F  F28  1  0.66850278  0.83956011  0.75000000  1
  F  F29  1  0.43911041  0.06858768  0.10428680  1
  F  F30  1  0.73390797  0.16572347  0.75000000  1
  F  F31  1  0.43911041  0.06858768  0.39571320  1
  F  F32  1  0.62947727  0.56088959  0.39571320  1
  F  F33  1  0.16043989  0.82894267  0.75000000  1
  F  F34  1  0.93141232  0.37052273  0.10428680  1
  F  F35  1  0.93141232  0.37052273  0.39571320  1
  F  F36  1  0.83427653  0.56818451  0.75000000  1
  F  F37  1  0.06858768  0.43911041  0.60428680  1
  F  F38  1  0.17105733  0.33149722  0.75000000  1
  F  F39  1  0.16572347  0.73390797  0.25000000  1
  F  F40  1  0.56088959  0.62947727  0.89571320  1
  F  F41  1  0.00000000  0.70229355  0.50000000  1
  F  F42  1  0.26609203  0.43181549  0.25000000  1
  F  F43  1  0.29770645  0.29770645  0.50000000  1
  F  F44  1  0.37052273  0.93141232  0.60428680  1
  F  F45  1  0.33149722  0.17105733  0.25000000  1
  F  F46  1  0.29770645  0.29770645  0.00000000  1
  F  F47  1  0.56088959  0.62947727  0.60428680  1
  F  F48  1  -0.00000000  0.00000000  0.50000000  1
  F  F49  1  0.70229355  0.00000000  0.00000000  1
  F  F50  1  0.06858768  0.43911041  0.89571320  1
  F  F51  1  0.00000000  0.70229355  0.00000000  1
  F  F52  1  0.82894267  0.16043989  0.25000000  1
  F  F53  1  0.37052273  0.93141232  0.89571320  1
  F  F54  1  0.62947727  0.56088959  0.10428680  1
  F  F55  1  0.83956011  0.66850278  0.25000000  1
  F  F56  1  0.56818451  0.83427653  0.25000000  1
  F  F57  1  0.43181549  0.26609203  0.75000000  1
  F  F58  1  0.70229355  0.00000000  0.50000000  1
  F  F59  1  -0.00000000  0.00000000  0.00000000  1
