# generated using pymatgen
data_RbNbSiO5
_symmetry_space_group_name_H-M   'P 1'
_cell_length_a   7.41874192
_cell_length_b   10.46548996
_cell_length_c   20.48842800
_cell_angle_alpha   90.00000000
_cell_angle_beta   90.00000000
_cell_angle_gamma   90.00000000
_symmetry_Int_Tables_number   1
_chemical_formula_structural   RbNbSiO5
_chemical_formula_sum   'Rb12 Nb12 Si12 O60'
_cell_volume   1590.73730715
_cell_formula_units_Z   12
loop_
 _symmetry_equiv_pos_site_id
 _symmetry_equiv_pos_as_xyz
  1  'x, y, z'
loop_
 _atom_site_type_symbol
 _atom_site_label
 _atom_site_symmetry_multiplicity
 _atom_site_fract_x
 _atom_site_fract_y
 _atom_site_fract_z
 _atom_site_occupancy
  Rb  Rb0  1  0.72104246  0.61764670  0.01789608  1
  Rb  Rb1  1  0.74109078  0.61612673  0.34802799  1
  Rb  Rb2  1  0.74250277  0.68651888  0.66743836  1
  Rb  Rb3  1  0.24250277  0.81348112  0.33256164  1
  Rb  Rb4  1  0.25749723  0.18651888  0.83256164  1
  Rb  Rb5  1  0.77895754  0.38235330  0.51789608  1
  Rb  Rb6  1  0.24109078  0.88387327  0.65197201  1
  Rb  Rb7  1  0.75890922  0.38387327  0.84802799  1
  Rb  Rb8  1  0.27895754  0.11764670  0.48210392  1
  Rb  Rb9  1  0.75749723  0.31348112  0.16743836  1
  Rb  Rb10  1  0.25890922  0.11612673  0.15197201  1
  Rb  Rb11  1  0.22104246  0.88235330  0.98210392  1
  Nb  Nb12  1  0.51429903  0.26692391  0.99951213  1
  Nb  Nb13  1  0.26531212  0.48019189  0.42434883  1
  Nb  Nb14  1  0.98570097  0.73307609  0.49951213  1
  Nb  Nb15  1  0.01429903  0.23307609  0.00048787  1
  Nb  Nb16  1  0.73468788  0.98019189  0.07565117  1
  Nb  Nb17  1  0.24129350  0.48423353  0.10401259  1
  Nb  Nb18  1  0.23468788  0.51980811  0.92434883  1
  Nb  Nb19  1  0.48570097  0.76692391  0.50048787  1
  Nb  Nb20  1  0.25870650  0.51576647  0.60401259  1
  Nb  Nb21  1  0.75870650  0.98423353  0.39598741  1
  Nb  Nb22  1  0.74129350  0.01576647  0.89598741  1
  Nb  Nb23  1  0.76531212  0.01980811  0.57565117  1
  Si  Si24  1  0.56618924  0.26877499  0.35026111  1
  Si  Si25  1  0.02286840  0.75721413  0.14944758  1
  Si  Si26  1  0.52286840  0.74278587  0.85055242  1
  Si  Si27  1  0.76543524  0.12256828  0.72950463  1
  Si  Si28  1  0.06618924  0.23122501  0.64973889  1
  Si  Si29  1  0.23456476  0.62256828  0.77049537  1
  Si  Si30  1  0.93381076  0.73122501  0.85026111  1
  Si  Si31  1  0.26543524  0.37743172  0.27049537  1
  Si  Si32  1  0.97713160  0.25721413  0.35055242  1
  Si  Si33  1  0.73456476  0.87743172  0.22950463  1
  Si  Si34  1  0.43381076  0.76877499  0.14973889  1
  Si  Si35  1  0.47713160  0.24278587  0.64944758  1
  O  O36  1  0.92427507  0.87717905  0.56687290  1
  O  O37  1  0.94680443  0.12216394  0.92695944  1
  O  O38  1  0.74379485  0.99623933  0.17859879  1
  O  O39  1  0.07572493  0.37717905  0.93312710  1
  O  O40  1  0.57156110  0.14379913  0.92318091  1
  O  O41  1  0.73420411  0.93414622  0.98491568  1
  O  O42  1  0.97703143  0.14498060  0.59206486  1
  O  O43  1  0.59353056  0.22285453  0.71790366  1
  O  O44  1  0.75620515  0.00376067  0.67859879  1
  O  O45  1  0.42843890  0.64379913  0.57681909  1
  O  O46  1  0.54410718  0.89439359  0.86545618  1
  O  O47  1  0.92467709  0.83163184  0.09003047  1
  O  O48  1  0.76520586  0.31506360  0.00104512  1
  O  O49  1  0.56771948  0.11907682  0.36844493  1
  O  O50  1  0.09353056  0.27714547  0.28209634  1
  O  O51  1  0.04405303  0.70479326  0.78094807  1
  O  O52  1  0.26579589  0.43414622  0.51508432  1
  O  O53  1  0.74049222  0.90912277  0.30642171  1
  O  O54  1  0.07156110  0.35620087  0.07681909  1
  O  O55  1  0.90646944  0.77714547  0.21790366  1
  O  O56  1  0.40646944  0.72285453  0.78209634  1
  O  O57  1  0.45589282  0.39439359  0.63454382  1
  O  O58  1  0.26520586  0.18493640  0.99895488  1
  O  O59  1  0.23420411  0.56585378  0.01508432  1
  O  O60  1  0.27491141  0.17905652  0.66437207  1
  O  O61  1  0.25950778  0.40912277  0.19357829  1
  O  O62  1  0.22508859  0.82094348  0.16437207  1
  O  O63  1  0.55845710  0.89871794  0.56426464  1
  O  O64  1  0.75950778  0.09087723  0.80642171  1
  O  O65  1  0.47703143  0.35501940  0.40793514  1
  O  O66  1  0.72508859  0.67905652  0.83562793  1
  O  O67  1  0.76579589  0.06585378  0.48491568  1
  O  O68  1  0.07532291  0.33163184  0.40996953  1
  O  O69  1  0.54405303  0.79520674  0.21905193  1
  O  O70  1  0.52296857  0.85501940  0.09206486  1
  O  O71  1  0.04410718  0.60560641  0.13454382  1
  O  O72  1  0.92843890  0.85620087  0.42318091  1
  O  O73  1  0.57532291  0.16836816  0.59003047  1
  O  O74  1  0.95589282  0.10560641  0.36545618  1
  O  O75  1  0.43228052  0.61907682  0.13155507  1
  O  O76  1  0.95594697  0.20479326  0.71905193  1
  O  O77  1  0.57572493  0.12282095  0.06687290  1
  O  O78  1  0.06771948  0.38092318  0.63155507  1
  O  O79  1  0.25620515  0.49623933  0.32140121  1
  O  O80  1  0.42467709  0.66836816  0.90996953  1
  O  O81  1  0.23479414  0.81506360  0.49895488  1
  O  O82  1  0.94154290  0.10128206  0.06426464  1
  O  O83  1  0.77491141  0.32094348  0.33562793  1
  O  O84  1  0.73479414  0.68493640  0.50104512  1
  O  O85  1  0.05845710  0.60128206  0.43573536  1
  O  O86  1  0.45594697  0.29520674  0.28094807  1
  O  O87  1  0.93228052  0.88092318  0.86844493  1
  O  O88  1  0.42427507  0.62282095  0.43312710  1
  O  O89  1  0.02296857  0.64498060  0.90793514  1
  O  O90  1  0.55319557  0.87783606  0.42695944  1
  O  O91  1  0.24379485  0.50376067  0.82140121  1
  O  O92  1  0.24049222  0.59087723  0.69357829  1
  O  O93  1  0.44680443  0.37783606  0.07304056  1
  O  O94  1  0.05319557  0.62216394  0.57304056  1
  O  O95  1  0.44154290  0.39871794  0.93573536  1
