# generated using pymatgen
data_Na5B2P3O13
_symmetry_space_group_name_H-M   'P 1'
_cell_length_a   6.79259920
_cell_length_b   7.77690204
_cell_length_c   11.74681144
_cell_angle_alpha   90.00000000
_cell_angle_beta   90.00000000
_cell_angle_gamma   115.09530762
_symmetry_Int_Tables_number   1
_chemical_formula_structural   Na5B2P3O13
_chemical_formula_sum   'Na10 B4 P6 O26'
_cell_volume   561.95394665
_cell_formula_units_Z   2
loop_
 _symmetry_equiv_pos_site_id
 _symmetry_equiv_pos_as_xyz
  1  'x, y, z'
loop_
 _atom_site_type_symbol
 _atom_site_label
 _atom_site_symmetry_multiplicity
 _atom_site_fract_x
 _atom_site_fract_y
 _atom_site_fract_z
 _atom_site_occupancy
  Na  Na0  1  0.38031156  0.72183231  0.89870184  1
  Na  Na1  1  0.47502991  0.50774389  0.66922436  1
  Na  Na2  1  0.35215236  0.73271058  0.39184497  1
  Na  Na3  1  0.90107840  0.96467459  0.76393506  1
  Na  Na4  1  0.09892160  0.03532541  0.26393506  1
  Na  Na5  1  0.95177466  0.48803069  0.66802866  1
  Na  Na6  1  0.61968844  0.27816769  0.39870184  1
  Na  Na7  1  0.04822534  0.51196931  0.16802866  1
  Na  Na8  1  0.64784764  0.26728942  0.89184497  1
  Na  Na9  1  0.52497009  0.49225611  0.16922436  1
  B  B10  1  0.78877163  0.00155608  0.48709983  1
  B  B11  1  0.13252143  0.99613564  0.53590406  1
  B  B12  1  0.21122837  0.99844392  0.98709983  1
  B  B13  1  0.86747857  0.00386436  0.03590406  1
  P  P14  1  0.15598463  0.32040648  0.43677848  1
  P  P15  1  0.84190949  0.69334983  0.42326454  1
  P  P16  1  0.49979095  0.01103886  0.65082729  1
  P  P17  1  0.50020905  0.98896114  0.15082729  1
  P  P18  1  0.84401537  0.67959352  0.93677848  1
  P  P19  1  0.15809051  0.30665017  0.92326454  1
  O  O20  1  0.25152458  0.96986476  0.63272259  1
  O  O21  1  0.73781417  0.82117668  0.97232842  1
  O  O22  1  0.74172933  0.55985142  0.52259818  1
  O  O23  1  0.73161381  0.83719575  0.40478209  1
  O  O24  1  0.26218583  0.17882332  0.47232842  1
  O  O25  1  0.91002055  0.16135655  0.94825816  1
  O  O26  1  0.75386333  0.59754249  0.82036096  1
  O  O27  1  0.07064368  0.00755351  0.07554808  1
  O  O28  1  0.25827067  0.44014858  0.02259818  1
  O  O29  1  0.74847542  0.03013524  0.13272259  1
  O  O30  1  0.80795536  0.53291660  0.02897199  1
  O  O31  1  0.83500863  0.59444854  0.31066757  1
  O  O32  1  0.16499137  0.40555146  0.81066757  1
  O  O33  1  0.48914967  0.14665096  0.22306498  1
  O  O34  1  0.19204464  0.46708340  0.52897199  1
  O  O35  1  0.92935632  0.99244649  0.57554808  1
  O  O36  1  0.51085033  0.85334904  0.72306498  1
  O  O37  1  0.24613667  0.40245751  0.32036096  1
  O  O38  1  0.42156397  0.00283598  0.02306821  1
  O  O39  1  0.90456415  0.18190452  0.41808198  1
  O  O40  1  0.26838619  0.16280425  0.90478209  1
  O  O41  1  0.37190758  0.78954396  0.19614770  1
  O  O42  1  0.62809242  0.21045604  0.69614770  1
  O  O43  1  0.57843603  0.99716402  0.52306821  1
  O  O44  1  0.08997945  0.83864345  0.44825816  1
  O  O45  1  0.09543585  0.81809548  0.91808198  1
