# generated using pymatgen
data_BCl(OF2)2
_symmetry_space_group_name_H-M   'P 1'
_cell_length_a   5.21360318
_cell_length_b   5.21360285
_cell_length_c   9.76561669
_cell_angle_alpha   96.46073191
_cell_angle_beta   96.46073197
_cell_angle_gamma   115.93930950
_symmetry_Int_Tables_number   1
_chemical_formula_structural   BCl(OF2)2
_chemical_formula_sum   'B2 Cl2 O4 F8'
_cell_volume   233.27004047
_cell_formula_units_Z   2
loop_
 _symmetry_equiv_pos_site_id
 _symmetry_equiv_pos_as_xyz
  1  'x, y, z'
loop_
 _atom_site_type_symbol
 _atom_site_label
 _atom_site_symmetry_multiplicity
 _atom_site_fract_x
 _atom_site_fract_y
 _atom_site_fract_z
 _atom_site_occupancy
  B  B0  1  0.58066325  0.44237181  0.48248343  1
  B  B1  1  0.44237181  0.58066325  0.98248343  1
  Cl  Cl2  1  0.92842659  0.06744363  0.24920539  1
  Cl  Cl3  1  0.06744363  0.92842659  0.74920539  1
  O  O4  1  0.27526873  0.88305876  0.68034686  1
  O  O5  1  0.11675802  0.96092056  0.19943086  1
  O  O6  1  0.96092056  0.11675802  0.69943086  1
  O  O7  1  0.88305876  0.27526873  0.18034686  1
  F  F8  1  0.63747314  0.49308089  0.63428598  1
  F  F9  1  0.49308089  0.63747314  0.13428598  1
  F  F10  1  0.29552381  0.41723535  0.44023335  1
  F  F11  1  0.58653634  0.18550010  0.43034674  1
  F  F12  1  0.68167998  0.78805902  0.93836738  1
  F  F13  1  0.78805902  0.68167998  0.43836738  1
  F  F14  1  0.41723535  0.29552381  0.94023335  1
  F  F15  1  0.18550010  0.58653634  0.93034674  1
