# generated using pymatgen
data_K2Ag4Pt3(NO2)12
_symmetry_space_group_name_H-M   'P 1'
_cell_length_a   7.28633229
_cell_length_b   7.85298965
_cell_length_c   24.14078636
_cell_angle_alpha   90.00000000
_cell_angle_beta   90.00000000
_cell_angle_gamma   99.13537333
_symmetry_Int_Tables_number   1
_chemical_formula_structural   K2Ag4Pt3(NO2)12
_chemical_formula_sum   'K4 Ag8 Pt6 N24 O48'
_cell_volume   1363.80278994
_cell_formula_units_Z   2
loop_
 _symmetry_equiv_pos_site_id
 _symmetry_equiv_pos_as_xyz
  1  'x, y, z'
loop_
 _atom_site_type_symbol
 _atom_site_label
 _atom_site_symmetry_multiplicity
 _atom_site_fract_x
 _atom_site_fract_y
 _atom_site_fract_z
 _atom_site_occupancy
  K  K0  1  0.39542742  0.06423035  0.36596210  1
  K  K1  1  0.89542742  0.56423035  0.13403790  1
  K  K2  1  0.60457258  0.93576965  0.63403790  1
  K  K3  1  0.10457258  0.43576965  0.86596210  1
  Ag  Ag4  1  0.37195807  0.60600773  0.47383883  1
  Ag  Ag5  1  0.38959101  0.81623858  0.18263709  1
  Ag  Ag6  1  0.62804193  0.39399227  0.52616117  1
  Ag  Ag7  1  0.11040899  0.68376142  0.68263709  1
  Ag  Ag8  1  0.88959101  0.31623858  0.31736291  1
  Ag  Ag9  1  0.61040899  0.18376142  0.81736291  1
  Ag  Ag10  1  0.12804193  0.89399227  0.97383883  1
  Ag  Ag11  1  0.87195807  0.10600773  0.02616117  1
  Pt  Pt12  1  0.11482221  0.29293578  0.67602130  1
  Pt  Pt13  1  0.50000000  0.50000000  0.00000000  1
  Pt  Pt14  1  0.38517779  0.20706422  0.17602130  1
  Pt  Pt15  1  0.88517779  0.70706422  0.32397870  1
  Pt  Pt16  1  0.00000000  0.00000000  0.50000000  1
  Pt  Pt17  1  0.61482221  0.79293578  0.82397870  1
  N  N18  1  0.29335192  0.22101872  0.73350011  1
  N  N19  1  0.20664808  0.27898128  0.23350011  1
  N  N20  1  0.33474398  0.35768425  0.62269607  1
  N  N21  1  0.89863437  0.23146322  0.72951694  1
  N  N22  1  0.39863437  0.73146322  0.77048306  1
  N  N23  1  0.93182123  0.35569007  0.61705213  1
  N  N24  1  0.88276387  0.09597307  0.43197954  1
  N  N25  1  0.43182123  0.85569007  0.88294787  1
  N  N26  1  0.61723613  0.40402693  0.93197954  1
  N  N27  1  0.38276387  0.59597307  0.06802046  1
  N  N28  1  0.66525602  0.64231575  0.37730393  1
  N  N29  1  0.29805146  0.28664672  0.99477480  1
  N  N30  1  0.70664808  0.77898128  0.26649989  1
  N  N31  1  0.06817877  0.64430993  0.38294787  1
  N  N32  1  0.20194854  0.21335328  0.49477480  1
  N  N33  1  0.83474398  0.85768425  0.87730393  1
  N  N34  1  0.79805146  0.78664672  0.50522520  1
  N  N35  1  0.11723613  0.90402693  0.56802046  1
  N  N36  1  0.16525602  0.14231575  0.12269607  1
  N  N37  1  0.79335192  0.72101872  0.76649989  1
  N  N38  1  0.10136563  0.76853678  0.27048306  1
  N  N39  1  0.56817877  0.14430993  0.11705213  1
  N  N40  1  0.70194854  0.71335328  0.00522520  1
  N  N41  1  0.60136563  0.26853678  0.22951694  1
  O  O42  1  0.13877592  0.30142663  0.97776124  1
  O  O43  1  0.83242963  0.24222079  0.58926567  1
  O  O44  1  0.08176017  0.48881463  0.39020780  1
  O  O45  1  0.58176017  0.98881463  0.10979220  1
  O  O46  1  0.33242963  0.74222079  0.91073433  1
  O  O47  1  0.84417964  0.57842597  0.77224390  1
  O  O48  1  0.91823983  0.51118537  0.60979220  1
  O  O49  1  0.16393718  0.35847334  0.50769059  1
  O  O50  1  0.66393718  0.85847334  0.99230941  1
  O  O51  1  0.22989790  0.64650794  0.06481896  1
  O  O52  1  0.08723890  0.25979378  0.10245505  1
  O  O53  1  0.86122408  0.69857337  0.02223876  1
  O  O54  1  0.42649125  0.72601584  0.71910633  1
  O  O55  1  0.73592436  0.20252014  0.71191538  1
  O  O56  1  0.76407564  0.29747986  0.21191538  1
  O  O57  1  0.34417964  0.07842597  0.72775610  1
  O  O58  1  0.27010210  0.85349206  0.56481896  1
  O  O59  1  0.16757037  0.75777921  0.41073433  1
  O  O60  1  0.57350875  0.27398416  0.28089367  1
  O  O61  1  0.41823983  0.01118537  0.89020780  1
  O  O62  1  0.36122408  0.19857337  0.47776124  1
  O  O63  1  0.58723890  0.75979378  0.39754495  1
  O  O64  1  0.02756839  0.89320090  0.61278654  1
  O  O65  1  0.72989790  0.14650794  0.43518104  1
  O  O66  1  0.07350875  0.77398416  0.21910633  1
  O  O67  1  0.84925661  0.81688758  0.72639582  1
  O  O68  1  0.92649125  0.22601584  0.78089367  1
  O  O69  1  0.11358841  0.98927795  0.10939752  1
  O  O70  1  0.41276110  0.24020622  0.60245505  1
  O  O71  1  0.66757037  0.25777921  0.08926567  1
  O  O72  1  0.91276110  0.74020622  0.89754495  1
  O  O73  1  0.23592436  0.70252014  0.78808462  1
  O  O74  1  0.33606282  0.14152666  0.00769059  1
  O  O75  1  0.88641159  0.01072205  0.89060248  1
  O  O76  1  0.65074339  0.68311242  0.22639582  1
  O  O77  1  0.34925661  0.31688758  0.77360418  1
  O  O78  1  0.77010210  0.35349206  0.93518104  1
  O  O79  1  0.47243161  0.60679910  0.11278654  1
  O  O80  1  0.38641159  0.51072205  0.60939752  1
  O  O81  1  0.97243161  0.10679910  0.38721346  1
  O  O82  1  0.15582036  0.42157403  0.22775610  1
  O  O83  1  0.52756839  0.39320090  0.88721346  1
  O  O84  1  0.26407564  0.79747986  0.28808462  1
  O  O85  1  0.63877592  0.80142663  0.52223876  1
  O  O86  1  0.65582036  0.92157403  0.27224390  1
  O  O87  1  0.83606282  0.64152666  0.49230941  1
  O  O88  1  0.15074339  0.18311242  0.27360418  1
  O  O89  1  0.61358841  0.48927795  0.39060248  1
