# generated using pymatgen
data_CuAsPbO4
_symmetry_space_group_name_H-M   'P 1'
_cell_length_a   4.94053809
_cell_length_b   5.93944544
_cell_length_c   8.11102446
_cell_angle_alpha   78.38046163
_cell_angle_beta   75.35589086
_cell_angle_gamma   84.33664108
_symmetry_Int_Tables_number   1
_chemical_formula_structural   CuAsPbO4
_chemical_formula_sum   'Cu2 As2 Pb2 O8'
_cell_volume   225.27270454
_cell_formula_units_Z   2
loop_
 _symmetry_equiv_pos_site_id
 _symmetry_equiv_pos_as_xyz
  1  'x, y, z'
loop_
 _atom_site_type_symbol
 _atom_site_label
 _atom_site_symmetry_multiplicity
 _atom_site_fract_x
 _atom_site_fract_y
 _atom_site_fract_z
 _atom_site_occupancy
  Cu  Cu0  1  0.37324795  0.80845646  0.99439568  1
  Cu  Cu1  1  0.62675205  0.19154354  0.00560432  1
  As  As2  1  0.57644803  0.79912360  0.31245856  1
  As  As3  1  0.42355197  0.20087640  0.68754144  1
  Pb  Pb4  1  0.06324910  0.28966057  0.32321253  1
  Pb  Pb5  1  0.93675090  0.71033943  0.67678747  1
  O  O6  1  0.76885309  0.03316835  0.18943400  1
  O  O7  1  0.23114691  0.96683165  0.81056600  1
  O  O8  1  0.22459703  0.37432697  0.56231422  1
  O  O9  1  0.49353034  0.36928599  0.82387025  1
  O  O10  1  0.72904731  0.09284465  0.56524604  1
  O  O11  1  0.27095269  0.90715535  0.43475396  1
  O  O12  1  0.77540297  0.62567303  0.43768578  1
  O  O13  1  0.50646966  0.63071401  0.17612975  1
