# generated using pymatgen
data_V5W3O20
_symmetry_space_group_name_H-M   'P 1'
_cell_length_a   4.11790835
_cell_length_b   7.56516720
_cell_length_c   12.82852122
_cell_angle_alpha   72.77484740
_cell_angle_beta   90.68363496
_cell_angle_gamma   89.93567572
_symmetry_Int_Tables_number   1
_chemical_formula_structural   V5W3O20
_chemical_formula_sum   'V5 W3 O20'
_cell_volume   381.68633110
_cell_formula_units_Z   1
loop_
 _symmetry_equiv_pos_site_id
 _symmetry_equiv_pos_as_xyz
  1  'x, y, z'
loop_
 _atom_site_type_symbol
 _atom_site_label
 _atom_site_symmetry_multiplicity
 _atom_site_fract_x
 _atom_site_fract_y
 _atom_site_fract_z
 _atom_site_occupancy
  V  V0  1  0.90470520  0.82846905  0.34505844  1
  V  V1  1  0.08589753  0.17342962  0.66137006  1
  V  V2  1  0.10297768  0.17433218  0.15083922  1
  V  V3  1  0.90661569  0.32148412  0.85868675  1
  V  V4  1  0.89077660  0.82900020  0.84206470  1
  W  W5  1  0.92769778  0.31936918  0.35690599  1
  W  W6  1  0.07448891  0.67383057  0.64828286  1
  W  W7  1  0.08782713  0.67970635  0.14361135  1
  O  O8  1  0.00409399  0.41343582  0.18310466  1
  O  O9  1  0.99081561  0.58504360  0.81419189  1
  O  O10  1  0.00040243  0.10093377  0.81196123  1
  O  O11  1  0.00442698  0.90293685  0.18262715  1
  O  O12  1  0.50977156  0.82297423  0.35635179  1
  O  O13  1  0.47542038  0.17443830  0.64838688  1
  O  O14  1  0.98708794  0.24414048  0.50517941  1
  O  O15  1  0.00319756  0.75094766  0.50257380  1
  O  O16  1  0.51984091  0.67236535  0.15348965  1
  O  O17  1  0.50011938  0.17308230  0.14791725  1
  O  O18  1  0.51039310  0.32219618  0.84700916  1
  O  O19  1  0.49530216  0.83022159  0.85251459  1
  O  O20  1  0.01400977  0.74935818  0.99910253  1
  O  O21  1  0.99138486  0.25160967  0.99559954  1
  O  O22  1  0.01192963  0.58402968  0.31989665  1
  O  O23  1  0.01153969  0.09744451  0.31859824  1
  O  O24  1  0.99635624  0.41104446  0.67183388  1
  O  O25  1  0.99080279  0.91266354  0.67897293  1
  O  O26  1  0.49679852  0.32709018  0.34851185  1
  O  O27  1  0.50531996  0.67442239  0.65535755  1
