# generated using pymatgen
data_NaLa(SO4)2
_symmetry_space_group_name_H-M   'P 1'
_cell_length_a   6.49764339
_cell_length_b   6.84179354
_cell_length_c   7.16575520
_cell_angle_alpha   86.52723269
_cell_angle_beta   88.87799716
_cell_angle_gamma   78.21156768
_symmetry_Int_Tables_number   1
_chemical_formula_structural   NaLa(SO4)2
_chemical_formula_sum   'Na2 La2 S4 O16'
_cell_volume   311.25757861
_cell_formula_units_Z   2
loop_
 _symmetry_equiv_pos_site_id
 _symmetry_equiv_pos_as_xyz
  1  'x, y, z'
loop_
 _atom_site_type_symbol
 _atom_site_label
 _atom_site_symmetry_multiplicity
 _atom_site_fract_x
 _atom_site_fract_y
 _atom_site_fract_z
 _atom_site_occupancy
  Na  Na0  1  0.42251991  0.78116158  0.34548711  1
  Na  Na1  1  0.57748009  0.21883842  0.65451289  1
  La  La2  1  0.11923186  0.72983512  0.82310264  1
  La  La3  1  0.88076814  0.27016488  0.17689736  1
  S  S4  1  0.90156066  0.79576213  0.32162435  1
  S  S5  1  0.62003261  0.70382884  0.83751826  1
  S  S6  1  0.09843934  0.20423787  0.67837565  1
  S  S7  1  0.37996739  0.29617116  0.16248174  1
  O  O8  1  0.06394072  0.74539015  0.46969105  1
  O  O9  1  0.19779841  0.37666267  0.70455486  1
  O  O10  1  0.80105137  0.54438242  0.90929580  1
  O  O11  1  0.73677338  0.97275285  0.36453039  1
  O  O12  1  0.93605928  0.25460985  0.53030895  1
  O  O13  1  0.50863916  0.62768016  0.68588857  1
  O  O14  1  0.26322662  0.02724715  0.63546961  1
  O  O15  1  0.19894863  0.45561758  0.09070420  1
  O  O16  1  0.46060551  0.76153392  0.98677256  1
  O  O17  1  0.00649100  0.85866714  0.14422566  1
  O  O18  1  0.80220159  0.62333733  0.29544514  1
  O  O19  1  0.27962350  0.12851071  0.23043765  1
  O  O20  1  0.99350900  0.14133286  0.85577434  1
  O  O21  1  0.49136084  0.37231984  0.31411143  1
  O  O22  1  0.53939449  0.23846608  0.01322744  1
  O  O23  1  0.72037650  0.87148929  0.76956235  1
