# generated using pymatgen
data_CaGaBO4
_symmetry_space_group_name_H-M   'P 1'
_cell_length_a   5.90388177
_cell_length_b   8.49038261
_cell_length_c   8.84907370
_cell_angle_alpha   118.66795563
_cell_angle_beta   90.00000000
_cell_angle_gamma   90.00000000
_symmetry_Int_Tables_number   1
_chemical_formula_structural   CaGaBO4
_chemical_formula_sum   'Ca4 Ga4 B4 O16'
_cell_volume   389.19529821
_cell_formula_units_Z   4
loop_
 _symmetry_equiv_pos_site_id
 _symmetry_equiv_pos_as_xyz
  1  'x, y, z'
loop_
 _atom_site_type_symbol
 _atom_site_label
 _atom_site_symmetry_multiplicity
 _atom_site_fract_x
 _atom_site_fract_y
 _atom_site_fract_z
 _atom_site_occupancy
  Ca  Ca0  1  0.89767162  0.45202401  0.18413466  1
  Ca  Ca1  1  0.39767162  0.73211065  0.18413466  1
  Ca  Ca2  1  0.89767162  0.54797599  0.81586534  1
  Ca  Ca3  1  0.39767162  0.26788935  0.81586534  1
  Ga  Ga4  1  0.62550491  0.21681952  0.40365287  1
  Ga  Ga5  1  0.12550491  0.81316665  0.59634713  1
  Ga  Ga6  1  0.12550491  0.18683335  0.40365287  1
  Ga  Ga7  1  0.62550491  0.78318048  0.59634713  1
  B  B8  1  0.86019351  0.86595605  0.21168332  1
  B  B9  1  0.36019351  0.34572727  0.21168332  1
  B  B10  1  0.86019351  0.13404395  0.78831668  1
  B  B11  1  0.36019351  0.65427273  0.78831668  1
  O  O12  1  0.16506023  0.28411140  0.25470229  1
  O  O13  1  0.32885117  0.42986937  0.11405085  1
  O  O14  1  0.87964037  0.69480037  0.46377217  1
  O  O15  1  0.82885117  0.31581851  0.88594915  1
  O  O16  1  0.32885117  0.57013063  0.88594915  1
  O  O17  1  0.07707819  0.93822041  0.26143956  1
  O  O18  1  0.37964037  0.76897180  0.46377217  1
  O  O19  1  0.37964037  0.23102820  0.53622783  1
  O  O20  1  0.57707819  0.32321915  0.26143956  1
  O  O21  1  0.66506023  0.97059089  0.25470229  1
  O  O22  1  0.07707819  0.06177959  0.73856044  1
  O  O23  1  0.87964037  0.30519963  0.53622783  1
  O  O24  1  0.66506023  0.02940911  0.74529771  1
  O  O25  1  0.16506023  0.71588860  0.74529771  1
  O  O26  1  0.82885117  0.68418149  0.11405085  1
  O  O27  1  0.57707819  0.67678085  0.73856044  1
