# generated using pymatgen
data_Cs3U2Ge2O11
_symmetry_space_group_name_H-M   'P 1'
_cell_length_a   7.20347340
_cell_length_b   12.76625904
_cell_length_c   15.80267096
_cell_angle_alpha   90.00000000
_cell_angle_beta   101.23246433
_cell_angle_gamma   90.00000000
_symmetry_Int_Tables_number   1
_chemical_formula_structural   Cs3U2Ge2O11
_chemical_formula_sum   'Cs12 U8 Ge8 O44'
_cell_volume   1425.39904675
_cell_formula_units_Z   4
loop_
 _symmetry_equiv_pos_site_id
 _symmetry_equiv_pos_as_xyz
  1  'x, y, z'
loop_
 _atom_site_type_symbol
 _atom_site_label
 _atom_site_symmetry_multiplicity
 _atom_site_fract_x
 _atom_site_fract_y
 _atom_site_fract_z
 _atom_site_occupancy
  Cs  Cs0  1  0.91849981  0.17304536  0.92507351  1
  Cs  Cs1  1  0.07695265  0.84554540  0.59103775  1
  Cs  Cs2  1  0.57695265  0.65445460  0.09103775  1
  Cs  Cs3  1  0.08150019  0.82695464  0.07492649  1
  Cs  Cs4  1  0.41849981  0.32695464  0.42507351  1
  Cs  Cs5  1  0.61095468  0.35075784  0.16574730  1
  Cs  Cs6  1  0.11095468  0.14924216  0.66574730  1
  Cs  Cs7  1  0.58150019  0.67304536  0.57492649  1
  Cs  Cs8  1  0.88904532  0.85075784  0.33425270  1
  Cs  Cs9  1  0.42304735  0.34554540  0.90896225  1
  Cs  Cs10  1  0.38904532  0.64924216  0.83425270  1
  Cs  Cs11  1  0.92304735  0.15445460  0.40896225  1
  U  U12  1  0.39259259  0.05477114  0.24081659  1
  U  U13  1  0.89259259  0.44522886  0.74081659  1
  U  U14  1  0.60740741  0.94522886  0.75918341  1
  U  U15  1  0.10740741  0.55477114  0.25918341  1
  U  U16  1  0.00000000  0.50000000  0.00000000  1
  U  U17  1  0.00000000  0.50000000  0.50000000  1
  U  U18  1  0.50000000  0.00000000  0.50000000  1
  U  U19  1  0.50000000  0.00000000  0.00000000  1
  Ge  Ge20  1  0.37125606  0.42262405  0.67410681  1
  Ge  Ge21  1  0.38770000  0.79190620  0.33856149  1
  Ge  Ge22  1  0.62874394  0.57737595  0.32589319  1
  Ge  Ge23  1  0.11230000  0.29190620  0.16143851  1
  Ge  Ge24  1  0.61230000  0.20809380  0.66143851  1
  Ge  Ge25  1  0.87125606  0.07737595  0.17410681  1
  Ge  Ge26  1  0.12874394  0.92262405  0.82589319  1
  Ge  Ge27  1  0.88770000  0.70809380  0.83856149  1
  O  O28  1  0.85351891  0.47706535  0.61352729  1
  O  O29  1  0.73810072  0.95500980  0.48096004  1
  O  O30  1  0.53192468  0.14491654  0.99369679  1
  O  O31  1  0.81119122  0.27836002  0.71654284  1
  O  O32  1  0.14648109  0.52293465  0.38647271  1
  O  O33  1  0.91742928  0.97039388  0.76039328  1
  O  O34  1  0.26189928  0.04499020  0.51903996  1
  O  O35  1  0.64849985  0.14574415  0.56603308  1
  O  O36  1  0.28337171  0.51066066  0.59014890  1
  O  O37  1  0.35150015  0.85425585  0.43396692  1
  O  O38  1  0.31119122  0.22163998  0.21654284  1
  O  O39  1  0.18880878  0.72163998  0.28345716  1
  O  O40  1  0.58188377  0.70188341  0.37186150  1
  O  O41  1  0.30370709  0.90320400  0.76197641  1
  O  O42  1  0.19629291  0.40320400  0.73802359  1
  O  O43  1  0.08188377  0.79811659  0.87186150  1
  O  O44  1  0.05012980  0.58379574  0.12893981  1
  O  O45  1  0.96807532  0.64491654  0.50630321  1
  O  O46  1  0.68880878  0.77836002  0.78345716  1
  O  O47  1  0.58257072  0.47039388  0.73960672  1
  O  O48  1  0.08257072  0.02960612  0.23960672  1
  O  O49  1  0.76189928  0.45500980  0.01903996  1
  O  O50  1  0.03192468  0.35508346  0.49369679  1
  O  O51  1  0.69629291  0.09679600  0.23802359  1
  O  O52  1  0.94987020  0.41620426  0.87106019  1
  O  O53  1  0.78337171  0.98933934  0.09014890  1
  O  O54  1  0.85150015  0.64574415  0.93396692  1
  O  O55  1  0.41811623  0.29811659  0.62813850  1
  O  O56  1  0.14849985  0.35425585  0.06603308  1
  O  O57  1  0.64648109  0.97706535  0.88647271  1
  O  O58  1  0.35351891  0.02293465  0.11352729  1
  O  O59  1  0.54600714  0.11454086  0.73301673  1
  O  O60  1  0.46807532  0.85508346  0.00630321  1
  O  O61  1  0.91811623  0.20188341  0.12813850  1
  O  O62  1  0.23810072  0.54499020  0.98096004  1
  O  O63  1  0.45399286  0.88545914  0.26698327  1
  O  O64  1  0.21662829  0.01066066  0.90985110  1
  O  O65  1  0.44987020  0.08379574  0.37106019  1
  O  O66  1  0.41742928  0.52960612  0.26039328  1
  O  O67  1  0.95399286  0.61454086  0.76698327  1
  O  O68  1  0.71662829  0.48933934  0.40985110  1
  O  O69  1  0.80370709  0.59679600  0.26197641  1
  O  O70  1  0.04600714  0.38545914  0.23301673  1
  O  O71  1  0.55012980  0.91620426  0.62893981  1
