# generated using pymatgen
data_Na2TiS2O
_symmetry_space_group_name_H-M   'P 1'
_cell_length_a   5.79476928
_cell_length_b   6.92986732
_cell_length_c   13.72007434
_cell_angle_alpha   90.00000000
_cell_angle_beta   90.00000000
_cell_angle_gamma   113.27521046
_symmetry_Int_Tables_number   1
_chemical_formula_structural   Na2TiS2O
_chemical_formula_sum   'Na8 Ti4 S8 O4'
_cell_volume   506.11850344
_cell_formula_units_Z   4
loop_
 _symmetry_equiv_pos_site_id
 _symmetry_equiv_pos_as_xyz
  1  'x, y, z'
loop_
 _atom_site_type_symbol
 _atom_site_label
 _atom_site_symmetry_multiplicity
 _atom_site_fract_x
 _atom_site_fract_y
 _atom_site_fract_z
 _atom_site_occupancy
  Na  Na0  1  0.54472990  0.60389990  0.63948666  1
  Na  Na1  1  0.64791342  0.78611745  0.05782225  1
  Na  Na2  1  0.04472990  0.60389990  0.86051334  1
  Na  Na3  1  0.85208658  0.21388255  0.55782225  1
  Na  Na4  1  0.14791342  0.78611745  0.44217775  1
  Na  Na5  1  0.95527010  0.39610010  0.13948666  1
  Na  Na6  1  0.35208658  0.21388255  0.94217775  1
  Na  Na7  1  0.45527010  0.39610010  0.36051334  1
  Ti  Ti8  1  0.16256084  0.97861340  0.68292912  1
  Ti  Ti9  1  0.83743916  0.02138660  0.31707088  1
  Ti  Ti10  1  0.66256084  0.97861340  0.81707088  1
  Ti  Ti11  1  0.33743916  0.02138660  0.18292912  1
  S  S12  1  0.64782610  0.80840264  0.44169096  1
  S  S13  1  0.05883344  0.63961692  0.64297854  1
  S  S14  1  0.44116656  0.36038308  0.14297854  1
  S  S15  1  0.14782610  0.80840264  0.05830904  1
  S  S16  1  0.94116656  0.36038308  0.35702146  1
  S  S17  1  0.55883344  0.63961692  0.85702146  1
  S  S18  1  0.35217390  0.19159736  0.55830904  1
  S  S19  1  0.85217390  0.19159736  0.94169096  1
  O  O20  1  0.13135171  0.97994397  0.29142507  1
  O  O21  1  0.36864829  0.02005603  0.79142507  1
  O  O22  1  0.63135171  0.97994397  0.20857493  1
  O  O23  1  0.86864829  0.02005603  0.70857493  1
