# generated using pymatgen
data_Cd2PO4F
_symmetry_space_group_name_H-M   'P 1'
_cell_length_a   6.81228041
_cell_length_b   7.85938602
_cell_length_c   9.88871782
_cell_angle_alpha   73.42073983
_cell_angle_beta   69.85195080
_cell_angle_gamma   64.31742337
_symmetry_Int_Tables_number   1
_chemical_formula_structural   Cd2PO4F
_chemical_formula_sum   'Cd8 P4 O16 F4'
_cell_volume   442.11201164
_cell_formula_units_Z   4
loop_
 _symmetry_equiv_pos_site_id
 _symmetry_equiv_pos_as_xyz
  1  'x, y, z'
loop_
 _atom_site_type_symbol
 _atom_site_label
 _atom_site_symmetry_multiplicity
 _atom_site_fract_x
 _atom_site_fract_y
 _atom_site_fract_z
 _atom_site_occupancy
  Cd  Cd0  1  0.25783434  0.02973368  0.65295103  1
  Cd  Cd1  1  0.05948095  0.52973368  0.15295103  1
  Cd  Cd2  1  0.20864082  0.61954354  0.48558673  1
  Cd  Cd3  1  0.68622890  0.11954354  0.98558673  1
  Cd  Cd4  1  0.79135918  0.38045646  0.51441327  1
  Cd  Cd5  1  0.74216566  0.97026632  0.34704897  1
  Cd  Cd6  1  0.31377110  0.88045646  0.01441327  1
  Cd  Cd7  1  0.94051905  0.47026632  0.84704897  1
  P  P8  1  0.23493754  0.04696700  0.30546220  1
  P  P9  1  0.41263326  0.54696700  0.80546220  1
  P  P10  1  0.58736674  0.45303300  0.19453780  1
  P  P11  1  0.76506246  0.95303300  0.69453780  1
  O  O12  1  0.38948226  0.97015420  0.41177929  1
  O  O13  1  0.77141575  0.52984580  0.08822071  1
  O  O14  1  0.35033237  0.75781485  0.81815221  1
  O  O15  1  0.07370056  0.25781485  0.31815221  1
  O  O16  1  0.22858425  0.47015420  0.91177929  1
  O  O17  1  0.62160456  0.96624618  0.85497100  1
  O  O18  1  0.64966763  0.24218515  0.18184779  1
  O  O19  1  0.37839544  0.03375382  0.14502900  1
  O  O20  1  0.63899952  0.41692227  0.84819078  1
  O  O21  1  0.90411257  0.08307773  0.65180922  1
  O  O22  1  0.55717826  0.46624618  0.35497100  1
  O  O23  1  0.61051774  0.02984580  0.58822071  1
  O  O24  1  0.09588743  0.91692227  0.34819078  1
  O  O25  1  0.36100048  0.58307773  0.15180922  1
  O  O26  1  0.92629944  0.74218515  0.68184779  1
  O  O27  1  0.44282174  0.53375382  0.64502900  1
  F  F28  1  0.92919587  0.86351578  0.10890254  1
  F  F29  1  0.07080413  0.13648422  0.89109746  1
  F  F30  1  0.09838581  0.36351578  0.60890254  1
  F  F31  1  0.90161419  0.63648422  0.39109746  1
