# generated using pymatgen
data_KLaGeS4
_symmetry_space_group_name_H-M   'P 1'
_cell_length_a   6.71891293
_cell_length_b   6.74221376
_cell_length_c   8.72688778
_cell_angle_alpha   90.00000000
_cell_angle_beta   107.58143351
_cell_angle_gamma   90.00000000
_symmetry_Int_Tables_number   1
_chemical_formula_structural   KLaGeS4
_chemical_formula_sum   'K2 La2 Ge2 S8'
_cell_volume   376.86457931
_cell_formula_units_Z   2
loop_
 _symmetry_equiv_pos_site_id
 _symmetry_equiv_pos_as_xyz
  1  'x, y, z'
loop_
 _atom_site_type_symbol
 _atom_site_label
 _atom_site_symmetry_multiplicity
 _atom_site_fract_x
 _atom_site_fract_y
 _atom_site_fract_z
 _atom_site_occupancy
  K  K0  1  0.72845279  0.51487371  0.93443837  1
  K  K1  1  0.27154721  0.01487371  0.06556163  1
  La  La2  1  0.23239005  0.99985809  0.55434817  1
  La  La3  1  0.76760995  0.49985809  0.44565183  1
  Ge  Ge4  1  0.21658077  0.52584037  0.31270912  1
  Ge  Ge5  1  0.78341923  0.02584037  0.68729088  1
  S  S6  1  0.01983815  0.27001936  0.73240980  1
  S  S7  1  0.41444867  0.52860793  0.15209730  1
  S  S8  1  0.98614658  0.75681661  0.72031503  1
  S  S9  1  0.40899821  0.56482393  0.57072368  1
  S  S10  1  0.58555133  0.02860793  0.84790270  1
  S  S11  1  0.01385342  0.25681661  0.27968497  1
  S  S12  1  0.98016185  0.77001936  0.26759020  1
  S  S13  1  0.59100179  0.06482393  0.42927632  1
