# generated using pymatgen
data_K5U2O4F9
_symmetry_space_group_name_H-M   'P 1'
_cell_length_a   6.25835966
_cell_length_b   10.47210016
_cell_length_c   11.71758230
_cell_angle_alpha   101.17930121
_cell_angle_beta   90.00000000
_cell_angle_gamma   107.38620939
_symmetry_Int_Tables_number   1
_chemical_formula_structural   K5U2O4F9
_chemical_formula_sum   'K10 U4 O8 F18'
_cell_volume   717.57930307
_cell_formula_units_Z   2
loop_
 _symmetry_equiv_pos_site_id
 _symmetry_equiv_pos_as_xyz
  1  'x, y, z'
loop_
 _atom_site_type_symbol
 _atom_site_label
 _atom_site_symmetry_multiplicity
 _atom_site_fract_x
 _atom_site_fract_y
 _atom_site_fract_z
 _atom_site_occupancy
  K  K0  1  0.06045245  0.63872341  0.86653489  1
  K  K1  1  0.72426887  0.95465053  0.08107093  1
  K  K2  1  0.27573113  0.04534947  0.91892907  1
  K  K3  1  0.93954755  0.36127659  0.13346511  1
  K  K4  1  0.57827095  0.63872341  0.36653489  1
  K  K5  1  0.76961834  0.04534947  0.41892907  1
  K  K6  1  0.50000000  0.50000000  0.00000000  1
  K  K7  1  0.23038166  0.95465053  0.58107093  1
  K  K8  1  0.42172905  0.36127659  0.63346511  1
  K  K9  1  0.00000000  0.50000000  0.50000000  1
  U  U10  1  0.14467845  0.77479555  0.21558440  1
  U  U11  1  0.85532155  0.22520445  0.78441560  1
  U  U12  1  0.63011709  0.77479555  0.71558440  1
  U  U13  1  0.36988291  0.22520445  0.28441560  1
  O  O14  1  0.62811928  0.28853404  0.85048902  1
  O  O15  1  0.66041475  0.28853404  0.35048902  1
  O  O16  1  0.33958525  0.71146596  0.64951098  1
  O  O17  1  0.91947583  0.84094478  0.28038712  1
  O  O18  1  0.37188072  0.71146596  0.14951098  1
  O  O19  1  0.92146895  0.84094478  0.78038712  1
  O  O20  1  0.08052417  0.15905522  0.71961288  1
  O  O21  1  0.07853105  0.15905522  0.21961288  1
  F  F22  1  0.58815591  0.00000000  0.75000000  1
  F  F23  1  0.89623235  0.13315647  0.93888778  1
  F  F24  1  0.52156159  0.18038255  0.11170947  1
  F  F25  1  0.09156368  0.39388027  0.91831848  1
  F  F26  1  0.41184409  0.00000000  0.25000000  1
  F  F27  1  0.99798438  0.59348529  0.30168632  1
  F  F28  1  0.30231659  0.39388027  0.41831848  1
  F  F29  1  0.69768341  0.60611973  0.58168152  1
  F  F30  1  0.76307588  0.86684353  0.56111222  1
  F  F31  1  0.23692412  0.13315647  0.43888778  1
  F  F32  1  0.65882096  0.18038255  0.61170947  1
  F  F33  1  0.34117904  0.81961745  0.38829053  1
  F  F34  1  0.00201562  0.40651471  0.69831368  1
  F  F35  1  0.90843632  0.60611973  0.08168152  1
  F  F36  1  0.47843841  0.81961745  0.88829053  1
  F  F37  1  0.10376765  0.86684353  0.06111222  1
  F  F38  1  0.40449908  0.40651471  0.19831368  1
  F  F39  1  0.59550092  0.59348529  0.80168632  1
