# generated using pymatgen
data_KAg(PO3)2
_symmetry_space_group_name_H-M   'P 1'
_cell_length_a   6.15351548
_cell_length_b   7.62290830
_cell_length_c   13.37399725
_cell_angle_alpha   90.00000000
_cell_angle_beta   90.00000000
_cell_angle_gamma   94.34826314
_symmetry_Int_Tables_number   1
_chemical_formula_structural   KAg(PO3)2
_chemical_formula_sum   'K4 Ag4 P8 O24'
_cell_volume   625.53750848
_cell_formula_units_Z   4
loop_
 _symmetry_equiv_pos_site_id
 _symmetry_equiv_pos_as_xyz
  1  'x, y, z'
loop_
 _atom_site_type_symbol
 _atom_site_label
 _atom_site_symmetry_multiplicity
 _atom_site_fract_x
 _atom_site_fract_y
 _atom_site_fract_z
 _atom_site_occupancy
  K  K0  1  0.70030218  0.76833464  0.33050552  1
  K  K1  1  0.70030218  0.26833464  0.16949448  1
  K  K2  1  0.29969782  0.23166536  0.66949448  1
  K  K3  1  0.29969782  0.73166536  0.83050552  1
  Ag  Ag4  1  0.81299116  0.19680830  0.47154315  1
  Ag  Ag5  1  0.18700884  0.80319170  0.52845685  1
  Ag  Ag6  1  0.81299116  0.69680830  0.02845685  1
  Ag  Ag7  1  0.18700884  0.30319170  0.97154315  1
  P  P8  1  0.15238476  0.00613143  0.17358438  1
  P  P9  1  0.84761524  0.49386857  0.67358438  1
  P  P10  1  0.15238476  0.50613143  0.32641562  1
  P  P11  1  0.31357068  0.65130989  0.13194771  1
  P  P12  1  0.68642932  0.84869011  0.63194771  1
  P  P13  1  0.68642932  0.34869011  0.86805229  1
  P  P14  1  0.31357068  0.15130989  0.36805229  1
  P  P15  1  0.84761524  0.99386857  0.82641562  1
  O  O16  1  0.67795722  0.14688025  0.82867394  1
  O  O17  1  0.67795722  0.64688025  0.67132606  1
  O  O18  1  0.53860551  0.09405523  0.34897020  1
  O  O19  1  0.46139449  0.40594477  0.84897020  1
  O  O20  1  0.86061259  0.45313220  0.79352853  1
  O  O21  1  0.53860551  0.59405523  0.15102980  1
  O  O22  1  0.73684251  0.83602249  0.87751876  1
  O  O23  1  0.92476847  0.93762396  0.14692068  1
  O  O24  1  0.13938741  0.54686780  0.20647147  1
  O  O25  1  0.73684251  0.33602249  0.62248124  1
  O  O26  1  0.21385869  0.13632997  0.47078768  1
  O  O27  1  0.32204278  0.35311975  0.32867394  1
  O  O28  1  0.46139449  0.90594477  0.65102980  1
  O  O29  1  0.86061259  0.95313220  0.70647147  1
  O  O30  1  0.26315749  0.66397751  0.37751876  1
  O  O31  1  0.32204278  0.85311975  0.17132606  1
  O  O32  1  0.78614131  0.86367003  0.52921232  1
  O  O33  1  0.13938741  0.04686780  0.29352853  1
  O  O34  1  0.92476847  0.43762396  0.35307932  1
  O  O35  1  0.78614131  0.36367003  0.97078768  1
  O  O36  1  0.07523153  0.56237604  0.64692068  1
  O  O37  1  0.26315749  0.16397751  0.12248124  1
  O  O38  1  0.07523153  0.06237604  0.85307932  1
  O  O39  1  0.21385869  0.63632997  0.02921232  1
