# generated using pymatgen
data_Zr(PO3)4
_symmetry_space_group_name_H-M   'P 1'
_cell_length_a   8.62274316
_cell_length_b   9.91866960
_cell_length_c   20.87080354
_cell_angle_alpha   90.00000000
_cell_angle_beta   90.00000000
_cell_angle_gamma   90.00000000
_symmetry_Int_Tables_number   1
_chemical_formula_structural   Zr(PO3)4
_chemical_formula_sum   'Zr8 P32 O96'
_cell_volume   1784.99927486
_cell_formula_units_Z   8
loop_
 _symmetry_equiv_pos_site_id
 _symmetry_equiv_pos_as_xyz
  1  'x, y, z'
loop_
 _atom_site_type_symbol
 _atom_site_label
 _atom_site_symmetry_multiplicity
 _atom_site_fract_x
 _atom_site_fract_y
 _atom_site_fract_z
 _atom_site_occupancy
  Zr  Zr0  1  0.99887297  0.01993204  0.11630567  1
  Zr  Zr1  1  0.49887297  0.98006796  0.88369433  1
  Zr  Zr2  1  0.49887297  0.01993204  0.38369433  1
  Zr  Zr3  1  0.49814580  0.48564154  0.13314371  1
  Zr  Zr4  1  0.99814580  0.48564154  0.36685629  1
  Zr  Zr5  1  0.49814580  0.51435846  0.63314371  1
  Zr  Zr6  1  0.99887297  0.98006796  0.61630567  1
  Zr  Zr7  1  0.99814580  0.51435846  0.86685629  1
  P  P8  1  0.26464916  0.98773911  0.73918482  1
  P  P9  1  0.77129358  0.50714088  0.01146047  1
  P  P10  1  0.11938538  0.51113877  0.20275139  1
  P  P11  1  0.38427846  0.63530782  0.87787586  1
  P  P12  1  0.62272538  0.00649018  0.54752348  1
  P  P13  1  0.38119072  0.14211629  0.12381054  1
  P  P14  1  0.12272538  0.00649018  0.95247652  1
  P  P15  1  0.26145897  0.76758940  0.16463975  1
  P  P16  1  0.76145897  0.23241060  0.83536025  1
  P  P17  1  0.26113881  0.26004534  0.90712339  1
  P  P18  1  0.76464916  0.98773911  0.76081518  1
  P  P19  1  0.61938538  0.48886123  0.79724861  1
  P  P20  1  0.26464916  0.01226089  0.23918482  1
  P  P21  1  0.76113881  0.26004534  0.59287661  1
  P  P22  1  0.11938538  0.48886123  0.70275139  1
  P  P23  1  0.26145897  0.23241060  0.66463975  1
  P  P24  1  0.26113881  0.73995466  0.40712339  1
  P  P25  1  0.88427846  0.36469218  0.12212414  1
  P  P26  1  0.62272538  0.99350982  0.04752348  1
  P  P27  1  0.76113881  0.73995466  0.09287661  1
  P  P28  1  0.38119072  0.85788371  0.62381054  1
  P  P29  1  0.76145897  0.76758940  0.33536025  1
  P  P30  1  0.27129358  0.49285912  0.98853953  1
  P  P31  1  0.27129358  0.50714088  0.48853953  1
  P  P32  1  0.12272538  0.99350982  0.45247652  1
  P  P33  1  0.88427846  0.63530782  0.62212414  1
  P  P34  1  0.76464916  0.01226089  0.26081518  1
  P  P35  1  0.77129358  0.49285912  0.51146047  1
  P  P36  1  0.88119072  0.85788371  0.87618946  1
  P  P37  1  0.38427846  0.36469218  0.37787586  1
  P  P38  1  0.88119072  0.14211629  0.37618946  1
  P  P39  1  0.61938538  0.51113877  0.29724861  1
  O  O40  1  0.32400453  0.86092148  0.22261837  1
  O  O41  1  0.26867025  0.44315856  0.18562053  1
  O  O42  1  0.76867025  0.44315856  0.31437947  1
  O  O43  1  0.49966802  0.02562976  0.10313602  1
  O  O44  1  0.87539022  0.11293370  0.30068127  1
  O  O45  1  0.60823143  0.51187923  0.53708640  1
  O  O46  1  0.88815180  0.82714017  0.11899059  1
  O  O47  1  0.04296782  0.48143024  0.26575725  1
  O  O48  1  0.60203465  0.02597097  0.28805201  1
  O  O49  1  0.76867025  0.55684144  0.81437947  1
  O  O50  1  0.49217609  0.51453678  0.85222143  1
  O  O51  1  0.88815180  0.17285983  0.61899059  1
  O  O52  1  0.72546774  0.11982116  0.40620683  1
  O  O53  1  0.63509325  0.67288911  0.30057176  1
  O  O54  1  0.88336417  0.40072694  0.04688590  1
  O  O55  1  0.39624712  0.31717537  0.64406238  1
  O  O56  1  0.82400453  0.86092148  0.27738163  1
  O  O57  1  0.38815180  0.82714017  0.38100941  1
  O  O58  1  0.22546774  0.88017884  0.59379317  1
  O  O59  1  0.54296782  0.51856976  0.73424275  1
  O  O60  1  0.80001866  0.50320984  0.44131427  1
  O  O61  1  0.22448291  0.37602375  0.35089289  1
  O  O62  1  0.04422647  0.98037044  0.01539335  1
  O  O63  1  0.45555976  0.72307182  0.61364838  1
  O  O64  1  0.72448291  0.62397625  0.64910711  1
  O  O65  1  0.10823143  0.48812077  0.46291360  1
  O  O66  1  0.54422647  0.01962956  0.98460665  1
  O  O67  1  0.37539022  0.11293370  0.19931873  1
  O  O68  1  0.30001866  0.50320984  0.05868573  1
  O  O69  1  0.88336417  0.59927306  0.54688590  1
  O  O70  1  0.79305442  0.96323133  0.69157308  1
  O  O71  1  0.79305442  0.03676867  0.19157308  1
  O  O72  1  0.10203465  0.97402903  0.71194799  1
  O  O73  1  0.83299279  0.65365947  0.03475482  1
  O  O74  1  0.49217609  0.48546322  0.35222143  1
  O  O75  1  0.95555976  0.72307182  0.88635162  1
  O  O76  1  0.18428643  0.14508273  0.61575423  1
  O  O77  1  0.68428643  0.85491727  0.38424577  1
  O  O78  1  0.27516185  0.06006291  0.43834893  1
  O  O79  1  0.27516185  0.93993709  0.93834893  1
  O  O80  1  0.13543373  0.16774863  0.94358487  1
  O  O81  1  0.63543373  0.83225137  0.05641513  1
  O  O82  1  0.77516185  0.06006291  0.06165107  1
  O  O83  1  0.29305442  0.03676867  0.30842692  1
  O  O84  1  0.13509325  0.67288911  0.19942824  1
  O  O85  1  0.54422647  0.98037044  0.48460665  1
  O  O86  1  0.46875351  0.76650903  0.87074065  1
  O  O87  1  0.63543373  0.16774863  0.55641513  1
  O  O88  1  0.96875351  0.76650903  0.62925935  1
  O  O89  1  0.39624712  0.68282463  0.14406238  1
  O  O90  1  0.63509325  0.32711089  0.80057176  1
  O  O91  1  0.72448291  0.37602375  0.14910711  1
  O  O92  1  0.96875351  0.23349097  0.12925935  1
  O  O93  1  0.99966802  0.97437024  0.89686398  1
  O  O94  1  0.22546774  0.11982116  0.09379317  1
  O  O95  1  0.89624712  0.68282463  0.35593762  1
  O  O96  1  0.60823143  0.48812077  0.03708640  1
  O  O97  1  0.18382314  0.64678183  0.36066554  1
  O  O98  1  0.77516185  0.93993709  0.56165107  1
  O  O99  1  0.80001866  0.49679016  0.94131427  1
  O  O100  1  0.13509325  0.32711089  0.69942824  1
  O  O101  1  0.18382314  0.35321817  0.86066554  1
  O  O102  1  0.10203465  0.02597097  0.21194799  1
  O  O103  1  0.45555976  0.27692818  0.11364838  1
  O  O104  1  0.13543373  0.83225137  0.44358487  1
  O  O105  1  0.33299279  0.34634053  0.96524518  1
  O  O106  1  0.87539022  0.88706630  0.80068127  1
  O  O107  1  0.54296782  0.48143024  0.23424275  1
  O  O108  1  0.04422647  0.01962956  0.51539335  1
  O  O109  1  0.38336417  0.40072694  0.45311410  1
  O  O110  1  0.72546774  0.88017884  0.90620683  1
  O  O111  1  0.99217609  0.48546322  0.14777857  1
  O  O112  1  0.37539022  0.88706630  0.69931873  1
  O  O113  1  0.60203465  0.97402903  0.78805201  1
  O  O114  1  0.10823143  0.51187923  0.96291360  1
  O  O115  1  0.22448291  0.62397625  0.85089289  1
  O  O116  1  0.32400453  0.13907852  0.72261837  1
  O  O117  1  0.30001866  0.49679016  0.55868573  1
  O  O118  1  0.26867025  0.55684144  0.68562053  1
  O  O119  1  0.95555976  0.27692818  0.38635162  1
  O  O120  1  0.68382314  0.35321817  0.63933446  1
  O  O121  1  0.46875351  0.23349097  0.37074065  1
  O  O122  1  0.38336417  0.59927306  0.95311410  1
  O  O123  1  0.04296782  0.51856976  0.76575725  1
  O  O124  1  0.89624712  0.31717537  0.85593762  1
  O  O125  1  0.83299279  0.34634053  0.53475482  1
  O  O126  1  0.49966802  0.97437024  0.60313602  1
  O  O127  1  0.82400453  0.13907852  0.77738163  1
  O  O128  1  0.99966802  0.02562976  0.39686398  1
  O  O129  1  0.33299279  0.65365947  0.46524518  1
  O  O130  1  0.68382314  0.64678183  0.13933446  1
  O  O131  1  0.38815180  0.17285983  0.88100941  1
  O  O132  1  0.99217609  0.51453678  0.64777857  1
  O  O133  1  0.29305442  0.96323133  0.80842692  1
  O  O134  1  0.18428643  0.85491727  0.11575423  1
  O  O135  1  0.68428643  0.14508273  0.88424577  1
