# generated using pymatgen
data_Rb3In(PO4)2
_symmetry_space_group_name_H-M   'P 1'
_cell_length_a   10.12234169
_cell_length_b   11.81031525
_cell_length_c   16.21549329
_cell_angle_alpha   90.00000000
_cell_angle_beta   90.38830147
_cell_angle_gamma   90.00000000
_symmetry_Int_Tables_number   1
_chemical_formula_structural   Rb3In(PO4)2
_chemical_formula_sum   'Rb24 In8 P16 O64'
_cell_volume   1938.48602616
_cell_formula_units_Z   8
loop_
 _symmetry_equiv_pos_site_id
 _symmetry_equiv_pos_as_xyz
  1  'x, y, z'
loop_
 _atom_site_type_symbol
 _atom_site_label
 _atom_site_symmetry_multiplicity
 _atom_site_fract_x
 _atom_site_fract_y
 _atom_site_fract_z
 _atom_site_occupancy
  Rb  Rb0  1  0.29620709  0.87860190  0.49147735  1
  Rb  Rb1  1  0.81432533  0.13648388  0.24282170  1
  Rb  Rb2  1  0.79620709  0.62139810  0.99147735  1
  Rb  Rb3  1  0.61290708  0.91555175  0.32835669  1
  Rb  Rb4  1  0.70379291  0.12139810  0.50852265  1
  Rb  Rb5  1  0.21065207  0.40017596  0.25422994  1
  Rb  Rb6  1  0.73781698  0.60559113  0.50031491  1
  Rb  Rb7  1  0.68567467  0.63648388  0.25717830  1
  Rb  Rb8  1  0.90178243  0.87848096  0.58257780  1
  Rb  Rb9  1  0.88709292  0.41555175  0.17164331  1
  Rb  Rb10  1  0.11290708  0.58444825  0.82835669  1
  Rb  Rb11  1  0.71065207  0.09982404  0.75422994  1
  Rb  Rb12  1  0.76218302  0.10559113  0.99968509  1
  Rb  Rb13  1  0.28934793  0.90017596  0.24577006  1
  Rb  Rb14  1  0.09821757  0.12151904  0.41742220  1
  Rb  Rb15  1  0.59821757  0.37848096  0.91742220  1
  Rb  Rb16  1  0.18567467  0.86351612  0.75717830  1
  Rb  Rb17  1  0.38709292  0.08444825  0.67164331  1
  Rb  Rb18  1  0.40178243  0.62151904  0.08257780  1
  Rb  Rb19  1  0.26218302  0.39440887  0.49968509  1
  Rb  Rb20  1  0.20379291  0.37860190  0.00852265  1
  Rb  Rb21  1  0.23781698  0.89440887  0.00031491  1
  Rb  Rb22  1  0.78934793  0.59982404  0.74577006  1
  Rb  Rb23  1  0.31432533  0.36351612  0.74282170  1
  In  In24  1  0.57754069  0.36856376  0.36847248  1
  In  In25  1  0.42245931  0.63143624  0.63152752  1
  In  In26  1  0.07331774  0.65251533  0.38587595  1
  In  In27  1  0.42668226  0.15251533  0.11412405  1
  In  In28  1  0.92668226  0.34748467  0.61412405  1
  In  In29  1  0.07754069  0.13143624  0.86847248  1
  In  In30  1  0.92245931  0.86856376  0.13152752  1
  In  In31  1  0.57331774  0.84748467  0.88587595  1
  P  P32  1  0.43476154  0.63814975  0.85478410  1
  P  P33  1  0.58107463  0.87865409  0.10145782  1
  P  P34  1  0.93476154  0.86185025  0.35478410  1
  P  P35  1  0.06523846  0.13814975  0.64521590  1
  P  P36  1  0.41892537  0.12134591  0.89854218  1
  P  P37  1  0.58529039  0.36579481  0.59430466  1
  P  P38  1  0.94417469  0.34157646  0.83720152  1
  P  P39  1  0.41470961  0.63420519  0.40569534  1
  P  P40  1  0.56523846  0.36185025  0.14521590  1
  P  P41  1  0.91892537  0.37865409  0.39854218  1
  P  P42  1  0.44417469  0.15842354  0.33720152  1
  P  P43  1  0.05582531  0.65842354  0.16279848  1
  P  P44  1  0.08107463  0.62134591  0.60145782  1
  P  P45  1  0.08529039  0.13420519  0.09430466  1
  P  P46  1  0.55582531  0.84157646  0.66279848  1
  P  P47  1  0.91470961  0.86579481  0.90569534  1
  O  O48  1  0.22858401  0.08883330  0.10965584  1
  O  O49  1  0.38944134  0.06573735  0.39386249  1
  O  O50  1  0.61942064  0.45515279  0.08836112  1
  O  O51  1  0.72249339  0.92747212  0.11971792  1
  O  O52  1  0.59718698  0.17956822  0.35297887  1
  O  O53  1  0.88057936  0.95515279  0.41163888  1
  O  O54  1  0.39639643  0.60530226  0.76446443  1
  O  O55  1  0.53588591  0.80011522  0.17119845  1
  O  O56  1  0.98819567  0.04096635  0.12621556  1
  O  O57  1  0.41171784  0.34430876  0.13434271  1
  O  O58  1  0.44003085  0.65199161  0.49982449  1
  O  O59  1  0.27141599  0.58883330  0.39034416  1
  O  O60  1  0.91171784  0.15569124  0.63434271  1
  O  O61  1  0.48561163  0.98125594  0.09297606  1
  O  O62  1  0.05996915  0.15199161  0.00017551  1
  O  O63  1  0.11055866  0.56573735  0.10613751  1
  O  O64  1  0.61861654  0.72183290  0.64544688  1
  O  O65  1  0.57659189  0.88063800  0.75369816  1
  O  O66  1  0.03588591  0.69988478  0.67119845  1
  O  O67  1  0.96411409  0.30011522  0.32880155  1
  O  O68  1  0.60360357  0.39469774  0.23553557  1
  O  O69  1  0.42340811  0.11936200  0.24630184  1
  O  O70  1  0.89639643  0.89469774  0.26446443  1
  O  O71  1  0.88138346  0.22183290  0.85455312  1
  O  O72  1  0.27750661  0.07252788  0.88028208  1
  O  O73  1  0.87501546  0.74172241  0.37680558  1
  O  O74  1  0.61055866  0.93426265  0.60613751  1
  O  O75  1  0.11942064  0.04484721  0.58836112  1
  O  O76  1  0.10360357  0.10530226  0.73553557  1
  O  O77  1  0.88944134  0.43426265  0.89386249  1
  O  O78  1  0.38138346  0.27816710  0.35455312  1
  O  O79  1  0.51180433  0.54096635  0.37378444  1
  O  O80  1  0.48819567  0.45903365  0.62621556  1
  O  O81  1  0.46411409  0.19988478  0.82880155  1
  O  O82  1  0.57844626  0.80937603  0.01865364  1
  O  O83  1  0.62498454  0.24172241  0.12319442  1
  O  O84  1  0.55996915  0.34800839  0.50017551  1
  O  O85  1  0.01180433  0.95903365  0.87378444  1
  O  O86  1  0.72858401  0.41116670  0.60965584  1
  O  O87  1  0.92155374  0.30937603  0.48134636  1
  O  O88  1  0.43998634  0.74567707  0.36057660  1
  O  O89  1  0.11861654  0.77816710  0.14544688  1
  O  O90  1  0.77141599  0.91116670  0.89034416  1
  O  O91  1  0.09718698  0.32043178  0.85297887  1
  O  O92  1  0.08828216  0.84430876  0.36565729  1
  O  O93  1  0.93998634  0.75432293  0.86057660  1
  O  O94  1  0.12498454  0.25827759  0.62319442  1
  O  O95  1  0.40281302  0.82043178  0.64702113  1
  O  O96  1  0.90281302  0.67956822  0.14702113  1
  O  O97  1  0.42155374  0.19062397  0.98134636  1
  O  O98  1  0.06001366  0.24567707  0.13942340  1
  O  O99  1  0.01438837  0.48125594  0.40702394  1
  O  O100  1  0.22249339  0.57252788  0.61971792  1
  O  O101  1  0.07659189  0.61936200  0.25369816  1
  O  O102  1  0.07844626  0.69062397  0.51865364  1
  O  O103  1  0.51438837  0.01874406  0.90702394  1
  O  O104  1  0.92340811  0.38063800  0.74630184  1
  O  O105  1  0.94003085  0.84800839  0.99982449  1
  O  O106  1  0.56001366  0.25432293  0.63942340  1
  O  O107  1  0.58828216  0.65569124  0.86565729  1
  O  O108  1  0.38057936  0.54484721  0.91163888  1
  O  O109  1  0.77750661  0.42747212  0.38028208  1
  O  O110  1  0.37501546  0.75827759  0.87680558  1
  O  O111  1  0.98561163  0.51874406  0.59297606  1
