# generated using pymatgen
data_Bi4Au2O9
_symmetry_space_group_name_H-M   'P 1'
_cell_length_a   6.01419550
_cell_length_b   8.94829046
_cell_length_c   35.01523787
_cell_angle_alpha   90.00000000
_cell_angle_beta   90.00000000
_cell_angle_gamma   90.00000000
_symmetry_Int_Tables_number   1
_chemical_formula_structural   Bi4Au2O9
_chemical_formula_sum   'Bi32 Au16 O72'
_cell_volume   1884.40694052
_cell_formula_units_Z   8
loop_
 _symmetry_equiv_pos_site_id
 _symmetry_equiv_pos_as_xyz
  1  'x, y, z'
loop_
 _atom_site_type_symbol
 _atom_site_label
 _atom_site_symmetry_multiplicity
 _atom_site_fract_x
 _atom_site_fract_y
 _atom_site_fract_z
 _atom_site_occupancy
  Bi  Bi0  1  0.22712209  0.61770821  0.72968379  1
  Bi  Bi1  1  0.27051934  0.89747618  0.65315924  1
  Bi  Bi2  1  0.72712209  0.88229179  0.72968379  1
  Bi  Bi3  1  0.27287791  0.61770821  0.22968379  1
  Bi  Bi4  1  0.77051934  0.60252382  0.65315924  1
  Bi  Bi5  1  0.77354998  0.57966132  0.89639776  1
  Bi  Bi6  1  0.24940238  0.07066150  0.52423823  1
  Bi  Bi7  1  0.25059762  0.57066150  0.47576177  1
  Bi  Bi8  1  0.72645002  0.07966132  0.10360224  1
  Bi  Bi9  1  0.22948066  0.89747618  0.15315924  1
  Bi  Bi10  1  0.25059762  0.07066150  0.02423823  1
  Bi  Bi11  1  0.77287791  0.38229179  0.27031621  1
  Bi  Bi12  1  0.72712209  0.38229179  0.77031621  1
  Bi  Bi13  1  0.27354998  0.42033868  0.60360224  1
  Bi  Bi14  1  0.72948066  0.60252382  0.15315924  1
  Bi  Bi15  1  0.74940238  0.92933850  0.97576177  1
  Bi  Bi16  1  0.22948066  0.39747618  0.34684076  1
  Bi  Bi17  1  0.27051934  0.39747618  0.84684076  1
  Bi  Bi18  1  0.77051934  0.10252382  0.84684076  1
  Bi  Bi19  1  0.75059762  0.92933850  0.47576177  1
  Bi  Bi20  1  0.27354998  0.92033868  0.89639776  1
  Bi  Bi21  1  0.75059762  0.42933850  0.02423823  1
  Bi  Bi22  1  0.22712209  0.11770821  0.77031621  1
  Bi  Bi23  1  0.72645002  0.57966132  0.39639776  1
  Bi  Bi24  1  0.77354998  0.07966132  0.60360224  1
  Bi  Bi25  1  0.72948066  0.10252382  0.34684076  1
  Bi  Bi26  1  0.22645002  0.92033868  0.39639776  1
  Bi  Bi27  1  0.22645002  0.42033868  0.10360224  1
  Bi  Bi28  1  0.27287791  0.11770821  0.27031621  1
  Bi  Bi29  1  0.77287791  0.88229179  0.22968379  1
  Bi  Bi30  1  0.74940238  0.42933850  0.52423823  1
  Bi  Bi31  1  0.24940238  0.57066150  0.97576177  1
  Au  Au32  1  0.06874981  0.74344450  0.31772217  1
  Au  Au33  1  0.06874981  0.24344450  0.18227783  1
  Au  Au34  1  0.93125019  0.25655550  0.68227783  1
  Au  Au35  1  0.56874981  0.75655550  0.31772217  1
  Au  Au36  1  0.90080056  0.75180252  0.06002055  1
  Au  Au37  1  0.40080056  0.74819748  0.06002055  1
  Au  Au38  1  0.56874981  0.25655550  0.18227783  1
  Au  Au39  1  0.59919944  0.25180252  0.93997945  1
  Au  Au40  1  0.43125019  0.24344450  0.68227783  1
  Au  Au41  1  0.43125019  0.74344450  0.81772217  1
  Au  Au42  1  0.90080056  0.25180252  0.43997945  1
  Au  Au43  1  0.93125019  0.75655550  0.81772217  1
  Au  Au44  1  0.40080056  0.24819748  0.43997945  1
  Au  Au45  1  0.09919944  0.24819748  0.93997945  1
  Au  Au46  1  0.59919944  0.75180252  0.56002055  1
  Au  Au47  1  0.09919944  0.74819748  0.56002055  1
  O  O48  1  0.41120308  0.54013111  0.03533908  1
  O  O49  1  0.36117917  0.64990834  0.11195153  1
  O  O50  1  0.47233627  0.76435935  0.19032767  1
  O  O51  1  0.90699832  0.64356248  0.00803627  1
  O  O52  1  0.02766373  0.76435935  0.69032767  1
  O  O53  1  0.61654091  0.54236158  0.58120750  1
  O  O54  1  0.40699832  0.85643752  0.00803627  1
  O  O55  1  0.90699832  0.14356248  0.49196373  1
  O  O56  1  0.94383739  0.34210133  0.62842435  1
  O  O57  1  0.52766373  0.73564065  0.69032767  1
  O  O58  1  0.43105763  0.45433443  0.65891336  1
  O  O59  1  0.13882083  0.64990834  0.61195153  1
  O  O60  1  0.61654091  0.04236158  0.91879250  1
  O  O61  1  0.40699832  0.35643752  0.49196373  1
  O  O62  1  0.05616261  0.15789867  0.12842435  1
  O  O63  1  0.63882083  0.35009166  0.88804847  1
  O  O64  1  0.40495399  0.82095484  0.76323638  1
  O  O65  1  0.63882083  0.85009166  0.61195153  1
  O  O66  1  0.41120308  0.04013111  0.46466092  1
  O  O67  1  0.59965303  0.96470612  0.29624622  1
  O  O68  1  0.90034697  0.46470612  0.70375378  1
  O  O69  1  0.93105763  0.54566557  0.84108664  1
  O  O70  1  0.56894237  0.54566557  0.34108664  1
  O  O71  1  0.97233627  0.23564065  0.30967233  1
  O  O72  1  0.43105763  0.95433443  0.84108664  1
  O  O73  1  0.09965303  0.53529388  0.29624622  1
  O  O74  1  0.40034697  0.03529388  0.70375378  1
  O  O75  1  0.09504601  0.82095484  0.26323638  1
  O  O76  1  0.56894237  0.04566557  0.15891336  1
  O  O77  1  0.52766373  0.23564065  0.80967233  1
  O  O78  1  0.55616261  0.84210133  0.37157565  1
  O  O79  1  0.88345909  0.54236158  0.08120750  1
  O  O80  1  0.11654091  0.95763842  0.58120750  1
  O  O81  1  0.09300168  0.85643752  0.50803627  1
  O  O82  1  0.58879692  0.95986889  0.53533908  1
  O  O83  1  0.06894237  0.45433443  0.15891336  1
  O  O84  1  0.44383739  0.65789867  0.87157565  1
  O  O85  1  0.90034697  0.96470612  0.79624622  1
  O  O86  1  0.08879692  0.04013111  0.96466092  1
  O  O87  1  0.13882083  0.14990834  0.88804847  1
  O  O88  1  0.40034697  0.53529388  0.79624622  1
  O  O89  1  0.08879692  0.54013111  0.53533908  1
  O  O90  1  0.59504601  0.67904516  0.26323638  1
  O  O91  1  0.02766373  0.26435935  0.80967233  1
  O  O92  1  0.59504601  0.17904516  0.23676362  1
  O  O93  1  0.09300168  0.35643752  0.99196373  1
  O  O94  1  0.59300168  0.14356248  0.99196373  1
  O  O95  1  0.86117917  0.85009166  0.11195153  1
  O  O96  1  0.88345909  0.04236158  0.41879250  1
  O  O97  1  0.38345909  0.45763842  0.41879250  1
  O  O98  1  0.47233627  0.26435935  0.30967233  1
  O  O99  1  0.97233627  0.73564065  0.19032767  1
  O  O100  1  0.55616261  0.34210133  0.12842435  1
  O  O101  1  0.58879692  0.45986889  0.96466092  1
  O  O102  1  0.91120308  0.95986889  0.03533908  1
  O  O103  1  0.06894237  0.95433443  0.34108664  1
  O  O104  1  0.59300168  0.64356248  0.50803627  1
  O  O105  1  0.93105763  0.04566557  0.65891336  1
  O  O106  1  0.36117917  0.14990834  0.38804847  1
  O  O107  1  0.90495399  0.67904516  0.76323638  1
  O  O108  1  0.09504601  0.32095484  0.23676362  1
  O  O109  1  0.05616261  0.65789867  0.37157565  1
  O  O110  1  0.40495399  0.32095484  0.73676362  1
  O  O111  1  0.86117917  0.35009166  0.38804847  1
  O  O112  1  0.94383739  0.84210133  0.87157565  1
  O  O113  1  0.91120308  0.45986889  0.46466092  1
  O  O114  1  0.11654091  0.45763842  0.91879250  1
  O  O115  1  0.59965303  0.46470612  0.20375378  1
  O  O116  1  0.09965303  0.03529388  0.20375378  1
  O  O117  1  0.44383739  0.15789867  0.62842435  1
  O  O118  1  0.38345909  0.95763842  0.08120750  1
  O  O119  1  0.90495399  0.17904516  0.73676362  1
