# generated using pymatgen
data_Ba2Ru7O18
_symmetry_space_group_name_H-M   'P 1'
_cell_length_a   6.83651184
_cell_length_b   7.22805214
_cell_length_c   7.64974025
_cell_angle_alpha   93.34925907
_cell_angle_beta   94.60072399
_cell_angle_gamma   115.63633346
_symmetry_Int_Tables_number   1
_chemical_formula_structural   Ba2Ru7O18
_chemical_formula_sum   'Ba2 Ru7 O18'
_cell_volume   337.87045311
_cell_formula_units_Z   1
loop_
 _symmetry_equiv_pos_site_id
 _symmetry_equiv_pos_as_xyz
  1  'x, y, z'
loop_
 _atom_site_type_symbol
 _atom_site_label
 _atom_site_symmetry_multiplicity
 _atom_site_fract_x
 _atom_site_fract_y
 _atom_site_fract_z
 _atom_site_occupancy
  Ba  Ba0  1  0.31992763  0.68755883  0.62151473  1
  Ba  Ba1  1  0.68007237  0.31244117  0.37848527  1
  Ru  Ru2  1  0.38734892  0.27591727  0.88455719  1
  Ru  Ru3  1  0.80236456  0.12786325  0.81581298  1
  Ru  Ru4  1  0.19763544  0.87213675  0.18418702  1
  Ru  Ru5  1  0.61265108  0.72408273  0.11544281  1
  Ru  Ru6  1  0.00000000  0.00000000  0.50000000  1
  Ru  Ru7  1  0.82530559  0.62012444  0.80169480  1
  Ru  Ru8  1  0.17469441  0.37987556  0.19830520  1
  O  O9  1  0.91802799  0.73199905  0.58276143  1
  O  O10  1  0.28785423  0.16773609  0.11435336  1
  O  O11  1  0.32305897  0.51189217  0.98570136  1
  O  O12  1  0.47565115  0.55602666  0.30544326  1
  O  O13  1  0.48953760  0.90886086  0.16617525  1
  O  O14  1  0.90502145  0.40182789  0.73059044  1
  O  O15  1  0.71214577  0.83226391  0.88564664  1
  O  O16  1  0.91777781  0.23358331  0.04875533  1
  O  O17  1  0.67694103  0.48810783  0.01429864  1
  O  O18  1  0.08197201  0.26800095  0.41723857  1
  O  O19  1  0.09686472  0.13181599  0.74985433  1
  O  O20  1  0.72649760  0.00317917  0.57217805  1
  O  O21  1  0.09497855  0.59817211  0.26940956  1
  O  O22  1  0.90313528  0.86818401  0.25014567  1
  O  O23  1  0.08222219  0.76641669  0.95124467  1
  O  O24  1  0.51046240  0.09113914  0.83382475  1
  O  O25  1  0.27350240  0.99682083  0.42782195  1
  O  O26  1  0.52434885  0.44397334  0.69455674  1
