# generated using pymatgen
data_Tm4CrSe7
_symmetry_space_group_name_H-M   'P 1'
_cell_length_a   3.92147437
_cell_length_b   6.75965871
_cell_length_c   11.86938630
_cell_angle_alpha   104.72698149
_cell_angle_beta   90.00000000
_cell_angle_gamma   73.13818094
_symmetry_Int_Tables_number   1
_chemical_formula_structural   Tm4CrSe7
_chemical_formula_sum   'Tm4 Cr1 Se7'
_cell_volume   290.28723834
_cell_formula_units_Z   1
loop_
 _symmetry_equiv_pos_site_id
 _symmetry_equiv_pos_as_xyz
  1  'x, y, z'
loop_
 _atom_site_type_symbol
 _atom_site_label
 _atom_site_symmetry_multiplicity
 _atom_site_fract_x
 _atom_site_fract_y
 _atom_site_fract_z
 _atom_site_occupancy
  Tm  Tm0  1  0.69427578  0.61144844  0.20568620  1
  Tm  Tm1  1  0.30627504  0.38744993  0.80299407  1
  Tm  Tm2  1  0.99847179  0.00305641  0.00699012  1
  Tm  Tm3  1  0.11321050  0.77357899  0.56389684  1
  Cr  Cr4  1  0.88506451  0.22987099  0.42429331  1
  Se  Se5  1  0.74641723  0.50716554  0.63558116  1
  Se  Se6  1  0.27036975  0.45926051  0.35253778  1
  Se  Se7  1  0.33656784  0.32686431  0.05070126  1
  Se  Se8  1  0.65945672  0.68108655  0.94928511  1
  Se  Se9  1  0.03235265  0.93529471  0.22850876  1
  Se  Se10  1  0.96396142  0.07207715  0.78485485  1
  Se  Se11  1  0.49357676  0.01284648  0.49467054  1
