# generated using pymatgen
data_CsInS2
_symmetry_space_group_name_H-M   'P 1'
_cell_length_a   8.08528042
_cell_length_b   8.08528088
_cell_length_c   16.58463149
_cell_angle_alpha   83.02043645
_cell_angle_beta   83.02043607
_cell_angle_gamma   89.99117420
_symmetry_Int_Tables_number   1
_chemical_formula_structural   CsInS2
_chemical_formula_sum   'Cs8 In8 S16'
_cell_volume   1068.04034788
_cell_formula_units_Z   8
loop_
 _symmetry_equiv_pos_site_id
 _symmetry_equiv_pos_as_xyz
  1  'x, y, z'
loop_
 _atom_site_type_symbol
 _atom_site_label
 _atom_site_symmetry_multiplicity
 _atom_site_fract_x
 _atom_site_fract_y
 _atom_site_fract_z
 _atom_site_occupancy
  Cs  Cs0  1  0.34861458  0.72304246  0.10784668  1
  Cs  Cs1  1  0.84716396  0.72426393  0.10694899  1
  Cs  Cs2  1  0.15283604  0.27573607  0.89305101  1
  Cs  Cs3  1  0.27573607  0.15283604  0.39305101  1
  Cs  Cs4  1  0.27695754  0.65138542  0.39215332  1
  Cs  Cs5  1  0.65138542  0.27695754  0.89215332  1
  Cs  Cs6  1  0.72304246  0.34861458  0.60784668  1
  Cs  Cs7  1  0.72426393  0.84716396  0.60694899  1
  In  In8  1  0.08131729  0.20860663  0.16550152  1
  In  In9  1  0.41378127  0.79170523  0.83452532  1
  In  In10  1  0.79139337  0.91868271  0.33449848  1
  In  In11  1  0.20829477  0.58621873  0.66547468  1
  In  In12  1  0.91868271  0.79139337  0.83449848  1
  In  In13  1  0.20860663  0.08131729  0.66550152  1
  In  In14  1  0.79170523  0.41378127  0.33452532  1
  In  In15  1  0.58621873  0.20829477  0.16547468  1
  S  S16  1  0.06870096  0.93129904  0.25000000  1
  S  S17  1  0.85661083  0.23010602  0.07286084  1
  S  S18  1  0.76989398  0.14338917  0.42713916  1
  S  S19  1  0.44495012  0.06809486  0.74922958  1
  S  S20  1  0.23010602  0.85661083  0.57286084  1
  S  S21  1  0.35630448  0.23119678  0.07553745  1
  S  S22  1  0.14338917  0.76989398  0.92713916  1
  S  S23  1  0.64369552  0.76880322  0.92446255  1
  S  S24  1  0.44354730  0.55645270  0.75000000  1
  S  S25  1  0.23119678  0.35630448  0.57553745  1
  S  S26  1  0.06809486  0.44495012  0.24922958  1
  S  S27  1  0.93190514  0.55504988  0.75077042  1
  S  S28  1  0.93129904  0.06870096  0.75000000  1
  S  S29  1  0.55645270  0.44354730  0.25000000  1
  S  S30  1  0.55504988  0.93190514  0.25077042  1
  S  S31  1  0.76880322  0.64369552  0.42446255  1
