# generated using pymatgen
data_BaSr4U3O14
_symmetry_space_group_name_H-M   'P 1'
_cell_length_a   8.11768351
_cell_length_b   8.11768328
_cell_length_c   11.12374662
_cell_angle_alpha   90.00000000
_cell_angle_beta   90.00000000
_cell_angle_gamma   89.92153347
_symmetry_Int_Tables_number   1
_chemical_formula_structural   BaSr4U3O14
_chemical_formula_sum   'Ba2 Sr8 U6 O28'
_cell_volume   733.01843753
_cell_formula_units_Z   2
loop_
 _symmetry_equiv_pos_site_id
 _symmetry_equiv_pos_as_xyz
  1  'x, y, z'
loop_
 _atom_site_type_symbol
 _atom_site_label
 _atom_site_symmetry_multiplicity
 _atom_site_fract_x
 _atom_site_fract_y
 _atom_site_fract_z
 _atom_site_occupancy
  Ba  Ba0  1  0.50000000  0.50000000  0.00000000  1
  Ba  Ba1  1  0.00000000  0.00000000  0.50000000  1
  Sr  Sr2  1  0.72904806  0.77095194  0.25000000  1
  Sr  Sr3  1  0.25140008  0.74859992  0.27499756  1
  Sr  Sr4  1  0.24859992  0.75140008  0.77499756  1
  Sr  Sr5  1  0.75140008  0.24859992  0.22500244  1
  Sr  Sr6  1  0.74859992  0.25140008  0.72500244  1
  Sr  Sr7  1  0.77095194  0.72904806  0.75000000  1
  Sr  Sr8  1  0.22904806  0.27095194  0.25000000  1
  Sr  Sr9  1  0.27095194  0.22904806  0.75000000  1
  U  U10  1  0.00000000  0.00000000  0.00000000  1
  U  U11  1  0.50000000  0.50000000  0.50000000  1
  U  U12  1  0.50000000  0.00000000  0.00000000  1
  U  U13  1  0.00000000  0.50000000  0.50000000  1
  U  U14  1  0.00000000  0.50000000  0.00000000  1
  U  U15  1  0.50000000  0.00000000  0.50000000  1
  O  O16  1  0.96772909  0.69279566  0.38297606  1
  O  O17  1  0.80720434  0.53227091  0.11702394  1
  O  O18  1  0.46772909  0.19279566  0.11702394  1
  O  O19  1  0.25353158  0.49290065  0.42675515  1
  O  O20  1  0.06559925  0.93440075  0.16290063  1
  O  O21  1  0.03282223  0.68440939  0.62444258  1
  O  O22  1  0.19279566  0.46772909  0.88297606  1
  O  O23  1  0.03227091  0.30720434  0.61702394  1
  O  O24  1  0.31559061  0.96717777  0.62444258  1
  O  O25  1  0.18440939  0.53282223  0.12444258  1
  O  O26  1  0.74646842  0.50709935  0.57324485  1
  O  O27  1  0.69279566  0.96772909  0.61702394  1
  O  O28  1  0.96717777  0.31559061  0.37555742  1
  O  O29  1  0.46717777  0.81559061  0.12444258  1
  O  O30  1  0.93440075  0.06559925  0.83709937  1
  O  O31  1  0.49290065  0.25353158  0.57324485  1
  O  O32  1  0.56559925  0.43440075  0.33709937  1
  O  O33  1  0.43440075  0.56559925  0.66290063  1
  O  O34  1  0.00709935  0.24646842  0.07324485  1
  O  O35  1  0.50709935  0.74646842  0.42675515  1
  O  O36  1  0.24646842  0.00709935  0.92675515  1
  O  O37  1  0.75353158  0.99290065  0.07324485  1
  O  O38  1  0.53227091  0.80720434  0.88297606  1
  O  O39  1  0.99290065  0.75353158  0.92675515  1
  O  O40  1  0.53282223  0.18440939  0.87555742  1
  O  O41  1  0.68440939  0.03282223  0.37555742  1
  O  O42  1  0.30720434  0.03227091  0.38297606  1
  O  O43  1  0.81559061  0.46717777  0.87555742  1
