# generated using pymatgen
data_Na5Li(PO4)2
_symmetry_space_group_name_H-M   'P 1'
_cell_length_a   10.26370951
_cell_length_b   10.27690235
_cell_length_c   14.92099827
_cell_angle_alpha   90.00000000
_cell_angle_beta   90.00000000
_cell_angle_gamma   90.00000000
_symmetry_Int_Tables_number   1
_chemical_formula_structural   Na5Li(PO4)2
_chemical_formula_sum   'Na40 Li8 P16 O64'
_cell_volume   1573.85407118
_cell_formula_units_Z   8
loop_
 _symmetry_equiv_pos_site_id
 _symmetry_equiv_pos_as_xyz
  1  'x, y, z'
loop_
 _atom_site_type_symbol
 _atom_site_label
 _atom_site_symmetry_multiplicity
 _atom_site_fract_x
 _atom_site_fract_y
 _atom_site_fract_z
 _atom_site_occupancy
  Na  Na0  1  0.72241201  0.75316552  0.24775935  1
  Na  Na1  1  0.72332790  0.75343833  0.75196255  1
  Na  Na2  1  0.24303003  0.00757775  0.64511784  1
  Na  Na3  1  0.22332790  0.24656167  0.74803745  1
  Na  Na4  1  0.77667210  0.25343833  0.24803745  1
  Na  Na5  1  0.72507089  0.00368642  0.38675951  1
  Na  Na6  1  0.98426017  0.75962271  0.36273974  1
  Na  Na7  1  0.98448229  0.76007491  0.63598344  1
  Na  Na8  1  0.27667210  0.74656167  0.25196255  1
  Na  Na9  1  0.27517102  0.49722873  0.11279864  1
  Na  Na10  1  0.06623574  0.51771267  0.50021825  1
  Na  Na11  1  0.51573983  0.25962271  0.63726026  1
  Na  Na12  1  0.01678809  0.03618881  0.49798644  1
  Na  Na13  1  0.56623574  0.48228733  0.99978175  1
  Na  Na14  1  0.27492911  0.49631358  0.88675951  1
  Na  Na15  1  0.93376426  0.98228733  0.00021825  1
  Na  Na16  1  0.22507089  0.99631358  0.11324049  1
  Na  Na17  1  0.77492911  0.50368642  0.61324049  1
  Na  Na18  1  0.48426017  0.24037729  0.13726026  1
  Na  Na19  1  0.01573983  0.74037729  0.86273974  1
  Na  Na20  1  0.48321191  0.53618881  0.50201356  1
  Na  Na21  1  0.43376426  0.01771267  0.49978175  1
  Na  Na22  1  0.75642858  0.49427713  0.85521569  1
  Na  Na23  1  0.75696997  0.49242225  0.14511784  1
  Na  Na24  1  0.51678809  0.96381119  0.00201356  1
  Na  Na25  1  0.25642858  0.50572287  0.64478431  1
  Na  Na26  1  0.77517102  0.50277127  0.38720136  1
  Na  Na27  1  0.98321191  0.46381119  0.99798644  1
  Na  Na28  1  0.22241201  0.24683448  0.25224065  1
  Na  Na29  1  0.77758799  0.25316552  0.75224065  1
  Na  Na30  1  0.51551771  0.26007491  0.36401656  1
  Na  Na31  1  0.74303003  0.99242225  0.85488216  1
  Na  Na32  1  0.74357142  0.99427713  0.14478431  1
  Na  Na33  1  0.25696997  0.50757775  0.35488216  1
  Na  Na34  1  0.01551771  0.73992509  0.13598344  1
  Na  Na35  1  0.27758799  0.74683448  0.74775935  1
  Na  Na36  1  0.22482898  0.99722873  0.88720136  1
  Na  Na37  1  0.72482898  0.00277127  0.61279864  1
  Na  Na38  1  0.48448229  0.23992509  0.86401656  1
  Na  Na39  1  0.24357142  0.00572287  0.35521569  1
  Li  Li40  1  0.99573386  0.26000513  0.61015506  1
  Li  Li41  1  0.99597290  0.26071133  0.38988930  1
  Li  Li42  1  0.50402710  0.76071133  0.61011070  1
  Li  Li43  1  0.49597290  0.73928867  0.11011070  1
  Li  Li44  1  0.50426614  0.76000513  0.38984494  1
  Li  Li45  1  0.49573386  0.73999487  0.88984494  1
  Li  Li46  1  0.00426614  0.23999487  0.11015506  1
  Li  Li47  1  0.00402710  0.23928867  0.88988930  1
  P  P48  1  0.74774602  0.22959184  0.00073146  1
  P  P49  1  0.24774602  0.77040816  0.49926854  1
  P  P50  1  0.50526817  0.50118702  0.75075482  1
  P  P51  1  0.49457265  0.99828585  0.74942504  1
  P  P52  1  0.49473183  0.99881298  0.25075482  1
  P  P53  1  0.27496165  0.24717710  0.00060954  1
  P  P54  1  0.75225398  0.72959184  0.99926854  1
  P  P55  1  0.50542735  0.50171415  0.24942504  1
  P  P56  1  0.00542735  0.49828585  0.25057496  1
  P  P57  1  0.99457265  0.00171415  0.75057496  1
  P  P58  1  0.72503835  0.25282290  0.50060954  1
  P  P59  1  0.99473183  0.00118702  0.24924518  1
  P  P60  1  0.22503835  0.74717710  0.99939046  1
  P  P61  1  0.00526817  0.49881298  0.74924518  1
  P  P62  1  0.25225398  0.27040816  0.50073146  1
  P  P63  1  0.77496165  0.75282290  0.49939046  1
  O  O64  1  0.86960782  0.93040229  0.71833238  1
  O  O65  1  0.39443023  0.39768176  0.76100923  1
  O  O66  1  0.12449644  0.86178246  0.99958664  1
  O  O67  1  0.60556977  0.10231824  0.26100923  1
  O  O68  1  0.53456388  0.56820120  0.15744187  1
  O  O69  1  0.04111448  0.10606527  0.68168444  1
  O  O70  1  0.19049903  0.25704440  0.08707149  1
  O  O71  1  0.54111448  0.89393473  0.81831556  1
  O  O72  1  0.89402243  0.60117349  0.26135069  1
  O  O73  1  0.78404414  0.58032475  0.00071044  1
  O  O74  1  0.18835127  0.70480076  0.58390134  1
  O  O75  1  0.95950710  0.39556971  0.81935192  1
  O  O76  1  0.39971728  0.75252723  0.50004459  1
  O  O77  1  0.35142888  0.11566511  1.00045160  1
  O  O78  1  0.87550356  0.63821754  0.49958664  1
  O  O79  1  0.39402243  0.39882651  0.23864931  1
  O  O80  1  0.64857112  0.38433489  0.50045160  1
  O  O81  1  0.18982655  0.25715811  0.91437375  1
  O  O82  1  0.30950097  0.75704440  0.91292851  1
  O  O83  1  0.36859189  0.06943947  0.21988928  1
  O  O84  1  0.60597757  0.10117349  0.73864931  1
  O  O85  1  0.96801141  0.06842153  0.15727463  1
  O  O86  1  0.10556977  0.89768176  0.23899077  1
  O  O87  1  0.45888552  0.60606527  0.31831556  1
  O  O88  1  0.30910456  0.20929537  0.58776411  1
  O  O89  1  0.63140811  0.43056053  0.71988928  1
  O  O90  1  0.68982655  0.74284189  0.58562625  1
  O  O91  1  0.54049290  0.89556971  0.18064808  1
  O  O92  1  0.13140811  0.56943947  0.78011072  1
  O  O93  1  0.69049903  0.74295560  0.41292851  1
  O  O94  1  0.80910456  0.79070463  0.91223589  1
  O  O95  1  0.69089544  0.29070463  0.08776411  1
  O  O96  1  0.46801141  0.93157847  0.34272537  1
  O  O97  1  0.60028272  0.74747277  0.00004459  1
  O  O98  1  0.96543612  0.06820120  0.84255813  1
  O  O99  1  0.45950710  0.60443029  0.68064808  1
  O  O100  1  0.31017345  0.75715811  0.08562625  1
  O  O101  1  0.46543612  0.93179880  0.65744187  1
  O  O102  1  0.28404414  0.41967525  0.49928956  1
  O  O103  1  0.36960782  0.06959771  0.78166762  1
  O  O104  1  0.86859189  0.93056053  0.28011072  1
  O  O105  1  0.10597757  0.89882651  0.76135069  1
  O  O106  1  0.95888552  0.39393473  0.18168444  1
  O  O107  1  0.85142888  0.88433489  0.49954840  1
  O  O108  1  0.53198859  0.56842153  0.84272537  1
  O  O109  1  0.63039218  0.43040229  0.28166762  1
  O  O110  1  0.10028272  0.25252723  0.49995541  1
  O  O111  1  0.37550356  0.36178246  0.00041336  1
  O  O112  1  0.71595586  0.08032475  0.99928956  1
  O  O113  1  0.19089544  0.70929537  0.41223589  1
  O  O114  1  0.14857112  0.61566511  -0.00045160  1
  O  O115  1  0.81164873  0.79519924  0.08390134  1
  O  O116  1  0.81017345  0.24284189  0.41437375  1
  O  O117  1  0.68835127  0.29519924  0.91609866  1
  O  O118  1  0.62449644  0.13821754  0.50041336  1
  O  O119  1  0.03456388  0.43179880  0.34255813  1
  O  O120  1  0.89443023  0.60231824  0.73899077  1
  O  O121  1  0.03198859  0.43157847  0.65727463  1
  O  O122  1  0.80950097  0.24295560  0.58707149  1
  O  O123  1  0.13039218  0.56959771  0.21833238  1
  O  O124  1  0.21595586  0.91967525  0.50071044  1
  O  O125  1  0.31164873  0.20480076  0.41609866  1
  O  O126  1  0.89971728  0.24747277  0.99995541  1
  O  O127  1  0.04049290  0.10443029  0.31935192  1
