# generated using pymatgen
data_La5Ti2CuS5O7
_symmetry_space_group_name_H-M   'P 1'
_cell_length_a   3.96748384
_cell_length_b   18.24929163
_cell_length_c   19.53965234
_cell_angle_alpha   90.00000000
_cell_angle_beta   90.00000000
_cell_angle_gamma   90.00000000
_symmetry_Int_Tables_number   1
_chemical_formula_structural   La5Ti2CuS5O7
_chemical_formula_sum   'La20 Ti8 Cu4 S20 O28'
_cell_volume   1414.74448674
_cell_formula_units_Z   4
loop_
 _symmetry_equiv_pos_site_id
 _symmetry_equiv_pos_as_xyz
  1  'x, y, z'
loop_
 _atom_site_type_symbol
 _atom_site_label
 _atom_site_symmetry_multiplicity
 _atom_site_fract_x
 _atom_site_fract_y
 _atom_site_fract_z
 _atom_site_occupancy
  La  La0  1  0.75000000  0.37760064  0.51295991  1
  La  La1  1  0.75000000  0.99868349  0.60661747  1
  La  La2  1  0.75000000  0.69652567  0.95835090  1
  La  La3  1  0.25000000  0.96970903  0.18136345  1
  La  La4  1  0.75000000  0.80347433  0.45835090  1
  La  La5  1  0.75000000  0.46970903  0.31863655  1
  La  La6  1  0.25000000  0.53029097  0.68136345  1
  La  La7  1  0.25000000  0.00131651  0.39338253  1
  La  La8  1  0.75000000  0.12239936  0.01295991  1
  La  La9  1  0.25000000  0.71091124  0.30485197  1
  La  La10  1  0.75000000  0.28908876  0.69514803  1
  La  La11  1  0.25000000  0.78908876  0.80485197  1
  La  La12  1  0.25000000  0.30347433  0.04164910  1
  La  La13  1  0.75000000  0.50131651  0.10661747  1
  La  La14  1  0.75000000  0.21091124  0.19514803  1
  La  La15  1  0.25000000  0.19652567  0.54164910  1
  La  La16  1  0.75000000  0.03029097  0.81863655  1
  La  La17  1  0.25000000  0.62239936  0.48704009  1
  La  La18  1  0.25000000  0.87760064  0.98704009  1
  La  La19  1  0.25000000  0.49868349  0.89338253  1
  Ti  Ti20  1  0.25000000  0.11309404  0.69716338  1
  Ti  Ti21  1  0.25000000  0.17282508  0.87836515  1
  Ti  Ti22  1  0.75000000  0.88690596  0.30283662  1
  Ti  Ti23  1  0.75000000  0.67282508  0.62163485  1
  Ti  Ti24  1  0.25000000  0.38690596  0.19716338  1
  Ti  Ti25  1  0.25000000  0.32717492  0.37836515  1
  Ti  Ti26  1  0.75000000  0.82717492  0.12163485  1
  Ti  Ti27  1  0.75000000  0.61309404  0.80283662  1
  Cu  Cu28  1  0.25000000  0.64638435  0.14127359  1
  Cu  Cu29  1  0.25000000  0.85361565  0.64127359  1
  Cu  Cu30  1  0.75000000  0.35361565  0.85872641  1
  Cu  Cu31  1  0.75000000  0.14638435  0.35872641  1
  S  S32  1  0.25000000  0.90526516  0.53120374  1
  S  S33  1  0.25000000  0.20885530  0.32715352  1
  S  S34  1  0.25000000  0.46709180  0.43241722  1
  S  S35  1  0.25000000  0.59473484  0.03120374  1
  S  S36  1  0.25000000  0.54640424  0.21954131  1
  S  S37  1  0.25000000  0.38110548  0.63024080  1
  S  S38  1  0.75000000  0.96709180  0.06758278  1
  S  S39  1  0.75000000  0.09473484  0.46879626  1
  S  S40  1  0.75000000  0.61889452  0.36975920  1
  S  S41  1  0.75000000  0.70885530  0.17284648  1
  S  S42  1  0.75000000  0.79114470  0.67284648  1
  S  S43  1  0.25000000  0.95359576  0.71954131  1
  S  S44  1  0.75000000  0.40526516  0.96879626  1
  S  S45  1  0.25000000  0.11889452  0.13024080  1
  S  S46  1  0.25000000  0.29114470  0.82715352  1
  S  S47  1  0.75000000  0.45359576  0.78045869  1
  S  S48  1  0.75000000  0.88110548  0.86975920  1
  S  S49  1  0.75000000  0.53290820  0.56758278  1
  S  S50  1  0.25000000  0.03290820  0.93241722  1
  S  S51  1  0.75000000  0.04640424  0.28045869  1
  O  O52  1  0.25000000  0.39237238  0.29564388  1
  O  O53  1  0.25000000  0.07619299  0.60578014  1
  O  O54  1  0.25000000  0.74562546  0.42535291  1
  O  O55  1  0.75000000  0.80615004  0.02786676  1
  O  O56  1  0.25000000  0.42380701  0.10578014  1
  O  O57  1  0.75000000  0.92380701  0.39421986  1
  O  O58  1  0.75000000  0.60762762  0.70435612  1
  O  O59  1  0.75000000  0.69384996  0.52786676  1
  O  O60  1  0.25000000  0.10762762  0.79564388  1
  O  O61  1  0.25000000  0.19384996  0.97213324  1
  O  O62  1  0.75000000  0.70982074  0.82434527  1
  O  O63  1  0.25000000  0.84252414  0.11943914  1
  O  O64  1  0.25000000  0.59604223  0.79962376  1
  O  O65  1  0.75000000  0.57619299  0.89421986  1
  O  O66  1  0.75000000  0.89237238  0.20435612  1
  O  O67  1  0.25000000  0.29017926  0.17565473  1
  O  O68  1  0.25000000  0.30615004  0.47213324  1
  O  O69  1  0.75000000  0.34252414  0.38056086  1
  O  O70  1  0.75000000  0.24562546  0.07464709  1
  O  O71  1  0.25000000  0.90395777  0.29962376  1
  O  O72  1  0.75000000  0.40395777  0.20037624  1
  O  O73  1  0.75000000  0.15747586  0.88056086  1
  O  O74  1  0.75000000  0.09604223  0.70037624  1
  O  O75  1  0.75000000  0.25437454  0.57464709  1
  O  O76  1  0.25000000  0.75437454  0.92535291  1
  O  O77  1  0.25000000  0.20982074  0.67565473  1
  O  O78  1  0.25000000  0.65747586  0.61943914  1
  O  O79  1  0.75000000  0.79017926  0.32434527  1
