# generated using pymatgen
data_Ba11(OsO6)4
_symmetry_space_group_name_H-M   'P 1'
_cell_length_a   12.21513986
_cell_length_b   12.21514004
_cell_length_c   12.21513942
_cell_angle_alpha   91.94190903
_cell_angle_beta   118.88524507
_cell_angle_gamma   118.88524250
_symmetry_Int_Tables_number   1
_chemical_formula_structural   Ba11(OsO6)4
_chemical_formula_sum   'Ba22 Os8 O48'
_cell_volume   1309.68606137
_cell_formula_units_Z   2
loop_
 _symmetry_equiv_pos_site_id
 _symmetry_equiv_pos_as_xyz
  1  'x, y, z'
loop_
 _atom_site_type_symbol
 _atom_site_label
 _atom_site_symmetry_multiplicity
 _atom_site_fract_x
 _atom_site_fract_y
 _atom_site_fract_z
 _atom_site_occupancy
  Ba  Ba0  1  0.01578689  0.76027171  0.69142974  1
  Ba  Ba1  1  0.77811089  0.42737880  0.12114752  1
  Ba  Ba2  1  0.56884196  0.24448481  0.26027171  1
  Ba  Ba3  1  0.69376872  0.62114752  0.34303663  1
  Ba  Ba4  1  0.22188911  0.57262120  0.87885248  1
  Ba  Ba5  1  0.06884196  0.80857026  0.32435715  1
  Ba  Ba6  1  0.25000000  0.61098555  0.36098555  1
  Ba  Ba7  1  0.25000000  0.13901445  0.88901445  1
  Ba  Ba8  1  0.75000000  0.86098555  0.11098555  1
  Ba  Ba9  1  0.93115804  0.19142974  0.67564285  1
  Ba  Ba10  1  0.30623128  0.37885248  0.65696337  1
  Ba  Ba11  1  0.98421311  0.23972829  0.30857026  1
  Ba  Ba12  1  0.48421311  0.17564285  0.74448481  1
  Ba  Ba13  1  0.27811089  0.15696337  0.35073209  1
  Ba  Ba14  1  0.25000000  0.37500000  0.12500000  1
  Ba  Ba15  1  0.72188911  0.84303663  0.64926791  1
  Ba  Ba16  1  0.43115804  0.75551519  0.73972829  1
  Ba  Ba17  1  0.19376872  0.85073209  0.07262120  1
  Ba  Ba18  1  0.75000000  0.38901445  0.63901445  1
  Ba  Ba19  1  0.75000000  0.62500000  0.87500000  1
  Ba  Ba20  1  0.51578689  0.82435715  0.25551519  1
  Ba  Ba21  1  0.80623128  0.14926791  0.92737880  1
  Os  Os22  1  0.50000000  0.00000000  0.50000000  1
  Os  Os23  1  0.50000000  0.00000000  0.00000000  1
  Os  Os24  1  0.50000000  0.50000000  0.00000000  1
  Os  Os25  1  0.00000000  0.50000000  0.50000000  1
  Os  Os26  1  0.00000000  0.00000000  0.50000000  1
  Os  Os27  1  0.50000000  0.50000000  0.50000000  1
  Os  Os28  1  0.00000000  0.50000000  0.00000000  1
  Os  Os29  1  0.00000000  0.00000000  0.00000000  1
  O  O30  1  0.99556930  0.10906066  0.88814274  1
  O  O31  1  0.49698998  0.39700433  0.37300366  1
  O  O32  1  0.83924851  0.51175661  0.47792294  1
  O  O33  1  0.53383368  0.17250811  0.01175661  1
  O  O34  1  0.77908209  0.38814274  0.89257344  1
  O  O35  1  0.77373492  0.89727041  0.90026118  1
  O  O36  1  0.00443070  0.89093934  0.11185726  1
  O  O37  1  0.21382284  0.11482824  0.63746599  1
  O  O38  1  0.35169759  0.00784682  0.50904989  1
  O  O39  1  0.22091791  0.61185726  0.10742656  1
  O  O40  1  0.97599933  0.87300366  0.87601368  1
  O  O41  1  0.66075149  0.13867443  0.67250811  1
  O  O42  1  0.85169759  0.34264770  0.34385077  1
  O  O43  1  0.00120306  0.84385077  0.49215318  1
  O  O44  1  0.50443070  0.39257344  0.11349135  1
  O  O45  1  0.22626508  0.10272959  0.09973882  1
  O  O46  1  0.02400067  0.12699634  0.12398632  1
  O  O47  1  0.50120306  0.00904989  0.15735230  1
  O  O48  1  0.47736225  0.86253401  0.57635685  1
  O  O49  1  0.99698998  0.62398632  0.09998565  1
  O  O50  1  0.27908209  0.38650865  0.39093934  1
  O  O51  1  0.49879694  0.99095011  0.84264770  1
  O  O52  1  0.49556930  0.60742656  0.88650865  1
  O  O53  1  0.00301002  0.37601368  0.90001435  1
  O  O54  1  0.46616632  0.82749189  0.98824339  1
  O  O55  1  0.14830241  0.65735230  0.65614923  1
  O  O56  1  0.03383368  0.02207706  0.36132557  1
  O  O57  1  0.97736225  0.40100540  0.61482824  1
  O  O58  1  0.27373492  0.37347374  0.87646451  1
  O  O59  1  0.52400067  0.40001435  0.89700433  1
  O  O60  1  0.72091791  0.61349135  0.60906066  1
  O  O61  1  0.47599933  0.59998565  0.10299567  1
  O  O62  1  0.50299077  0.37646451  0.60272959  1
  O  O63  1  0.50301002  0.60299567  0.62699634  1
  O  O64  1  0.99700923  0.59973882  0.87347374  1
  O  O65  1  0.49700923  0.62353549  0.39727041  1
  O  O66  1  0.78617716  0.88517176  0.36253401  1
  O  O67  1  0.72626508  0.62652626  0.12353549  1
  O  O68  1  0.52263775  0.13746599  0.42364315  1
  O  O69  1  0.02263775  0.59899460  0.38517176  1
  O  O70  1  0.33924851  0.86132557  0.32749189  1
  O  O71  1  0.16075149  0.48824339  0.52207706  1
  O  O72  1  0.99879694  0.15614923  0.50784682  1
  O  O73  1  0.64830241  0.99215318  0.49095011  1
  O  O74  1  0.00299077  0.40026118  0.12652626  1
  O  O75  1  0.28617716  0.92364315  0.90100540  1
  O  O76  1  0.96616632  0.97792294  0.63867443  1
  O  O77  1  0.71382284  0.07635685  0.09899460  1
