# generated using pymatgen
data_RbMgAs(H6O5)2
_symmetry_space_group_name_H-M   'P 1'
_cell_length_a   6.25825105
_cell_length_b   7.08025888
_cell_length_c   11.52188444
_cell_angle_alpha   90.00000000
_cell_angle_beta   90.00000000
_cell_angle_gamma   90.00000000
_symmetry_Int_Tables_number   1
_chemical_formula_structural   RbMgAs(H6O5)2
_chemical_formula_sum   'Rb2 Mg2 As2 H24 O20'
_cell_volume   510.53513241
_cell_formula_units_Z   2
loop_
 _symmetry_equiv_pos_site_id
 _symmetry_equiv_pos_as_xyz
  1  'x, y, z'
loop_
 _atom_site_type_symbol
 _atom_site_label
 _atom_site_symmetry_multiplicity
 _atom_site_fract_x
 _atom_site_fract_y
 _atom_site_fract_z
 _atom_site_occupancy
  Rb  Rb0  1  0.64354724  0.00000000  0.26193043  1
  Rb  Rb1  1  0.35645276  0.50000000  0.76193043  1
  Mg  Mg2  1  0.61297158  0.00000000  0.61230749  1
  Mg  Mg3  1  0.38702842  0.50000000  0.11230749  1
  As  As4  1  0.97728649  0.50000000  0.48134699  1
  As  As5  1  0.02271351  0.00000000  0.98134699  1
  H  H6  1  0.64515418  0.25893961  0.98079956  1
  H  H7  1  0.80931307  0.31958758  0.68428410  1
  H  H8  1  0.72010998  0.50000000  0.27573651  1
  H  H9  1  0.40729975  0.82023002  0.96677095  1
  H  H10  1  0.19068693  0.81958758  0.18428410  1
  H  H11  1  0.35484582  0.24106039  0.48079956  1
  H  H12  1  0.83334618  0.50000000  0.14860532  1
  H  H13  1  0.64515418  0.74106039  0.98079956  1
  H  H14  1  0.40729975  0.17976998  0.96677095  1
  H  H15  1  0.98937507  0.11435533  0.49335602  1
  H  H16  1  0.21263498  0.69989458  0.30108441  1
  H  H17  1  0.19068693  0.18041242  0.18428410  1
  H  H18  1  0.21263498  0.30010542  0.30108441  1
  H  H19  1  0.59270025  0.67976998  0.46677095  1
  H  H20  1  0.80931307  0.68041242  0.68428410  1
  H  H21  1  0.01062493  0.38564467  0.99335602  1
  H  H22  1  0.98937507  0.88564467  0.49335602  1
  H  H23  1  0.35484582  0.75893961  0.48079956  1
  H  H24  1  0.27989002  0.00000000  0.77573651  1
  H  H25  1  0.78736502  0.80010542  0.80108441  1
  H  H26  1  0.16665382  0.00000000  0.64860532  1
  H  H27  1  0.59270025  0.32023002  0.46677095  1
  H  H28  1  0.01062493  0.61435533  0.99335602  1
  H  H29  1  0.78736502  0.19989458  0.80108441  1
  O  O30  1  0.94952125  0.50000000  0.62970353  1
  O  O31  1  0.72682356  0.50000000  0.41679134  1
  O  O32  1  0.49164419  0.29223268  0.99519797  1
  O  O33  1  0.27317644  0.00000000  0.91679134  1
  O  O34  1  0.50835581  0.79223268  0.49519797  1
  O  O35  1  0.28038980  0.28082914  0.22296603  1
  O  O36  1  0.89082007  0.79890044  0.93604082  1
  O  O37  1  0.89082007  0.20109956  0.93604082  1
  O  O38  1  0.10917993  0.29890044  0.43604082  1
  O  O39  1  0.05047875  0.00000000  0.12970353  1
  O  O40  1  0.28038980  0.71917086  0.22296603  1
  O  O41  1  0.92681147  0.00000000  0.53352901  1
  O  O42  1  0.69476165  0.50000000  0.18897069  1
  O  O43  1  0.49164419  0.70776732  0.99519797  1
  O  O44  1  0.07318853  0.50000000  0.03352901  1
  O  O45  1  0.10917993  0.70109956  0.43604082  1
  O  O46  1  0.71961020  0.21917086  0.72296603  1
  O  O47  1  0.50835581  0.20776732  0.49519797  1
  O  O48  1  0.30523835  0.00000000  0.68897069  1
  O  O49  1  0.71961020  0.78082914  0.72296603  1
