# generated using pymatgen
data_NaLiCO3
_symmetry_space_group_name_H-M   'P 1'
_cell_length_a   14.51381689
_cell_length_b   14.51381719
_cell_length_c   3.36094185
_cell_angle_alpha   90.00000000
_cell_angle_beta   90.00000000
_cell_angle_gamma   119.99999933
_symmetry_Int_Tables_number   1
_chemical_formula_structural   NaLiCO3
_chemical_formula_sum   'Na9 Li9 C9 O27'
_cell_volume   613.13332461
_cell_formula_units_Z   9
loop_
 _symmetry_equiv_pos_site_id
 _symmetry_equiv_pos_as_xyz
  1  'x, y, z'
loop_
 _atom_site_type_symbol
 _atom_site_label
 _atom_site_symmetry_multiplicity
 _atom_site_fract_x
 _atom_site_fract_y
 _atom_site_fract_z
 _atom_site_occupancy
  Na  Na0  1  0.77559146  0.90732295  0.50000000  1
  Na  Na1  1  0.12005035  0.57538541  0.50000000  1
  Na  Na2  1  0.74475994  0.19341545  0.50000000  1
  Na  Na3  1  0.13173150  0.22440854  0.50000000  1
  Na  Na4  1  0.09267705  0.86826850  0.50000000  1
  Na  Na5  1  0.42461459  0.54466494  0.50000000  1
  Na  Na6  1  0.80658455  0.55134449  0.50000000  1
  Na  Na7  1  0.44865551  0.25524006  0.50000000  1
  Na  Na8  1  0.45533506  0.87994965  0.50000000  1
  Li  Li9  1  0.56786391  0.74695630  0.00000000  1
  Li  Li10  1  0.58015326  0.47416627  0.00000000  1
  Li  Li11  1  0.22626258  0.10011529  0.00000000  1
  Li  Li12  1  0.52583373  0.10598699  0.00000000  1
  Li  Li13  1  0.87385271  0.77373742  0.00000000  1
  Li  Li14  1  0.17909239  0.43213609  0.00000000  1
  Li  Li15  1  0.89988471  0.12614729  0.00000000  1
  Li  Li16  1  0.25304370  0.82090761  0.00000000  1
  Li  Li17  1  0.89401301  0.41984674  0.00000000  1
  C  C18  1  0.68026939  0.66774739  0.50000000  1
  C  C19  1  0.65554088  0.99138684  0.00000000  1
  C  C20  1  0.33225261  0.01252201  0.50000000  1
  C  C21  1  0.00000000  0.00000000  0.00000000  1
  C  C22  1  0.98747799  0.31973061  0.50000000  1
  C  C23  1  0.33584597  0.34445912  0.00000000  1
  C  C24  1  0.00861316  0.66415403  0.00000000  1
  C  C25  1  0.66666700  0.33333300  0.00000000  1
  C  C26  1  0.33333300  0.66666700  0.00000000  1
  O  O27  1  0.64888609  0.89854310  0.00000000  1
  O  O28  1  0.75940179  0.41943986  0.00000000  1
  O  O29  1  0.41653712  0.65530187  0.00000000  1
  O  O30  1  0.56923695  -0.00219181  0.00000000  1
  O  O31  1  0.74816391  0.07720835  0.00000000  1
  O  O32  1  0.78122451  0.73899587  0.50000000  1
  O  O33  1  0.95777136  0.21877549  0.50000000  1
  O  O34  1  0.43332356  0.08305357  0.50000000  1
  O  O35  1  0.60978206  0.69829997  0.50000000  1
  O  O36  1  0.08851791  0.39021794  0.50000000  1
  O  O37  1  0.24965701  0.35111391  0.00000000  1
  O  O38  1  0.58056014  0.33996193  0.00000000  1
  O  O39  1  0.34469813  0.76123525  0.00000000  1
  O  O40  1  0.92279165  0.67095556  0.00000000  1
  O  O41  1  0.90793660  0.99506028  0.00000000  1
  O  O42  1  0.66003807  0.24059821  0.00000000  1
  O  O43  1  0.26100413  0.04222864  0.50000000  1
  O  O44  1  0.08712368  0.09206340  0.00000000  1
  O  O45  1  0.32904444  0.25183609  0.00000000  1
  O  O46  1  0.10145690  0.75034299  0.00000000  1
  O  O47  1  0.91694643  0.35026999  0.50000000  1
  O  O48  1  0.23876475  0.58346288  0.00000000  1
  O  O49  1  0.64973001  0.56667644  0.50000000  1
  O  O50  1  0.30170003  0.91148209  0.50000000  1
  O  O51  1  0.00493972  0.91287632  0.00000000  1
  O  O52  1  0.42857125  0.43076305  0.00000000  1
  O  O53  1  1.00219181  0.57142875  0.00000000  1
