# generated using pymatgen
data_Ti5(PO5)4
_symmetry_space_group_name_H-M   'P 1'
_cell_length_a   7.60765171
_cell_length_b   12.99757081
_cell_length_c   14.57870732
_cell_angle_alpha   90.00000000
_cell_angle_beta   90.00000000
_cell_angle_gamma   90.00000000
_symmetry_Int_Tables_number   1
_chemical_formula_structural   Ti5(PO5)4
_chemical_formula_sum   'Ti20 P16 O80'
_cell_volume   1441.55703894
_cell_formula_units_Z   4
loop_
 _symmetry_equiv_pos_site_id
 _symmetry_equiv_pos_as_xyz
  1  'x, y, z'
loop_
 _atom_site_type_symbol
 _atom_site_label
 _atom_site_symmetry_multiplicity
 _atom_site_fract_x
 _atom_site_fract_y
 _atom_site_fract_z
 _atom_site_occupancy
  Ti  Ti0  1  0.60596580  0.14373221  0.17654957  1
  Ti  Ti1  1  0.87603261  0.37617001  0.44160693  1
  Ti  Ti2  1  0.64759395  0.38390320  0.05365862  1
  Ti  Ti3  1  0.10596580  0.35626779  0.82345043  1
  Ti  Ti4  1  0.39403420  0.64373221  0.32345043  1
  Ti  Ti5  1  0.62396739  0.62382999  0.94160693  1
  Ti  Ti6  1  0.15049300  0.60744951  0.70511170  1
  Ti  Ti7  1  0.12396739  0.87617001  0.05839307  1
  Ti  Ti8  1  0.90422517  0.13405585  0.32930360  1
  Ti  Ti9  1  0.14759395  0.11609680  0.94634138  1
  Ti  Ti10  1  0.59577483  0.86594415  0.82930360  1
  Ti  Ti11  1  0.85240605  0.61609680  0.55365862  1
  Ti  Ti12  1  0.89403420  0.85626779  0.67654957  1
  Ti  Ti13  1  0.40422517  0.36594415  0.67069640  1
  Ti  Ti14  1  0.34950700  0.39255049  0.20511170  1
  Ti  Ti15  1  0.09577483  0.63405585  0.17069640  1
  Ti  Ti16  1  0.37603261  0.12382999  0.55839307  1
  Ti  Ti17  1  0.35240605  0.88390320  0.44634138  1
  Ti  Ti18  1  0.84950700  0.10744951  0.79488830  1
  Ti  Ti19  1  0.65049300  0.89255049  0.29488830  1
  P  P20  1  0.47913961  0.75697688  0.12172830  1
  P  P21  1  0.73391653  0.99587307  0.49981469  1
  P  P22  1  0.97913961  0.74302312  0.87827170  1
  P  P23  1  0.26608347  0.49587307  0.00018531  1
  P  P24  1  0.02086039  0.24302312  0.62172830  1
  P  P25  1  0.75975139  0.49068924  0.75328760  1
  P  P26  1  0.52086039  0.25697688  0.37827170  1
  P  P27  1  0.25975139  0.00931076  0.24671240  1
  P  P28  1  0.50074253  0.74398834  0.62769533  1
  P  P29  1  0.76608347  0.00412693  0.99981469  1
  P  P30  1  0.00074253  0.75601166  0.37230467  1
  P  P31  1  0.99925747  0.25601166  0.12769533  1
  P  P32  1  0.24024861  0.99068924  0.74671240  1
  P  P33  1  0.74024861  0.50931076  0.25328760  1
  P  P34  1  0.23391653  0.50412693  0.50018531  1
  P  P35  1  0.49925747  0.24398834  0.87230467  1
  O  O36  1  0.11588307  0.43232391  0.44510094  1
  O  O37  1  0.16248982  0.42401248  0.93591677  1
  O  O38  1  0.88485678  0.18632870  0.19213754  1
  O  O39  1  0.13910750  0.55697330  0.06122859  1
  O  O40  1  0.86023707  0.67682496  0.93852074  1
  O  O41  1  0.88051158  0.55363722  0.68692696  1
  O  O42  1  0.13755674  0.31209709  0.68664003  1
  O  O43  1  0.36244326  0.68790291  0.18664003  1
  O  O44  1  0.63910750  0.94302670  0.93877141  1
  O  O45  1  0.86244326  0.81209709  0.81335997  1
  O  O46  1  0.37558089  0.92940634  0.80317210  1
  O  O47  1  0.90746430  0.68926487  0.44408927  1
  O  O48  1  0.79910191  0.49889474  0.50226056  1
  O  O49  1  0.66248982  0.07598752  0.06408323  1
  O  O50  1  0.62085642  0.92554008  0.43377365  1
  O  O51  1  0.45901821  0.24939557  0.62113953  1
  O  O52  1  0.61802959  0.58517975  0.30464314  1
  O  O53  1  0.90681576  0.17278807  0.68344010  1
  O  O54  1  0.70089809  0.50110526  0.00226056  1
  O  O55  1  0.63784806  0.18476227  0.81676579  1
  O  O56  1  0.13976293  0.17682496  0.56147926  1
  O  O57  1  0.61948842  0.44636278  0.18692696  1
  O  O58  1  0.40681576  0.32721193  0.31655990  1
  O  O59  1  0.46446591  0.76436556  0.36171260  1
  O  O60  1  0.87558089  0.57059366  0.19682790  1
  O  O61  1  0.86089250  0.05697330  0.43877141  1
  O  O62  1  0.62440488  0.66787261  0.57869606  1
  O  O63  1  0.11802959  0.91482025  0.69535686  1
  O  O64  1  0.90464170  0.31175506  0.56291917  1
  O  O65  1  0.61514322  0.81367130  0.69213754  1
  O  O66  1  0.96446591  0.73563444  0.63828740  1
  O  O67  1  0.23028020  0.48822249  0.74118267  1
  O  O68  1  0.53553409  0.26436556  0.13828740  1
  O  O69  1  0.09318424  0.67278807  0.81655990  1
  O  O70  1  0.73028020  0.01177751  0.25881733  1
  O  O71  1  0.36215194  0.68476227  0.68323421  1
  O  O72  1  0.61588307  0.06767609  0.55489906  1
  O  O73  1  0.59535830  0.68824494  0.06291917  1
  O  O74  1  0.33751018  0.57598752  0.43591677  1
  O  O75  1  0.03553409  0.23563444  0.86171260  1
  O  O76  1  0.88197041  0.41482025  0.80464314  1
  O  O77  1  0.59253570  0.31073513  0.94408927  1
  O  O78  1  0.13784806  0.31523773  0.18323421  1
  O  O79  1  0.63755674  0.18790291  0.31335997  1
  O  O80  1  0.11514322  0.68632870  0.30786246  1
  O  O81  1  0.40746430  0.81073513  0.55591073  1
  O  O82  1  0.59318424  0.82721193  0.18344010  1
  O  O83  1  0.33507850  0.06154452  0.67993141  1
  O  O84  1  0.87914358  0.07445992  0.93377365  1
  O  O85  1  0.36089250  0.44302670  0.56122859  1
  O  O86  1  0.12085642  0.57445992  0.56622635  1
  O  O87  1  0.11948842  0.05363722  0.81307304  1
  O  O88  1  0.20089809  0.99889474  0.99773944  1
  O  O89  1  0.86215194  0.81523773  0.31676579  1
  O  O90  1  0.54098179  0.74939557  0.87886047  1
  O  O91  1  0.04098179  0.75060443  0.12113953  1
  O  O92  1  0.88411693  0.93232391  0.05489906  1
  O  O93  1  0.83507850  0.43845548  0.32006859  1
  O  O94  1  0.09253570  0.18926487  0.05591073  1
  O  O95  1  0.63976293  0.32317504  0.43852074  1
  O  O96  1  0.37559512  0.16787261  0.92130394  1
  O  O97  1  0.36023707  0.82317504  0.06147926  1
  O  O98  1  0.83751018  0.92401248  0.56408323  1
  O  O99  1  0.38051158  0.94636278  0.31307304  1
  O  O100  1  0.66492150  0.56154452  0.82006859  1
  O  O101  1  0.38411693  0.56767609  0.94510094  1
  O  O102  1  0.16492150  0.93845548  0.17993141  1
  O  O103  1  0.95901821  0.25060443  0.37886047  1
  O  O104  1  0.09535830  0.81175506  0.93708083  1
  O  O105  1  0.62441911  0.42940634  0.69682790  1
  O  O106  1  0.26971980  0.51177751  0.24118267  1
  O  O107  1  0.40464170  0.18824494  0.43708083  1
  O  O108  1  0.76971980  0.98822249  0.75881733  1
  O  O109  1  0.38485678  0.31367130  0.80786246  1
  O  O110  1  0.12440488  0.83212739  0.42130394  1
  O  O111  1  0.37914358  0.42554008  0.06622635  1
  O  O112  1  0.38197041  0.08517975  0.19535686  1
  O  O113  1  0.12441911  0.07059366  0.30317210  1
  O  O114  1  0.87559512  0.33212739  0.07869606  1
  O  O115  1  0.29910191  0.00110526  0.49773944  1
