# generated using pymatgen
data_Nd4S3NCl3
_symmetry_space_group_name_H-M   'P 1'
_cell_length_a   9.37166201
_cell_length_b   9.37166182
_cell_length_c   6.88513218
_cell_angle_alpha   90.00000000
_cell_angle_beta   90.00000000
_cell_angle_gamma   120.00000072
_symmetry_Int_Tables_number   1
_chemical_formula_structural   Nd4S3NCl3
_chemical_formula_sum   'Nd8 S6 N2 Cl6'
_cell_volume   523.69223737
_cell_formula_units_Z   2
loop_
 _symmetry_equiv_pos_site_id
 _symmetry_equiv_pos_as_xyz
  1  'x, y, z'
loop_
 _atom_site_type_symbol
 _atom_site_label
 _atom_site_symmetry_multiplicity
 _atom_site_fract_x
 _atom_site_fract_y
 _atom_site_fract_z
 _atom_site_occupancy
  Nd  Nd0  1  0.66666700  0.33333300  0.28655954  1
  Nd  Nd1  1  0.20216173  0.79783827  0.25208993  1
  Nd  Nd2  1  0.79783827  0.59567653  0.75208993  1
  Nd  Nd3  1  0.79783827  0.20216173  0.75208993  1
  Nd  Nd4  1  0.59567653  0.79783827  0.25208993  1
  Nd  Nd5  1  0.33333300  0.66666700  0.78655954  1
  Nd  Nd6  1  0.20216173  0.40432347  0.25208993  1
  Nd  Nd7  1  0.40432347  0.20216173  0.75208993  1
  S  S8  1  0.53258720  0.46741280  0.03037044  1
  S  S9  1  0.53258720  0.06517440  0.03037044  1
  S  S10  1  0.06517440  0.53258720  0.53037044  1
  S  S11  1  0.93482560  0.46741280  0.03037044  1
  S  S12  1  0.46741280  0.93482560  0.53037044  1
  S  S13  1  0.46741280  0.53258720  0.53037044  1
  N  N14  1  0.66666700  0.33333300  0.63101328  1
  N  N15  1  0.33333300  0.66666700  0.13101328  1
  Cl  Cl16  1  0.13132413  0.26264826  0.86248536  1
  Cl  Cl17  1  0.73735174  0.86867587  0.86248536  1
  Cl  Cl18  1  0.26264826  0.13132413  0.36248536  1
  Cl  Cl19  1  0.86867587  0.13132413  0.36248536  1
  Cl  Cl20  1  0.86867587  0.73735174  0.36248536  1
  Cl  Cl21  1  0.13132413  0.86867587  0.86248536  1
