# generated using pymatgen
data_K2ZrSi2O7
_symmetry_space_group_name_H-M   'P 1'
_cell_length_a   5.64516322
_cell_length_b   9.70797753
_cell_length_c   13.20487556
_cell_angle_alpha   104.11585739
_cell_angle_beta   90.00000000
_cell_angle_gamma   90.00000000
_symmetry_Int_Tables_number   1
_chemical_formula_structural   K2ZrSi2O7
_chemical_formula_sum   'K8 Zr4 Si8 O28'
_cell_volume   701.81686139
_cell_formula_units_Z   4
loop_
 _symmetry_equiv_pos_site_id
 _symmetry_equiv_pos_as_xyz
  1  'x, y, z'
loop_
 _atom_site_type_symbol
 _atom_site_label
 _atom_site_symmetry_multiplicity
 _atom_site_fract_x
 _atom_site_fract_y
 _atom_site_fract_z
 _atom_site_occupancy
  K  K0  1  0.24636700  0.39164607  0.42861996  1
  K  K1  1  0.75686502  0.88487250  0.40153040  1
  K  K2  1  0.74636700  0.10835393  0.07138004  1
  K  K3  1  0.25363300  0.89164607  0.92861996  1
  K  K4  1  0.75363300  0.60835393  0.57138004  1
  K  K5  1  0.24313498  0.11512750  0.59846960  1
  K  K6  1  0.25686502  0.61512750  0.09846960  1
  K  K7  1  0.74313498  0.38487250  0.90153040  1
  Zr  Zr8  1  0.75657516  0.00521166  0.77036734  1
  Zr  Zr9  1  0.25657516  0.49478834  0.72963266  1
  Zr  Zr10  1  0.24342484  0.99478834  0.22963266  1
  Zr  Zr11  1  0.74342484  0.50521166  0.27036734  1
  Si  Si12  1  0.26356546  0.80394642  0.62933252  1
  Si  Si13  1  0.23643454  0.30394642  0.12933252  1
  Si  Si14  1  0.76356546  0.69605358  0.87066748  1
  Si  Si15  1  0.73643454  0.19605358  0.37066748  1
  Si  Si16  1  0.25163481  0.72186749  0.38627031  1
  Si  Si17  1  0.24836519  0.22186749  0.88627031  1
  Si  Si18  1  0.74836519  0.27813251  0.61372969  1
  Si  Si19  1  0.75163481  0.77813251  0.11372969  1
  O  O20  1  0.21752033  0.82226375  0.50784275  1
  O  O21  1  0.99643148  0.13762730  0.88028320  1
  O  O22  1  0.52521422  0.88578050  0.13752104  1
  O  O23  1  0.74931956  0.86425641  0.87226800  1
  O  O24  1  0.47478578  0.11421950  0.86247896  1
  O  O25  1  0.50356852  0.63762730  0.38028320  1
  O  O26  1  0.97478578  0.38578050  0.63752104  1
  O  O27  1  0.75068044  0.36425641  0.37226800  1
  O  O28  1  0.25423879  0.33797256  0.81494729  1
  O  O29  1  0.71752033  0.67773625  0.99215725  1
  O  O30  1  0.49643148  0.36237270  0.61971680  1
  O  O31  1  0.02521422  0.61421950  0.36247896  1
  O  O32  1  0.05192016  0.89851928  0.69626718  1
  O  O33  1  0.74576121  0.66202744  0.18505271  1
  O  O34  1  0.78247967  0.17773625  0.49215725  1
  O  O35  1  0.24576121  0.83797256  0.31494729  1
  O  O36  1  0.02390513  0.62644115  0.83546768  1
  O  O37  1  0.94807984  0.10148072  0.30373282  1
  O  O38  1  0.52390513  0.87355885  0.66453232  1
  O  O39  1  0.25068044  0.13574359  0.12773200  1
  O  O40  1  0.75423879  0.16202744  0.68505271  1
  O  O41  1  0.24931956  0.63574359  0.62773200  1
  O  O42  1  0.28247967  0.32226375  0.00784275  1
  O  O43  1  0.97609487  0.37355885  0.16453232  1
  O  O44  1  0.47609487  0.12644115  0.33546768  1
  O  O45  1  0.44807984  0.39851928  0.19626718  1
  O  O46  1  0.00356852  0.86237270  0.11971680  1
  O  O47  1  0.55192016  0.60148072  0.80373282  1
