# generated using pymatgen
data_Ca4P6O19
_symmetry_space_group_name_H-M   'P 1'
_cell_length_a   6.95365102
_cell_length_b   9.27378602
_cell_length_c   12.99320026
_cell_angle_alpha   109.50578828
_cell_angle_beta   99.83895741
_cell_angle_gamma   91.86738516
_symmetry_Int_Tables_number   1
_chemical_formula_structural   Ca4P6O19
_chemical_formula_sum   'Ca8 P12 O38'
_cell_volume   774.55015539
_cell_formula_units_Z   2
loop_
 _symmetry_equiv_pos_site_id
 _symmetry_equiv_pos_as_xyz
  1  'x, y, z'
loop_
 _atom_site_type_symbol
 _atom_site_label
 _atom_site_symmetry_multiplicity
 _atom_site_fract_x
 _atom_site_fract_y
 _atom_site_fract_z
 _atom_site_occupancy
  Ca  Ca0  1  0.80821996  0.99283923  0.36643663  1
  Ca  Ca1  1  0.64471271  0.13164127  0.87808342  1
  Ca  Ca2  1  0.35528729  0.86835873  0.12191658  1
  Ca  Ca3  1  0.90160466  0.35076599  0.66665715  1
  Ca  Ca4  1  0.97266735  0.81778539  0.85231487  1
  Ca  Ca5  1  0.09839534  0.64923401  0.33334285  1
  Ca  Ca6  1  0.02733265  0.18221461  0.14768513  1
  Ca  Ca7  1  0.19178004  0.00716077  0.63356337  1
  P  P8  1  0.12551535  0.18857093  0.88043173  1
  P  P9  1  0.87448465  0.81142907  0.11956827  1
  P  P10  1  0.79534334  0.37078969  0.37892628  1
  P  P11  1  0.72992412  0.94711425  0.62515724  1
  P  P12  1  0.62675084  0.67012662  0.41698050  1
  P  P13  1  0.28784010  0.46010106  0.09349136  1
  P  P14  1  0.20465666  0.62921031  0.62107372  1
  P  P15  1  0.27007588  0.05288575  0.37484276  1
  P  P16  1  0.37324916  0.32987338  0.58301950  1
  P  P17  1  0.46355094  0.75996065  0.84863088  1
  P  P18  1  0.71215990  0.53989894  0.90650864  1
  P  P19  1  0.53644906  0.24003935  0.15136912  1
  O  O20  1  0.24624324  0.34786298  0.96744624  1
  O  O21  1  0.21933915  0.26611279  0.63006626  1
  O  O22  1  0.00532117  0.76914608  0.20877947  1
  O  O23  1  0.99467883  0.23085392  0.79122053  1
  O  O24  1  0.57620184  0.37648868  0.64906633  1
  O  O25  1  0.16144478  0.72224963  0.54600914  1
  O  O26  1  0.69378948  0.18693917  0.08424783  1
  O  O27  1  0.61373415  0.78441037  0.53711912  1
  O  O28  1  0.66140799  0.38203095  0.90421715  1
  O  O29  1  0.61338353  0.27228935  0.28170456  1
  O  O30  1  0.29234065  0.47733377  0.55227614  1
  O  O31  1  0.10801187  0.09564984  0.29781318  1
  O  O32  1  0.89198813  0.90435016  0.70218682  1
  O  O33  1  0.70765935  0.52266623  0.44772386  1
  O  O34  1  0.78066085  0.73388721  0.36993374  1
  O  O35  1  0.35260292  0.13205793  0.12190827  1
  O  O36  1  0.28702689  0.09035454  0.83525461  1
  O  O37  1  0.49117556  0.40410560  0.14489483  1
  O  O38  1  0.87015413  0.56986166  0.84753777  1
  O  O39  1  0.17814034  0.96720442  0.44072883  1
  O  O40  1  0.00267457  0.11699977  0.94317110  1
  O  O41  1  0.64739708  0.86794207  0.87809173  1
  O  O42  1  0.75375676  0.65213702  0.03255376  1
  O  O43  1  0.95156782  0.40881679  0.32228758  1
  O  O44  1  0.38661647  0.72771065  0.71829544  1
  O  O45  1  0.71297311  0.90964546  0.16474539  1
  O  O46  1  0.43421043  0.97418789  0.31909778  1
  O  O47  1  0.56578957  0.02581211  0.68090222  1
  O  O48  1  0.33859201  0.61796905  0.09578285  1
  O  O49  1  0.42379816  0.62351132  0.35093367  1
  O  O50  1  0.99732543  0.88300023  0.05682890  1
  O  O51  1  0.83855522  0.27775037  0.45399086  1
  O  O52  1  0.04843218  0.59118321  0.67771242  1
  O  O53  1  0.82185966  0.03279558  0.55927117  1
  O  O54  1  0.38626585  0.21558963  0.46288088  1
  O  O55  1  0.12984587  0.43013834  0.15246223  1
  O  O56  1  0.50882444  0.59589440  0.85510517  1
  O  O57  1  0.30621052  0.81306083  0.91575217  1
