# generated using pymatgen
data_Ba5Al2In2IrClO13
_symmetry_space_group_name_H-M   'P 1'
_cell_length_a   5.94303676
_cell_length_b   5.94303688
_cell_length_c   25.55257609
_cell_angle_alpha   90.00000000
_cell_angle_beta   90.00000000
_cell_angle_gamma   119.99999932
_symmetry_Int_Tables_number   1
_chemical_formula_structural   Ba5Al2In2IrClO13
_chemical_formula_sum   'Ba10 Al4 In4 Ir2 Cl2 O26'
_cell_volume   781.59570972
_cell_formula_units_Z   2
loop_
 _symmetry_equiv_pos_site_id
 _symmetry_equiv_pos_as_xyz
  1  'x, y, z'
loop_
 _atom_site_type_symbol
 _atom_site_label
 _atom_site_symmetry_multiplicity
 _atom_site_fract_x
 _atom_site_fract_y
 _atom_site_fract_z
 _atom_site_occupancy
  Ba  Ba0  1  0.00000000  0.00000000  0.75000000  1
  Ba  Ba1  1  0.66666700  0.33333300  0.03972220  1
  Ba  Ba2  1  0.33333300  0.66666700  0.53972220  1
  Ba  Ba3  1  0.33333300  0.66666700  0.36840756  1
  Ba  Ba4  1  0.66666700  0.33333300  0.63159244  1
  Ba  Ba5  1  0.66666700  0.33333300  0.86840756  1
  Ba  Ba6  1  0.33333300  0.66666700  0.96027780  1
  Ba  Ba7  1  0.33333300  0.66666700  0.13159244  1
  Ba  Ba8  1  0.66666700  0.33333300  0.46027780  1
  Ba  Ba9  1  0.00000000  0.00000000  0.25000000  1
  Al  Al10  1  0.33333300  0.66666700  0.68203889  1
  Al  Al11  1  0.66666700  0.33333300  0.18203889  1
  Al  Al12  1  0.66666700  0.33333300  0.31796111  1
  Al  Al13  1  0.33333300  0.66666700  0.81796111  1
  In  In14  1  0.00000000  0.00000000  0.88743518  1
  In  In15  1  0.00000000  0.00000000  0.11256482  1
  In  In16  1  0.00000000  0.00000000  0.38743518  1
  In  In17  1  0.00000000  0.00000000  0.61256482  1
  Ir  Ir18  1  0.00000000  0.00000000  0.50000000  1
  Ir  Ir19  1  0.00000000  0.00000000  0.00000000  1
  Cl  Cl20  1  0.66666700  0.33333300  0.75000000  1
  Cl  Cl21  1  0.33333300  0.66666700  0.25000000  1
  O  O22  1  0.82671098  0.65342195  0.15592755  1
  O  O23  1  0.33333300  0.66666700  0.75000000  1
  O  O24  1  0.84544777  0.69089554  0.54767790  1
  O  O25  1  0.17328902  0.82671098  0.84407245  1
  O  O26  1  0.82671098  0.17328902  0.34407245  1
  O  O27  1  0.15455223  0.84544777  0.45232210  1
  O  O28  1  0.15455223  0.84544777  0.04767790  1
  O  O29  1  0.34657805  0.17328902  0.34407245  1
  O  O30  1  0.15455223  0.30910446  0.45232210  1
  O  O31  1  0.84544777  0.15455223  0.95232210  1
  O  O32  1  0.30910446  0.15455223  0.54767790  1
  O  O33  1  0.17328902  0.82671098  0.65592755  1
  O  O34  1  0.69089554  0.84544777  0.45232210  1
  O  O35  1  0.66666700  0.33333300  0.25000000  1
  O  O36  1  0.17328902  0.34657805  0.84407245  1
  O  O37  1  0.17328902  0.34657805  0.65592755  1
  O  O38  1  0.82671098  0.65342195  0.34407245  1
  O  O39  1  0.69089554  0.84544777  0.04767790  1
  O  O40  1  0.30910446  0.15455223  0.95232210  1
  O  O41  1  0.84544777  0.15455223  0.54767790  1
  O  O42  1  0.65342195  0.82671098  0.65592755  1
  O  O43  1  0.82671098  0.17328902  0.15592755  1
  O  O44  1  0.34657805  0.17328902  0.15592755  1
  O  O45  1  0.84544777  0.69089554  0.95232210  1
  O  O46  1  0.15455223  0.30910446  0.04767790  1
  O  O47  1  0.65342195  0.82671098  0.84407245  1
