# generated using pymatgen
data_TiPCl7O
_symmetry_space_group_name_H-M   'P 1'
_cell_length_a   13.03422141
_cell_length_b   13.16202189
_cell_length_c   14.09186633
_cell_angle_alpha   90.00000000
_cell_angle_beta   90.00000000
_cell_angle_gamma   90.00000000
_symmetry_Int_Tables_number   1
_chemical_formula_structural   TiPCl7O
_chemical_formula_sum   'Ti8 P8 Cl56 O8'
_cell_volume   2417.55419035
_cell_formula_units_Z   8
loop_
 _symmetry_equiv_pos_site_id
 _symmetry_equiv_pos_as_xyz
  1  'x, y, z'
loop_
 _atom_site_type_symbol
 _atom_site_label
 _atom_site_symmetry_multiplicity
 _atom_site_fract_x
 _atom_site_fract_y
 _atom_site_fract_z
 _atom_site_occupancy
  Ti  Ti0  1  0.93685750  0.86564630  0.00077498  1
  Ti  Ti1  1  0.06314250  0.36564630  0.49922502  1
  Ti  Ti2  1  0.06314250  0.13435370  0.99922502  1
  Ti  Ti3  1  0.56314250  0.13435370  0.50077498  1
  Ti  Ti4  1  0.93685750  0.63435370  0.50077498  1
  Ti  Ti5  1  0.56314250  0.36564630  0.00077498  1
  Ti  Ti6  1  0.43685750  0.86564630  0.49922502  1
  Ti  Ti7  1  0.43685750  0.63435370  0.99922502  1
  P  P8  1  0.68478860  0.06678990  0.71646941  1
  P  P9  1  0.18478860  0.43321010  0.28353059  1
  P  P10  1  0.81521140  0.56678990  0.71646941  1
  P  P11  1  0.81521140  0.93321010  0.21646941  1
  P  P12  1  0.68478860  0.43321010  0.21646941  1
  P  P13  1  0.31521140  0.56678990  0.78353059  1
  P  P14  1  0.18478860  0.06678990  0.78353059  1
  P  P15  1  0.31521140  0.93321010  0.28353059  1
  Cl  Cl16  1  0.22902048  0.17042233  0.02356961  1
  Cl  Cl17  1  0.77297368  0.18629299  0.74309516  1
  Cl  Cl18  1  0.88008439  0.97009911  0.33897784  1
  Cl  Cl19  1  0.39959231  0.04792700  0.54198371  1
  Cl  Cl20  1  0.78129244  0.95477275  0.68496715  1
  Cl  Cl21  1  0.77097952  0.67042233  0.47643039  1
  Cl  Cl22  1  0.10040769  0.54792700  0.54198371  1
  Cl  Cl23  1  0.11991561  0.47009911  0.16102216  1
  Cl  Cl24  1  0.49022901  0.72096161  0.43159218  1
  Cl  Cl25  1  0.50977099  0.27903839  0.56840782  1
  Cl  Cl26  1  0.50965909  0.16952941  0.35391643  1
  Cl  Cl27  1  0.49022901  0.77903839  0.93159218  1
  Cl  Cl28  1  0.77297368  0.31370701  0.24309516  1
  Cl  Cl29  1  0.00977099  0.22096161  0.43159218  1
  Cl  Cl30  1  0.11991561  0.02990089  0.66102216  1
  Cl  Cl31  1  0.27097952  0.82957767  0.52356961  1
  Cl  Cl32  1  0.99034091  0.83047059  0.85391643  1
  Cl  Cl33  1  0.21870756  0.04522725  0.31503285  1
  Cl  Cl34  1  0.00965909  0.33047059  0.64608357  1
  Cl  Cl35  1  0.72902048  0.32957767  0.97643039  1
  Cl  Cl36  1  0.50965909  0.33047059  0.85391643  1
  Cl  Cl37  1  0.60040769  0.95207300  0.45801629  1
  Cl  Cl38  1  0.27097952  0.67042233  0.02356961  1
  Cl  Cl39  1  0.22702632  0.81370701  0.25690484  1
  Cl  Cl40  1  0.28129244  0.95477275  0.81503285  1
  Cl  Cl41  1  0.99022901  0.77903839  0.56840782  1
  Cl  Cl42  1  0.21870756  0.45477275  0.81503285  1
  Cl  Cl43  1  0.22902048  0.32957767  0.52356961  1
  Cl  Cl44  1  0.89959231  0.04792700  0.95801629  1
  Cl  Cl45  1  0.22702632  0.68629299  0.75690484  1
  Cl  Cl46  1  0.10040769  0.95207300  0.04198371  1
  Cl  Cl47  1  0.77097952  0.82957767  0.97643039  1
  Cl  Cl48  1  0.71870756  0.45477275  0.68496715  1
  Cl  Cl49  1  0.78129244  0.54522725  0.18496715  1
  Cl  Cl50  1  0.38008439  0.52990089  0.66102216  1
  Cl  Cl51  1  0.49034091  0.66952941  0.14608357  1
  Cl  Cl52  1  0.71870756  0.04522725  0.18496715  1
  Cl  Cl53  1  0.88008439  0.52990089  0.83897784  1
  Cl  Cl54  1  0.28129244  0.54522725  0.31503285  1
  Cl  Cl55  1  0.72902048  0.17042233  0.47643039  1
  Cl  Cl56  1  0.61991561  0.47009911  0.33897784  1
  Cl  Cl57  1  0.99034091  0.66952941  0.35391643  1
  Cl  Cl58  1  0.60040769  0.54792700  0.95801629  1
  Cl  Cl59  1  0.38008439  0.97009911  0.16102216  1
  Cl  Cl60  1  0.49034091  0.83047059  0.64608357  1
  Cl  Cl61  1  0.00965909  0.16952941  0.14608357  1
  Cl  Cl62  1  0.00977099  0.27903839  0.93159218  1
  Cl  Cl63  1  0.72702632  0.68629299  0.74309516  1
  Cl  Cl64  1  0.50977099  0.22096161  0.06840782  1
  Cl  Cl65  1  0.99022901  0.72096161  0.06840782  1
  Cl  Cl66  1  0.27297368  0.31370701  0.25690484  1
  Cl  Cl67  1  0.89959231  0.45207300  0.45801629  1
  Cl  Cl68  1  0.27297368  0.18629299  0.75690484  1
  Cl  Cl69  1  0.72702632  0.81370701  0.24309516  1
  Cl  Cl70  1  0.39959231  0.45207300  0.04198371  1
  Cl  Cl71  1  0.61991561  0.02990089  0.83897784  1
  O  O72  1  0.89381878  0.91531348  0.14191882  1
  O  O73  1  0.60618122  0.08468652  0.64191882  1
  O  O74  1  0.10618122  0.08468652  0.85808118  1
  O  O75  1  0.89381878  0.58468652  0.64191882  1
  O  O76  1  0.60618122  0.41531348  0.14191882  1
  O  O77  1  0.39381878  0.58468652  0.85808118  1
  O  O78  1  0.10618122  0.41531348  0.35808118  1
  O  O79  1  0.39381878  0.91531348  0.35808118  1
