# generated using pymatgen
data_Ba3NaNd3(Si3O10)2
_symmetry_space_group_name_H-M   'P 1'
_cell_length_a   5.65357932
_cell_length_b   12.54874306
_cell_length_c   15.00677366
_cell_angle_alpha   90.00000000
_cell_angle_beta   90.00000000
_cell_angle_gamma   103.01844779
_symmetry_Int_Tables_number   1
_chemical_formula_structural   Ba3NaNd3(Si3O10)2
_chemical_formula_sum   'Ba6 Na2 Nd6 Si12 O40'
_cell_volume   1037.29593411
_cell_formula_units_Z   2
loop_
 _symmetry_equiv_pos_site_id
 _symmetry_equiv_pos_as_xyz
  1  'x, y, z'
loop_
 _atom_site_type_symbol
 _atom_site_label
 _atom_site_symmetry_multiplicity
 _atom_site_fract_x
 _atom_site_fract_y
 _atom_site_fract_z
 _atom_site_occupancy
  Ba  Ba0  1  0.17440274  0.48655754  0.61327922  1
  Ba  Ba1  1  0.68784520  0.51344246  0.38672078  1
  Ba  Ba2  1  0.68784520  0.51344246  0.11327922  1
  Ba  Ba3  1  0.01394185  0.16637826  0.75000000  1
  Ba  Ba4  1  0.84756360  0.83362174  0.25000000  1
  Ba  Ba5  1  0.17440274  0.48655754  0.88672078  1
  Na  Na6  1  0.24386117  0.77611100  0.75000000  1
  Na  Na7  1  0.46775016  0.22388900  0.25000000  1
  Nd  Nd8  1  0.39112014  0.77814292  0.46879855  1
  Nd  Nd9  1  0.61297722  0.22185708  0.96879855  1
  Nd  Nd10  1  0.39112014  0.77814292  0.03120145  1
  Nd  Nd11  1  0.61297722  0.22185708  0.53120145  1
  Nd  Nd12  1  0.00856971  0.00000000  0.50000000  1
  Nd  Nd13  1  0.00856971  0.00000000  0.00000000  1
  Si  Si14  1  0.11481578  0.30448921  0.05778820  1
  Si  Si15  1  0.81032657  0.69551079  0.55778820  1
  Si  Si16  1  0.44292998  0.00149144  0.64119684  1
  Si  Si17  1  0.71439970  0.62142718  0.75000000  1
  Si  Si18  1  0.11481578  0.30448921  0.44221180  1
  Si  Si19  1  0.09297253  0.37857282  0.25000000  1
  Si  Si20  1  0.44143854  0.99850856  0.35880316  1
  Si  Si21  1  0.44292998  0.00149144  0.85880316  1
  Si  Si22  1  0.81032657  0.69551079  0.94221180  1
  Si  Si23  1  0.64425934  0.36306113  0.75000000  1
  Si  Si24  1  0.44143854  0.99850856  0.14119684  1
  Si  Si25  1  0.28119821  0.63693887  0.25000000  1
  O  O26  1  0.97132376  0.18068549  0.46832294  1
  O  O27  1  0.72308808  0.05373713  0.88966798  1
  O  O28  1  0.87441957  0.68590352  0.66580961  1
  O  O29  1  0.92151581  0.37959942  0.03283725  1
  O  O30  1  0.43025295  0.61947997  0.75000000  1
  O  O31  1  0.79063827  0.81931451  0.53167706  1
  O  O32  1  0.29034900  0.09706810  0.87976401  1
  O  O33  1  0.28499260  0.50107093  0.25000000  1
  O  O34  1  0.30366742  0.89414233  0.91435240  1
  O  O35  1  0.35332980  0.35438995  0.75000000  1
  O  O36  1  0.19328090  0.90293190  0.37976401  1
  O  O37  1  0.54191640  0.62040058  0.96716275  1
  O  O38  1  0.75887428  0.31374651  0.66275253  1
  O  O39  1  0.02137449  0.65165972  0.99588079  1
  O  O40  1  0.18851605  0.31409648  0.16580961  1
  O  O41  1  0.40952508  0.10585767  0.41435240  1
  O  O42  1  0.40952508  0.10585767  0.08564760  1
  O  O43  1  0.66935095  0.94626287  0.11033202  1
  O  O44  1  0.99893985  0.64561005  0.25000000  1
  O  O45  1  0.81077298  0.38052003  0.25000000  1
  O  O46  1  0.29034900  0.09706810  0.62023599  1
  O  O47  1  0.87441957  0.68590352  0.83419039  1
  O  O48  1  0.66935095  0.94626287  0.38966798  1
  O  O49  1  0.44512778  0.68625349  0.16275253  1
  O  O50  1  0.97132376  0.18068549  0.03167706  1
  O  O51  1  0.43187101  0.96971544  0.75000000  1
  O  O52  1  0.92151581  0.37959942  0.46716275  1
  O  O53  1  0.78392167  0.49892907  0.75000000  1
  O  O54  1  0.02137449  0.65165972  0.50411921  1
  O  O55  1  0.75887428  0.31374651  0.83724747  1
  O  O56  1  0.54191640  0.62040058  0.53283725  1
  O  O57  1  0.36971478  0.34834028  0.00411921  1
  O  O58  1  0.72308808  0.05373713  0.61033202  1
  O  O59  1  0.30366742  0.89414233  0.58564760  1
  O  O60  1  0.18851605  0.31409648  0.33419039  1
  O  O61  1  0.19328090  0.90293190  0.12023599  1
  O  O62  1  0.79063827  0.81931451  0.96832294  1
  O  O63  1  0.44512778  0.68625349  0.33724747  1
  O  O64  1  0.46215557  0.03028456  0.25000000  1
  O  O65  1  0.36971478  0.34834028  0.49588079  1
