# generated using pymatgen
data_V4NO11
_symmetry_space_group_name_H-M   'P 1'
_cell_length_a   3.68587213
_cell_length_b   6.08491114
_cell_length_c   10.59290222
_cell_angle_alpha   90.68092334
_cell_angle_beta   90.00000000
_cell_angle_gamma   72.36994585
_symmetry_Int_Tables_number   1
_chemical_formula_structural   V4NO11
_chemical_formula_sum   'V4 N1 O11'
_cell_volume   226.40350821
_cell_formula_units_Z   1
loop_
 _symmetry_equiv_pos_site_id
 _symmetry_equiv_pos_as_xyz
  1  'x, y, z'
loop_
 _atom_site_type_symbol
 _atom_site_label
 _atom_site_symmetry_multiplicity
 _atom_site_fract_x
 _atom_site_fract_y
 _atom_site_fract_z
 _atom_site_occupancy
  V  V0  1  0.93458931  0.13082139  0.15930043  1
  V  V1  1  0.06849908  0.86300185  0.83928320  1
  V  V2  1  0.22781912  0.54436177  0.16824921  1
  V  V3  1  0.77430059  0.45139881  0.83095404  1
  N  N4  1  0.53787264  0.92425471  0.49203667  1
  O  O5  1  0.94988195  0.10023610  0.31053581  1
  O  O6  1  0.05577669  0.88844662  0.68748180  1
  O  O7  1  0.39829594  0.20340812  0.12880460  1
  O  O8  1  0.60376678  0.79246643  0.87086164  1
  O  O9  1  0.76057610  0.47884780  0.12969420  1
  O  O10  1  0.24198874  0.51602252  0.87039357  1
  O  O11  1  0.21083441  0.57833118  0.31916082  1
  O  O12  1  0.79068327  0.41863346  0.67985498  1
  O  O13  1  0.08276837  0.83446327  0.10003000  1
  O  O14  1  0.91976990  0.16046019  0.89800993  1
  O  O15  1  0.44257711  0.11484577  0.51534909  1
