# generated using pymatgen
data_K3Nb(SO4)4
_symmetry_space_group_name_H-M   'P 1'
_cell_length_a   8.15948891
_cell_length_b   12.75518084
_cell_length_c   14.88765038
_cell_angle_alpha   90.00000000
_cell_angle_beta   90.00000000
_cell_angle_gamma   90.00000000
_symmetry_Int_Tables_number   1
_chemical_formula_structural   K3Nb(SO4)4
_chemical_formula_sum   'K12 Nb4 S16 O64'
_cell_volume   1549.44347743
_cell_formula_units_Z   4
loop_
 _symmetry_equiv_pos_site_id
 _symmetry_equiv_pos_as_xyz
  1  'x, y, z'
loop_
 _atom_site_type_symbol
 _atom_site_label
 _atom_site_symmetry_multiplicity
 _atom_site_fract_x
 _atom_site_fract_y
 _atom_site_fract_z
 _atom_site_occupancy
  K  K0  1  0.86327214  0.75000000  0.93127813  1
  K  K1  1  0.36327214  0.75000000  0.56872187  1
  K  K2  1  0.60754193  0.48664497  0.72918408  1
  K  K3  1  0.63672786  0.25000000  0.43127813  1
  K  K4  1  0.10754193  0.48664497  0.77081592  1
  K  K5  1  0.89245807  0.98664497  0.22918408  1
  K  K6  1  0.60754193  0.01335503  0.72918408  1
  K  K7  1  0.39245807  0.98664497  0.27081592  1
  K  K8  1  0.39245807  0.51335503  0.27081592  1
  K  K9  1  0.10754193  0.01335503  0.77081592  1
  K  K10  1  0.13672786  0.25000000  0.06872187  1
  K  K11  1  0.89245807  0.51335503  0.22918408  1
  Nb  Nb12  1  0.14891131  0.25000000  0.51030921  1
  Nb  Nb13  1  0.85108869  0.75000000  0.48969079  1
  Nb  Nb14  1  0.35108869  0.75000000  0.01030921  1
  Nb  Nb15  1  0.64891131  0.25000000  0.98969079  1
  S  S16  1  0.56938901  0.75000000  0.15780135  1
  S  S17  1  0.72998115  0.54458116  0.47461380  1
  S  S18  1  0.87797374  0.75000000  0.68077252  1
  S  S19  1  0.22998115  0.54458116  0.02538620  1
  S  S20  1  0.37797374  0.75000000  0.81922748  1
  S  S21  1  0.93061099  0.25000000  0.65780135  1
  S  S22  1  0.22998115  0.95541884  0.02538620  1
  S  S23  1  0.12202626  0.25000000  0.31922748  1
  S  S24  1  0.62202626  0.25000000  0.18077252  1
  S  S25  1  0.06938901  0.75000000  0.34219865  1
  S  S26  1  0.72998115  0.95541884  0.47461380  1
  S  S27  1  0.43061099  0.25000000  0.84219865  1
  S  S28  1  0.77001885  0.04458116  0.97461380  1
  S  S29  1  0.27001885  0.04458116  0.52538620  1
  S  S30  1  0.77001885  0.45541884  0.97461380  1
  S  S31  1  0.27001885  0.45541884  0.52538620  1
  O  O32  1  0.66647938  0.01125374  0.55154780  1
  O  O33  1  0.88334019  0.84550315  0.73435935  1
  O  O34  1  0.87519976  0.34610503  0.70012137  1
  O  O35  1  0.72972849  0.01513529  0.39147358  1
  O  O36  1  0.51023186  0.75000000  0.89290185  1
  O  O37  1  0.90268798  0.91013200  0.49534224  1
  O  O38  1  0.59731202  0.08986800  0.99534224  1
  O  O39  1  0.61665981  0.34550315  0.23435935  1
  O  O40  1  0.72972849  0.48486471  0.39147358  1
  O  O41  1  0.77340028  0.25000000  0.11814487  1
  O  O42  1  0.35601558  0.15208312  0.53866357  1
  O  O43  1  0.85601558  0.34791688  0.96133643  1
  O  O44  1  0.37847241  0.75000000  0.15077878  1
  O  O45  1  0.89526218  0.25000000  0.55614394  1
  O  O46  1  0.16647938  0.01125374  0.94845220  1
  O  O47  1  0.38334019  0.84550315  0.76564065  1
  O  O48  1  0.10473782  0.75000000  0.44385606  1
  O  O49  1  0.61665981  0.15449685  0.23435935  1
  O  O50  1  0.37519976  0.15389497  0.79987863  1
  O  O51  1  0.77027151  0.51513529  0.89147358  1
  O  O52  1  0.85601558  0.15208312  0.96133643  1
  O  O53  1  0.40268798  0.58986800  0.00465776  1
  O  O54  1  0.27027151  0.51513529  0.60852642  1
  O  O55  1  0.62152759  0.25000000  0.84922122  1
  O  O56  1  0.22972849  0.01513529  0.10852642  1
  O  O57  1  0.77027151  0.98486471  0.89147358  1
  O  O58  1  0.09731202  0.41013200  0.50465776  1
  O  O59  1  0.14398442  0.84791688  0.03866357  1
  O  O60  1  0.66647938  0.48874626  0.55154780  1
  O  O61  1  0.01023186  0.75000000  0.60709815  1
  O  O62  1  0.22972849  0.48486471  0.10852642  1
  O  O63  1  0.09731202  0.08986800  0.50465776  1
  O  O64  1  0.33352062  0.51125374  0.44845220  1
  O  O65  1  0.62480024  0.65389497  0.20012137  1
  O  O66  1  0.27027151  0.98486471  0.60852642  1
  O  O67  1  0.11665981  0.34550315  0.26564065  1
  O  O68  1  0.14398442  0.65208312  0.03866357  1
  O  O69  1  0.64398442  0.65208312  0.46133643  1
  O  O70  1  0.33352062  0.98874626  0.44845220  1
  O  O71  1  0.16647938  0.48874626  0.94845220  1
  O  O72  1  0.72659972  0.75000000  0.61814487  1
  O  O73  1  0.62480024  0.84610503  0.20012137  1
  O  O74  1  0.27340028  0.25000000  0.38185513  1
  O  O75  1  0.39526218  0.25000000  0.94385606  1
  O  O76  1  0.87519976  0.15389497  0.70012137  1
  O  O77  1  0.83352062  0.51125374  0.05154780  1
  O  O78  1  0.12152759  0.25000000  0.65077878  1
  O  O79  1  0.64398442  0.84791688  0.46133643  1
  O  O80  1  0.12480024  0.65389497  0.29987863  1
  O  O81  1  0.11665981  0.15449685  0.26564065  1
  O  O82  1  0.87847241  0.75000000  0.34922122  1
  O  O83  1  0.88334019  0.65449685  0.73435935  1
  O  O84  1  0.60473782  0.75000000  0.05614394  1
  O  O85  1  0.90268798  0.58986800  0.49534224  1
  O  O86  1  0.48976814  0.25000000  0.10709815  1
  O  O87  1  0.35601558  0.34791688  0.53866357  1
  O  O88  1  0.12480024  0.84610503  0.29987863  1
  O  O89  1  0.59731202  0.41013200  0.99534224  1
  O  O90  1  0.22659972  0.75000000  0.88185513  1
  O  O91  1  0.98976814  0.25000000  0.39290185  1
  O  O92  1  0.83352062  0.98874626  0.05154780  1
  O  O93  1  0.37519976  0.34610503  0.79987863  1
  O  O94  1  0.38334019  0.65449685  0.76564065  1
  O  O95  1  0.40268798  0.91013200  0.00465776  1
