# generated using pymatgen
data_Na4TiAs2O9
_symmetry_space_group_name_H-M   'P 1'
_cell_length_a   7.26574823
_cell_length_b   7.85793980
_cell_length_c   8.83988717
_cell_angle_alpha   90.23423549
_cell_angle_beta   114.26539265
_cell_angle_gamma   90.00000240
_symmetry_Int_Tables_number   1
_chemical_formula_structural   Na4TiAs2O9
_chemical_formula_sum   'Na8 Ti2 As4 O18'
_cell_volume   460.10857723
_cell_formula_units_Z   2
loop_
 _symmetry_equiv_pos_site_id
 _symmetry_equiv_pos_as_xyz
  1  'x, y, z'
loop_
 _atom_site_type_symbol
 _atom_site_label
 _atom_site_symmetry_multiplicity
 _atom_site_fract_x
 _atom_site_fract_y
 _atom_site_fract_z
 _atom_site_occupancy
  Na  Na0  1  0.25495392  1.00000000  0.00000000  1
  Na  Na1  1  0.37422286  0.27869639  0.74844572  1
  Na  Na2  1  0.10714616  0.23838545  0.21429233  1
  Na  Na3  1  0.89285384  0.76161455  0.78570767  1
  Na  Na4  1  0.50000000  0.50000000  0.50000000  1
  Na  Na5  1  0.74504608  0.00000000  1.00000000  1
  Na  Na6  1  0.62577714  0.72130361  0.25155428  1
  Na  Na7  1  0.00000000  0.50000000  0.50000000  1
  Ti  Ti8  1  0.00000000  0.00000000  0.50000000  1
  Ti  Ti9  1  0.50000000  0.00000000  0.50000000  1
  As  As10  1  0.87051401  0.27646799  0.74102801  1
  As  As11  1  0.61230461  0.24013910  0.22460922  1
  As  As12  1  0.12948599  0.72353201  0.25897199  1
  As  As13  1  0.38769539  0.75986090  0.77539078  1
  O  O14  1  0.44571081  0.12915515  0.28718661  1
  O  O15  1  0.49232533  0.78399329  0.98465065  1
  O  O16  1  0.55428919  0.87084485  0.71281339  1
  O  O17  1  0.85914185  0.49040619  0.71828370  1
  O  O18  1  0.61796316  0.21091303  0.63547671  1
  O  O19  1  0.01751356  0.21091303  0.63547671  1
  O  O20  1  0.15852421  0.87084485  0.71281339  1
  O  O21  1  0.03457630  0.81693404  0.06915260  1
  O  O22  1  0.84147579  0.12915515  0.28718661  1
  O  O23  1  0.75816365  0.92980189  0.51632729  1
  O  O24  1  0.98248644  0.78908697  0.36452329  1
  O  O25  1  0.24183635  0.07019811  0.48367271  1
  O  O26  1  0.14085815  0.50959381  0.28171630  1
  O  O27  1  0.50767467  0.21600671  0.01534935  1
  O  O28  1  0.38203684  0.78908697  0.36452329  1
  O  O29  1  0.34396318  0.56313098  0.68792636  1
  O  O30  1  0.96542370  0.18306596  0.93084740  1
  O  O31  1  0.65603682  0.43686902  0.31207364  1
