# generated using pymatgen
data_K3Sm(BO3)2
_symmetry_space_group_name_H-M   'P 1'
_cell_length_a   7.19956745
_cell_length_b   9.08999309
_cell_length_c   11.28572953
_cell_angle_alpha   90.00000000
_cell_angle_beta   90.00000000
_cell_angle_gamma   90.00000000
_symmetry_Int_Tables_number   1
_chemical_formula_structural   K3Sm(BO3)2
_chemical_formula_sum   'K12 Sm4 B8 O24'
_cell_volume   738.58349070
_cell_formula_units_Z   4
loop_
 _symmetry_equiv_pos_site_id
 _symmetry_equiv_pos_as_xyz
  1  'x, y, z'
loop_
 _atom_site_type_symbol
 _atom_site_label
 _atom_site_symmetry_multiplicity
 _atom_site_fract_x
 _atom_site_fract_y
 _atom_site_fract_z
 _atom_site_occupancy
  K  K0  1  0.50358264  0.30092688  0.59700247  1
  K  K1  1  0.25000000  0.06087460  0.36960951  1
  K  K2  1  0.25000000  0.56087460  0.13039049  1
  K  K3  1  0.75000000  0.43912540  0.86960951  1
  K  K4  1  0.00358264  0.69907312  0.40299753  1
  K  K5  1  0.49641736  0.69907312  0.40299753  1
  K  K6  1  0.99641736  0.80092688  0.90299753  1
  K  K7  1  0.75000000  0.93912540  0.63039049  1
  K  K8  1  0.50358264  0.80092688  0.90299753  1
  K  K9  1  0.99641736  0.30092688  0.59700247  1
  K  K10  1  0.00358264  0.19907312  0.09700247  1
  K  K11  1  0.49641736  0.19907312  0.09700247  1
  Sm  Sm12  1  0.25000000  0.12617637  0.83113888  1
  Sm  Sm13  1  0.75000000  0.37382363  0.33113888  1
  Sm  Sm14  1  0.75000000  0.87382363  0.16886112  1
  Sm  Sm15  1  0.25000000  0.62617637  0.66886112  1
  B  B16  1  0.25000000  0.93746840  0.62652726  1
  B  B17  1  0.75000000  0.58874476  0.61603267  1
  B  B18  1  0.25000000  0.43746840  0.87347274  1
  B  B19  1  0.25000000  0.41125524  0.38396733  1
  B  B20  1  0.25000000  0.91125524  0.11603267  1
  B  B21  1  0.75000000  0.08874476  0.88396733  1
  B  B22  1  0.75000000  0.56253160  0.12652726  1
  B  B23  1  0.75000000  0.06253160  0.37347274  1
  O  O24  1  0.75000000  0.66088158  0.03359930  1
  O  O25  1  0.58141465  0.62785849  0.66915948  1
  O  O26  1  0.25000000  0.58851363  0.88407323  1
  O  O27  1  0.75000000  0.16088158  0.46640070  1
  O  O28  1  0.41858535  0.37214151  0.33084052  1
  O  O29  1  0.75000000  0.00844394  0.98985737  1
  O  O30  1  0.25000000  0.49155606  0.48985737  1
  O  O31  1  0.75000000  0.50844394  0.51014263  1
  O  O32  1  0.08141465  0.87214151  0.16915948  1
  O  O33  1  0.25000000  0.33911842  0.96640070  1
  O  O34  1  0.25000000  0.99155606  0.01014263  1
  O  O35  1  0.75000000  0.41148637  0.11592677  1
  O  O36  1  0.41858535  0.87214151  0.16915948  1
  O  O37  1  0.25000000  0.08851363  0.61592677  1
  O  O38  1  0.25000000  0.87836869  0.74239821  1
  O  O39  1  0.25000000  0.37836869  0.75760179  1
  O  O40  1  0.75000000  0.91148637  0.38407323  1
  O  O41  1  0.91858535  0.62785849  0.66915948  1
  O  O42  1  0.25000000  0.83911842  0.53359930  1
  O  O43  1  0.75000000  0.62163131  0.24239821  1
  O  O44  1  0.91858535  0.12785849  0.83084052  1
  O  O45  1  0.08141465  0.37214151  0.33084052  1
  O  O46  1  0.58141465  0.12785849  0.83084052  1
  O  O47  1  0.75000000  0.12163131  0.25760179  1
