# generated using pymatgen
data_K3NdSi7O17
_symmetry_space_group_name_H-M   'P 1'
_cell_length_a   16.36775304
_cell_length_b   16.36775323
_cell_length_c   7.27978047
_cell_angle_alpha   90.00000000
_cell_angle_beta   90.00000000
_cell_angle_gamma   119.99999964
_symmetry_Int_Tables_number   1
_chemical_formula_structural   K3NdSi7O17
_chemical_formula_sum   'K12 Nd4 Si28 O68'
_cell_volume   1688.98988439
_cell_formula_units_Z   4
loop_
 _symmetry_equiv_pos_site_id
 _symmetry_equiv_pos_as_xyz
  1  'x, y, z'
loop_
 _atom_site_type_symbol
 _atom_site_label
 _atom_site_symmetry_multiplicity
 _atom_site_fract_x
 _atom_site_fract_y
 _atom_site_fract_z
 _atom_site_occupancy
  K  K0  1  0.36611350  0.90472724  0.46775077  1
  K  K1  1  0.24297352  0.00396406  0.12220134  1
  K  K2  1  0.75702648  0.99603594  0.87779866  1
  K  K3  1  0.90472724  0.53861374  0.53224923  1
  K  K4  1  0.23900946  0.24297352  0.87779866  1
  K  K5  1  0.76099054  0.75702648  0.12220134  1
  K  K6  1  0.99603594  0.23900946  0.12220134  1
  K  K7  1  0.09527276  0.46138626  0.46775077  1
  K  K8  1  0.63388650  0.09527276  0.53224923  1
  K  K9  1  0.53861374  0.63388650  0.46775077  1
  K  K10  1  0.46138626  0.36611350  0.53224923  1
  K  K11  1  0.00396406  0.76099054  0.87779866  1
  Nd  Nd12  1  0.00000000  0.00000000  0.00000000  1
  Nd  Nd13  1  0.00000000  0.50000000  0.00000000  1
  Nd  Nd14  1  0.50000000  0.00000000  0.00000000  1
  Nd  Nd15  1  0.50000000  0.50000000  0.00000000  1
  Si  Si16  1  0.61960961  0.90640013  0.30169356  1
  Si  Si17  1  0.74826142  0.20872684  0.97892892  1
  Si  Si18  1  0.20872684  0.46046541  0.02107108  1
  Si  Si19  1  0.09359987  0.71320948  0.30169356  1
  Si  Si20  1  0.71320948  0.61960961  0.69830644  1
  Si  Si21  1  0.53953459  0.74826142  0.02107108  1
  Si  Si22  1  0.69292491  0.52568142  0.32576472  1
  Si  Si23  1  0.30707509  0.47431858  0.67423528  1
  Si  Si24  1  0.99190951  0.15605365  0.62182133  1
  Si  Si25  1  0.79127316  0.53953459  0.97892892  1
  Si  Si26  1  0.33333300  0.66666700  0.13342962  1
  Si  Si27  1  0.52568142  0.83275651  0.67423528  1
  Si  Si28  1  0.28679052  0.38039039  0.30169356  1
  Si  Si29  1  0.66666700  0.33333300  0.42383573  1
  Si  Si30  1  0.84394635  0.83585587  0.62182133  1
  Si  Si31  1  0.83585587  0.99190951  0.37817867  1
  Si  Si32  1  0.16724349  0.69292491  0.67423528  1
  Si  Si33  1  0.15605365  0.16414413  0.37817867  1
  Si  Si34  1  0.46046541  0.25173858  0.97892892  1
  Si  Si35  1  0.33333300  0.66666700  0.57616427  1
  Si  Si36  1  0.83275651  0.30707509  0.32576472  1
  Si  Si37  1  0.47431858  0.16724349  0.32576472  1
  Si  Si38  1  0.25173858  0.79127316  0.02107108  1
  Si  Si39  1  0.90640013  0.28679052  0.69830644  1
  Si  Si40  1  0.66666700  0.33333300  0.86657038  1
  Si  Si41  1  0.38039039  0.09359987  0.69830644  1
  Si  Si42  1  0.16414413  0.00809049  0.62182133  1
  Si  Si43  1  0.00809049  0.84394635  0.37817867  1
  O  O44  1  0.59076286  0.22803587  0.35287281  1
  O  O45  1  0.37493966  0.15625260  0.87338139  1
  O  O46  1  0.36272699  0.59076286  0.64712719  1
  O  O47  1  0.07039945  0.18142097  0.45625576  1
  O  O48  1  0.25131811  0.27015701  0.36205251  1
  O  O49  1  0.74468254  0.30616414  0.93566321  1
  O  O50  1  0.34375236  0.88512558  0.08184572  1
  O  O51  1  0.57105524  0.83064520  0.47271284  1
  O  O52  1  0.01883890  0.74868189  0.36205251  1
  O  O53  1  0.81857903  0.88897848  0.45625576  1
  O  O54  1  0.11487442  0.45862678  0.08184572  1
  O  O55  1  0.25531746  0.69383586  0.06433679  1
  O  O56  1  0.84374740  0.21868705  0.87338139  1
  O  O57  1  0.11073394  0.98048234  0.81638643  1
  O  O58  1  0.93314741  0.37869328  0.24075338  1
  O  O59  1  0.56148161  0.25531746  0.93566321  1
  O  O60  1  0.55924931  0.77062951  0.79967445  1
  O  O61  1  0.44075069  0.22937049  0.20032555  1
  O  O62  1  0.92960055  0.81857903  0.54374424  1
  O  O63  1  0.86974839  0.88926606  0.81638643  1
  O  O64  1  0.21138020  0.44075069  0.79967445  1
  O  O65  1  0.03939233  0.60316987  0.25550345  1
  O  O66  1  0.27015701  0.01883890  0.63794749  1
  O  O67  1  0.11102152  0.92960055  0.45625576  1
  O  O68  1  0.44554587  0.06685259  0.24075338  1
  O  O69  1  0.78861980  0.55924931  0.20032555  1
  O  O70  1  0.65624764  0.11487442  0.91815428  1
  O  O71  1  0.77196413  0.36272699  0.35287281  1
  O  O72  1  0.88926606  0.01951766  0.18361357  1
  O  O73  1  0.74041004  0.57105524  0.52728716  1
  O  O74  1  0.43622246  0.03939233  0.74449655  1
  O  O75  1  0.30616414  0.56148161  0.06433679  1
  O  O76  1  0.45862678  0.34375236  0.91815428  1
  O  O77  1  0.42894476  0.16935480  0.52728716  1
  O  O78  1  0.22803587  0.63727301  0.64712719  1
  O  O79  1  0.83064520  0.25958996  0.52728716  1
  O  O80  1  0.06685259  0.62130672  0.75924662  1
  O  O81  1  0.96060767  0.39683013  0.74449655  1
  O  O82  1  0.22937049  0.78861980  0.79967445  1
  O  O83  1  0.55445413  0.93314741  0.75924662  1
  O  O84  1  0.21868705  0.37493966  0.12661861  1
  O  O85  1  0.18142097  0.11102152  0.54374424  1
  O  O86  1  0.16935480  0.74041004  0.47271284  1
  O  O87  1  0.63727301  0.40923714  0.35287281  1
  O  O88  1  0.98048234  0.86974839  0.18361357  1
  O  O89  1  0.54137322  0.65624764  0.08184572  1
  O  O90  1  0.25958996  0.42894476  0.47271284  1
  O  O91  1  0.39683013  0.43622246  0.25550345  1
  O  O92  1  0.01951766  0.13025161  0.81638643  1
  O  O93  1  0.88512558  0.54137322  0.91815428  1
  O  O94  1  0.72984299  0.98116110  0.36205251  1
  O  O95  1  0.77062951  0.21138020  0.20032555  1
  O  O96  1  0.37869328  0.44554587  0.75924662  1
  O  O97  1  0.43851839  0.74468254  0.06433679  1
  O  O98  1  0.33333300  0.66666700  0.35523069  1
  O  O99  1  0.40923714  0.77196413  0.64712719  1
  O  O100  1  0.15625260  0.78131295  0.12661861  1
  O  O101  1  0.78131295  0.62506034  0.87338139  1
  O  O102  1  0.13025161  0.11073394  0.18361357  1
  O  O103  1  0.56377754  0.96060767  0.25550345  1
  O  O104  1  0.66666700  0.33333300  0.64476931  1
  O  O105  1  0.62130672  0.55445413  0.24075338  1
  O  O106  1  0.62506034  0.84374740  0.12661861  1
  O  O107  1  0.69383586  0.43851839  0.93566321  1
  O  O108  1  0.98116110  0.25131811  0.63794749  1
  O  O109  1  0.88897848  0.07039945  0.54374424  1
  O  O110  1  0.60316987  0.56377754  0.74449655  1
  O  O111  1  0.74868189  0.72984299  0.63794749  1
