# generated using pymatgen
data_Cu3P8(S2Cl)3
_symmetry_space_group_name_H-M   'P 1'
_cell_length_a   6.35491859
_cell_length_b   11.60933013
_cell_length_c   26.56046216
_cell_angle_alpha   90.00000000
_cell_angle_beta   90.00000000
_cell_angle_gamma   90.00000000
_symmetry_Int_Tables_number   1
_chemical_formula_structural   Cu3P8(S2Cl)3
_chemical_formula_sum   'Cu12 P32 S24 Cl12'
_cell_volume   1959.53389565
_cell_formula_units_Z   4
loop_
 _symmetry_equiv_pos_site_id
 _symmetry_equiv_pos_as_xyz
  1  'x, y, z'
loop_
 _atom_site_type_symbol
 _atom_site_label
 _atom_site_symmetry_multiplicity
 _atom_site_fract_x
 _atom_site_fract_y
 _atom_site_fract_z
 _atom_site_occupancy
  Cu  Cu0  1  0.69075473  0.85718179  0.75000000  1
  Cu  Cu1  1  0.27123443  0.35508381  0.49791535  1
  Cu  Cu2  1  0.30924527  0.14281821  0.25000000  1
  Cu  Cu3  1  0.77123443  0.14491619  0.49791535  1
  Cu  Cu4  1  0.22876557  0.85508381  0.50208465  1
  Cu  Cu5  1  0.72876557  0.64491619  0.50208465  1
  Cu  Cu6  1  0.27123443  0.35508381  0.00208465  1
  Cu  Cu7  1  0.80924527  0.35718179  0.25000000  1
  Cu  Cu8  1  0.72876557  0.64491619  0.99791535  1
  Cu  Cu9  1  0.77123443  0.14491619  0.00208465  1
  Cu  Cu10  1  0.19075473  0.64281821  0.75000000  1
  Cu  Cu11  1  0.22876557  0.85508381  0.99791535  1
  P  P12  1  0.14092138  0.45123665  0.42983751  1
  P  P13  1  0.40984343  0.05230865  0.17921746  1
  P  P14  1  0.33710539  0.13013849  0.60587224  1
  P  P15  1  0.83710539  0.36986151  0.89412776  1
  P  P16  1  0.63981167  0.06818891  0.56925856  1
  P  P17  1  0.85907862  0.54876335  0.57016249  1
  P  P18  1  0.86018833  0.56818891  0.43074144  1
  P  P19  1  0.86018833  0.56818891  0.06925856  1
  P  P20  1  0.64092138  0.04876335  0.42983751  1
  P  P21  1  0.85907862  0.54876335  0.92983751  1
  P  P22  1  0.13981167  0.43181109  0.56925856  1
  P  P23  1  0.66289461  0.86986151  0.10587224  1
  P  P24  1  0.33710539  0.13013849  0.89412776  1
  P  P25  1  0.14092138  0.45123665  0.07016249  1
  P  P26  1  0.35907862  0.95123665  0.92983751  1
  P  P27  1  0.66289461  0.86986151  0.39412776  1
  P  P28  1  0.09015657  0.55230865  0.67921746  1
  P  P29  1  0.09015657  0.55230865  0.82078254  1
  P  P30  1  0.90984343  0.44769135  0.17921746  1
  P  P31  1  0.40984343  0.05230865  0.32078254  1
  P  P32  1  0.36018833  0.93181109  0.06925856  1
  P  P33  1  0.64092138  0.04876335  0.07016249  1
  P  P34  1  0.16289461  0.63013849  0.39412776  1
  P  P35  1  0.36018833  0.93181109  0.43074144  1
  P  P36  1  0.90984343  0.44769135  0.32078254  1
  P  P37  1  0.59015657  0.94769135  0.67921746  1
  P  P38  1  0.16289461  0.63013849  0.10587224  1
  P  P39  1  0.83710539  0.36986151  0.60587224  1
  P  P40  1  0.63981167  0.06818891  0.93074144  1
  P  P41  1  0.35907862  0.95123665  0.57016249  1
  P  P42  1  0.59015657  0.94769135  0.82078254  1
  P  P43  1  0.13981167  0.43181109  0.93074144  1
  S  S44  1  0.67431215  0.51013752  0.37060404  1
  S  S45  1  0.17431215  0.98986248  0.12939596  1
  S  S46  1  0.60876821  0.90522969  0.31776108  1
  S  S47  1  0.91654823  0.65998023  0.63040877  1
  S  S48  1  0.60876821  0.90522969  0.18223892  1
  S  S49  1  0.39123179  0.09477031  0.68223892  1
  S  S50  1  0.32568785  0.48986248  0.87060404  1
  S  S51  1  0.41654823  0.84001977  0.86959123  1
  S  S52  1  0.10876821  0.59477031  0.18223892  1
  S  S53  1  0.67431215  0.51013752  0.12939596  1
  S  S54  1  0.58345177  0.15998023  0.13040877  1
  S  S55  1  0.58345177  0.15998023  0.36959123  1
  S  S56  1  0.17431215  0.98986248  0.37060404  1
  S  S57  1  0.82568785  0.01013752  0.87060404  1
  S  S58  1  0.41654823  0.84001977  0.63040877  1
  S  S59  1  0.08345177  0.34001977  0.36959123  1
  S  S60  1  0.82568785  0.01013752  0.62939596  1
  S  S61  1  0.32568785  0.48986248  0.62939596  1
  S  S62  1  0.10876821  0.59477031  0.31776108  1
  S  S63  1  0.89123179  0.40522969  0.68223892  1
  S  S64  1  0.39123179  0.09477031  0.81776108  1
  S  S65  1  0.91654823  0.65998023  0.86959123  1
  S  S66  1  0.89123179  0.40522969  0.81776108  1
  S  S67  1  0.08345177  0.34001977  0.13040877  1
  Cl  Cl68  1  0.63102213  0.33156930  0.00807207  1
  Cl  Cl69  1  0.13102213  0.16843070  0.49192793  1
  Cl  Cl70  1  0.44846801  0.32879490  0.25000000  1
  Cl  Cl71  1  0.36897787  0.66843070  0.99192793  1
  Cl  Cl72  1  0.86897787  0.83156930  0.50807207  1
  Cl  Cl73  1  0.05153199  0.82879490  0.75000000  1
  Cl  Cl74  1  0.86897787  0.83156930  0.99192793  1
  Cl  Cl75  1  0.55153199  0.67120510  0.75000000  1
  Cl  Cl76  1  0.36897787  0.66843070  0.50807207  1
  Cl  Cl77  1  0.13102213  0.16843070  0.00807207  1
  Cl  Cl78  1  0.63102213  0.33156930  0.49192793  1
  Cl  Cl79  1  0.94846801  0.17120510  0.25000000  1
