# generated using pymatgen
data_Li2U3P2O15
_symmetry_space_group_name_H-M   'P 1'
_cell_length_a   7.21445239
_cell_length_b   7.21445231
_cell_length_c   13.67743454
_cell_angle_alpha   105.29183674
_cell_angle_beta   105.29183655
_cell_angle_gamma   90.00000195
_symmetry_Int_Tables_number   1
_chemical_formula_structural   Li2U3P2O15
_chemical_formula_sum   'Li4 U6 P4 O30'
_cell_volume   660.51771278
_cell_formula_units_Z   2
loop_
 _symmetry_equiv_pos_site_id
 _symmetry_equiv_pos_as_xyz
  1  'x, y, z'
loop_
 _atom_site_type_symbol
 _atom_site_label
 _atom_site_symmetry_multiplicity
 _atom_site_fract_x
 _atom_site_fract_y
 _atom_site_fract_z
 _atom_site_occupancy
  Li  Li0  1  0.69085943  0.44085943  0.88171887  1
  Li  Li1  1  0.94085943  0.19085943  0.38171887  1
  Li  Li2  1  0.30914057  0.55914057  0.11828113  1
  Li  Li3  1  0.05914057  0.80914057  0.61828113  1
  U  U4  1  0.45867857  0.20867857  0.41735713  1
  U  U5  1  0.54132143  0.79132143  0.58264287  1
  U  U6  1  0.29132143  0.04132143  0.08264287  1
  U  U7  1  0.87500000  0.62500000  0.25000000  1
  U  U8  1  0.70867857  0.95867857  0.91735713  1
  U  U9  1  0.12500000  0.37500000  0.75000000  1
  P  P10  1  0.16330450  0.91330450  0.82660900  1
  P  P11  1  0.41330450  0.66330450  0.32660900  1
  P  P12  1  0.83669550  0.08669550  0.17339100  1
  P  P13  1  0.58669550  0.33669550  0.67339100  1
  O  O14  1  0.79031353  0.78775234  0.57550468  1
  O  O15  1  0.37500000  0.12500000  0.25000000  1
  O  O16  1  0.45173277  0.37354174  0.74708348  1
  O  O17  1  0.03393389  0.95182990  0.90365979  1
  O  O18  1  0.20968647  0.21224766  0.42449532  1
  O  O19  1  0.79535071  0.37354174  0.74708348  1
  O  O20  1  0.87354174  0.29535071  0.24708348  1
  O  O21  1  0.71224766  0.21480885  0.92449532  1
  O  O22  1  0.45182990  0.86972590  0.40365979  1
  O  O23  1  0.45182990  0.53393389  0.40365979  1
  O  O24  1  0.71480885  0.21224766  0.42449532  1
  O  O25  1  0.71224766  0.70968647  0.92449532  1
  O  O26  1  0.63027410  0.04817010  0.09634021  1
  O  O27  1  0.87354174  0.95173277  0.24708348  1
  O  O28  1  0.28519115  0.78775234  0.57550468  1
  O  O29  1  0.19588771  0.44588771  0.89177542  1
  O  O30  1  0.28775234  0.78519115  0.07550468  1
  O  O31  1  0.80411229  0.55411229  0.10822458  1
  O  O32  1  0.54817010  0.13027410  0.59634021  1
  O  O33  1  0.12645826  0.04826723  0.75291652  1
  O  O34  1  0.96606611  0.04817010  0.09634021  1
  O  O35  1  0.54817010  0.46606611  0.59634021  1
  O  O36  1  0.54826723  0.62645826  0.25291652  1
  O  O37  1  0.05411229  0.30411229  0.60822458  1
  O  O38  1  0.36972590  0.95182990  0.90365979  1
  O  O39  1  0.94588771  0.69588771  0.39177542  1
  O  O40  1  0.28775234  0.29031353  0.07550468  1
  O  O41  1  0.12645826  0.70464929  0.75291652  1
  O  O42  1  0.20464929  0.62645826  0.25291652  1
  O  O43  1  0.62500000  0.87500000  0.75000000  1
