# generated using pymatgen
data_ZrB2O5
_symmetry_space_group_name_H-M   'P 1'
_cell_length_a   4.45287986
_cell_length_b   7.01021583
_cell_length_c   9.07172811
_cell_angle_alpha   90.00000000
_cell_angle_beta   90.94951077
_cell_angle_gamma   90.00000000
_symmetry_Int_Tables_number   1
_chemical_formula_structural   ZrB2O5
_chemical_formula_sum   'Zr4 B8 O20'
_cell_volume   283.14099490
_cell_formula_units_Z   4
loop_
 _symmetry_equiv_pos_site_id
 _symmetry_equiv_pos_as_xyz
  1  'x, y, z'
loop_
 _atom_site_type_symbol
 _atom_site_label
 _atom_site_symmetry_multiplicity
 _atom_site_fract_x
 _atom_site_fract_y
 _atom_site_fract_z
 _atom_site_occupancy
  Zr  Zr0  1  0.99866952  0.88718060  0.32895356  1
  Zr  Zr1  1  0.00133048  0.38718060  0.17104644  1
  Zr  Zr2  1  0.00133048  0.11281940  0.67104644  1
  Zr  Zr3  1  0.99866952  0.61281940  0.82895356  1
  B  B4  1  0.53470075  0.58700422  0.33408809  1
  B  B5  1  0.52731639  0.26968553  0.92298490  1
  B  B6  1  0.46529925  0.41299578  0.66591191  1
  B  B7  1  0.47268361  0.73031447  0.07701510  1
  B  B8  1  0.53470075  0.91299578  0.83408809  1
  B  B9  1  0.47268361  0.76968553  0.57701510  1
  B  B10  1  0.46529925  0.08700422  0.16591191  1
  B  B11  1  0.52731639  0.23031447  0.42298490  1
  O  O12  1  0.78544461  0.40983376  0.67905491  1
  O  O13  1  0.69172681  0.65515073  0.19280206  1
  O  O14  1  0.66809211  0.10388543  0.85011120  1
  O  O15  1  0.65028774  0.72054880  0.44642563  1
  O  O16  1  0.34971226  0.27945120  0.55357437  1
  O  O17  1  0.76698505  0.40181040  0.96729880  1
  O  O18  1  0.65028774  0.77945120  0.94642563  1
  O  O19  1  0.21455539  0.90983376  0.82094509  1
  O  O20  1  0.76698505  0.09818960  0.46729880  1
  O  O21  1  0.69172681  0.84484927  0.69280206  1
  O  O22  1  0.78544461  0.09016624  0.17905491  1
  O  O23  1  0.30827319  0.15515073  0.30719794  1
  O  O24  1  0.34971226  0.22054880  0.05357437  1
  O  O25  1  0.21455539  0.59016624  0.32094509  1
  O  O26  1  0.66809211  0.39611457  0.35011120  1
  O  O27  1  0.33190789  0.89611457  0.14988880  1
  O  O28  1  0.23301495  0.90181040  0.53270120  1
  O  O29  1  0.30827319  0.34484927  0.80719794  1
  O  O30  1  0.33190789  0.60388543  0.64988880  1
  O  O31  1  0.23301495  0.59818960  0.03270120  1
