# generated using pymatgen
data_RbZnSClO4
_symmetry_space_group_name_H-M   'P 1'
_cell_length_a   7.36784396
_cell_length_b   8.50137272
_cell_length_c   9.81872415
_cell_angle_alpha   90.00000000
_cell_angle_beta   90.00000000
_cell_angle_gamma   95.68939793
_symmetry_Int_Tables_number   1
_chemical_formula_structural   RbZnSClO4
_chemical_formula_sum   'Rb4 Zn4 S4 Cl4 O16'
_cell_volume   611.98374140
_cell_formula_units_Z   4
loop_
 _symmetry_equiv_pos_site_id
 _symmetry_equiv_pos_as_xyz
  1  'x, y, z'
loop_
 _atom_site_type_symbol
 _atom_site_label
 _atom_site_symmetry_multiplicity
 _atom_site_fract_x
 _atom_site_fract_y
 _atom_site_fract_z
 _atom_site_occupancy
  Rb  Rb0  1  0.36281934  0.69897935  0.41872790  1
  Rb  Rb1  1  0.63718066  0.80102065  0.91872790  1
  Rb  Rb2  1  0.36281934  0.19897935  0.08127210  1
  Rb  Rb3  1  0.63718066  0.30102065  0.58127210  1
  Zn  Zn4  1  0.09445845  0.04408261  0.69590566  1
  Zn  Zn5  1  0.09445845  0.54408261  0.80409434  1
  Zn  Zn6  1  0.90554155  0.45591739  0.19590566  1
  Zn  Zn7  1  0.90554155  0.95591739  0.30409434  1
  S  S8  1  0.89468356  0.23425946  0.92932779  1
  S  S9  1  0.10531644  0.76574054  0.07067221  1
  S  S10  1  0.10531644  0.26574054  0.42932779  1
  S  S11  1  0.89468356  0.73425946  0.57067221  1
  Cl  Cl12  1  0.62681710  0.52911217  0.18320443  1
  Cl  Cl13  1  0.37318290  0.47088783  0.81679557  1
  Cl  Cl14  1  0.37318290  0.97088783  0.68320443  1
  Cl  Cl15  1  0.62681710  0.02911217  0.31679557  1
  O  O16  1  0.03348652  0.63147850  0.62393219  1
  O  O17  1  0.88796611  0.37686631  0.83853466  1
  O  O18  1  0.88796611  0.87686631  0.66146534  1
  O  O19  1  0.96731353  0.78644951  0.43296551  1
  O  O20  1  0.28714411  0.35038328  0.43648094  1
  O  O21  1  0.71285589  0.64961672  0.56351906  1
  O  O22  1  0.11203389  0.62313369  0.16146534  1
  O  O23  1  0.11203389  0.12313369  0.33853466  1
  O  O24  1  0.96651348  0.36852150  0.37606781  1
  O  O25  1  0.96651348  0.86852150  0.12393219  1
  O  O26  1  0.03348652  0.13147850  0.87606781  1
  O  O27  1  0.03268647  0.21355049  0.56703449  1
  O  O28  1  0.03268647  0.71355049  0.93296551  1
  O  O29  1  0.28714411  0.85038328  0.06351906  1
  O  O30  1  0.71285589  0.14961672  0.93648094  1
  O  O31  1  0.96731353  0.28644951  0.06703449  1
