# generated using pymatgen
data_PrGeBO5
_symmetry_space_group_name_H-M   'P 1'
_cell_length_a   12.19363260
_cell_length_b   12.19363300
_cell_length_c   6.84627244
_cell_angle_alpha   90.00000000
_cell_angle_beta   90.00000000
_cell_angle_gamma   119.99999892
_symmetry_Int_Tables_number   1
_chemical_formula_structural   PrGeBO5
_chemical_formula_sum   'Pr9 Ge9 B9 O45'
_cell_volume   881.55830047
_cell_formula_units_Z   9
loop_
 _symmetry_equiv_pos_site_id
 _symmetry_equiv_pos_as_xyz
  1  'x, y, z'
loop_
 _atom_site_type_symbol
 _atom_site_label
 _atom_site_symmetry_multiplicity
 _atom_site_fract_x
 _atom_site_fract_y
 _atom_site_fract_z
 _atom_site_occupancy
  Pr  Pr0  1  0.52849238  0.05664079  0.65948765  1
  Pr  Pr1  1  0.94335921  0.47185160  0.99282165  1
  Pr  Pr2  1  0.86181139  0.13809866  0.33013216  1
  Pr  Pr3  1  0.27628727  0.13818861  0.99679916  1
  Pr  Pr4  1  0.19415775  0.39048816  0.65921805  1
  Pr  Pr5  1  0.52814840  0.47150762  0.32615465  1
  Pr  Pr6  1  0.19633041  0.80584225  0.32588505  1
  Pr  Pr7  1  0.60951184  0.80366959  0.99255105  1
  Pr  Pr8  1  0.86190134  0.72371273  0.66346616  1
  Ge  Ge9  1  0.19442363  0.38669853  0.15917756  1
  Ge  Ge10  1  0.61330147  0.80772511  0.49251056  1
  Ge  Ge11  1  0.52821185  0.05364383  0.15907846  1
  Ge  Ge12  1  0.52543198  0.47178815  0.82574546  1
  Ge  Ge13  1  0.94635617  0.47456802  0.49241246  1
  Ge  Ge14  1  0.85864012  0.13852488  0.83163042  1
  Ge  Ge15  1  0.27988476  0.14135988  0.49829742  1
  Ge  Ge16  1  0.86147512  0.72011524  0.16496442  1
  Ge  Ge17  1  0.19227489  0.80557637  0.82584456  1
  B  B18  1  0.02821847  0.07223438  0.63396411  1
  B  B19  1  0.69480748  0.28892224  0.36318081  1
  B  B20  1  0.92776562  0.95598409  0.96729711  1
  B  B21  1  0.59411476  0.30519252  0.02984781  1
  B  B22  1  0.26087009  0.62231904  0.95854484  1
  B  B23  1  0.37768096  0.63855105  0.29187784  1
  B  B24  1  0.04401591  0.97178153  0.30063011  1
  B  B25  1  0.36144895  0.73912991  0.62521184  1
  B  B26  1  0.71107776  0.40588524  0.69651481  1
  O  O27  1  0.07881401  0.76931807  0.64533146  1
  O  O28  1  0.74939802  0.63342043  0.34209059  1
  O  O29  1  0.35093071  0.25650568  0.31832572  1
  O  O30  1  0.65048297  0.48739528  0.66730110  1
  O  O31  1  0.17044631  0.15359202  0.66143645  1
  O  O32  1  0.88402241  0.25060198  0.00875759  1
  O  O33  1  0.99319315  0.02998147  0.43179079  1
  O  O34  1  0.65502939  0.15161238  0.32423756  1
  O  O35  1  0.32121782  0.83626233  0.66429797  1
  O  O36  1  0.22590682  0.91978414  0.00289043  1
  O  O37  1  0.32699683  0.69705881  0.42273228  1
  O  O38  1  0.69387731  0.77409318  0.66955743  1
  O  O39  1  0.50365968  0.82164182  0.65282121  1
  O  O40  1  0.51504451  0.67878218  0.33096497  1
  O  O41  1  0.84838762  0.50341702  0.65757156  1
  O  O42  1  0.18127578  0.01078100  0.33993100  1
  O  O43  1  0.49658298  0.34497061  0.99090456  1
  O  O44  1  0.03678832  0.00680685  0.09845679  1
  O  O45  1  0.97001853  0.96321168  0.76512379  1
  O  O46  1  0.51260472  0.16308769  0.00063410  1
  O  O47  1  0.66170306  0.29619699  0.56684202  1
  O  O48  1  0.56439817  0.58747368  0.00287690  1
  O  O49  1  0.82950522  0.81872422  0.00659800  1
  O  O50  1  0.74349432  0.09442504  0.65165872  1
  O  O51  1  0.36657956  0.11597759  0.67542359  1
  O  O52  1  0.30294119  0.62993802  0.75606528  1
  O  O53  1  0.37006198  0.67300317  0.08939828  1
  O  O54  1  0.84640798  0.01685429  0.99476945  1
  O  O55  1  0.55803758  0.97168016  0.97901146  1
  O  O56  1  0.98314571  0.82955369  0.32810345  1
  O  O57  1  0.23068193  0.30949594  0.97866446  1
  O  O58  1  0.98921900  0.17049478  0.67326500  1
  O  O59  1  0.63449392  0.33829694  0.23350902  1
  O  O60  1  0.02307552  0.43560183  0.66954390  1
  O  O61  1  0.16373767  0.48495549  0.99763197  1
  O  O62  1  0.41364258  0.44196242  0.64567846  1
  O  O63  1  0.70380301  0.36550608  0.90017502  1
  O  O64  1  0.02831984  0.58635742  0.31234546  1
  O  O65  1  0.41252632  0.97692448  0.33620990  1
  O  O66  1  0.69050406  0.92118599  0.31199746  1
  O  O67  1  0.08021586  0.30612269  0.33622443  1
  O  O68  1  0.90557496  0.64906929  0.98499272  1
  O  O69  1  0.83691231  0.34951703  0.33396810  1
  O  O70  1  0.31798214  0.49634032  0.31948821  1
  O  O71  1  0.17835818  0.68201786  0.98615521  1
