# generated using pymatgen
data_Nd2Ti3(ClO4)2
_symmetry_space_group_name_H-M   'P 1'
_cell_length_a   5.05581688
_cell_length_b   11.66970681
_cell_length_c   14.98365639
_cell_angle_alpha   90.00000000
_cell_angle_beta   90.00000000
_cell_angle_gamma   90.00000000
_symmetry_Int_Tables_number   1
_chemical_formula_structural   Nd2Ti3(ClO4)2
_chemical_formula_sum   'Nd8 Ti12 Cl8 O32'
_cell_volume   884.03423875
_cell_formula_units_Z   4
loop_
 _symmetry_equiv_pos_site_id
 _symmetry_equiv_pos_as_xyz
  1  'x, y, z'
loop_
 _atom_site_type_symbol
 _atom_site_label
 _atom_site_symmetry_multiplicity
 _atom_site_fract_x
 _atom_site_fract_y
 _atom_site_fract_z
 _atom_site_occupancy
  Nd  Nd0  1  0.02170636  0.36279407  0.66343052  1
  Nd  Nd1  1  0.47829364  0.36279407  0.33656948  1
  Nd  Nd2  1  0.47829364  0.86279407  0.16343052  1
  Nd  Nd3  1  0.52170636  0.13720593  0.83656948  1
  Nd  Nd4  1  0.97829364  0.13720593  0.16343052  1
  Nd  Nd5  1  0.97829364  0.63720593  0.33656948  1
  Nd  Nd6  1  0.02170636  0.86279407  0.83656948  1
  Nd  Nd7  1  0.52170636  0.63720593  0.66343052  1
  Ti  Ti8  1  0.75000000  0.09227730  0.50000000  1
  Ti  Ti9  1  0.87184125  0.42286324  0.16227902  1
  Ti  Ti10  1  0.12815875  0.57713676  0.83772098  1
  Ti  Ti11  1  0.12815875  0.07713676  0.66227902  1
  Ti  Ti12  1  0.25000000  0.40772270  0.00000000  1
  Ti  Ti13  1  0.37184125  0.07713676  0.33772098  1
  Ti  Ti14  1  0.25000000  0.90772270  0.50000000  1
  Ti  Ti15  1  0.37184125  0.57713676  0.16227902  1
  Ti  Ti16  1  0.62815875  0.92286324  0.66227902  1
  Ti  Ti17  1  0.62815875  0.42286324  0.83772098  1
  Ti  Ti18  1  0.75000000  0.59227730  0.00000000  1
  Ti  Ti19  1  0.87184125  0.92286324  0.33772098  1
  Cl  Cl20  1  0.01779730  0.60146004  0.57790638  1
  Cl  Cl21  1  0.48220270  0.10146004  0.07790638  1
  Cl  Cl22  1  0.98220270  0.89853996  0.07790638  1
  Cl  Cl23  1  0.48220270  0.60146004  0.42209362  1
  Cl  Cl24  1  0.01779730  0.10146004  0.92209362  1
  Cl  Cl25  1  0.51779730  0.89853996  0.92209362  1
  Cl  Cl26  1  0.51779730  0.39853996  0.57790638  1
  Cl  Cl27  1  0.98220270  0.39853996  0.42209362  1
  O  O28  1  0.06238258  0.04516748  0.42345087  1
  O  O29  1  0.06238258  0.54516748  0.07654913  1
  O  O30  1  0.57446255  0.68304897  0.08120922  1
  O  O31  1  0.42553745  0.81695103  0.58120922  1
  O  O32  1  0.32680497  0.46885989  0.76302031  1
  O  O33  1  0.43761742  0.04516748  0.57654913  1
  O  O34  1  0.75072960  0.79843961  0.27919708  1
  O  O35  1  0.07446255  0.31695103  0.08120922  1
  O  O36  1  0.24927040  0.70156039  0.77919708  1
  O  O37  1  0.17319503  0.96885989  0.26302031  1
  O  O38  1  0.25072960  0.70156039  0.22080292  1
  O  O39  1  0.24927040  0.20156039  0.72080292  1
  O  O40  1  0.17319503  0.46885989  0.23697969  1
  O  O41  1  0.82680497  0.03114011  0.73697969  1
  O  O42  1  0.74927040  0.29843961  0.77919708  1
  O  O43  1  0.43761742  0.54516748  0.92345087  1
  O  O44  1  0.56238258  0.95483252  0.42345087  1
  O  O45  1  0.93761742  0.95483252  0.57654913  1
  O  O46  1  0.92553745  0.18304897  0.58120922  1
  O  O47  1  0.67319503  0.03114011  0.26302031  1
  O  O48  1  0.82680497  0.53114011  0.76302031  1
  O  O49  1  0.56238258  0.45483252  0.07654913  1
  O  O50  1  0.74927040  0.79843961  0.72080292  1
  O  O51  1  0.92553745  0.68304897  0.91879078  1
  O  O52  1  0.42553745  0.31695103  0.91879078  1
  O  O53  1  0.75072960  0.29843961  0.22080292  1
  O  O54  1  0.67319503  0.53114011  0.23697969  1
  O  O55  1  0.93761742  0.45483252  0.92345087  1
  O  O56  1  0.25072960  0.20156039  0.27919708  1
  O  O57  1  0.32680497  0.96885989  0.73697969  1
  O  O58  1  0.57446255  0.18304897  0.41879078  1
  O  O59  1  0.07446255  0.81695103  0.41879078  1
