# generated using pymatgen
data_K2Se2O5
_symmetry_space_group_name_H-M   'P 1'
_cell_length_a   9.98339838
_cell_length_b   10.87381514
_cell_length_c   25.74334159
_cell_angle_alpha   90.00000000
_cell_angle_beta   90.00000000
_cell_angle_gamma   90.00000000
_symmetry_Int_Tables_number   1
_chemical_formula_structural   K2Se2O5
_chemical_formula_sum   'K32 Se32 O80'
_cell_volume   2794.63611147
_cell_formula_units_Z   16
loop_
 _symmetry_equiv_pos_site_id
 _symmetry_equiv_pos_as_xyz
  1  'x, y, z'
loop_
 _atom_site_type_symbol
 _atom_site_label
 _atom_site_symmetry_multiplicity
 _atom_site_fract_x
 _atom_site_fract_y
 _atom_site_fract_z
 _atom_site_occupancy
  K  K0  1  0.52508836  0.49561132  0.12974438  1
  K  K1  1  0.00052832  0.79152119  0.00784535  1
  K  K2  1  0.47491164  0.50438868  0.87025562  1
  K  K3  1  0.10752862  0.49684829  0.87410061  1
  K  K4  1  0.45937650  0.75245822  0.25505959  1
  K  K5  1  0.54062350  0.24754178  0.74494041  1
  K  K6  1  0.50052832  0.70847881  0.00784535  1
  K  K7  1  0.49947168  0.79152119  0.50784535  1
  K  K8  1  0.99947168  0.70847881  0.50784535  1
  K  K9  1  0.50052832  0.20847881  0.49215465  1
  K  K10  1  0.97491164  0.49561132  0.62974438  1
  K  K11  1  0.97491164  0.99561132  0.87025562  1
  K  K12  1  0.95937650  0.74754178  0.25505959  1
  K  K13  1  0.89247138  0.50315171  0.12589939  1
  K  K14  1  0.95937650  0.24754178  0.24494041  1
  K  K15  1  0.45937650  0.25245822  0.24494041  1
  K  K16  1  0.60752862  0.50315171  0.62589939  1
  K  K17  1  0.10752862  0.99684829  0.62589939  1
  K  K18  1  0.02508836  0.50438868  0.37025562  1
  K  K19  1  0.00052832  0.29152119  0.49215465  1
  K  K20  1  0.04062350  0.25245822  0.74494041  1
  K  K21  1  0.54062350  0.74754178  0.75505959  1
  K  K22  1  0.39247138  0.99684829  0.12589939  1
  K  K23  1  0.47491164  0.00438868  0.62974438  1
  K  K24  1  0.04062350  0.75245822  0.75505959  1
  K  K25  1  0.60752862  0.00315171  0.87410061  1
  K  K26  1  0.99947168  0.20847881  0.99215465  1
  K  K27  1  0.52508836  0.99561132  0.37025562  1
  K  K28  1  0.89247138  0.00315171  0.37410061  1
  K  K29  1  0.39247138  0.49684829  0.37410061  1
  K  K30  1  0.02508836  0.00438868  0.12974438  1
  K  K31  1  0.49947168  0.29152119  0.99215465  1
  Se  Se32  1  0.28687201  0.49173720  0.51307158  1
  Se  Se33  1  0.71312799  0.50826280  0.48692842  1
  Se  Se34  1  0.32612272  0.29661234  0.61178394  1
  Se  Se35  1  0.30347603  0.20195383  0.86074517  1
  Se  Se36  1  0.21420433  0.00431863  0.26077710  1
  Se  Se37  1  0.71312799  0.00826280  0.01307158  1
  Se  Se38  1  0.80347603  0.29804617  0.86074517  1
  Se  Se39  1  0.71420433  0.49568137  0.26077710  1
  Se  Se40  1  0.78579567  0.49568137  0.76077710  1
  Se  Se41  1  0.78579567  0.99568137  0.73922290  1
  Se  Se42  1  0.21420433  0.50431863  0.23922290  1
  Se  Se43  1  0.17387728  0.79661234  0.38821606  1
  Se  Se44  1  0.82612272  0.20338766  0.61178394  1
  Se  Se45  1  0.28687201  0.99173720  0.98692842  1
  Se  Se46  1  0.78687201  0.50826280  0.98692842  1
  Se  Se47  1  0.28579567  0.50431863  0.73922290  1
  Se  Se48  1  0.82612272  0.70338766  0.88821606  1
  Se  Se49  1  0.21312799  0.99173720  0.48692842  1
  Se  Se50  1  0.21312799  0.49173720  0.01307158  1
  Se  Se51  1  0.17387728  0.29661234  0.11178394  1
  Se  Se52  1  0.30347603  0.70195383  0.63925483  1
  Se  Se53  1  0.78687201  0.00826280  0.51307158  1
  Se  Se54  1  0.80347603  0.79804617  0.63925483  1
  Se  Se55  1  0.19652397  0.70195383  0.13925483  1
  Se  Se56  1  0.67387728  0.70338766  0.38821606  1
  Se  Se57  1  0.69652397  0.29804617  0.36074517  1
  Se  Se58  1  0.69652397  0.79804617  0.13925483  1
  Se  Se59  1  0.28579567  0.00431863  0.76077710  1
  Se  Se60  1  0.32612272  0.79661234  0.88821606  1
  Se  Se61  1  0.19652397  0.20195383  0.36074517  1
  Se  Se62  1  0.67387728  0.20338766  0.11178394  1
  Se  Se63  1  0.71420433  0.99568137  0.23922290  1
  O  O64  1  0.52626468  0.72161762  0.35746970  1
  O  O65  1  0.11763398  0.59062776  0.18732115  1
  O  O66  1  0.26325893  0.32152735  0.82191708  1
  O  O67  1  0.55076457  0.76034673  0.11049953  1
  O  O68  1  0.19624134  0.66822168  0.42395117  1
  O  O69  1  0.80375866  0.33177832  0.57604883  1
  O  O70  1  0.13575592  0.99107607  0.95721675  1
  O  O71  1  0.94923543  0.76034673  0.61049953  1
  O  O72  1  0.60324943  0.59146973  0.43878153  1
  O  O73  1  0.30375866  0.16822168  0.57604883  1
  O  O74  1  0.28468876  0.10677780  0.71172710  1
  O  O75  1  0.21531124  0.60677780  0.28827290  1
  O  O76  1  0.61763398  0.90937224  0.18732115  1
  O  O77  1  0.87305424  0.99670726  0.21603381  1
  O  O78  1  0.44923543  0.23965327  0.88950047  1
  O  O79  1  0.78468876  0.89322220  0.78827290  1
  O  O80  1  0.69624134  0.83177832  0.42395117  1
  O  O81  1  0.36424408  0.49107607  0.04278325  1
  O  O82  1  0.39675057  0.40853027  0.56121847  1
  O  O83  1  0.63575592  0.50892393  0.95721675  1
  O  O84  1  0.39675057  0.90853027  0.93878153  1
  O  O85  1  0.76325893  0.17847265  0.82191708  1
  O  O86  1  0.02626468  0.27838238  0.14253030  1
  O  O87  1  0.36424408  0.99107607  0.45721675  1
  O  O88  1  0.26325893  0.82152735  0.67808292  1
  O  O89  1  0.76325893  0.67847265  0.67808292  1
  O  O90  1  0.77803461  0.11293208  0.46499717  1
  O  O91  1  0.89675057  0.09146973  0.56121847  1
  O  O92  1  0.89675057  0.59146973  0.93878153  1
  O  O93  1  0.72196539  0.61293208  0.53500283  1
  O  O94  1  0.23674107  0.32152735  0.32191708  1
  O  O95  1  0.63575592  0.00892393  0.54278325  1
  O  O96  1  0.22196539  0.88706792  0.53500283  1
  O  O97  1  0.62694576  0.49670726  0.78396619  1
  O  O98  1  0.88236602  0.90937224  0.68732115  1
  O  O99  1  0.05076457  0.23965327  0.38950047  1
  O  O100  1  0.12694576  0.50329274  0.71603381  1
  O  O101  1  0.86424408  0.00892393  0.04278325  1
  O  O102  1  0.73674107  0.67847265  0.17808292  1
  O  O103  1  0.80375866  0.83177832  0.92395117  1
  O  O104  1  0.62694576  0.99670726  0.71603381  1
  O  O105  1  0.28468876  0.60677780  0.78827290  1
  O  O106  1  0.97373532  0.72161762  0.85746970  1
  O  O107  1  0.69624134  0.33177832  0.07604883  1
  O  O108  1  0.23674107  0.82152735  0.17808292  1
  O  O109  1  0.38236602  0.59062776  0.68732115  1
  O  O110  1  0.47373532  0.27838238  0.64253030  1
  O  O111  1  0.88236602  0.40937224  0.81267885  1
  O  O112  1  0.21531124  0.10677780  0.21172710  1
  O  O113  1  0.78468876  0.39322220  0.71172710  1
  O  O114  1  0.97373532  0.22161762  0.64253030  1
  O  O115  1  0.27803461  0.38706792  0.46499717  1
  O  O116  1  0.52626468  0.22161762  0.14253030  1
  O  O117  1  0.73674107  0.17847265  0.32191708  1
  O  O118  1  0.86424408  0.50892393  0.45721675  1
  O  O119  1  0.10324943  0.90853027  0.43878153  1
  O  O120  1  0.87305424  0.49670726  0.28396619  1
  O  O121  1  0.02626468  0.77838238  0.35746970  1
  O  O122  1  0.44923543  0.73965327  0.61049953  1
  O  O123  1  0.30375866  0.66822168  0.92395117  1
  O  O124  1  0.37305424  0.50329274  0.21603381  1
  O  O125  1  0.19624134  0.16822168  0.07604883  1
  O  O126  1  0.37305424  0.00329274  0.28396619  1
  O  O127  1  0.38236602  0.09062776  0.81267885  1
  O  O128  1  0.11763398  0.09062776  0.31267885  1
  O  O129  1  0.94923543  0.26034673  0.88950047  1
  O  O130  1  0.27803461  0.88706792  0.03500283  1
  O  O131  1  0.22196539  0.38706792  0.96499717  1
  O  O132  1  0.12694576  0.00329274  0.78396619  1
  O  O133  1  0.55076457  0.26034673  0.38950047  1
  O  O134  1  0.05076457  0.73965327  0.11049953  1
  O  O135  1  0.77803461  0.61293208  0.03500283  1
  O  O136  1  0.72196539  0.11293208  0.96499717  1
  O  O137  1  0.10324943  0.40853027  0.06121847  1
  O  O138  1  0.71531124  0.89322220  0.28827290  1
  O  O139  1  0.60324943  0.09146973  0.06121847  1
  O  O140  1  0.71531124  0.39322220  0.21172710  1
  O  O141  1  0.13575592  0.49107607  0.54278325  1
  O  O142  1  0.61763398  0.40937224  0.31267885  1
  O  O143  1  0.47373532  0.77838238  0.85746970  1
