# generated using pymatgen
data_AgSb(S8F3)2
_symmetry_space_group_name_H-M   'P 1'
_cell_length_a   8.25422562
_cell_length_b   10.11207299
_cell_length_c   16.37794261
_cell_angle_alpha   100.47107592
_cell_angle_beta   90.00000000
_cell_angle_gamma   114.08786806
_symmetry_Int_Tables_number   1
_chemical_formula_structural   AgSb(S8F3)2
_chemical_formula_sum   'Ag2 Sb2 S32 F12'
_cell_volume   1223.00446871
_cell_formula_units_Z   2
loop_
 _symmetry_equiv_pos_site_id
 _symmetry_equiv_pos_as_xyz
  1  'x, y, z'
loop_
 _atom_site_type_symbol
 _atom_site_label
 _atom_site_symmetry_multiplicity
 _atom_site_fract_x
 _atom_site_fract_y
 _atom_site_fract_z
 _atom_site_occupancy
  Ag  Ag0  1  0.16686689  0.00000000  0.75000000  1
  Ag  Ag1  1  0.83313311  0.00000000  0.25000000  1
  Sb  Sb2  1  0.50000000  0.00000000  0.00000000  1
  Sb  Sb3  1  0.50000000  0.00000000  0.50000000  1
  S  S4  1  0.72419226  0.63721875  0.58293027  1
  S  S5  1  0.28522608  0.29490055  0.93698462  1
  S  S6  1  0.10053340  0.80161087  0.17107103  1
  S  S7  1  0.64021393  0.68152206  0.33284374  1
  S  S8  1  0.29892253  0.19838913  0.32892897  1
  S  S9  1  0.93406919  0.83567300  0.84929940  1
  S  S10  1  0.78441340  0.26078528  0.25837705  1
  S  S11  1  0.06593081  0.16432700  0.15070060  1
  S  S12  1  0.47637188  0.26078528  0.75837705  1
  S  S13  1  0.52362812  0.73921472  0.24162295  1
  S  S14  1  0.70107747  0.80161087  0.67107103  1
  S  S15  1  0.89946660  0.19838913  0.82892897  1
  S  S16  1  0.90160381  0.83567300  0.34929940  1
  S  S17  1  0.27580774  0.36278125  0.41706973  1
  S  S18  1  0.71477392  0.70509945  0.06301538  1
  S  S19  1  0.35978607  0.31847794  0.66715626  1
  S  S20  1  0.00967447  0.29490055  0.43698462  1
  S  S21  1  0.95869187  0.31847794  0.16715626  1
  S  S22  1  0.93446737  0.25271754  0.71353626  1
  S  S23  1  0.09839619  0.16432700  0.65070060  1
  S  S24  1  0.31825017  0.25271754  0.21353626  1
  S  S25  1  0.06553263  0.74728246  0.28646374  1
  S  S26  1  0.99032553  0.70509945  0.56301538  1
  S  S27  1  0.10099215  0.60209382  0.62757270  1
  S  S28  1  0.50110168  0.60209382  0.12757270  1
  S  S29  1  0.08697351  0.36278125  0.91706973  1
  S  S30  1  0.21558660  0.73921472  0.74162295  1
  S  S31  1  0.49889832  0.39790618  0.87242730  1
  S  S32  1  0.89900785  0.39790618  0.37242730  1
  S  S33  1  0.68174983  0.74728246  0.78646374  1
  S  S34  1  0.04130813  0.68152206  0.83284374  1
  S  S35  1  0.91302649  0.63721875  0.08293027  1
  F  F36  1  0.29407246  0.03607396  0.47829848  1
  F  F37  1  0.35939108  0.79134056  0.46498022  1
  F  F38  1  0.70592754  0.96392604  0.52170152  1
  F  F39  1  0.54943321  0.98648983  0.11284676  1
  F  F40  1  0.56805052  0.20865944  0.03501978  1
  F  F41  1  0.43705662  0.98648983  0.61284676  1
  F  F42  1  0.45056679  0.01351017  0.88715324  1
  F  F43  1  0.43194948  0.79134056  0.96498022  1
  F  F44  1  0.74200149  0.03607396  0.97829848  1
  F  F45  1  0.56294338  0.01351017  0.38715324  1
  F  F46  1  0.25799851  0.96392604  0.02170152  1
  F  F47  1  0.64060892  0.20865944  0.53501978  1
