# generated using pymatgen
data_Cu6PbO8
_symmetry_space_group_name_H-M   'P 1'
_cell_length_a   6.60562969
_cell_length_b   6.60562915
_cell_length_c   6.60563016
_cell_angle_alpha   59.99999996
_cell_angle_beta   60.00000264
_cell_angle_gamma   60.00000195
_symmetry_Int_Tables_number   1
_chemical_formula_structural   Cu6PbO8
_chemical_formula_sum   'Cu6 Pb1 O8'
_cell_volume   203.81102979
_cell_formula_units_Z   1
loop_
 _symmetry_equiv_pos_site_id
 _symmetry_equiv_pos_as_xyz
  1  'x, y, z'
loop_
 _atom_site_type_symbol
 _atom_site_label
 _atom_site_symmetry_multiplicity
 _atom_site_fract_x
 _atom_site_fract_y
 _atom_site_fract_z
 _atom_site_occupancy
  Cu  Cu0  1  0.50000000  0.00000000  0.50000000  1
  Cu  Cu1  1  0.50000000  0.50000000  0.00000000  1
  Cu  Cu2  1  0.00000000  0.50000000  0.50000000  1
  Cu  Cu3  1  0.00000000  0.50000000  0.00000000  1
  Cu  Cu4  1  0.00000000  0.00000000  0.50000000  1
  Cu  Cu5  1  0.50000000  0.00000000  0.00000000  1
  Pb  Pb6  1  0.00000000  0.00000000  0.00000000  1
  O  O7  1  0.14423904  0.14423904  0.14423904  1
  O  O8  1  0.85576096  0.43271713  0.85576096  1
  O  O9  1  0.14423904  0.56728287  0.14423904  1
  O  O10  1  0.43271713  0.85576096  0.85576096  1
  O  O11  1  0.14423904  0.14423904  0.56728287  1
  O  O12  1  0.56728287  0.14423904  0.14423904  1
  O  O13  1  0.85576096  0.85576096  0.43271713  1
  O  O14  1  0.85576096  0.85576096  0.85576096  1
