# generated using pymatgen
data_Sr3CaIrO6
_symmetry_space_group_name_H-M   'P 1'
_cell_length_a   6.86458353
_cell_length_b   6.86458408
_cell_length_c   6.86458394
_cell_angle_alpha   91.47602238
_cell_angle_beta   91.47602237
_cell_angle_gamma   91.47602670
_symmetry_Int_Tables_number   1
_chemical_formula_structural   Sr3CaIrO6
_chemical_formula_sum   'Sr6 Ca2 Ir2 O12'
_cell_volume   323.14879331
_cell_formula_units_Z   2
loop_
 _symmetry_equiv_pos_site_id
 _symmetry_equiv_pos_as_xyz
  1  'x, y, z'
loop_
 _atom_site_type_symbol
 _atom_site_label
 _atom_site_symmetry_multiplicity
 _atom_site_fract_x
 _atom_site_fract_y
 _atom_site_fract_z
 _atom_site_occupancy
  Sr  Sr0  1  0.75000000  0.38626764  0.11373236  1
  Sr  Sr1  1  0.61373236  0.88626764  0.25000000  1
  Sr  Sr2  1  0.88626764  0.25000000  0.61373236  1
  Sr  Sr3  1  0.11373236  0.75000000  0.38626764  1
  Sr  Sr4  1  0.38626764  0.11373236  0.75000000  1
  Sr  Sr5  1  0.25000000  0.61373236  0.88626764  1
  Ca  Ca6  1  0.25000000  0.25000000  0.25000000  1
  Ca  Ca7  1  0.75000000  0.75000000  0.75000000  1
  Ir  Ir8  1  0.00000000  0.00000000  0.00000000  1
  Ir  Ir9  1  0.50000000  0.50000000  0.50000000  1
  O  O10  1  0.21425408  0.41853537  0.55044423  1
  O  O11  1  0.28574592  0.94955577  0.08146463  1
  O  O12  1  0.41853537  0.55044423  0.21425408  1
  O  O13  1  0.44955577  0.78574592  0.58146463  1
  O  O14  1  0.58146463  0.44955577  0.78574592  1
  O  O15  1  0.55044423  0.21425408  0.41853537  1
  O  O16  1  0.94955577  0.08146463  0.28574592  1
  O  O17  1  0.08146463  0.28574592  0.94955577  1
  O  O18  1  0.05044423  0.91853537  0.71425408  1
  O  O19  1  0.91853537  0.71425408  0.05044423  1
  O  O20  1  0.71425408  0.05044423  0.91853537  1
  O  O21  1  0.78574592  0.58146463  0.44955577  1
