# generated using pymatgen
data_Cs2CdBi2S5
_symmetry_space_group_name_H-M   'P 1'
_cell_length_a   4.23018739
_cell_length_b   16.09265206
_cell_length_c   18.76976396
_cell_angle_alpha   90.00000000
_cell_angle_beta   90.00000000
_cell_angle_gamma   90.00000000
_symmetry_Int_Tables_number   1
_chemical_formula_structural   Cs2CdBi2S5
_chemical_formula_sum   'Cs8 Cd4 Bi8 S20'
_cell_volume   1277.75043932
_cell_formula_units_Z   4
loop_
 _symmetry_equiv_pos_site_id
 _symmetry_equiv_pos_as_xyz
  1  'x, y, z'
loop_
 _atom_site_type_symbol
 _atom_site_label
 _atom_site_symmetry_multiplicity
 _atom_site_fract_x
 _atom_site_fract_y
 _atom_site_fract_z
 _atom_site_occupancy
  Cs  Cs0  1  0.75000000  0.49336618  0.12698110  1
  Cs  Cs1  1  0.75000000  0.03483925  0.88751383  1
  Cs  Cs2  1  0.25000000  0.96516075  0.11248617  1
  Cs  Cs3  1  0.25000000  0.46516075  0.38751383  1
  Cs  Cs4  1  0.25000000  0.50663382  0.87301890  1
  Cs  Cs5  1  0.25000000  0.00663382  0.62698110  1
  Cs  Cs6  1  0.75000000  0.99336618  0.37301890  1
  Cs  Cs7  1  0.75000000  0.53483925  0.61248617  1
  Cd  Cd8  1  0.25000000  0.21148695  0.35445585  1
  Cd  Cd9  1  0.75000000  0.78851305  0.64554415  1
  Cd  Cd10  1  0.75000000  0.28851305  0.85445585  1
  Cd  Cd11  1  0.25000000  0.71148695  0.14554415  1
  Bi  Bi12  1  0.25000000  0.75508037  0.48174207  1
  Bi  Bi13  1  0.75000000  0.70794280  0.30462155  1
  Bi  Bi14  1  0.25000000  0.79205720  0.80462155  1
  Bi  Bi15  1  0.25000000  0.25508037  0.01825793  1
  Bi  Bi16  1  0.75000000  0.74491963  0.98174207  1
  Bi  Bi17  1  0.25000000  0.29205720  0.69537845  1
  Bi  Bi18  1  0.75000000  0.20794280  0.19537845  1
  Bi  Bi19  1  0.75000000  0.24491963  0.51825793  1
  S  S20  1  0.25000000  0.13774090  0.47582617  1
  S  S21  1  0.25000000  0.63774090  0.02417383  1
  S  S22  1  0.75000000  0.13923750  0.06153153  1
  S  S23  1  0.75000000  0.68290591  0.85289426  1
  S  S24  1  0.25000000  0.86076250  0.93846847  1
  S  S25  1  0.75000000  0.86225910  0.52417383  1
  S  S26  1  0.25000000  0.31709409  0.14710574  1
  S  S27  1  0.25000000  0.20036131  0.83828220  1
  S  S28  1  0.75000000  0.39365876  0.74896768  1
  S  S29  1  0.75000000  0.89365876  0.75103232  1
  S  S30  1  0.25000000  0.60634124  0.25103232  1
  S  S31  1  0.75000000  0.29963869  0.33828220  1
  S  S32  1  0.25000000  0.36076250  0.56153153  1
  S  S33  1  0.25000000  0.10634124  0.24896768  1
  S  S34  1  0.75000000  0.79963869  0.16171780  1
  S  S35  1  0.75000000  0.63923750  0.43846847  1
  S  S36  1  0.75000000  0.18290591  0.64710574  1
  S  S37  1  0.25000000  0.70036131  0.66171780  1
  S  S38  1  0.25000000  0.81709409  0.35289426  1
  S  S39  1  0.75000000  0.36225910  0.97582617  1
