# generated using pymatgen
data_Rb2Mn(PS3)2
_symmetry_space_group_name_H-M   'P 1'
_cell_length_a   6.18305106
_cell_length_b   7.75751491
_cell_length_c   12.58576018
_cell_angle_alpha   90.00000000
_cell_angle_beta   90.00000000
_cell_angle_gamma   97.86602819
_symmetry_Int_Tables_number   1
_chemical_formula_structural   Rb2Mn(PS3)2
_chemical_formula_sum   'Rb4 Mn2 P4 S12'
_cell_volume   597.99724983
_cell_formula_units_Z   2
loop_
 _symmetry_equiv_pos_site_id
 _symmetry_equiv_pos_as_xyz
  1  'x, y, z'
loop_
 _atom_site_type_symbol
 _atom_site_label
 _atom_site_symmetry_multiplicity
 _atom_site_fract_x
 _atom_site_fract_y
 _atom_site_fract_z
 _atom_site_occupancy
  Rb  Rb0  1  0.27095052  0.47458613  0.67376817  1
  Rb  Rb1  1  0.72904948  0.52541387  0.32623183  1
  Rb  Rb2  1  0.22904948  0.02541387  0.17376817  1
  Rb  Rb3  1  0.77095052  0.97458613  0.82623183  1
  Mn  Mn4  1  0.50000000  0.00000000  0.50000000  1
  Mn  Mn5  1  0.00000000  0.50000000  0.00000000  1
  P  P6  1  0.03092534  0.87623232  0.53975252  1
  P  P7  1  0.53092534  0.37623232  0.96024748  1
  P  P8  1  0.46907466  0.62376768  0.03975252  1
  P  P9  1  0.96907466  0.12376768  0.46024748  1
  S  S10  1  0.22579265  0.25971537  0.92487849  1
  S  S11  1  0.76927127  0.04747329  0.33543780  1
  S  S12  1  0.29802187  0.74679758  0.93193752  1
  S  S13  1  0.77420735  0.74028463  0.07512151  1
  S  S14  1  0.72579265  0.75971537  0.57512151  1
  S  S15  1  0.23072873  0.95252671  0.66456220  1
  S  S16  1  0.79802187  0.24679758  0.56806248  1
  S  S17  1  0.20197813  0.75320242  0.43193752  1
  S  S18  1  0.27420735  0.24028463  0.42487849  1
  S  S19  1  0.73072873  0.45252671  0.83543780  1
  S  S20  1  0.70197813  0.25320242  0.06806248  1
  S  S21  1  0.26927127  0.54747329  0.16456220  1
