# generated using pymatgen
data_KThP3O10
_symmetry_space_group_name_H-M   'P 1'
_cell_length_a   8.33132534
_cell_length_b   10.14071648
_cell_length_c   10.35876595
_cell_angle_alpha   90.00000000
_cell_angle_beta   90.00000000
_cell_angle_gamma   90.00000000
_symmetry_Int_Tables_number   1
_chemical_formula_structural   KThP3O10
_chemical_formula_sum   'K4 Th4 P12 O40'
_cell_volume   875.16664123
_cell_formula_units_Z   4
loop_
 _symmetry_equiv_pos_site_id
 _symmetry_equiv_pos_as_xyz
  1  'x, y, z'
loop_
 _atom_site_type_symbol
 _atom_site_label
 _atom_site_symmetry_multiplicity
 _atom_site_fract_x
 _atom_site_fract_y
 _atom_site_fract_z
 _atom_site_occupancy
  K  K0  1  0.09628680  0.26302734  0.67622980  1
  K  K1  1  0.90371320  0.23697266  0.17622980  1
  K  K2  1  0.40371320  0.76302734  0.32377020  1
  K  K3  1  0.59628680  0.73697266  0.82377020  1
  Th  Th4  1  0.63922649  0.25279858  0.84843165  1
  Th  Th5  1  0.36077351  0.24720142  0.34843165  1
  Th  Th6  1  0.86077351  0.75279858  0.15156835  1
  Th  Th7  1  0.13922649  0.74720142  0.65156835  1
  P  P8  1  0.97837231  0.50225278  0.88602767  1
  P  P9  1  0.52162769  0.00225278  0.11397233  1
  P  P10  1  0.02162769  0.99774722  0.38602767  1
  P  P11  1  0.55086540  0.48001087  0.12463352  1
  P  P12  1  0.05086540  0.51998913  0.37536648  1
  P  P13  1  0.94913460  0.98001087  0.87536648  1
  P  P14  1  0.22482963  0.87096424  0.98892835  1
  P  P15  1  0.27517037  0.37096424  0.01107165  1
  P  P16  1  0.44913460  0.01998913  0.62463352  1
  P  P17  1  0.72482963  0.12903576  0.51107165  1
  P  P18  1  0.47837231  0.49774722  0.61397233  1
  P  P19  1  0.77517037  0.62903576  0.48892835  1
  O  O20  1  0.38017851  0.50007873  0.04693552  1
  O  O21  1  0.85236923  0.88092850  0.95491534  1
  O  O22  1  0.37195251  0.61251995  0.65499920  1
  O  O23  1  0.35236923  0.11907150  0.54508466  1
  O  O24  1  0.15476991  0.80711246  0.10841473  1
  O  O25  1  0.39710367  0.39134510  0.53447831  1
  O  O26  1  0.60289633  0.10865490  0.03447831  1
  O  O27  1  0.50625022  0.42682188  0.25823735  1
  O  O28  1  0.24057446  0.78437070  0.87054584  1
  O  O29  1  0.62094621  0.61835090  0.12848717  1
  O  O30  1  0.14763077  0.61907150  0.45491534  1
  O  O31  1  0.92533698  0.94695625  0.27111558  1
  O  O32  1  0.87905379  0.11835090  0.87151283  1
  O  O33  1  0.12094621  0.38164910  0.37151283  1
  O  O34  1  0.99374978  0.92682188  0.74176265  1
  O  O35  1  0.62804749  0.88748005  0.15499920  1
  O  O36  1  0.34523009  0.30711246  0.89158527  1
  O  O37  1  0.11982149  0.00007873  0.95306448  1
  O  O38  1  0.84523009  0.69288754  0.60841473  1
  O  O39  1  0.89710367  0.60865490  0.96552169  1
  O  O40  1  0.60323463  0.56882378  0.51248301  1
  O  O41  1  0.87195251  0.38748005  0.84500080  1
  O  O42  1  0.88017851  0.49992127  0.45306448  1
  O  O43  1  0.89676537  0.06882378  0.48751699  1
  O  O44  1  0.37905379  0.88164910  0.62848717  1
  O  O45  1  0.49374978  0.07317812  0.75823735  1
  O  O46  1  0.12804749  0.11251995  0.34500080  1
  O  O47  1  0.64763077  0.38092850  0.04508466  1
  O  O48  1  0.25942554  0.28437070  0.12945416  1
  O  O49  1  0.65476991  0.19288754  0.39158527  1
  O  O50  1  0.00625022  0.57317812  0.24176265  1
  O  O51  1  0.07466302  0.55304375  0.77111558  1
  O  O52  1  0.75942554  0.71562930  0.37054584  1
  O  O53  1  0.42533698  0.05304375  0.22888442  1
  O  O54  1  0.57466302  0.44695625  0.72888442  1
  O  O55  1  0.74057446  0.21562930  0.62945416  1
  O  O56  1  0.10323463  0.43117622  0.98751699  1
  O  O57  1  0.61982149  0.99992127  0.54693552  1
  O  O58  1  0.39676537  0.93117622  0.01248301  1
  O  O59  1  0.10289633  0.89134510  0.46552169  1
