# generated using pymatgen
data_KV3(SeO6)2
_symmetry_space_group_name_H-M   'P 1'
_cell_length_a   7.15859930
_cell_length_b   7.15859929
_cell_length_c   11.93219058
_cell_angle_alpha   90.00000000
_cell_angle_beta   90.00000000
_cell_angle_gamma   120.00000000
_symmetry_Int_Tables_number   1
_chemical_formula_structural   KV3(SeO6)2
_chemical_formula_sum   'K2 V6 Se4 O24'
_cell_volume   529.54993602
_cell_formula_units_Z   2
loop_
 _symmetry_equiv_pos_site_id
 _symmetry_equiv_pos_as_xyz
  1  'x, y, z'
loop_
 _atom_site_type_symbol
 _atom_site_label
 _atom_site_symmetry_multiplicity
 _atom_site_fract_x
 _atom_site_fract_y
 _atom_site_fract_z
 _atom_site_occupancy
  K  K0  1  0.33333300  0.66666700  0.94916327  1
  K  K1  1  0.66666700  0.33333300  0.44916327  1
  V  V2  1  0.79343704  0.12651486  0.78414760  1
  V  V3  1  0.66692218  0.79343704  0.28414760  1
  V  V4  1  0.12651486  0.33307782  0.28414760  1
  V  V5  1  0.87348514  0.66692218  0.78414760  1
  V  V6  1  0.33307782  0.20656296  0.78414760  1
  V  V7  1  0.20656296  0.87348514  0.28414760  1
  Se  Se8  1  0.33333300  0.66666700  0.50556289  1
  Se  Se9  1  0.66666700  0.33333300  0.00556289  1
  Se  Se10  1  0.00000000  0.00000000  0.06615101  1
  Se  Se11  1  0.00000000  0.00000000  0.56615101  1
  O  O12  1  0.80057769  0.21344861  0.94468558  1
  O  O13  1  0.58713009  0.80057769  0.44468558  1
  O  O14  1  0.21344861  0.41286991  0.44468558  1
  O  O15  1  0.78655139  0.58713009  0.94468558  1
  O  O16  1  0.41286991  0.19942231  0.94468558  1
  O  O17  1  0.19942231  0.78655139  0.44468558  1
  O  O18  1  0.87759060  0.13191839  0.62844945  1
  O  O19  1  0.74567222  0.87759060  0.12844945  1
  O  O20  1  0.13191839  0.25432778  0.12844945  1
  O  O21  1  0.86808161  0.74567222  0.62844945  1
  O  O22  1  0.25432778  0.12240940  0.62844945  1
  O  O23  1  0.12240940  0.86808161  0.12844945  1
  O  O24  1  0.74780581  0.87445472  0.81541696  1
  O  O25  1  0.87335209  0.74780581  0.31541696  1
  O  O26  1  0.87445472  0.12664791  0.31541696  1
  O  O27  1  0.12554528  0.87335209  0.81541696  1
  O  O28  1  0.12664791  0.25219419  0.81541696  1
  O  O29  1  0.25219419  0.12554528  0.31541696  1
  O  O30  1  0.54106111  0.08262226  0.75935936  1
  O  O31  1  0.45843885  0.54106111  0.25935936  1
  O  O32  1  0.08262226  0.54156115  0.25935936  1
  O  O33  1  0.91737774  0.45843885  0.75935936  1
  O  O34  1  0.54156115  0.45893889  0.75935936  1
  O  O35  1  0.45893889  0.91737774  0.25935936  1
