# generated using pymatgen
data_Rb2NaAl2(PO4)3
_symmetry_space_group_name_H-M   'P 1'
_cell_length_a   4.91172369
_cell_length_b   8.33589842
_cell_length_c   28.72906255
_cell_angle_alpha   90.00000000
_cell_angle_beta   90.49704144
_cell_angle_gamma   90.00000000
_symmetry_Int_Tables_number   1
_chemical_formula_structural   Rb2NaAl2(PO4)3
_chemical_formula_sum   'Rb8 Na4 Al8 P12 O48'
_cell_volume   1176.22783920
_cell_formula_units_Z   4
loop_
 _symmetry_equiv_pos_site_id
 _symmetry_equiv_pos_as_xyz
  1  'x, y, z'
loop_
 _atom_site_type_symbol
 _atom_site_label
 _atom_site_symmetry_multiplicity
 _atom_site_fract_x
 _atom_site_fract_y
 _atom_site_fract_z
 _atom_site_occupancy
  Rb  Rb0  1  0.73726604  0.52080569  0.82907317  1
  Rb  Rb1  1  0.72719045  0.85650217  0.95247477  1
  Rb  Rb2  1  0.26273396  0.47919431  0.17092683  1
  Rb  Rb3  1  0.73726604  0.97919431  0.32907317  1
  Rb  Rb4  1  0.72719045  0.64349783  0.45247477  1
  Rb  Rb5  1  0.27280955  0.14349783  0.04752523  1
  Rb  Rb6  1  0.26273396  0.02080569  0.67092683  1
  Rb  Rb7  1  0.27280955  0.35650217  0.54752523  1
  Na  Na8  1  0.77854715  0.44802333  0.04691950  1
  Na  Na9  1  0.22145285  0.55197667  0.95308050  1
  Na  Na10  1  0.22145285  0.94802333  0.45308050  1
  Na  Na11  1  0.77854715  0.05197667  0.54691950  1
  Al  Al12  1  0.73272511  0.96957283  0.79238271  1
  Al  Al13  1  0.81087706  0.81438462  0.10458956  1
  Al  Al14  1  0.18912294  0.31438462  0.39541044  1
  Al  Al15  1  0.26727489  0.46957283  0.70761729  1
  Al  Al16  1  0.73272511  0.53042717  0.29238271  1
  Al  Al17  1  0.26727489  0.03042717  0.20761729  1
  Al  Al18  1  0.18912294  0.18561538  0.89541044  1
  Al  Al19  1  0.81087706  0.68561538  0.60458956  1
  P  P20  1  0.75714594  0.16027483  0.14330334  1
  P  P21  1  0.24285406  0.83972517  0.85669666  1
  P  P22  1  0.69845340  0.30743579  0.95167795  1
  P  P23  1  0.24285406  0.66027483  0.35669666  1
  P  P24  1  0.75714594  0.33972517  0.64330334  1
  P  P25  1  0.22608826  0.28491557  0.29093970  1
  P  P26  1  0.77391174  0.71508443  0.70906030  1
  P  P27  1  0.30154660  0.69256421  0.04832205  1
  P  P28  1  0.69845340  0.19256421  0.45167795  1
  P  P29  1  0.22608826  0.21508443  0.79093970  1
  P  P30  1  0.30154660  0.80743579  0.54832205  1
  P  P31  1  0.77391174  0.78491557  0.20906030  1
  O  O32  1  0.85382766  0.24760456  0.90704007  1
  O  O33  1  0.75483270  0.62673122  0.23643706  1
  O  O34  1  0.42153304  0.41098961  0.27180315  1
  O  O35  1  0.77759395  0.28992723  0.49467644  1
  O  O36  1  0.75483270  0.87326878  0.73643706  1
  O  O37  1  0.14617234  0.74760456  0.59295993  1
  O  O38  1  0.23283426  0.82148729  0.38135143  1
  O  O39  1  0.42153304  0.08901039  0.77180315  1
  O  O40  1  0.07274998  0.65679982  0.70820193  1
  O  O41  1  0.26464365  0.51134356  0.04226849  1
  O  O42  1  0.46546662  0.37163518  0.66219483  1
  O  O43  1  0.85382766  0.25239544  0.40704007  1
  O  O44  1  0.73535635  0.01134356  0.45773151  1
  O  O45  1  0.38635918  0.27371136  0.94009005  1
  O  O46  1  0.14617234  0.75239544  0.09295993  1
  O  O47  1  0.30543738  0.26281927  0.84222892  1
  O  O48  1  0.69456262  0.73718073  0.15777108  1
  O  O49  1  0.24516730  0.12673122  0.26356294  1
  O  O50  1  0.24516730  0.37326878  0.76356294  1
  O  O51  1  0.03077771  0.64571840  0.31742631  1
  O  O52  1  0.57846696  0.58901039  0.72819685  1
  O  O53  1  0.30543738  0.23718073  0.34222892  1
  O  O54  1  0.53453338  0.62836482  0.33780517  1
  O  O55  1  0.76716574  0.32148729  0.11864857  1
  O  O56  1  0.61364082  0.72628864  0.05990995  1
  O  O57  1  0.96922229  0.35428160  0.68257369  1
  O  O58  1  0.77759395  0.21007277  0.99467644  1
  O  O59  1  0.76716574  0.17851271  0.61864857  1
  O  O60  1  0.22240605  0.78992723  0.00532356  1
  O  O61  1  0.19289249  0.52483917  0.39502358  1
  O  O62  1  0.07274998  0.84320018  0.20820193  1
  O  O63  1  0.92725002  0.34320018  0.29179807  1
  O  O64  1  0.19289249  0.97516083  0.89502358  1
  O  O65  1  0.23283426  0.67851271  0.88135143  1
  O  O66  1  0.69456262  0.76281927  0.65777108  1
  O  O67  1  0.26464365  0.98865644  0.54226849  1
  O  O68  1  0.61364082  0.77371136  0.55990995  1
  O  O69  1  0.22240605  0.71007277  0.50532356  1
  O  O70  1  0.46546662  0.12836482  0.16219483  1
  O  O71  1  0.38635918  0.22628864  0.44009005  1
  O  O72  1  0.57846696  0.91098961  0.22819685  1
  O  O73  1  0.92725002  0.15679982  0.79179807  1
  O  O74  1  0.80710751  0.02483917  0.10497642  1
  O  O75  1  0.80710751  0.47516083  0.60497642  1
  O  O76  1  0.73535635  0.48865644  0.95773151  1
  O  O77  1  0.53453338  0.87163518  0.83780517  1
  O  O78  1  0.96922229  0.14571840  0.18257369  1
  O  O79  1  0.03077771  0.85428160  0.81742631  1
