# generated using pymatgen
data_K6Se2O9
_symmetry_space_group_name_H-M   'P 1'
_cell_length_a   8.27520247
_cell_length_b   8.27520247
_cell_length_c   17.77098832
_cell_angle_alpha   90.00000000
_cell_angle_beta   90.00000000
_cell_angle_gamma   90.00000000
_symmetry_Int_Tables_number   1
_chemical_formula_structural   K6Se2O9
_chemical_formula_sum   'K24 Se8 O36'
_cell_volume   1216.93908123
_cell_formula_units_Z   4
loop_
 _symmetry_equiv_pos_site_id
 _symmetry_equiv_pos_as_xyz
  1  'x, y, z'
loop_
 _atom_site_type_symbol
 _atom_site_label
 _atom_site_symmetry_multiplicity
 _atom_site_fract_x
 _atom_site_fract_y
 _atom_site_fract_z
 _atom_site_occupancy
  K  K0  1  0.45633400  0.49994120  0.64591381  1
  K  K1  1  0.79062481  0.77573135  0.25355387  1
  K  K2  1  0.29062481  0.72426865  0.49644613  1
  K  K3  1  1.00204082  0.47558710  0.37284393  1
  K  K4  1  0.50204082  0.02441290  0.37715607  1
  K  K5  1  0.22426865  0.20937519  0.24644613  1
  K  K6  1  0.27573135  0.70937519  0.00355387  1
  K  K7  1  0.97558710  0.49795918  0.12284393  1
  K  K8  1  0.04366600  0.99994120  0.60408619  1
  K  K9  1  0.95633400  0.00005880  0.10408619  1
  K  K10  1  0.99994120  0.04366600  0.39591381  1
  K  K11  1  0.49994120  0.45633400  0.35408619  1
  K  K12  1  0.47558710  1.00204082  0.62715607  1
  K  K13  1  0.77573135  0.79062481  0.74644613  1
  K  K14  1  0.02441290  0.50204082  0.62284393  1
  K  K15  1  0.50005880  0.54366600  0.85408619  1
  K  K16  1  0.49795918  0.97558710  0.87715607  1
  K  K17  1  -0.00204082  0.52441290  0.87284393  1
  K  K18  1  0.54366600  0.50005880  0.14591381  1
  K  K19  1  0.72426865  0.29062481  0.50355387  1
  K  K20  1  0.00005880  0.95633400  0.89591381  1
  K  K21  1  0.70937519  0.27573135  0.99644613  1
  K  K22  1  0.20937519  0.22426865  0.75355387  1
  K  K23  1  0.52441290  -0.00204082  0.12715607  1
  Se  Se24  1  0.24565735  0.75434265  0.75000000  1
  Se  Se25  1  0.73403818  0.26596182  0.75000000  1
  Se  Se26  1  0.76596182  0.76596182  0.50000000  1
  Se  Se27  1  0.75434265  0.24565735  0.25000000  1
  Se  Se28  1  0.74565735  0.74565735  0.00000000  1
  Se  Se29  1  0.23403818  0.23403818  0.00000000  1
  Se  Se30  1  0.25434265  0.25434265  0.50000000  1
  Se  Se31  1  0.26596182  0.73403818  0.25000000  1
  O  O32  1  0.96424044  0.73517536  0.48585556  1
  O  O33  1  0.40493821  0.40493821  0.50000000  1
  O  O34  1  0.75786064  0.24745601  0.14661319  1
  O  O35  1  0.09506179  0.90493821  0.75000000  1
  O  O36  1  0.54682157  0.19899720  0.24836570  1
  O  O37  1  0.03575956  0.26482464  0.98585556  1
  O  O38  1  0.53575956  0.23517536  0.76414444  1
  O  O39  1  0.20906433  0.83763515  0.17335628  1
  O  O40  1  0.24213936  0.75254399  0.64661319  1
  O  O41  1  0.74745601  0.74213936  0.89661319  1
  O  O42  1  0.23517536  0.53575956  0.23585556  1
  O  O43  1  0.83763515  0.20906433  0.82664372  1
  O  O44  1  0.24745601  0.75786064  0.85338681  1
  O  O45  1  0.33763515  0.29093567  0.92335628  1
  O  O46  1  0.25786064  0.25254399  0.60338681  1
  O  O47  1  0.76482464  0.46424044  0.73585556  1
  O  O48  1  0.70906433  0.66236485  0.57664372  1
  O  O49  1  0.26482464  0.03575956  0.01414444  1
  O  O50  1  0.79093567  0.16236485  0.67335628  1
  O  O51  1  0.45317843  0.80100280  0.74836570  1
  O  O52  1  0.30100280  0.04682157  0.49836570  1
  O  O53  1  0.04682157  0.30100280  0.50163430  1
  O  O54  1  0.59506179  0.59506179  0.00000000  1
  O  O55  1  0.25254399  0.25786064  0.39661319  1
  O  O56  1  0.69899720  0.95317843  0.99836570  1
  O  O57  1  0.46424044  0.76482464  0.26414444  1
  O  O58  1  0.73517536  0.96424044  0.51414444  1
  O  O59  1  0.29093567  0.33763515  0.07664372  1
  O  O60  1  0.74213936  0.74745601  0.10338681  1
  O  O61  1  0.80100280  0.45317843  0.25163430  1
  O  O62  1  0.16236485  0.79093567  0.32664372  1
  O  O63  1  0.75254399  0.24213936  0.35338681  1
  O  O64  1  0.19899720  0.54682157  0.75163430  1
  O  O65  1  0.66236485  0.70906433  0.42335628  1
  O  O66  1  0.90493821  0.09506179  0.25000000  1
  O  O67  1  0.95317843  0.69899720  0.00163430  1
