# generated using pymatgen
data_K2Cu(PS3)3
_symmetry_space_group_name_H-M   'P 1'
_cell_length_a   6.90597381
_cell_length_b   9.75612693
_cell_length_c   24.34122465
_cell_angle_alpha   90.00000000
_cell_angle_beta   90.00000000
_cell_angle_gamma   99.43152511
_symmetry_Int_Tables_number   1
_chemical_formula_structural   K2Cu(PS3)3
_chemical_formula_sum   'K8 Cu4 P12 S36'
_cell_volume   1617.83424570
_cell_formula_units_Z   4
loop_
 _symmetry_equiv_pos_site_id
 _symmetry_equiv_pos_as_xyz
  1  'x, y, z'
loop_
 _atom_site_type_symbol
 _atom_site_label
 _atom_site_symmetry_multiplicity
 _atom_site_fract_x
 _atom_site_fract_y
 _atom_site_fract_z
 _atom_site_occupancy
  K  K0  1  0.77142376  0.26194837  0.45584558  1
  K  K1  1  0.82974530  0.62762323  0.19570145  1
  K  K2  1  0.17025470  0.37237677  0.80429855  1
  K  K3  1  0.32974530  0.12762323  0.30429855  1
  K  K4  1  0.67025470  0.87237677  0.69570145  1
  K  K5  1  0.27142376  0.76194837  0.04415442  1
  K  K6  1  0.72857624  0.23805163  0.95584558  1
  K  K7  1  0.22857624  0.73805163  0.54415442  1
  Cu  Cu8  1  0.57066152  0.30779836  0.10853604  1
  Cu  Cu9  1  0.92933848  0.19220164  0.60853604  1
  Cu  Cu10  1  0.42933848  0.69220164  0.89146396  1
  Cu  Cu11  1  0.07066152  0.80779836  0.39146396  1
  P  P12  1  0.56136103  0.83902639  0.40084603  1
  P  P13  1  0.06136103  0.33902639  0.09915397  1
  P  P14  1  0.76227316  0.01116471  0.10180912  1
  P  P15  1  0.68527883  0.28091630  0.72087700  1
  P  P16  1  0.43863897  0.16097361  0.59915397  1
  P  P17  1  0.81472117  0.21908370  0.22087700  1
  P  P18  1  0.18527883  0.78091630  0.77912300  1
  P  P19  1  0.23772684  0.98883529  0.89819088  1
  P  P20  1  0.93863897  0.66097361  0.90084603  1
  P  P21  1  0.73772684  0.48883529  0.60180912  1
  P  P22  1  0.31472117  0.71908370  0.27912300  1
  P  P23  1  0.26227316  0.51116471  0.39819088  1
  S  S24  1  0.71707692  0.68289599  0.58134880  1
  S  S25  1  0.92071357  0.19291858  0.70336937  1
  S  S26  1  0.52326446  0.08305188  0.07567920  1
  S  S27  1  0.83207843  0.92450939  0.42519805  1
  S  S28  1  0.07987259  0.33374949  0.18690549  1
  S  S29  1  0.20008196  0.98602456  0.81127407  1
  S  S30  1  0.66792157  0.57549061  0.92519805  1
  S  S31  1  0.57987259  0.83374949  0.31309451  1
  S  S32  1  0.47241915  0.36956338  0.56954407  1
  S  S33  1  0.02326446  0.58305188  0.42432080  1
  S  S34  1  0.35022520  0.94186696  0.42750504  1
  S  S35  1  0.79991804  0.01397544  0.18872593  1
  S  S36  1  0.92012741  0.66625051  0.81309451  1
  S  S37  1  0.97673554  0.41694812  0.57567920  1
  S  S38  1  0.70008196  0.48602456  0.68872593  1
  S  S39  1  0.28292308  0.31710401  0.41865120  1
  S  S40  1  0.52758085  0.63043662  0.43045593  1
  S  S41  1  0.33207843  0.42450939  0.07480195  1
  S  S42  1  0.42071357  0.69291858  0.79663063  1
  S  S43  1  0.64977480  0.05813304  0.57249496  1
  S  S44  1  0.87281664  0.19721524  0.29932748  1
  S  S45  1  0.85022520  0.44186696  0.07249496  1
  S  S46  1  0.21707692  0.18289599  0.91865120  1
  S  S47  1  0.62718336  0.30278476  0.79932748  1
  S  S48  1  0.37281664  0.69721524  0.20067252  1
  S  S49  1  0.14977480  0.55813304  0.92750504  1
  S  S50  1  0.12718336  0.80278476  0.70067252  1
  S  S51  1  0.78292308  0.81710401  0.08134880  1
  S  S52  1  0.02758085  0.13043662  0.06954407  1
  S  S53  1  0.16792157  0.07549061  0.57480195  1
  S  S54  1  0.29991804  0.51397544  0.31127407  1
  S  S55  1  0.97241915  0.86956338  0.93045593  1
  S  S56  1  0.42012741  0.16625051  0.68690549  1
  S  S57  1  0.57928643  0.30708142  0.20336937  1
  S  S58  1  0.47673554  0.91694812  0.92432080  1
  S  S59  1  0.07928643  0.80708142  0.29663063  1
