# generated using pymatgen
data_HfB2O5
_symmetry_space_group_name_H-M   'P 1'
_cell_length_a   4.41155923
_cell_length_b   6.94852878
_cell_length_c   9.02944926
_cell_angle_alpha   90.00000000
_cell_angle_beta   90.68269179
_cell_angle_gamma   90.00000000
_symmetry_Int_Tables_number   1
_chemical_formula_structural   HfB2O5
_chemical_formula_sum   'Hf4 B8 O20'
_cell_volume   276.76770180
_cell_formula_units_Z   4
loop_
 _symmetry_equiv_pos_site_id
 _symmetry_equiv_pos_as_xyz
  1  'x, y, z'
loop_
 _atom_site_type_symbol
 _atom_site_label
 _atom_site_symmetry_multiplicity
 _atom_site_fract_x
 _atom_site_fract_y
 _atom_site_fract_z
 _atom_site_occupancy
  Hf  Hf0  1  0.00091530  0.11185105  0.67040543  1
  Hf  Hf1  1  0.99908470  0.88814895  0.32959457  1
  Hf  Hf2  1  0.00091530  0.38814895  0.17040543  1
  Hf  Hf3  1  0.99908470  0.61185105  0.82959457  1
  B  B4  1  0.46481954  0.41307638  0.66661827  1
  B  B5  1  0.53518046  0.58692362  0.33338173  1
  B  B6  1  0.53518046  0.91307638  0.83338173  1
  B  B7  1  0.52743792  0.27092451  0.92349141  1
  B  B8  1  0.46481954  0.08692362  0.16661827  1
  B  B9  1  0.47256208  0.72907549  0.07650859  1
  B  B10  1  0.52743792  0.22907549  0.42349141  1
  B  B11  1  0.47256208  0.77092451  0.57650859  1
  O  O12  1  0.32926552  0.89509886  0.15085885  1
  O  O13  1  0.76946147  0.40302020  0.96818144  1
  O  O14  1  0.32926552  0.60490114  0.65085885  1
  O  O15  1  0.69556186  0.84498053  0.69191044  1
  O  O16  1  0.23053853  0.90302020  0.53181856  1
  O  O17  1  0.21242047  0.90988216  0.82007489  1
  O  O18  1  0.34724441  0.27796207  0.55487044  1
  O  O19  1  0.67073448  0.10490114  0.84914115  1
  O  O20  1  0.67073448  0.39509886  0.34914115  1
  O  O21  1  0.34724441  0.22203793  0.05487044  1
  O  O22  1  0.78757953  0.09011784  0.17992511  1
  O  O23  1  0.78757953  0.40988216  0.67992511  1
  O  O24  1  0.65275559  0.72203793  0.44512956  1
  O  O25  1  0.30443814  0.34498053  0.80808956  1
  O  O26  1  0.30443814  0.15501947  0.30808956  1
  O  O27  1  0.69556186  0.65501947  0.19191044  1
  O  O28  1  0.76946147  0.09697980  0.46818144  1
  O  O29  1  0.65275559  0.77796207  0.94512956  1
  O  O30  1  0.21242047  0.59011784  0.32007489  1
  O  O31  1  0.23053853  0.59697980  0.03181856  1
