# generated using pymatgen
data_UPBrO6
_symmetry_space_group_name_H-M   'P 1'
_cell_length_a   7.05446352
_cell_length_b   10.05948616
_cell_length_c   10.05948616
_cell_angle_alpha   97.06218788
_cell_angle_beta   110.52630439
_cell_angle_gamma   69.47369561
_symmetry_Int_Tables_number   1
_chemical_formula_structural   UPBrO6
_chemical_formula_sum   'U4 P4 Br4 O24'
_cell_volume   626.09702630
_cell_formula_units_Z   4
loop_
 _symmetry_equiv_pos_site_id
 _symmetry_equiv_pos_as_xyz
  1  'x, y, z'
loop_
 _atom_site_type_symbol
 _atom_site_label
 _atom_site_symmetry_multiplicity
 _atom_site_fract_x
 _atom_site_fract_y
 _atom_site_fract_z
 _atom_site_occupancy
  U  U0  1  0.63097609  0.52874252  0.79372416  1
  U  U1  1  0.36599446  0.47125748  0.20627584  1
  U  U2  1  0.84028139  0.79372416  0.47125748  1
  U  U3  1  0.16274806  0.20627584  0.52874252  1
  P  P4  1  0.36275888  0.83665905  0.56202151  1
  P  P5  1  0.63739642  0.16334095  0.43797849  1
  P  P6  1  0.80058207  0.56202151  0.16334095  1
  P  P7  1  0.19926263  0.43797849  0.83665905  1
  Br  Br8  1  0.24849106  0.90285723  0.92889688  1
  Br  Br9  1  0.22245140  0.09714277  0.07110312  1
  Br  Br10  1  0.68040583  0.07110312  0.90285723  1
  Br  Br11  1  0.84865172  0.92889688  0.09714277  1
  O  O12  1  0.31755855  0.53044863  0.81176885  1
  O  O13  1  0.03623833  0.46955137  0.18823115  1
  O  O14  1  0.51486710  0.81072293  0.47593877  1
  O  O15  1  0.84965126  0.18927707  0.52406123  1
  O  O16  1  0.67440997  0.47593877  0.18927707  1
  O  O17  1  0.96107167  0.52406123  0.81072293  1
  O  O18  1  0.49421030  0.18823115  0.53044863  1
  O  O19  1  0.15199282  0.81176885  0.46955137  1
  O  O20  1  0.47483301  0.73750988  0.69717627  1
  O  O21  1  0.51516662  0.26249012  0.30282373  1
  O  O22  1  0.78765712  0.69717627  0.26249012  1
  O  O23  1  0.22234326  0.30282373  0.73750988  1
  O  O24  1  0.75290453  0.35067644  0.87750615  1
  O  O25  1  0.22607482  0.64932356  0.12249385  1
  O  O26  1  0.89641903  0.87750615  0.64932356  1
  O  O27  1  0.12460162  0.12249385  0.35067644  1
  O  O28  1  0.69338192  0.62314417  0.00835923  1
  O  O29  1  0.30816685  0.37685583  0.99164077  1
  O  O30  1  0.68347391  0.00835923  0.37685583  1
  O  O31  1  0.31497732  0.99164077  0.62314417  1
  O  O32  1  0.57108724  0.45861430  0.60252736  1
  O  O33  1  0.42717418  0.54138570  0.39747264  1
  O  O34  1  0.97029846  0.60252736  0.54138570  1
  O  O35  1  0.03144012  0.39747264  0.45861430  1
