# generated using pymatgen
data_Tb4Cu5P7
_symmetry_space_group_name_H-M   'P 1'
_cell_length_a   5.34538699
_cell_length_b   5.34538699
_cell_length_c   10.39261653
_cell_angle_alpha   75.09765537
_cell_angle_beta   75.09765537
_cell_angle_gamma   90.00000000
_symmetry_Int_Tables_number   1
_chemical_formula_structural   Tb4Cu5P7
_chemical_formula_sum   'Tb4 Cu5 P7'
_cell_volume   276.61403177
_cell_formula_units_Z   1
loop_
 _symmetry_equiv_pos_site_id
 _symmetry_equiv_pos_as_xyz
  1  'x, y, z'
loop_
 _atom_site_type_symbol
 _atom_site_label
 _atom_site_symmetry_multiplicity
 _atom_site_fract_x
 _atom_site_fract_y
 _atom_site_fract_z
 _atom_site_occupancy
  Tb  Tb0  1  0.61298990  0.11298990  0.27402021  1
  Tb  Tb1  1  0.11848119  0.61848119  0.26303762  1
  Tb  Tb2  1  0.88623430  0.88623430  0.72753141  1
  Tb  Tb3  1  0.38623430  0.38623430  0.72753141  1
  Cu  Cu4  1  0.49571536  0.99571536  0.00401090  1
  Cu  Cu5  1  0.00027374  0.50027374  0.00401090  1
  Cu  Cu6  1  0.49571536  0.50027374  0.00401090  1
  Cu  Cu7  1  0.00027374  0.99571536  0.00401090  1
  Cu  Cu8  1  0.82902244  0.32902244  0.84195512  1
  P  P9  1  0.22220715  0.72220715  0.49955214  1
  P  P10  1  0.77824071  0.27824071  0.49955214  1
  P  P11  1  0.22220715  0.27824071  0.49955214  1
  P  P12  1  0.77824071  0.72220715  0.49955214  1
  P  P13  1  0.32656916  0.82656916  0.84686167  1
  P  P14  1  0.67379740  0.67379740  0.15240520  1
  P  P15  1  0.17379740  0.17379740  0.15240520  1
