# generated using pymatgen
data_Ta2Cd(P2O7)3
_symmetry_space_group_name_H-M   'P 1'
_cell_length_a   8.50379107
_cell_length_b   13.37119932
_cell_length_c   16.09796714
_cell_angle_alpha   90.00000000
_cell_angle_beta   90.00000000
_cell_angle_gamma   90.00000000
_symmetry_Int_Tables_number   1
_chemical_formula_structural   Ta2Cd(P2O7)3
_chemical_formula_sum   'Ta8 Cd4 P24 O84'
_cell_volume   1830.43360635
_cell_formula_units_Z   4
loop_
 _symmetry_equiv_pos_site_id
 _symmetry_equiv_pos_as_xyz
  1  'x, y, z'
loop_
 _atom_site_type_symbol
 _atom_site_label
 _atom_site_symmetry_multiplicity
 _atom_site_fract_x
 _atom_site_fract_y
 _atom_site_fract_z
 _atom_site_occupancy
  Ta  Ta0  1  0.33826308  0.63412426  0.91462566  1
  Ta  Ta1  1  0.66173692  0.36587574  0.41462566  1
  Ta  Ta2  1  0.66173692  0.36587574  0.08537434  1
  Ta  Ta3  1  0.16173692  0.13412426  0.58537434  1
  Ta  Ta4  1  0.33826308  0.63412426  0.58537434  1
  Ta  Ta5  1  0.83826308  0.86587574  0.41462566  1
  Ta  Ta6  1  0.16173692  0.13412426  0.91462566  1
  Ta  Ta7  1  0.83826308  0.86587574  0.08537434  1
  Cd  Cd8  1  0.67622622  0.35233053  0.75000000  1
  Cd  Cd9  1  0.82377378  0.85233053  0.75000000  1
  Cd  Cd10  1  0.32377378  0.64766947  0.25000000  1
  Cd  Cd11  1  0.17622622  0.14766947  0.25000000  1
  P  P12  1  0.29475352  0.47184654  0.41817259  1
  P  P13  1  0.20524648  0.97184654  0.08182741  1
  P  P14  1  0.94125203  0.69560923  0.92928464  1
  P  P15  1  0.29475352  0.47184654  0.08182741  1
  P  P16  1  0.71332660  0.53134698  0.25000000  1
  P  P17  1  0.94125203  0.69560923  0.57071536  1
  P  P18  1  0.91952248  0.71248290  0.25000000  1
  P  P19  1  0.05874797  0.30439077  0.07071536  1
  P  P20  1  0.41952248  0.78751710  0.75000000  1
  P  P21  1  0.55874797  0.19560923  0.57071536  1
  P  P22  1  0.78667340  0.03134698  0.25000000  1
  P  P23  1  0.70524648  0.52815346  0.58182741  1
  P  P24  1  0.44125203  0.80439077  0.42928464  1
  P  P25  1  0.20524648  0.97184654  0.41817259  1
  P  P26  1  0.79475352  0.02815346  0.91817259  1
  P  P27  1  0.21332660  0.96865302  0.75000000  1
  P  P28  1  0.55874797  0.19560923  0.92928464  1
  P  P29  1  0.79475352  0.02815346  0.58182741  1
  P  P30  1  0.44125203  0.80439077  0.07071536  1
  P  P31  1  0.28667340  0.46865302  0.75000000  1
  P  P32  1  0.58047752  0.21248290  0.25000000  1
  P  P33  1  0.05874797  0.30439077  0.42928464  1
  P  P34  1  0.70524648  0.52815346  0.91817259  1
  P  P35  1  0.08047752  0.28751710  0.75000000  1
  O  O36  1  0.11557170  0.66267779  0.56111441  1
  O  O37  1  0.42529433  0.40178877  0.75000000  1
  O  O38  1  0.77230224  0.96336297  0.32787481  1
  O  O39  1  0.65856545  0.25999049  0.17191467  1
  O  O40  1  0.10084861  0.26497548  0.34666631  1
  O  O41  1  0.09238822  0.72288585  0.25000000  1
  O  O42  1  0.16322680  0.03066365  0.00145674  1
  O  O43  1  0.34143455  0.74000951  0.67191467  1
  O  O44  1  0.22769776  0.03663703  0.67212519  1
  O  O45  1  0.60084861  0.23502452  0.65333369  1
  O  O46  1  0.89915139  0.73502452  0.65333369  1
  O  O47  1  0.34436143  0.90292429  0.45375452  1
  O  O48  1  0.93615582  0.09788227  0.60253094  1
  O  O49  1  0.33677320  0.53066365  0.00145674  1
  O  O50  1  0.38442830  0.16267779  0.93888559  1
  O  O51  1  0.73985681  0.96535047  0.65186606  1
  O  O52  1  0.90644385  0.76611127  0.49636480  1
  O  O53  1  0.66322680  0.46933635  0.50145674  1
  O  O54  1  0.12653940  0.40427443  0.75000000  1
  O  O55  1  0.09355615  0.23388873  0.50363520  1
  O  O56  1  0.90644385  0.76611127  0.00363520  1
  O  O57  1  0.06384418  0.90211773  0.39746906  1
  O  O58  1  0.40761178  0.22288585  0.25000000  1
  O  O59  1  0.26014319  0.03464953  0.34813394  1
  O  O60  1  0.60084861  0.23502452  0.84666631  1
  O  O61  1  0.06384418  0.90211773  0.10253094  1
  O  O62  1  0.59238822  0.77711415  0.75000000  1
  O  O63  1  0.27230224  0.53663703  0.67212519  1
  O  O64  1  0.09355615  0.23388873  0.99636480  1
  O  O65  1  0.27230224  0.53663703  0.82787481  1
  O  O66  1  0.66322680  0.46933635  0.99854326  1
  O  O67  1  0.15563857  0.40292429  0.45375452  1
  O  O68  1  0.73985681  0.96535047  0.84813394  1
  O  O69  1  0.65856545  0.25999049  0.32808533  1
  O  O70  1  0.93615582  0.09788227  0.89746906  1
  O  O71  1  0.89915139  0.73502452  0.84666631  1
  O  O72  1  0.22769776  0.03663703  0.82787481  1
  O  O73  1  0.92529433  0.09821123  0.25000000  1
  O  O74  1  0.77230224  0.96336297  0.17212519  1
  O  O75  1  0.43615582  0.40211773  0.10253094  1
  O  O76  1  0.34143455  0.74000951  0.82808533  1
  O  O77  1  0.37346060  0.90427443  0.75000000  1
  O  O78  1  0.11557170  0.66267779  0.93888559  1
  O  O79  1  0.56384418  0.59788227  0.60253094  1
  O  O80  1  0.15856545  0.24000951  0.82808533  1
  O  O81  1  0.76014319  0.46535047  0.65186606  1
  O  O82  1  0.59355615  0.26611127  0.49636480  1
  O  O83  1  0.39915139  0.76497548  0.15333369  1
  O  O84  1  0.15563857  0.40292429  0.04624548  1
  O  O85  1  0.40644385  0.73388873  0.99636480  1
  O  O86  1  0.65563857  0.09707571  0.95375452  1
  O  O87  1  0.56384418  0.59788227  0.89746906  1
  O  O88  1  0.88442830  0.33732221  0.43888559  1
  O  O89  1  0.61557170  0.83732221  0.43888559  1
  O  O90  1  0.84143455  0.75999049  0.17191467  1
  O  O91  1  0.72769776  0.46336297  0.17212519  1
  O  O92  1  0.39915139  0.76497548  0.34666631  1
  O  O93  1  0.83677320  0.96933635  0.50145674  1
  O  O94  1  0.84436143  0.59707571  0.95375452  1
  O  O95  1  0.07470567  0.90178877  0.75000000  1
  O  O96  1  0.61557170  0.83732221  0.06111441  1
  O  O97  1  0.87346060  0.59572557  0.25000000  1
  O  O98  1  0.23985681  0.53464953  0.34813394  1
  O  O99  1  0.16322680  0.03066365  0.49854326  1
  O  O100  1  0.62653940  0.09572557  0.25000000  1
  O  O101  1  0.72769776  0.46336297  0.32787481  1
  O  O102  1  0.84436143  0.59707571  0.54624548  1
  O  O103  1  0.83677320  0.96933635  0.99854326  1
  O  O104  1  0.57470567  0.59821123  0.25000000  1
  O  O105  1  0.23985681  0.53464953  0.15186606  1
  O  O106  1  0.90761178  0.27711415  0.75000000  1
  O  O107  1  0.59355615  0.26611127  0.00363520  1
  O  O108  1  0.43615582  0.40211773  0.39746906  1
  O  O109  1  0.10084861  0.26497548  0.15333369  1
  O  O110  1  0.65563857  0.09707571  0.54624548  1
  O  O111  1  0.40644385  0.73388873  0.50363520  1
  O  O112  1  0.33677320  0.53066365  0.49854326  1
  O  O113  1  0.84143455  0.75999049  0.32808533  1
  O  O114  1  0.76014319  0.46535047  0.84813394  1
  O  O115  1  0.38442830  0.16267779  0.56111441  1
  O  O116  1  0.15856545  0.24000951  0.67191467  1
  O  O117  1  0.88442830  0.33732221  0.06111441  1
  O  O118  1  0.26014319  0.03464953  0.15186606  1
  O  O119  1  0.34436143  0.90292429  0.04624548  1
