# generated using pymatgen
data_SrTeO3
_symmetry_space_group_name_H-M   'P 1'
_cell_length_a   5.98131036
_cell_length_b   14.62139723
_cell_length_c   14.80928864
_cell_angle_alpha   64.07230736
_cell_angle_beta   78.34930987
_cell_angle_gamma   78.19745031
_symmetry_Int_Tables_number   1
_chemical_formula_structural   SrTeO3
_chemical_formula_sum   'Sr12 Te12 O36'
_cell_volume   1130.81100555
_cell_formula_units_Z   12
loop_
 _symmetry_equiv_pos_site_id
 _symmetry_equiv_pos_as_xyz
  1  'x, y, z'
loop_
 _atom_site_type_symbol
 _atom_site_label
 _atom_site_symmetry_multiplicity
 _atom_site_fract_x
 _atom_site_fract_y
 _atom_site_fract_z
 _atom_site_occupancy
  Sr  Sr0  1  0.96574212  0.63701111  0.60635761  1
  Sr  Sr1  1  0.78476383  0.61593598  0.88845995  1
  Sr  Sr2  1  0.20911084  0.36298889  0.39364239  1
  Sr  Sr3  1  0.09378466  0.00000000  1.00000000  1
  Sr  Sr4  1  0.69356467  0.90306476  0.84274471  1
  Sr  Sr5  1  0.43671004  0.82804764  0.41863286  1
  Sr  Sr6  1  0.28915977  0.38406402  0.11154005  1
  Sr  Sr7  1  0.43937414  0.09693524  0.15725529  1
  Sr  Sr8  1  0.28569132  0.79150182  0.72020441  1
  Sr  Sr9  1  0.60604093  0.50000000  0.50000000  1
  Sr  Sr10  1  0.68339054  0.17195236  0.58136714  1
  Sr  Sr11  1  0.79739755  0.20849818  0.27979559  1
  Te  Te12  1  0.59097831  0.81121902  0.14691325  1
  Te  Te13  1  0.81221356  0.89143407  0.58310526  1
  Te  Te14  1  0.07308699  0.33459248  0.64990171  1
  Te  Te15  1  0.05758119  0.66540752  0.35009829  1
  Te  Te16  1  0.69030542  0.48496292  0.22172424  1
  Te  Te17  1  0.93340557  0.29689772  0.00306024  1
  Te  Te18  1  0.28675289  0.10856593  0.41689474  1
  Te  Te19  1  0.17226089  0.05086363  0.72273078  1
  Te  Te20  1  0.54911058  0.18878098  0.85308675  1
  Te  Te21  1  0.94585529  0.94913637  0.27726922  1
  Te  Te22  1  0.39699258  0.51503708  0.77827576  1
  Te  Te23  1  0.23336352  0.70310228  0.99693976  1
  O  O24  1  0.90413124  0.04711530  0.14513920  1
  O  O25  1  0.97382763  0.72597134  0.93178966  1
  O  O26  1  0.08717163  0.24191058  0.11947621  1
  O  O27  1  0.55115034  0.47853330  0.34868485  1
  O  O28  1  0.78148574  0.69439570  0.42878357  1
  O  O29  1  0.35421075  0.56589044  0.01743695  1
  O  O30  1  0.09638574  0.95288470  0.85486080  1
  O  O31  1  0.44855841  0.75808942  0.88052379  1
  O  O32  1  0.11333838  0.02107032  0.31518444  1
  O  O33  1  0.00661763  0.53207664  0.38061297  1
  O  O34  1  0.35434759  0.34560093  0.56086797  1
  O  O35  1  0.99290322  0.18580188  0.42700731  1
  O  O36  1  0.47691701  0.87911528  0.02066627  1
  O  O37  1  0.54539025  0.10471007  0.78457530  1
  O  O38  1  0.45836688  0.18106949  0.45414971  1
  O  O39  1  0.90466502  0.30560430  0.57121643  1
  O  O40  1  0.14364885  0.61841884  0.76978228  1
  O  O41  1  0.97569645  0.40063313  0.24739284  1
  O  O42  1  0.60571241  0.81419812  0.57299269  1
  O  O43  1  0.37836848  0.52146670  0.65131515  1
  O  O44  1  0.37669856  0.12088472  0.97933373  1
  O  O45  1  0.37282889  0.18703740  0.27749960  1
  O  O46  1  0.88837666  0.84757239  0.11331860  1
  O  O47  1  0.65049937  0.98395158  0.33876345  1
  O  O48  1  0.93753814  0.43410956  0.98256305  1
  O  O49  1  0.97321440  0.01604842  0.66123655  1
  O  O50  1  0.26081649  0.65439907  0.43913203  1
  O  O51  1  0.91930724  0.46792336  0.61938703  1
  O  O52  1  0.53184997  0.38158116  0.23021772  1
  O  O53  1  0.84926765  0.15242761  0.88668140  1
  O  O54  1  0.09358608  0.81893051  0.54585029  1
  O  O55  1  0.43467562  0.89528993  0.21542470  1
  O  O56  1  0.44959314  0.97892968  0.68481556  1
  O  O57  1  0.62372242  0.59936687  0.75260716  1
  O  O58  1  0.63158863  0.27402866  0.06821034  1
  O  O59  1  0.83736589  0.81296260  0.72250040  1
