# generated using pymatgen
data_CsOsNO3
_symmetry_space_group_name_H-M   'P 1'
_cell_length_a   7.46518425
_cell_length_b   8.30617329
_cell_length_c   8.61371301
_cell_angle_alpha   90.00000000
_cell_angle_beta   90.00000000
_cell_angle_gamma   90.00000000
_symmetry_Int_Tables_number   1
_chemical_formula_structural   CsOsNO3
_chemical_formula_sum   'Cs4 Os4 N4 O12'
_cell_volume   534.11148477
_cell_formula_units_Z   4
loop_
 _symmetry_equiv_pos_site_id
 _symmetry_equiv_pos_as_xyz
  1  'x, y, z'
loop_
 _atom_site_type_symbol
 _atom_site_label
 _atom_site_symmetry_multiplicity
 _atom_site_fract_x
 _atom_site_fract_y
 _atom_site_fract_z
 _atom_site_occupancy
  Cs  Cs0  1  0.25000000  0.15315454  0.63112959  1
  Cs  Cs1  1  0.75000000  0.84684546  0.36887041  1
  Cs  Cs2  1  0.25000000  0.34684546  0.13112959  1
  Cs  Cs3  1  0.75000000  0.65315454  0.86887041  1
  Os  Os4  1  0.75000000  0.15645341  0.88007127  1
  Os  Os5  1  0.25000000  0.65645341  0.61992873  1
  Os  Os6  1  0.75000000  0.34354659  0.38007127  1
  Os  Os7  1  0.25000000  0.84354659  0.11992873  1
  N  N8  1  0.75000000  0.04488069  0.71408626  1
  N  N9  1  0.75000000  0.45511931  0.21408626  1
  N  N10  1  0.25000000  0.95511931  0.28591374  1
  N  N11  1  0.25000000  0.54488069  0.78591374  1
  O  O12  1  0.75000000  0.02170459  0.03819176  1
  O  O13  1  0.55559007  0.27792475  0.87904271  1
  O  O14  1  0.25000000  0.52170459  0.46180824  1
  O  O15  1  0.94440993  0.22207525  0.37904271  1
  O  O16  1  0.05559007  0.72207525  0.12095729  1
  O  O17  1  0.44440993  0.72207525  0.12095729  1
  O  O18  1  0.25000000  0.97829541  0.96180824  1
  O  O19  1  0.94440993  0.27792475  0.87904271  1
  O  O20  1  0.05559007  0.77792475  0.62095729  1
  O  O21  1  0.55559007  0.22207525  0.37904271  1
  O  O22  1  0.75000000  0.47829541  0.53819176  1
  O  O23  1  0.44440993  0.77792475  0.62095729  1
