# generated using pymatgen
data_Zr2P2O9
_symmetry_space_group_name_H-M   'P 1'
_cell_length_a   6.68903858
_cell_length_b   7.73739415
_cell_length_c   8.38117845
_cell_angle_alpha   79.08068906
_cell_angle_beta   66.48112644
_cell_angle_gamma   64.38930767
_symmetry_Int_Tables_number   1
_chemical_formula_structural   Zr2P2O9
_chemical_formula_sum   'Zr4 P4 O18'
_cell_volume   358.58738601
_cell_formula_units_Z   2
loop_
 _symmetry_equiv_pos_site_id
 _symmetry_equiv_pos_as_xyz
  1  'x, y, z'
loop_
 _atom_site_type_symbol
 _atom_site_label
 _atom_site_symmetry_multiplicity
 _atom_site_fract_x
 _atom_site_fract_y
 _atom_site_fract_z
 _atom_site_occupancy
  Zr  Zr0  1  0.94326001  0.21179515  0.90168483  1
  Zr  Zr1  1  0.05673999  0.78820485  0.09831517  1
  Zr  Zr2  1  0.31544382  0.73327311  0.63583925  1
  Zr  Zr3  1  0.68455618  0.26672689  0.36416075  1
  P  P4  1  0.40693266  0.35147817  0.83465650  1
  P  P5  1  0.17024655  0.20089024  0.45861666  1
  P  P6  1  0.59306734  0.64852183  0.16534350  1
  P  P7  1  0.82975345  0.79910976  0.54138334  1
  O  O8  1  0.99652005  0.26967330  0.36012543  1
  O  O9  1  0.75801395  0.75417718  0.10550227  1
  O  O10  1  0.51654727  0.60106149  0.36584397  1
  O  O11  1  0.24198605  0.24582282  0.89449773  1
  O  O12  1  0.37368122  0.26967330  0.36012543  1
  O  O13  1  0.00347995  0.73032670  0.63987457  1
  O  O14  1  0.26748325  0.56294423  0.90208926  1
  O  O15  1  0.73251675  0.43705577  0.09791074  1
  O  O16  1  0.48345273  0.39893851  0.63415603  1
  O  O17  1  0.72791277  0.02083725  0.52333720  1
  O  O18  1  0.03472054  0.28830070  0.64225821  1
  O  O19  1  0.96527946  0.71169930  0.35774179  1
  O  O20  1  0.88637013  0.07173288  0.15552686  1
  O  O21  1  0.62631878  0.73032670  0.63987457  1
  O  O22  1  0.61769340  0.24582282  0.89449773  1
  O  O23  1  0.27208723  0.97916275  0.47666280  1
  O  O24  1  0.38230660  0.75417718  0.10550227  1
  O  O25  1  0.11362987  0.92826712  0.84447314  1
