# generated using pymatgen
data_NbBi4BrO8
_symmetry_space_group_name_H-M   'P 1'
_cell_length_a   5.58037330
_cell_length_b   5.64904261
_cell_length_c   29.78132492
_cell_angle_alpha   90.00000000
_cell_angle_beta   90.00000000
_cell_angle_gamma   90.00000000
_symmetry_Int_Tables_number   1
_chemical_formula_structural   NbBi4BrO8
_chemical_formula_sum   'Nb4 Bi16 Br4 O32'
_cell_volume   938.81953437
_cell_formula_units_Z   4
loop_
 _symmetry_equiv_pos_site_id
 _symmetry_equiv_pos_as_xyz
  1  'x, y, z'
loop_
 _atom_site_type_symbol
 _atom_site_label
 _atom_site_symmetry_multiplicity
 _atom_site_fract_x
 _atom_site_fract_y
 _atom_site_fract_z
 _atom_site_occupancy
  Nb  Nb0  1  0.49760393  0.25811268  0.24997254  1
  Nb  Nb1  1  0.49760393  0.24188732  0.74997254  1
  Nb  Nb2  1  0.99760393  0.75811268  0.25002746  1
  Nb  Nb3  1  0.99760393  0.74188732  0.75002746  1
  Bi  Bi4  1  0.98549891  0.75664965  0.57254737  1
  Bi  Bi5  1  0.98549891  0.74335035  0.07254737  1
  Bi  Bi6  1  0.01884205  0.19606678  0.15924478  1
  Bi  Bi7  1  0.50510489  0.24251018  0.07258168  1
  Bi  Bi8  1  0.00510489  0.75748982  0.92741832  1
  Bi  Bi9  1  0.01884205  0.30393322  0.65924478  1
  Bi  Bi10  1  0.51884205  0.69606678  0.34075522  1
  Bi  Bi11  1  0.51884205  0.80393322  0.84075522  1
  Bi  Bi12  1  0.48549891  0.25664965  0.92745263  1
  Bi  Bi13  1  0.47415318  0.69524360  0.15903991  1
  Bi  Bi14  1  0.48549891  0.24335035  0.42745263  1
  Bi  Bi15  1  0.00510489  0.74251018  0.42741832  1
  Bi  Bi16  1  0.97415318  0.19524360  0.34096009  1
  Bi  Bi17  1  0.50510489  0.25748982  0.57258168  1
  Bi  Bi18  1  0.97415318  0.30475640  0.84096009  1
  Bi  Bi19  1  0.47415318  0.80475640  0.65903991  1
  Br  Br20  1  0.49488868  0.75010151  0.99956879  1
  Br  Br21  1  0.49488868  0.74989849  0.49956879  1
  Br  Br22  1  0.99488868  0.24989849  0.00043121  1
  Br  Br23  1  0.99488868  0.25010151  0.50043121  1
  O  O24  1  0.74916739  0.55012242  0.23312857  1
  O  O25  1  0.24634975  0.00340341  0.10798294  1
  O  O26  1  0.10229953  0.83032302  0.18699449  1
  O  O27  1  0.89323247  0.67327352  0.81328142  1
  O  O28  1  0.89323247  0.82672648  0.31328142  1
  O  O29  1  0.25065451  0.00417081  0.88992662  1
  O  O30  1  0.24951120  0.55126729  0.26602340  1
  O  O31  1  0.24916739  0.05012242  0.26687143  1
  O  O32  1  0.39323247  0.32672648  0.18671858  1
  O  O33  1  0.75065451  0.99582919  0.11007338  1
  O  O34  1  0.24412977  0.50372630  0.10803855  1
  O  O35  1  0.73956375  1.00363300  0.60974079  1
  O  O36  1  0.74412977  0.00372630  0.39196145  1
  O  O37  1  0.23956375  0.50363300  0.89025921  1
  O  O38  1  0.74916739  0.94987758  0.73312857  1
  O  O39  1  0.24951120  0.94873271  0.76602340  1
  O  O40  1  0.25065451  0.49582919  0.38992662  1
  O  O41  1  0.24916739  0.44987758  0.76687143  1
  O  O42  1  0.24412977  0.99627370  0.60803855  1
  O  O43  1  0.74412977  0.49627370  0.89196145  1
  O  O44  1  0.60229953  0.16967698  0.81300551  1
  O  O45  1  0.74951120  0.44873271  0.73397660  1
  O  O46  1  0.39323247  0.17327352  0.68671858  1
  O  O47  1  0.23956375  -0.00363300  0.39025921  1
  O  O48  1  0.60229953  0.33032302  0.31300551  1
  O  O49  1  0.74951120  0.05126729  0.23397660  1
  O  O50  1  0.10229953  0.66967698  0.68699449  1
  O  O51  1  0.24634975  0.49659659  0.60798294  1
  O  O52  1  0.73956375  0.49636700  0.10974079  1
  O  O53  1  0.74634975  0.50340341  0.39201706  1
  O  O54  1  0.74634975  0.99659659  0.89201706  1
  O  O55  1  0.75065451  0.50417081  0.61007338  1
