# generated using pymatgen
data_KBaYSi2O7
_symmetry_space_group_name_H-M   'P 1'
_cell_length_a   5.78733309
_cell_length_b   9.88554138
_cell_length_c   13.26453528
_cell_angle_alpha   104.61482724
_cell_angle_beta   90.00000000
_cell_angle_gamma   90.00000000
_symmetry_Int_Tables_number   1
_chemical_formula_structural   KBaYSi2O7
_chemical_formula_sum   'K4 Ba4 Y4 Si8 O28'
_cell_volume   734.32200486
_cell_formula_units_Z   4
loop_
 _symmetry_equiv_pos_site_id
 _symmetry_equiv_pos_as_xyz
  1  'x, y, z'
loop_
 _atom_site_type_symbol
 _atom_site_label
 _atom_site_symmetry_multiplicity
 _atom_site_fract_x
 _atom_site_fract_y
 _atom_site_fract_z
 _atom_site_occupancy
  K  K0  1  0.23613778  0.63180410  0.63830554  1
  K  K1  1  0.73613778  0.86819590  0.86169446  1
  K  K2  1  0.26386222  0.13180410  0.13830554  1
  K  K3  1  0.76386222  0.36819590  0.36169446  1
  Ba  Ba4  1  0.73098588  0.13684316  0.67169336  1
  Ba  Ba5  1  0.76901412  0.63684316  0.17169336  1
  Ba  Ba6  1  0.26901412  0.86315684  0.32830664  1
  Ba  Ba7  1  0.23098588  0.36315684  0.82830664  1
  Y  Y8  1  0.75952022  0.23932509  0.97880694  1
  Y  Y9  1  0.24047978  0.76067491  0.02119306  1
  Y  Y10  1  0.74047978  0.73932509  0.47880694  1
  Y  Y11  1  0.25952022  0.26067491  0.52119306  1
  Si  Si12  1  0.77165877  0.05213895  0.37861885  1
  Si  Si13  1  0.25503057  0.52501441  0.35390655  1
  Si  Si14  1  0.74496943  0.47498559  0.64609345  1
  Si  Si15  1  0.24496943  0.02501441  0.85390655  1
  Si  Si16  1  0.22834123  0.94786105  0.62138115  1
  Si  Si17  1  0.27165877  0.44786105  0.12138115  1
  Si  Si18  1  0.75503057  0.97498559  0.14609345  1
  Si  Si19  1  0.72834123  0.55213895  0.87861885  1
  O  O20  1  0.00069848  0.89273658  0.15086816  1
  O  O21  1  0.75768996  0.88166901  0.36202217  1
  O  O22  1  0.53500956  0.39099691  0.09210303  1
  O  O23  1  0.23972588  0.92668630  0.93547264  1
  O  O24  1  0.25768996  0.61833099  0.13797783  1
  O  O25  1  0.46499044  0.60900309  0.90789697  1
  O  O26  1  0.49930152  0.39273658  0.65086816  1
  O  O27  1  0.20310754  0.41449633  0.23634820  1
  O  O28  1  0.41947793  0.86264321  0.53940188  1
  O  O29  1  0.73972588  0.57331370  0.56452736  1
  O  O30  1  0.29689246  0.91449633  0.73634820  1
  O  O31  1  0.50069848  0.60726342  0.34913184  1
  O  O32  1  0.70310754  0.08550367  0.26365180  1
  O  O33  1  0.91947793  0.63735679  0.96059812  1
  O  O34  1  0.53844613  0.86339649  0.12692583  1
  O  O35  1  0.03844613  0.63660351  0.37307417  1
  O  O36  1  0.96499044  0.89099691  0.59210303  1
  O  O37  1  0.03500956  0.10900309  0.40789697  1
  O  O38  1  0.08052207  0.36264321  0.03940188  1
  O  O39  1  0.46155387  0.13660351  0.87307417  1
  O  O40  1  0.79689246  0.58550367  0.76365180  1
  O  O41  1  0.96155387  0.36339649  0.62692583  1
  O  O42  1  0.99930152  0.10726342  0.84913184  1
  O  O43  1  0.58052207  0.13735679  0.46059812  1
  O  O44  1  0.74231004  0.38166901  0.86202217  1
  O  O45  1  0.24231004  0.11833099  0.63797783  1
  O  O46  1  0.26027412  0.42668630  0.43547264  1
  O  O47  1  0.76027412  0.07331370  0.06452736  1
