# generated using pymatgen
data_K2Ge(IO3)6
_symmetry_space_group_name_H-M   'P 1'
_cell_length_a   7.63775247
_cell_length_b   7.63775249
_cell_length_c   7.63775187
_cell_angle_alpha   96.55859182
_cell_angle_beta   96.55859185
_cell_angle_gamma   96.55859199
_symmetry_Int_Tables_number   1
_chemical_formula_structural   K2Ge(IO3)6
_chemical_formula_sum   'K2 Ge1 I6 O18'
_cell_volume   436.06642073
_cell_formula_units_Z   1
loop_
 _symmetry_equiv_pos_site_id
 _symmetry_equiv_pos_as_xyz
  1  'x, y, z'
loop_
 _atom_site_type_symbol
 _atom_site_label
 _atom_site_symmetry_multiplicity
 _atom_site_fract_x
 _atom_site_fract_y
 _atom_site_fract_z
 _atom_site_occupancy
  K  K0  1  0.32160825  0.32160825  0.32160825  1
  K  K1  1  0.67839175  0.67839175  0.67839175  1
  Ge  Ge2  1  0.00000000  0.00000000  0.00000000  1
  I  I3  1  0.64156094  0.83262043  0.20464788  1
  I  I4  1  0.20464788  0.64156094  0.83262043  1
  I  I5  1  0.35843906  0.16737957  0.79535212  1
  I  I6  1  0.83262043  0.20464788  0.64156094  1
  I  I7  1  0.79535212  0.35843906  0.16737957  1
  I  I8  1  0.16737957  0.79535212  0.35843906  1
  O  O9  1  0.82389817  0.81862579  0.05222559  1
  O  O10  1  0.12237827  0.58780814  0.20679510  1
  O  O11  1  0.58780814  0.20679510  0.12237827  1
  O  O12  1  0.94777441  0.17610183  0.18137421  1
  O  O13  1  0.59114635  0.59104093  0.18311273  1
  O  O14  1  0.59104093  0.18311273  0.59114635  1
  O  O15  1  0.41219186  0.79320490  0.87762173  1
  O  O16  1  0.87762173  0.41219186  0.79320490  1
  O  O17  1  0.20679510  0.12237827  0.58780814  1
  O  O18  1  0.18137421  0.94777441  0.17610183  1
  O  O19  1  0.81862579  0.05222559  0.82389817  1
  O  O20  1  0.17610183  0.18137421  0.94777441  1
  O  O21  1  0.05222559  0.82389817  0.81862579  1
  O  O22  1  0.18311273  0.59114635  0.59104093  1
  O  O23  1  0.79320490  0.87762173  0.41219186  1
  O  O24  1  0.40885365  0.40895907  0.81688727  1
  O  O25  1  0.81688727  0.40885365  0.40895907  1
  O  O26  1  0.40895907  0.81688727  0.40885365  1
