# generated using pymatgen
data_TcSO6F
_symmetry_space_group_name_H-M   'P 1'
_cell_length_a   7.31762711
_cell_length_b   8.34948675
_cell_length_c   9.25496757
_cell_angle_alpha   90.00000000
_cell_angle_beta   97.27270858
_cell_angle_gamma   90.00000000
_symmetry_Int_Tables_number   1
_chemical_formula_structural   TcSO6F
_chemical_formula_sum   'Tc4 S4 O24 F4'
_cell_volume   560.91475348
_cell_formula_units_Z   4
loop_
 _symmetry_equiv_pos_site_id
 _symmetry_equiv_pos_as_xyz
  1  'x, y, z'
loop_
 _atom_site_type_symbol
 _atom_site_label
 _atom_site_symmetry_multiplicity
 _atom_site_fract_x
 _atom_site_fract_y
 _atom_site_fract_z
 _atom_site_occupancy
  Tc  Tc0  1  0.74592807  0.34682799  0.15418640  1
  Tc  Tc1  1  0.74592807  0.15317201  0.65418640  1
  Tc  Tc2  1  0.25407193  0.65317201  0.84581360  1
  Tc  Tc3  1  0.25407193  0.84682799  0.34581360  1
  S  S4  1  0.91469894  0.77514307  0.57364761  1
  S  S5  1  0.08530106  0.22485693  0.42635239  1
  S  S6  1  0.91469894  0.72485693  0.07364761  1
  S  S7  1  0.08530106  0.27514307  0.92635239  1
  O  O8  1  0.58727852  0.09556855  0.76353673  1
  O  O9  1  0.03365127  0.84817286  0.14729516  1
  O  O10  1  0.64806442  0.11055358  0.48110385  1
  O  O11  1  0.02880206  0.16507497  0.56166536  1
  O  O12  1  0.96634873  0.15182714  0.85270484  1
  O  O13  1  0.97119794  0.83492503  0.43833464  1
  O  O14  1  0.41272148  0.90443145  0.23646327  1
  O  O15  1  0.35193558  0.61055358  0.01889615  1
  O  O16  1  0.35193558  0.88944642  0.51889615  1
  O  O17  1  0.64806442  0.38944642  0.98110385  1
  O  O18  1  0.97119794  0.66507497  0.93833464  1
  O  O19  1  0.25139669  0.64297298  0.33728748  1
  O  O20  1  0.74860331  0.35702702  0.66271252  1
  O  O21  1  0.85990105  0.89768770  0.67198140  1
  O  O22  1  0.74860331  0.14297298  0.16271252  1
  O  O23  1  0.14009895  0.10231230  0.32801860  1
  O  O24  1  0.58727852  0.40443145  0.26353673  1
  O  O25  1  0.02880206  0.33492503  0.06166536  1
  O  O26  1  0.96634873  0.34817286  0.35270484  1
  O  O27  1  0.85990105  0.60231230  0.17198140  1
  O  O28  1  0.41272148  0.59556855  0.73646327  1
  O  O29  1  0.25139669  0.85702702  0.83728748  1
  O  O30  1  0.03365127  0.65182714  0.64729516  1
  O  O31  1  0.14009895  0.39768770  0.82801860  1
  F  F32  1  0.26831640  0.18194051  0.97950539  1
  F  F33  1  0.73168360  0.68194051  0.52049461  1
  F  F34  1  0.26831640  0.31805949  0.47950539  1
  F  F35  1  0.73168360  0.81805949  0.02049461  1
