# generated using pymatgen
data_GaRe(Cl3O)2
_symmetry_space_group_name_H-M   'P 1'
_cell_length_a   8.66396412
_cell_length_b   11.69776038
_cell_length_c   12.45684862
_cell_angle_alpha   110.79385439
_cell_angle_beta   90.00000000
_cell_angle_gamma   90.00000000
_symmetry_Int_Tables_number   1
_chemical_formula_structural   GaRe(Cl3O)2
_chemical_formula_sum   'Ga4 Re4 Cl24 O8'
_cell_volume   1180.25507766
_cell_formula_units_Z   4
loop_
 _symmetry_equiv_pos_site_id
 _symmetry_equiv_pos_as_xyz
  1  'x, y, z'
loop_
 _atom_site_type_symbol
 _atom_site_label
 _atom_site_symmetry_multiplicity
 _atom_site_fract_x
 _atom_site_fract_y
 _atom_site_fract_z
 _atom_site_occupancy
  Ga  Ga0  1  0.35361925  0.62629965  0.24648602  1
  Ga  Ga1  1  0.64638075  0.37370035  0.75351398  1
  Ga  Ga2  1  0.14638075  0.12629965  0.24648602  1
  Ga  Ga3  1  0.85361925  0.87370035  0.75351398  1
  Re  Re4  1  0.77709476  0.62539033  0.25715816  1
  Re  Re5  1  0.72290524  0.12539033  0.25715816  1
  Re  Re6  1  0.22290524  0.37460967  0.74284184  1
  Re  Re7  1  0.27709476  0.87460967  0.74284184  1
  Cl  Cl8  1  0.53007746  0.77569965  0.33348617  1
  Cl  Cl9  1  0.71737034  0.82590086  0.87548037  1
  Cl  Cl10  1  0.25905296  0.31463141  0.89538737  1
  Cl  Cl11  1  0.03007746  0.72430035  0.66651383  1
  Cl  Cl12  1  0.53378281  0.48149912  0.15630868  1
  Cl  Cl13  1  0.96621719  0.98149912  0.15630868  1
  Cl  Cl14  1  0.26841815  0.07386771  0.37196433  1
  Cl  Cl15  1  0.21737034  0.67409914  0.12451963  1
  Cl  Cl16  1  0.76841815  0.42613229  0.62803567  1
  Cl  Cl17  1  0.75905296  0.18536859  0.10461263  1
  Cl  Cl18  1  0.79967199  0.06751817  0.40461090  1
  Cl  Cl19  1  0.24094704  0.81463141  0.89538737  1
  Cl  Cl20  1  0.29967199  0.43248183  0.59538910  1
  Cl  Cl21  1  0.78262966  0.32590086  0.87548037  1
  Cl  Cl22  1  0.74094704  0.68536859  0.10461263  1
  Cl  Cl23  1  0.23158185  0.57386771  0.37196433  1
  Cl  Cl24  1  0.96992254  0.27569965  0.33348617  1
  Cl  Cl25  1  0.28262966  0.17409914  0.12451963  1
  Cl  Cl26  1  0.73158185  0.92613229  0.62803567  1
  Cl  Cl27  1  0.46992254  0.22430035  0.66651383  1
  Cl  Cl28  1  0.46621719  0.51850088  0.84369132  1
  Cl  Cl29  1  0.20032801  0.93248183  0.59538910  1
  Cl  Cl30  1  0.03378281  0.01850088  0.84369132  1
  Cl  Cl31  1  0.70032801  0.56751817  0.40461090  1
  O  O32  1  0.60290219  1.00477421  0.19157457  1
  O  O33  1  0.39709781  -0.00477421  0.80842543  1
  O  O34  1  0.10446709  0.25746640  0.66557228  1
  O  O35  1  0.60446709  0.24253360  0.33442772  1
  O  O36  1  0.39553291  0.75746640  0.66557228  1
  O  O37  1  0.89709781  0.50477421  0.19157457  1
  O  O38  1  0.10290219  0.49522579  0.80842543  1
  O  O39  1  0.89553291  0.74253360  0.33442772  1
