# generated using pymatgen
data_Zr3O
_symmetry_space_group_name_H-M   'P 1'
_cell_length_a   10.98066064
_cell_length_b   10.98066062
_cell_length_c   10.98066139
_cell_angle_alpha   29.91017427
_cell_angle_beta   29.91017444
_cell_angle_gamma   29.91017451
_symmetry_Int_Tables_number   1
_chemical_formula_structural   Zr3O
_chemical_formula_sum   'Zr12 O4'
_cell_volume   291.56249912
_cell_formula_units_Z   4
loop_
 _symmetry_equiv_pos_site_id
 _symmetry_equiv_pos_as_xyz
  1  'x, y, z'
loop_
 _atom_site_type_symbol
 _atom_site_label
 _atom_site_symmetry_multiplicity
 _atom_site_fract_x
 _atom_site_fract_y
 _atom_site_fract_z
 _atom_site_occupancy
  Zr  Zr0  1  0.50000000  0.83895205  0.16104795  1
  Zr  Zr1  1  0.16104795  0.50000000  0.83895205  1
  Zr  Zr2  1  0.41507202  0.07719477  0.75683712  1
  Zr  Zr3  1  0.00000000  0.34108031  0.65891969  1
  Zr  Zr4  1  0.34108031  0.65891969  1.00000000  1
  Zr  Zr5  1  0.24316288  0.92280523  0.58492798  1
  Zr  Zr6  1  0.65891969  1.00000000  0.34108031  1
  Zr  Zr7  1  0.92280523  0.58492798  0.24316288  1
  Zr  Zr8  1  0.75683712  0.41507202  0.07719477  1
  Zr  Zr9  1  0.83895205  0.16104795  0.50000000  1
  Zr  Zr10  1  0.58492798  0.24316288  0.92280523  1
  Zr  Zr11  1  0.07719477  0.75683712  0.41507202  1
  O  O12  1  0.29152783  0.29152783  0.29152783  1
  O  O13  1  0.12519794  0.12519794  0.12519794  1
  O  O14  1  0.70847217  0.70847217  0.70847217  1
  O  O15  1  0.87480206  0.87480206  0.87480206  1
