# generated using pymatgen
data_Al2Ge(O2F)2
_symmetry_space_group_name_H-M   'P 1'
_cell_length_a   4.81793007
_cell_length_b   8.63171352
_cell_length_c   9.08740387
_cell_angle_alpha   90.00000000
_cell_angle_beta   90.00000000
_cell_angle_gamma   90.00000000
_symmetry_Int_Tables_number   1
_chemical_formula_structural   Al2Ge(O2F)2
_chemical_formula_sum   'Al8 Ge4 O16 F8'
_cell_volume   377.91779317
_cell_formula_units_Z   4
loop_
 _symmetry_equiv_pos_site_id
 _symmetry_equiv_pos_as_xyz
  1  'x, y, z'
loop_
 _atom_site_type_symbol
 _atom_site_label
 _atom_site_symmetry_multiplicity
 _atom_site_fract_x
 _atom_site_fract_y
 _atom_site_fract_z
 _atom_site_occupancy
  Al  Al0  1  0.59363845  0.08219361  0.13102994  1
  Al  Al1  1  0.09363845  0.91780639  0.36897006  1
  Al  Al2  1  0.40636155  0.58219361  0.86897006  1
  Al  Al3  1  0.40636155  0.91780639  0.86897006  1
  Al  Al4  1  0.90636155  0.41780639  0.63102994  1
  Al  Al5  1  0.09363845  0.58219361  0.36897006  1
  Al  Al6  1  0.90636155  0.08219361  0.63102994  1
  Al  Al7  1  0.59363845  0.41780639  0.13102994  1
  Ge  Ge8  1  0.39932940  0.25000000  0.44001082  1
  Ge  Ge9  1  0.60067060  0.75000000  0.55998918  1
  Ge  Ge10  1  0.89932940  0.75000000  0.05998918  1
  Ge  Ge11  1  0.10067060  0.25000000  0.94001082  1
  O  O12  1  0.20411282  0.08405860  0.49087633  1
  O  O13  1  0.45871785  0.25000000  0.24622851  1
  O  O14  1  0.79588718  0.91594140  0.50912367  1
  O  O15  1  0.78034346  0.25000000  0.03543643  1
  O  O16  1  0.54128215  0.75000000  0.75377149  1
  O  O17  1  0.20411282  0.41594140  0.49087633  1
  O  O18  1  0.29588718  0.08405860  0.99087633  1
  O  O19  1  0.95871785  0.75000000  0.25377149  1
  O  O20  1  0.29588718  0.41594140  0.99087633  1
  O  O21  1  0.21965654  0.75000000  0.96456357  1
  O  O22  1  0.70411282  0.91594140  0.00912367  1
  O  O23  1  0.28034346  0.75000000  0.46456357  1
  O  O24  1  0.71965654  0.25000000  0.53543643  1
  O  O25  1  0.70411282  0.58405860  0.00912367  1
  O  O26  1  0.79588718  0.58405860  0.50912367  1
  O  O27  1  0.04128215  0.25000000  0.74622851  1
  F  F28  1  0.10431632  0.94746430  0.74917705  1
  F  F29  1  0.10431632  0.55253570  0.74917705  1
  F  F30  1  0.39568368  0.55253570  0.24917705  1
  F  F31  1  0.60431632  0.05253570  0.75082295  1
  F  F32  1  0.89568368  0.05253570  0.25082295  1
  F  F33  1  0.39568368  0.94746430  0.24917705  1
  F  F34  1  0.60431632  0.44746430  0.75082295  1
  F  F35  1  0.89568368  0.44746430  0.25082295  1
