# generated using pymatgen
data_KAlF4
_symmetry_space_group_name_H-M   'P 1'
_cell_length_a   6.53469356
_cell_length_b   7.35315810
_cell_length_c   7.46867863
_cell_angle_alpha   90.00000000
_cell_angle_beta   106.96397144
_cell_angle_gamma   90.00000000
_symmetry_Int_Tables_number   1
_chemical_formula_structural   KAlF4
_chemical_formula_sum   'K4 Al4 F16'
_cell_volume   343.25954064
_cell_formula_units_Z   4
loop_
 _symmetry_equiv_pos_site_id
 _symmetry_equiv_pos_as_xyz
  1  'x, y, z'
loop_
 _atom_site_type_symbol
 _atom_site_label
 _atom_site_symmetry_multiplicity
 _atom_site_fract_x
 _atom_site_fract_y
 _atom_site_fract_z
 _atom_site_occupancy
  K  K0  1  0.45883914  0.75000000  0.86708102  1
  K  K1  1  0.45283351  0.75000000  0.36598250  1
  K  K2  1  0.54116086  0.25000000  0.13291898  1
  K  K3  1  0.54716649  0.25000000  0.63401750  1
  Al  Al4  1  0.00000000  0.50000000  0.00000000  1
  Al  Al5  1  0.00000000  0.00000000  0.00000000  1
  Al  Al6  1  0.00000000  0.00000000  0.50000000  1
  Al  Al7  1  0.00000000  0.50000000  0.50000000  1
  F  F8  1  0.95271188  0.75000000  0.50746636  1
  F  F9  1  0.28131394  0.96285483  0.06823924  1
  F  F10  1  0.28216563  0.53495790  0.57543138  1
  F  F11  1  0.99765071  0.48000869  0.74930382  1
  F  F12  1  0.05040598  0.25000000  0.03119886  1
  F  F13  1  0.28131394  0.53714517  0.06823924  1
  F  F14  1  0.71868606  0.03714517  0.93176076  1
  F  F15  1  0.94959402  0.75000000  0.96880114  1
  F  F16  1  0.71783437  0.46504210  0.42456862  1
  F  F17  1  0.71783437  0.03495790  0.42456862  1
  F  F18  1  0.00234929  0.98000869  0.25069618  1
  F  F19  1  0.00234929  0.51999131  0.25069618  1
  F  F20  1  0.99765071  0.01999131  0.74930382  1
  F  F21  1  0.28216563  0.96504210  0.57543138  1
  F  F22  1  0.71868606  0.46285483  0.93176076  1
  F  F23  1  0.04728812  0.25000000  0.49253364  1
