# generated using pymatgen
data_Sr2Si3Ni
_symmetry_space_group_name_H-M   'P 1'
_cell_length_a   4.08250813
_cell_length_b   4.08274224
_cell_length_c   9.33010841
_cell_angle_alpha   90.00000000
_cell_angle_beta   90.00000000
_cell_angle_gamma   120.01190172
_symmetry_Int_Tables_number   1
_chemical_formula_structural   Sr2Si3Ni
_chemical_formula_sum   'Sr2 Si3 Ni1'
_cell_volume   134.66174682
_cell_formula_units_Z   1
loop_
 _symmetry_equiv_pos_site_id
 _symmetry_equiv_pos_as_xyz
  1  'x, y, z'
loop_
 _atom_site_type_symbol
 _atom_site_label
 _atom_site_symmetry_multiplicity
 _atom_site_fract_x
 _atom_site_fract_y
 _atom_site_fract_z
 _atom_site_occupancy
  Sr  Sr0  1  0.99999610  0.00000037  0.01087662  1
  Sr  Sr1  1  0.99999610  0.00000037  0.48912338  1
  Si  Si2  1  0.33336408  0.66661369  0.75000000  1
  Si  Si3  1  0.66669132  0.33331489  0.25000000  1
  Si  Si4  1  0.66661457  0.33342972  0.75000000  1
  Ni  Ni5  1  0.33313781  0.66664096  0.25000000  1
