# generated using pymatgen
data_RbGaS2
_symmetry_space_group_name_H-M   'P 1'
_cell_length_a   7.54403628
_cell_length_b   7.54403574
_cell_length_c   15.64164861
_cell_angle_alpha   83.06708127
_cell_angle_beta   83.06708177
_cell_angle_gamma   89.95672722
_symmetry_Int_Tables_number   1
_chemical_formula_structural   RbGaS2
_chemical_formula_sum   'Rb8 Ga8 S16'
_cell_volume   877.14830565
_cell_formula_units_Z   8
loop_
 _symmetry_equiv_pos_site_id
 _symmetry_equiv_pos_as_xyz
  1  'x, y, z'
loop_
 _atom_site_type_symbol
 _atom_site_label
 _atom_site_symmetry_multiplicity
 _atom_site_fract_x
 _atom_site_fract_y
 _atom_site_fract_z
 _atom_site_occupancy
  Rb  Rb0  1  0.72400105  0.84759239  0.60559624  1
  Rb  Rb1  1  0.84759239  0.72400105  0.10559624  1
  Rb  Rb2  1  0.27599895  0.15240761  0.39440376  1
  Rb  Rb3  1  0.27600549  0.65092941  0.39382808  1
  Rb  Rb4  1  0.34907059  0.72399451  0.10617192  1
  Rb  Rb5  1  0.72399451  0.34907059  0.60617192  1
  Rb  Rb6  1  0.65092941  0.27600549  0.89382808  1
  Rb  Rb7  1  0.15240761  0.27599895  0.89440376  1
  Ga  Ga8  1  0.41332924  0.79189139  0.83203454  1
  Ga  Ga9  1  0.58667076  0.20810861  0.16796546  1
  Ga  Ga10  1  0.79189139  0.41332924  0.33203454  1
  Ga  Ga11  1  0.07915203  0.20786164  0.16771863  1
  Ga  Ga12  1  0.79213836  0.92084797  0.33228137  1
  Ga  Ga13  1  0.20786164  0.07915203  0.66771863  1
  Ga  Ga14  1  0.92084797  0.79213836  0.83228137  1
  Ga  Ga15  1  0.20810861  0.58667076  0.66796546  1
  S  S16  1  0.06601538  0.93398462  0.25000000  1
  S  S17  1  0.23085168  0.85539204  0.57658691  1
  S  S18  1  0.85539204  0.23085168  0.07658691  1
  S  S19  1  0.76914832  0.14460796  0.42341309  1
  S  S20  1  0.35500381  0.22937853  0.08061565  1
  S  S21  1  0.06569340  0.44105070  0.24968435  1
  S  S22  1  0.55894930  0.93430660  0.25031565  1
  S  S23  1  0.14460796  0.76914832  0.92341309  1
  S  S24  1  0.93430660  0.55894930  0.75031565  1
  S  S25  1  0.64499619  0.77062147  0.91938435  1
  S  S26  1  0.77062147  0.64499619  0.41938435  1
  S  S27  1  0.93398462  0.06601538  0.75000000  1
  S  S28  1  0.44105070  0.06569340  0.74968435  1
  S  S29  1  0.22937853  0.35500381  0.58061565  1
  S  S30  1  0.44126773  0.55873227  0.75000000  1
  S  S31  1  0.55873227  0.44126773  0.25000000  1
