# generated using pymatgen
data_Rb2Sn2Hg3S8
_symmetry_space_group_name_H-M   'P 1'
_cell_length_a   6.74129634
_cell_length_b   10.33559508
_cell_length_c   13.81850797
_cell_angle_alpha   97.66645754
_cell_angle_beta   90.00000000
_cell_angle_gamma   90.00000000
_symmetry_Int_Tables_number   1
_chemical_formula_structural   Rb2Sn2Hg3S8
_chemical_formula_sum   'Rb4 Sn4 Hg6 S16'
_cell_volume   954.20272003
_cell_formula_units_Z   2
loop_
 _symmetry_equiv_pos_site_id
 _symmetry_equiv_pos_as_xyz
  1  'x, y, z'
loop_
 _atom_site_type_symbol
 _atom_site_label
 _atom_site_symmetry_multiplicity
 _atom_site_fract_x
 _atom_site_fract_y
 _atom_site_fract_z
 _atom_site_occupancy
  Rb  Rb0  1  0.84026375  0.72202275  0.30810682  1
  Rb  Rb1  1  0.34026375  0.27797725  0.19189318  1
  Rb  Rb2  1  0.65973625  0.72202275  0.80810682  1
  Rb  Rb3  1  0.15973625  0.27797725  0.69189318  1
  Sn  Sn4  1  0.68308388  0.21489679  0.92445034  1
  Sn  Sn5  1  0.31691612  0.78510321  0.07554966  1
  Sn  Sn6  1  0.18308388  0.78510321  0.57554966  1
  Sn  Sn7  1  0.81691612  0.21489679  0.42445034  1
  Hg  Hg8  1  0.29607234  0.99791049  0.37966022  1
  Hg  Hg9  1  0.20392766  0.99791049  0.87966022  1
  Hg  Hg10  1  0.70392766  0.00208951  0.62033978  1
  Hg  Hg11  1  0.50000000  0.50000000  0.50000000  1
  Hg  Hg12  1  0.79607234  0.00208951  0.12033978  1
  Hg  Hg13  1  0.00000000  0.50000000  0.00000000  1
  S  S14  1  0.32324050  0.22464289  0.92524689  1
  S  S15  1  0.20504767  0.58122913  0.13425248  1
  S  S16  1  0.19593632  0.76620739  0.90859155  1
  S  S17  1  0.17675950  0.22464289  0.42524689  1
  S  S18  1  0.79495233  0.41877087  0.86574752  1
  S  S19  1  0.82324050  0.77535711  0.57475311  1
  S  S20  1  0.70504767  0.41877087  0.36574752  1
  S  S21  1  0.80406368  0.23379261  0.09140845  1
  S  S22  1  0.31893853  0.96840763  0.67735582  1
  S  S23  1  0.29495233  0.58122913  0.63425248  1
  S  S24  1  0.30406368  0.76620739  0.40859155  1
  S  S25  1  0.68106147  0.03159237  0.32264418  1
  S  S26  1  0.67675950  0.77535711  0.07475311  1
  S  S27  1  0.69593632  0.23379261  0.59140845  1
  S  S28  1  0.18106147  0.96840763  0.17735582  1
  S  S29  1  0.81893853  0.03159237  0.82264418  1
