# generated using pymatgen
data_LiLuF4
_symmetry_space_group_name_H-M   'P 1'
_cell_length_a   5.12048004
_cell_length_b   5.21169885
_cell_length_c   6.35347065
_cell_angle_alpha   113.04972261
_cell_angle_beta   112.58367494
_cell_angle_gamma   92.63818697
_symmetry_Int_Tables_number   1
_chemical_formula_structural   LiLuF4
_chemical_formula_sum   'Li2 Lu2 F8'
_cell_volume   140.15062269
_cell_formula_units_Z   2
loop_
 _symmetry_equiv_pos_site_id
 _symmetry_equiv_pos_as_xyz
  1  'x, y, z'
loop_
 _atom_site_type_symbol
 _atom_site_label
 _atom_site_symmetry_multiplicity
 _atom_site_fract_x
 _atom_site_fract_y
 _atom_site_fract_z
 _atom_site_occupancy
  Li  Li0  1  0.63995342  0.88998779  0.78003005  1
  Li  Li1  1  0.36004658  0.11001221  0.21996995  1
  Lu  Lu2  1  0.87738665  0.62740908  0.25478796  1
  Lu  Lu3  1  0.12261335  0.37259092  0.74521204  1
  F  F4  1  0.17095501  0.04546152  0.41126149  1
  F  F5  1  0.89289519  0.67413253  0.91714474  1
  F  F6  1  0.52415098  0.24289961  0.91720820  1
  F  F7  1  0.82904499  0.95453848  0.58873851  1
  F  F8  1  0.47584902  0.75710039  0.08279180  1
  F  F9  1  0.10710481  0.32586747  0.08285526  1
  F  F10  1  0.25964193  0.63416990  0.58868358  1
  F  F11  1  0.74035807  0.36583010  0.41131642  1
