# generated using pymatgen
data_ZrTlCdF7
_symmetry_space_group_name_H-M   'P 1'
_cell_length_a   6.64345651
_cell_length_b   6.64345612
_cell_length_c   8.65134498
_cell_angle_alpha   90.00000000
_cell_angle_beta   90.00000000
_cell_angle_gamma   116.98728127
_symmetry_Int_Tables_number   1
_chemical_formula_structural   ZrTlCdF7
_chemical_formula_sum   'Zr2 Tl2 Cd2 F14'
_cell_volume   340.25286411
_cell_formula_units_Z   2
loop_
 _symmetry_equiv_pos_site_id
 _symmetry_equiv_pos_as_xyz
  1  'x, y, z'
loop_
 _atom_site_type_symbol
 _atom_site_label
 _atom_site_symmetry_multiplicity
 _atom_site_fract_x
 _atom_site_fract_y
 _atom_site_fract_z
 _atom_site_occupancy
  Zr  Zr0  1  0.19130920  0.80869080  0.25000000  1
  Zr  Zr1  1  0.80869080  0.19130920  0.75000000  1
  Tl  Tl2  1  0.50000000  0.50000000  0.00000000  1
  Tl  Tl3  1  0.50000000  0.50000000  0.50000000  1
  Cd  Cd4  1  0.80798850  0.19201150  0.25000000  1
  Cd  Cd5  1  0.19201150  0.80798850  0.75000000  1
  F  F6  1  0.79906417  0.20093583  0.98634758  1
  F  F7  1  0.84505658  0.56384019  0.25000000  1
  F  F8  1  0.43615981  0.15494342  0.25000000  1
  F  F9  1  0.15494342  0.43615981  0.75000000  1
  F  F10  1  0.79906417  0.20093583  0.51365242  1
  F  F11  1  0.20093583  0.79906417  0.01365242  1
  F  F12  1  0.83014815  0.52333405  0.75000000  1
  F  F13  1  0.47666595  0.16985185  0.75000000  1
  F  F14  1  0.56384019  0.84505658  0.75000000  1
  F  F15  1  0.52333405  0.83014815  0.25000000  1
  F  F16  1  0.20093583  0.79906417  0.48634758  1
  F  F17  1  0.16985185  0.47666595  0.25000000  1
  F  F18  1  0.00939508  0.99060492  0.25000000  1
  F  F19  1  0.99060492  0.00939508  0.75000000  1
