# generated using pymatgen
data_Li3CrF6
_symmetry_space_group_name_H-M   'P 1'
_cell_length_a   8.54071910
_cell_length_b   8.54071879
_cell_length_c   10.23516427
_cell_angle_alpha   85.95027515
_cell_angle_beta   85.95027529
_cell_angle_gamma   61.75200808
_symmetry_Int_Tables_number   1
_chemical_formula_structural   Li3CrF6
_chemical_formula_sum   'Li18 Cr6 F36'
_cell_volume   655.44867866
_cell_formula_units_Z   6
loop_
 _symmetry_equiv_pos_site_id
 _symmetry_equiv_pos_as_xyz
  1  'x, y, z'
loop_
 _atom_site_type_symbol
 _atom_site_label
 _atom_site_symmetry_multiplicity
 _atom_site_fract_x
 _atom_site_fract_y
 _atom_site_fract_z
 _atom_site_occupancy
  Li  Li0  1  0.28724969  0.99260224  0.23002509  1
  Li  Li1  1  0.00739776  0.71275031  0.26997491  1
  Li  Li2  1  0.71275031  0.00739776  0.76997491  1
  Li  Li3  1  0.99260224  0.28724969  0.73002509  1
  Li  Li4  1  0.67398566  0.37203965  0.96168449  1
  Li  Li5  1  0.62796035  0.32601434  0.53831551  1
  Li  Li6  1  0.12448682  0.54071351  0.55163451  1
  Li  Li7  1  0.45928649  0.87551318  0.94836549  1
  Li  Li8  1  0.87551318  0.45928649  0.44836549  1
  Li  Li9  1  0.54071351  0.12448682  0.05163451  1
  Li  Li10  1  0.94020252  0.65574031  0.93193584  1
  Li  Li11  1  0.34425969  0.05979748  0.56806416  1
  Li  Li12  1  0.05979748  0.34425969  0.06806416  1
  Li  Li13  1  0.65574031  0.94020252  0.43193584  1
  Li  Li14  1  0.81189290  0.18810710  0.25000000  1
  Li  Li15  1  0.18810710  0.81189290  0.75000000  1
  Li  Li16  1  0.32601434  0.62796035  0.03831551  1
  Li  Li17  1  0.37203965  0.67398566  0.46168449  1
  Cr  Cr18  1  0.33419120  0.33909092  0.79608385  1
  Cr  Cr19  1  0.66090908  0.66580880  0.70391615  1
  Cr  Cr20  1  0.66580880  0.66090908  0.20391615  1
  Cr  Cr21  1  0.33909092  0.33419120  0.29608385  1
  Cr  Cr22  1  0.00000000  0.00000000  0.50000000  1
  Cr  Cr23  1  0.00000000  0.00000000  0.00000000  1
  F  F24  1  0.75933594  0.44179054  0.80533933  1
  F  F25  1  0.77335231  0.73190973  0.33698737  1
  F  F26  1  0.73190973  0.77335231  0.83698737  1
  F  F27  1  0.22664769  0.26809027  0.66301263  1
  F  F28  1  0.23979238  0.91388674  0.06227279  1
  F  F29  1  0.08611326  0.76020762  0.43772721  1
  F  F30  1  0.76020762  0.08611326  0.93772721  1
  F  F31  1  0.91388674  0.23979238  0.56227279  1
  F  F32  1  0.26809027  0.22664769  0.16301263  1
  F  F33  1  0.23853263  0.90712532  0.56551004  1
  F  F34  1  0.90712532  0.23853263  0.06551004  1
  F  F35  1  0.76146737  0.09287468  0.43448996  1
  F  F36  1  0.55820946  0.24066406  0.69466067  1
  F  F37  1  0.56924966  0.58842544  0.06600279  1
  F  F38  1  0.58842544  0.56924966  0.56600279  1
  F  F39  1  0.43075034  0.41157456  0.93399721  1
  F  F40  1  0.41656729  0.10632047  0.39433769  1
  F  F41  1  0.89367953  0.58343271  0.10566231  1
  F  F42  1  0.58343271  0.89367953  0.60566231  1
  F  F43  1  0.10632047  0.41656729  0.89433769  1
  F  F44  1  0.07781944  0.06602454  0.83309025  1
  F  F45  1  0.93397546  0.92218056  0.66690975  1
  F  F46  1  0.92218056  0.93397546  0.16690975  1
  F  F47  1  0.06602454  0.07781944  0.33309025  1
  F  F48  1  0.24066406  0.55820946  0.19466067  1
  F  F49  1  0.44179054  0.75933594  0.30533933  1
  F  F50  1  0.89208015  0.56965152  0.61015923  1
  F  F51  1  0.41157456  0.43075034  0.43399721  1
  F  F52  1  0.10791985  0.43034848  0.38984077  1
  F  F53  1  0.56965152  0.89208015  0.11015923  1
  F  F54  1  0.75571173  0.43330151  0.30232676  1
  F  F55  1  0.56669849  0.24428827  0.19767324  1
  F  F56  1  0.24428827  0.56669849  0.69767324  1
  F  F57  1  0.43330151  0.75571173  0.80232676  1
  F  F58  1  0.09287468  0.76146737  0.93448996  1
  F  F59  1  0.43034848  0.10791985  0.88984077  1
