# generated using pymatgen
data_NaZr2AgF11
_symmetry_space_group_name_H-M   'P 1'
_cell_length_a   5.82837948
_cell_length_b   5.97612765
_cell_length_c   7.97724176
_cell_angle_alpha   111.69199601
_cell_angle_beta   96.26142595
_cell_angle_gamma   106.21974564
_symmetry_Int_Tables_number   1
_chemical_formula_structural   NaZr2AgF11
_chemical_formula_sum   'Na1 Zr2 Ag1 F11'
_cell_volume   240.78260315
_cell_formula_units_Z   1
loop_
 _symmetry_equiv_pos_site_id
 _symmetry_equiv_pos_as_xyz
  1  'x, y, z'
loop_
 _atom_site_type_symbol
 _atom_site_label
 _atom_site_symmetry_multiplicity
 _atom_site_fract_x
 _atom_site_fract_y
 _atom_site_fract_z
 _atom_site_occupancy
  Na  Na0  1  0.00000000  0.00000000  0.00000000  1
  Zr  Zr1  1  0.50470041  0.73697038  0.23009773  1
  Zr  Zr2  1  0.49529959  0.26302962  0.76990227  1
  Ag  Ag3  1  0.00000000  0.50000000  0.50000000  1
  F  F4  1  0.26202347  0.84210212  0.11017852  1
  F  F5  1  0.33607879  0.34453038  0.01145321  1
  F  F6  1  0.66392121  0.65546962  0.98854679  1
  F  F7  1  0.77944057  0.48443269  0.68886641  1
  F  F8  1  0.79611829  0.05463518  0.28264108  1
  F  F9  1  0.20388171  0.94536482  0.71735892  1
  F  F10  1  0.73797653  0.15789788  0.88982148  1
  F  F11  1  0.22055943  0.51556731  0.31113359  1
  F  F12  1  0.73223017  0.60027786  0.34661533  1
  F  F13  1  0.26776983  0.39972214  0.65338467  1
  F  F14  1  0.50000000  0.00000000  0.50000000  1
