# generated using pymatgen
data_Fe2Se2O7
_symmetry_space_group_name_H-M   'P 1'
_cell_length_a   6.77930833
_cell_length_b   13.07030961
_cell_length_c   13.81222631
_cell_angle_alpha   90.00000000
_cell_angle_beta   90.00000000
_cell_angle_gamma   90.00000000
_symmetry_Int_Tables_number   1
_chemical_formula_structural   Fe2Se2O7
_chemical_formula_sum   'Fe16 Se16 O56'
_cell_volume   1223.86903635
_cell_formula_units_Z   8
loop_
 _symmetry_equiv_pos_site_id
 _symmetry_equiv_pos_as_xyz
  1  'x, y, z'
loop_
 _atom_site_type_symbol
 _atom_site_label
 _atom_site_symmetry_multiplicity
 _atom_site_fract_x
 _atom_site_fract_y
 _atom_site_fract_z
 _atom_site_occupancy
  Fe  Fe0  1  0.25000000  0.25000000  0.33548150  1
  Fe  Fe1  1  0.75000000  0.75000000  0.16451850  1
  Fe  Fe2  1  0.75000000  0.75000000  0.66451850  1
  Fe  Fe3  1  0.25000000  0.25000000  0.83548150  1
  Fe  Fe4  1  0.25000000  0.75000000  0.21058886  1
  Fe  Fe5  1  0.75000000  0.25000000  0.28941114  1
  Fe  Fe6  1  0.75000000  0.25000000  0.78941114  1
  Fe  Fe7  1  0.25000000  0.75000000  0.71058886  1
  Fe  Fe8  1  0.03176344  0.62140278  0.02672397  1
  Fe  Fe9  1  0.53176344  0.37859722  0.47327603  1
  Fe  Fe10  1  0.96823656  0.12140278  0.47327603  1
  Fe  Fe11  1  0.46823656  0.87859722  0.02672397  1
  Fe  Fe12  1  0.96823656  0.37859722  0.97327603  1
  Fe  Fe13  1  0.46823656  0.62140278  0.52672397  1
  Fe  Fe14  1  0.03176344  0.87859722  0.52672397  1
  Fe  Fe15  1  0.53176344  0.12140278  0.97327603  1
  Se  Se16  1  0.01196569  0.44797016  0.21655522  1
  Se  Se17  1  0.51196569  0.55202984  0.28344478  1
  Se  Se18  1  0.98803431  0.94797016  0.28344478  1
  Se  Se19  1  0.48803431  0.05202984  0.21655522  1
  Se  Se20  1  0.98803431  0.55202984  0.78344378  1
  Se  Se21  1  0.48803431  0.44797016  0.71655622  1
  Se  Se22  1  0.01196569  0.05202984  0.71655622  1
  Se  Se23  1  0.51196569  0.94797016  0.78344378  1
  Se  Se24  1  0.02627962  0.13496982  0.03566045  1
  Se  Se25  1  0.52627962  0.86503018  0.46433955  1
  Se  Se26  1  0.97372038  0.63496982  0.46433955  1
  Se  Se27  1  0.47372038  0.36503018  0.03566045  1
  Se  Se28  1  0.97372038  0.86503018  0.96433955  1
  Se  Se29  1  0.47372038  0.13496982  0.53566045  1
  Se  Se30  1  0.02627962  0.36503018  0.53566045  1
  Se  Se31  1  0.52627962  0.63496982  0.96433955  1
  O  O32  1  0.02246706  0.70393958  0.14594036  1
  O  O33  1  0.52246706  0.29606042  0.35405964  1
  O  O34  1  0.97753294  0.20393958  0.35405964  1
  O  O35  1  0.47753294  0.79606042  0.14594036  1
  O  O36  1  0.97753294  0.29606042  0.85405964  1
  O  O37  1  0.47753294  0.70393958  0.64594036  1
  O  O38  1  0.02246706  0.79606042  0.64594036  1
  O  O39  1  0.52246706  0.20393958  0.85405964  1
  O  O40  1  0.19514494  0.35977540  0.23198578  1
  O  O41  1  0.69514494  0.64022460  0.26801422  1
  O  O42  1  0.80485506  0.85977540  0.26801422  1
  O  O43  1  0.30485506  0.14022460  0.23198578  1
  O  O44  1  0.80485506  0.64022460  0.76801422  1
  O  O45  1  0.30485506  0.35977540  0.73198578  1
  O  O46  1  0.19514494  0.14022460  0.73198578  1
  O  O47  1  0.69514494  0.85977540  0.76801422  1
  O  O48  1  0.79768137  0.37570637  0.21959036  1
  O  O49  1  0.29768137  0.62429363  0.28040964  1
  O  O50  1  0.20231863  0.87570637  0.28040964  1
  O  O51  1  0.70231863  0.12429363  0.21959036  1
  O  O52  1  0.20231863  0.62429363  0.78040964  1
  O  O53  1  0.70231863  0.37570637  0.71959036  1
  O  O54  1  0.79768137  0.12429363  0.71959036  1
  O  O55  1  0.29768137  0.87570637  0.78040964  1
  O  O56  1  0.02015966  0.47377910  0.09026305  1
  O  O57  1  0.52015966  0.52622090  0.40973695  1
  O  O58  1  0.97984034  0.97377910  0.40973695  1
  O  O59  1  0.47984034  0.02622090  0.09026305  1
  O  O60  1  0.97984034  0.52622090  0.90973695  1
  O  O61  1  0.47984034  0.47377910  0.59026305  1
  O  O62  1  0.02015966  0.02622090  0.59026305  1
  O  O63  1  0.52015966  0.97377910  0.90973695  1
  O  O64  1  0.98180963  0.26115990  0.06139466  1
  O  O65  1  0.48180963  0.73884010  0.43860534  1
  O  O66  1  0.01819037  0.76115990  0.43860534  1
  O  O67  1  0.51819037  0.23884010  0.06139466  1
  O  O68  1  0.01819037  0.73884010  0.93860534  1
  O  O69  1  0.51819037  0.26115990  0.56139466  1
  O  O70  1  0.98180963  0.23884010  0.56139466  1
  O  O71  1  0.48180963  0.76115990  0.93860534  1
  O  O72  1  0.82786531  0.10184880  0.96312841  1
  O  O73  1  0.32786531  0.89815120  0.53687159  1
  O  O74  1  0.17213469  0.60184880  0.53687159  1
  O  O75  1  0.67213469  0.39815120  0.96312841  1
  O  O76  1  0.17213469  0.89815120  0.03687159  1
  O  O77  1  0.67213469  0.10184880  0.46312841  1
  O  O78  1  0.82786531  0.39815120  0.46312841  1
  O  O79  1  0.32786531  0.60184880  0.03687159  1
  O  O80  1  0.21483986  0.13810345  0.94678656  1
  O  O81  1  0.71483986  0.86189655  0.55321344  1
  O  O82  1  0.78516014  0.63810345  0.55321344  1
  O  O83  1  0.28516014  0.36189655  0.94678656  1
  O  O84  1  0.78516014  0.86189655  0.05321344  1
  O  O85  1  0.28516014  0.13810345  0.44678656  1
  O  O86  1  0.21483986  0.36189655  0.44678656  1
  O  O87  1  0.71483986  0.63810345  0.05321344  1
