# generated using pymatgen
data_Cs2LiCr(CN)6
_symmetry_space_group_name_H-M   'P 1'
_cell_length_a   7.68975956
_cell_length_b   7.68975956
_cell_length_c   7.68975956
_cell_angle_alpha   60.00000001
_cell_angle_beta   60.00000001
_cell_angle_gamma   59.99999998
_symmetry_Int_Tables_number   1
_chemical_formula_structural   Cs2LiCr(CN)6
_chemical_formula_sum   'Cs2 Li1 Cr1 C6 N6'
_cell_volume   321.53132073
_cell_formula_units_Z   1
loop_
 _symmetry_equiv_pos_site_id
 _symmetry_equiv_pos_as_xyz
  1  'x, y, z'
loop_
 _atom_site_type_symbol
 _atom_site_label
 _atom_site_symmetry_multiplicity
 _atom_site_fract_x
 _atom_site_fract_y
 _atom_site_fract_z
 _atom_site_occupancy
  Li  Li0  1  0.50000000  0.50000000  0.50000000  1
  C  C1  1  0.81266377  0.18733623  0.81266377  1
  C  C2  1  0.18733623  0.81266377  0.18733623  1
  C  C3  1  0.18733623  0.81266377  0.81266377  1
  C  C4  1  0.81266377  0.18733623  0.18733623  1
  C  C5  1  0.81266377  0.81266377  0.18733623  1
  C  C6  1  0.18733623  0.18733623  0.81266377  1
  N  N7  1  0.70454102  0.29545898  0.70454102  1
  N  N8  1  0.29545898  0.70454102  0.70454102  1
  N  N9  1  0.29545898  0.70454102  0.29545898  1
  N  N10  1  0.70454102  0.29545898  0.29545898  1
  N  N11  1  0.70454102  0.70454102  0.29545898  1
  N  N12  1  0.29545898  0.29545898  0.70454102  1
  Cr  Cr13  1  0.00000000  0.00000000  0.00000000  1
  Cs  Cs14  1  0.75000000  0.75000000  0.75000000  1
  Cs  Cs15  1  0.25000000  0.25000000  0.25000000  1
