# generated using pymatgen
data_YAg3(PS4)2
_symmetry_space_group_name_H-M   'P 1'
_cell_length_a   9.34325376
_cell_length_b   9.49073953
_cell_length_c   9.79726524
_cell_angle_alpha   118.96104450
_cell_angle_beta   118.47854525
_cell_angle_gamma   89.99999949
_symmetry_Int_Tables_number   1
_chemical_formula_structural   YAg3(PS4)2
_chemical_formula_sum   'Y2 Ag6 P4 S16'
_cell_volume   637.32740264
_cell_formula_units_Z   2
loop_
 _symmetry_equiv_pos_site_id
 _symmetry_equiv_pos_as_xyz
  1  'x, y, z'
loop_
 _atom_site_type_symbol
 _atom_site_label
 _atom_site_symmetry_multiplicity
 _atom_site_fract_x
 _atom_site_fract_y
 _atom_site_fract_z
 _atom_site_occupancy
  Y  Y0  1  0.96525848  0.75000000  1.00000000  1
  Y  Y1  1  0.03474152  0.25000000  0.00000000  1
  Ag  Ag2  1  0.53570796  0.77473149  0.30528726  1
  Ag  Ag3  1  0.23042069  0.72526851  0.69471274  1
  Ag  Ag4  1  0.46429204  0.22526851  0.69471274  1
  Ag  Ag5  1  0.76957931  0.27473149  0.30528726  1
  Ag  Ag6  1  0.56996463  0.75000000  0.00000000  1
  Ag  Ag7  1  0.43003537  0.25000000  1.00000000  1
  P  P8  1  0.33983501  0.06781022  0.19547365  1
  P  P9  1  0.14436136  0.43218978  0.80452635  1
  P  P10  1  0.66016499  0.93218978  0.80452635  1
  P  P11  1  0.85563864  0.56781022  0.19547365  1
  S  S12  1  0.86530683  0.07899934  0.08256408  1
  S  S13  1  0.10151178  0.18693303  0.73095235  1
  S  S14  1  0.42863084  0.97741931  0.74972847  1
  S  S15  1  0.62944057  0.68693303  0.73095235  1
  S  S16  1  0.92646334  0.48094904  0.66543920  1
  S  S17  1  0.13469317  0.92100066  0.91743592  1
  S  S18  1  0.26102414  0.01905096  0.33456080  1
  S  S19  1  0.07353666  0.51905096  0.33456080  1
  S  S20  1  0.73897586  0.98094904  0.66543920  1
  S  S21  1  0.21725725  0.57899934  0.08256408  1
  S  S22  1  0.37055943  0.31306697  0.26904765  1
  S  S23  1  0.89848822  0.81306697  0.26904765  1
  S  S24  1  0.57136916  0.02258069  0.25027153  1
  S  S25  1  0.32109763  0.47741931  0.74972847  1
  S  S26  1  0.78274275  0.42100066  0.91743592  1
  S  S27  1  0.67890237  0.52258069  0.25027153  1
