# generated using pymatgen
data_K3AlB8O15
_symmetry_space_group_name_H-M   'P 1'
_cell_length_a   10.32519648
_cell_length_b   11.60062548
_cell_length_c   12.91839320
_cell_angle_alpha   90.00000000
_cell_angle_beta   91.16548510
_cell_angle_gamma   90.00000000
_symmetry_Int_Tables_number   1
_chemical_formula_structural   K3AlB8O15
_chemical_formula_sum   'K12 Al4 B32 O60'
_cell_volume   1547.02870808
_cell_formula_units_Z   4
loop_
 _symmetry_equiv_pos_site_id
 _symmetry_equiv_pos_as_xyz
  1  'x, y, z'
loop_
 _atom_site_type_symbol
 _atom_site_label
 _atom_site_symmetry_multiplicity
 _atom_site_fract_x
 _atom_site_fract_y
 _atom_site_fract_z
 _atom_site_occupancy
  K  K0  1  0.88782137  0.12821402  0.93836733  1
  K  K1  1  0.11217863  0.62821402  0.56163267  1
  K  K2  1  0.88782137  0.37178598  0.43836733  1
  K  K3  1  0.89033851  0.59950437  0.89607614  1
  K  K4  1  0.47344045  0.36341482  0.22187306  1
  K  K5  1  0.52655955  0.86341482  0.27812694  1
  K  K6  1  0.11217863  0.87178598  0.06163267  1
  K  K7  1  0.10966149  0.40049563  0.10392386  1
  K  K8  1  0.10966149  0.09950437  0.60392386  1
  K  K9  1  0.52655955  0.63658518  0.77812694  1
  K  K10  1  0.89033851  0.90049563  0.39607614  1
  K  K11  1  0.47344045  0.13658518  0.72187306  1
  Al  Al12  1  0.74787008  0.66543031  0.53912486  1
  Al  Al13  1  0.74787008  0.83456969  0.03912486  1
  Al  Al14  1  0.25212992  0.33456969  0.46087514  1
  Al  Al15  1  0.25212992  0.16543031  0.96087514  1
  B  B16  1  0.34493036  0.90136058  0.47655333  1
  B  B17  1  0.50791942  0.69837767  0.08325045  1
  B  B18  1  0.13168229  0.16233093  0.35551497  1
  B  B19  1  0.22092975  0.38147232  0.68789148  1
  B  B20  1  0.13168229  0.33766907  0.85551497  1
  B  B21  1  0.65506964  0.09863942  0.52344667  1
  B  B22  1  0.77467390  0.05211178  0.16418922  1
  B  B23  1  0.77467390  0.44788822  0.66418922  1
  B  B24  1  0.22532610  0.55211178  0.33581078  1
  B  B25  1  0.17118854  0.74914486  0.28435559  1
  B  B26  1  0.69332024  0.12802225  0.33397162  1
  B  B27  1  0.19215960  0.96126188  0.31981242  1
  B  B28  1  0.49208058  0.30162233  0.91674955  1
  B  B29  1  0.49208058  0.19837767  0.41674955  1
  B  B30  1  0.17118854  0.75085514  0.78435559  1
  B  B31  1  0.65506964  0.40136058  0.02344667  1
  B  B32  1  0.82881146  0.24914486  0.21564441  1
  B  B33  1  0.30667976  0.87197775  0.66602838  1
  B  B34  1  0.80784040  0.03873812  0.68018758  1
  B  B35  1  0.34493036  0.59863942  0.97655333  1
  B  B36  1  0.86831771  0.66233093  0.14448503  1
  B  B37  1  0.22092975  0.11852768  0.18789148  1
  B  B38  1  0.77907025  0.88147232  0.81210852  1
  B  B39  1  0.77907025  0.61852768  0.31210852  1
  B  B40  1  0.22532610  0.94788822  0.83581078  1
  B  B41  1  0.82881146  0.25085514  0.71564441  1
  B  B42  1  0.30667976  0.62802225  0.16602838  1
  B  B43  1  0.80784040  0.46126188  0.18018758  1
  B  B44  1  0.19215960  0.53873812  0.81981242  1
  B  B45  1  0.69332024  0.37197775  0.83397162  1
  B  B46  1  0.50791942  0.80162233  0.58325045  1
  B  B47  1  0.86831771  0.83766907  0.64448503  1
  O  O48  1  0.53461482  0.15572033  0.51339104  1
  O  O49  1  0.83179069  0.15991728  0.14269868  1
  O  O50  1  0.68574521  0.43661380  0.12159342  1
  O  O51  1  0.28537373  0.96599285  0.74305206  1
  O  O52  1  0.16820931  0.84008272  0.85730132  1
  O  O53  1  0.11690435  0.25697685  0.93172179  1
  O  O54  1  0.22433725  0.72920879  0.19010626  1
  O  O55  1  0.22433725  0.77079121  0.69010626  1
  O  O56  1  0.28537373  0.53400715  0.24305206  1
  O  O57  1  0.88309565  0.75697685  0.56827821  1
  O  O58  1  0.11685060  0.85311169  0.30944783  1
  O  O59  1  0.77566275  0.22920879  0.30989374  1
  O  O60  1  0.60864865  0.77317122  0.09040658  1
  O  O61  1  0.82856982  0.69948999  0.24195021  1
  O  O62  1  0.88793274  0.54703662  0.12522238  1
  O  O63  1  0.83179069  0.34008272  0.64269868  1
  O  O64  1  0.71462627  0.03400715  0.25694794  1
  O  O65  1  0.11206726  0.45296338  0.87477762  1
  O  O66  1  0.26980403  0.91656935  0.56191515  1
  O  O67  1  0.11685060  0.64688831  0.80944783  1
  O  O68  1  0.78530887  0.97137898  0.08918782  1
  O  O69  1  0.46538518  0.84427967  0.48660896  1
  O  O70  1  0.46538518  0.65572033  0.98660896  1
  O  O71  1  0.25837850  0.34072635  0.59519208  1
  O  O72  1  0.88314940  0.14688831  0.69055217  1
  O  O73  1  0.26980403  0.58343065  0.06191515  1
  O  O74  1  0.11206726  0.04703662  0.37477762  1
  O  O75  1  0.22824550  0.00442577  0.21564067  1
  O  O76  1  0.71462627  0.46599285  0.75694794  1
  O  O77  1  0.77175450  0.50442577  0.28435933  1
  O  O78  1  0.68574521  0.06338620  0.62159342  1
  O  O79  1  0.88793274  0.95296338  0.62522238  1
  O  O80  1  0.88314940  0.35311169  0.19055217  1
  O  O81  1  0.31425479  0.93661380  0.37840658  1
  O  O82  1  0.77175450  0.99557423  0.78435933  1
  O  O83  1  0.22824550  0.49557423  0.71564067  1
  O  O84  1  0.44263109  0.83307328  0.67087014  1
  O  O85  1  0.73019597  0.08343065  0.43808485  1
  O  O86  1  0.17143018  0.30051001  0.75804979  1
  O  O87  1  0.16820931  0.65991728  0.35730132  1
  O  O88  1  0.74162150  0.65927365  0.40480792  1
  O  O89  1  0.21469113  0.02862102  0.91081218  1
  O  O90  1  0.11690435  0.24302315  0.43172179  1
  O  O91  1  0.31425479  0.56338620  0.87840658  1
  O  O92  1  0.21469113  0.47137898  0.41081218  1
  O  O93  1  0.82856982  0.80051001  0.74195021  1
  O  O94  1  0.73019597  0.41656935  0.93808485  1
  O  O95  1  0.77566275  0.27079121  0.80989374  1
  O  O96  1  0.25837850  0.15927365  0.09519208  1
  O  O97  1  0.88309565  0.74302315  0.06827821  1
  O  O98  1  0.55736891  0.16692672  0.32912986  1
  O  O99  1  0.74162150  0.84072635  0.90480792  1
  O  O100  1  0.53461482  0.34427967  0.01339104  1
  O  O101  1  0.55736891  0.33307328  0.82912986  1
  O  O102  1  0.78530887  0.52862102  0.58918782  1
  O  O103  1  0.39135135  0.22682878  0.90959342  1
  O  O104  1  0.39135135  0.27317122  0.40959342  1
  O  O105  1  0.17143018  0.19948999  0.25804979  1
  O  O106  1  0.44263109  0.66692672  0.17087014  1
  O  O107  1  0.60864865  0.72682878  0.59040658  1
