# generated using pymatgen
data_K3LiSiO4
_symmetry_space_group_name_H-M   'P 1'
_cell_length_a   9.87634414
_cell_length_b   11.46497782
_cell_length_c   11.46836285
_cell_angle_alpha   117.29785212
_cell_angle_beta   90.00000000
_cell_angle_gamma   90.00000000
_symmetry_Int_Tables_number   1
_chemical_formula_structural   K3LiSiO4
_chemical_formula_sum   'K24 Li8 Si8 O32'
_cell_volume   1153.96860177
_cell_formula_units_Z   8
loop_
 _symmetry_equiv_pos_site_id
 _symmetry_equiv_pos_as_xyz
  1  'x, y, z'
loop_
 _atom_site_type_symbol
 _atom_site_label
 _atom_site_symmetry_multiplicity
 _atom_site_fract_x
 _atom_site_fract_y
 _atom_site_fract_z
 _atom_site_occupancy
  K  K0  1  0.08232154  0.96364569  0.10909227  1
  K  K1  1  0.91862107  0.41115603  0.06002522  1
  K  K2  1  0.41862107  0.08884397  0.43997478  1
  K  K3  1  0.22936227  0.97343342  0.65911777  1
  K  K4  1  0.72936227  0.52656658  0.84088223  1
  K  K5  1  0.91139648  0.88906647  0.54306787  1
  K  K6  1  0.74158694  0.34211820  0.52618606  1
  K  K7  1  0.24158694  0.15788180  0.97381394  1
  K  K8  1  0.08860352  0.11093353  0.45693213  1
  K  K9  1  0.91236483  0.57020287  0.40586655  1
  K  K10  1  0.58860352  0.38906647  0.04306787  1
  K  K11  1  0.41139648  0.61093353  0.95693213  1
  K  K12  1  0.58763517  0.07020287  0.90586655  1
  K  K13  1  0.58232154  0.53635431  0.39090773  1
  K  K14  1  0.41767846  0.46364569  0.60909227  1
  K  K15  1  0.08137893  0.58884397  0.93997478  1
  K  K16  1  0.27063773  0.47343342  0.15911777  1
  K  K17  1  0.25841306  0.65788180  0.47381394  1
  K  K18  1  0.75841306  0.84211820  0.02618606  1
  K  K19  1  0.91767846  0.03635431  0.89090773  1
  K  K20  1  0.41236483  0.92979713  0.09413345  1
  K  K21  1  0.58137893  0.91115603  0.56002522  1
  K  K22  1  0.77063773  0.02656658  0.34088223  1
  K  K23  1  0.08763517  0.42979713  0.59413345  1
  Li  Li24  1  0.13654344  0.27006830  0.28257165  1
  Li  Li25  1  0.87933155  0.71981642  0.23522618  1
  Li  Li26  1  0.62066845  0.21981642  0.73522618  1
  Li  Li27  1  0.36345656  0.77006830  0.78257165  1
  Li  Li28  1  0.63654344  0.22993170  0.21742835  1
  Li  Li29  1  0.86345656  0.72993170  0.71742835  1
  Li  Li30  1  0.37933155  0.78018358  0.26477382  1
  Li  Li31  1  0.12066845  0.28018358  0.76477382  1
  Si  Si32  1  0.12669436  0.78413988  0.26630839  1
  Si  Si33  1  0.61066010  0.74070997  0.71829504  1
  Si  Si34  1  0.38933990  0.25929003  0.28170496  1
  Si  Si35  1  0.62669436  0.71586012  0.23369161  1
  Si  Si36  1  0.88933990  0.24070997  0.21829504  1
  Si  Si37  1  0.37330564  0.28413988  0.76630839  1
  Si  Si38  1  0.11066010  0.75929003  0.78170496  1
  Si  Si39  1  0.87330564  0.21586012  0.73369161  1
  O  O40  1  0.94173992  0.35862922  0.75673036  1
  O  O41  1  0.71920350  0.85950543  0.73832778  1
  O  O42  1  0.47826795  0.73473351  0.62608401  1
  O  O43  1  0.04268386  0.73183030  0.63750023  1
  O  O44  1  0.21920350  0.64049457  0.76167222  1
  O  O45  1  0.95731614  0.26816970  0.36249977  1
  O  O46  1  0.72553871  0.64857851  0.10128187  1
  O  O47  1  0.54268386  0.76816970  0.86249977  1
  O  O48  1  0.05826008  0.64137078  0.24326964  1
  O  O49  1  0.49346473  0.62216419  0.22141999  1
  O  O50  1  0.22874999  0.76214692  0.14231610  1
  O  O51  1  0.55826008  0.85862922  0.25673036  1
  O  O52  1  0.20177881  0.89694984  0.84967502  1
  O  O53  1  0.77125001  0.23785308  0.85768390  1
  O  O54  1  0.72874999  0.73785308  0.35768390  1
  O  O55  1  0.45731614  0.23183030  0.13750023  1
  O  O56  1  0.70177881  0.60305016  0.65032498  1
  O  O57  1  0.97826795  0.76526649  0.87391599  1
  O  O58  1  0.22553871  0.85142149  0.39871813  1
  O  O59  1  0.27446129  0.35142149  0.89871813  1
  O  O60  1  0.79822119  0.10305016  0.15032498  1
  O  O61  1  0.78079650  0.35950543  0.23832778  1
  O  O62  1  0.28079650  0.14049457  0.26167222  1
  O  O63  1  0.02173205  0.23473351  0.12608401  1
  O  O64  1  0.50653527  0.37783581  0.77858001  1
  O  O65  1  0.00653527  0.12216419  0.72141999  1
  O  O66  1  0.52173205  0.26526649  0.37391599  1
  O  O67  1  0.77446129  0.14857851  0.60128187  1
  O  O68  1  0.44173992  0.14137078  0.74326964  1
  O  O69  1  0.99346473  0.87783581  0.27858001  1
  O  O70  1  0.27125001  0.26214692  0.64231610  1
  O  O71  1  0.29822119  0.39694984  0.34967502  1
