# generated using pymatgen
data_Ba2Nd2Si4O13
_symmetry_space_group_name_H-M   'P 1'
_cell_length_a   6.72460249
_cell_length_b   9.03183657
_cell_length_c   10.22836397
_cell_angle_alpha   86.48488791
_cell_angle_beta   73.58255715
_cell_angle_gamma   86.45483883
_symmetry_Int_Tables_number   1
_chemical_formula_structural   Ba2Nd2Si4O13
_chemical_formula_sum   'Ba4 Nd4 Si8 O26'
_cell_volume   594.13225097
_cell_formula_units_Z   2
loop_
 _symmetry_equiv_pos_site_id
 _symmetry_equiv_pos_as_xyz
  1  'x, y, z'
loop_
 _atom_site_type_symbol
 _atom_site_label
 _atom_site_symmetry_multiplicity
 _atom_site_fract_x
 _atom_site_fract_y
 _atom_site_fract_z
 _atom_site_occupancy
  Ba  Ba0  1  0.27078048  0.17033001  0.44399512  1
  Ba  Ba1  1  0.74455365  0.67268563  0.92551667  1
  Ba  Ba2  1  0.25544635  0.32731437  0.07448333  1
  Ba  Ba3  1  0.72921952  0.82966999  0.55600488  1
  Nd  Nd4  1  0.19403893  0.87977607  0.10165132  1
  Nd  Nd5  1  0.80596107  0.12022393  0.89834868  1
  Nd  Nd6  1  0.31069285  0.60808406  0.39577655  1
  Nd  Nd7  1  0.68930715  0.39191594  0.60422345  1
  Si  Si8  1  0.10502029  0.43983140  0.68709014  1
  Si  Si9  1  0.30161071  0.62222999  0.84488883  1
  Si  Si10  1  0.82256832  0.11395739  0.32381616  1
  Si  Si11  1  0.89497971  0.56016860  0.31290986  1
  Si  Si12  1  0.38915606  0.06690831  0.82341103  1
  Si  Si13  1  0.17743168  0.88604261  0.67618384  1
  Si  Si14  1  0.69838929  0.37777001  0.15511117  1
  Si  Si15  1  0.61084394  0.93309169  0.17658897  1
  O  O16  1  0.16804942  0.77309390  0.81174077  1
  O  O17  1  0.83809147  0.90497500  0.06473073  1
  O  O18  1  0.84992262  0.51585150  0.16566794  1
  O  O19  1  0.53053715  0.60350344  0.74020467  1
  O  O20  1  0.05339419  0.03834804  0.29647646  1
  O  O21  1  0.94660581  0.96165196  0.70352354  1
  O  O22  1  0.65196994  0.98435343  0.32163759  1
  O  O23  1  0.02892590  0.42506271  0.36851759  1
  O  O24  1  0.83195058  0.22690610  0.18825923  1
  O  O25  1  0.30400277  0.63029039  0.00197915  1
  O  O26  1  0.33080754  0.41401239  0.57430890  1
  O  O27  1  0.52840676  0.21395917  0.79577669  1
  O  O28  1  0.46946285  0.39649656  0.25979533  1
  O  O29  1  0.72065594  0.18430366  0.46975462  1
  O  O30  1  0.47159324  0.78604083  0.20422331  1
  O  O31  1  0.27934406  0.81569634  0.53024538  1
  O  O32  1  0.48314061  0.07087534  0.11950488  1
  O  O33  1  0.15007738  0.48414850  0.83433206  1
  O  O34  1  0.16190853  0.09502500  0.93526927  1
  O  O35  1  0.96835025  0.29220876  0.70843218  1
  O  O36  1  0.97107410  0.57493729  0.63148241  1
  O  O37  1  0.34803006  0.01564657  0.67836241  1
  O  O38  1  0.66919246  0.58598761  0.42569110  1
  O  O39  1  0.69599723  0.36970961  0.99802085  1
  O  O40  1  0.03164975  0.70779124  0.29156782  1
  O  O41  1  0.51685939  0.92912466  0.88049512  1
