# generated using pymatgen
data_Y2GeO5
_symmetry_space_group_name_H-M   'P 1'
_cell_length_a   6.91731615
_cell_length_b   8.26767336
_cell_length_c   9.82097617
_cell_angle_alpha   71.03296760
_cell_angle_beta   69.37987039
_cell_angle_gamma   65.27048414
_symmetry_Int_Tables_number   1
_chemical_formula_structural   Y2GeO5
_chemical_formula_sum   'Y8 Ge4 O20'
_cell_volume   466.92369806
_cell_formula_units_Z   4
loop_
 _symmetry_equiv_pos_site_id
 _symmetry_equiv_pos_as_xyz
  1  'x, y, z'
loop_
 _atom_site_type_symbol
 _atom_site_label
 _atom_site_symmetry_multiplicity
 _atom_site_fract_x
 _atom_site_fract_y
 _atom_site_fract_z
 _atom_site_occupancy
  Y  Y0  1  0.26449092  0.56207024  0.16232144  1
  Y  Y1  1  0.20636208  0.10500839  0.96566136  1
  Y  Y2  1  0.01111740  0.06207024  0.66232144  1
  Y  Y3  1  0.73550908  0.43792976  0.83767856  1
  Y  Y4  1  0.98888260  0.93792976  0.33767856  1
  Y  Y5  1  0.72296816  0.60500839  0.46566136  1
  Y  Y6  1  0.79363792  0.89499161  0.03433864  1
  Y  Y7  1  0.27703184  0.39499161  0.53433864  1
  Ge  Ge8  1  0.59025646  0.93815019  0.69211309  1
  Ge  Ge9  1  0.77948026  0.43815019  0.19211309  1
  Ge  Ge10  1  0.22051974  0.56184981  0.80788691  1
  Ge  Ge11  1  0.40974354  0.06184981  0.30788691  1
  O  O12  1  0.08098523  0.63623379  0.39687383  1
  O  O13  1  0.68015983  0.90982476  0.32386518  1
  O  O14  1  0.91384977  0.59017524  0.17613482  1
  O  O15  1  0.40902014  0.53483046  0.63289179  1
  O  O16  1  0.31984017  0.09017524  0.67613482  1
  O  O17  1  0.11409285  0.86376621  0.10312617  1
  O  O18  1  0.08615023  0.40982476  0.82386518  1
  O  O19  1  0.88590715  0.13623379  0.89687383  1
  O  O20  1  0.62932554  0.53476249  0.05542791  1
  O  O21  1  0.64873658  0.71615595  0.67612567  1
  O  O22  1  0.57674240  0.96516953  0.86710821  1
  O  O23  1  0.21951594  0.96523751  0.44457209  1
  O  O24  1  0.42325760  0.03483047  0.13289179  1
  O  O25  1  0.78048406  0.03476249  0.55542791  1
  O  O26  1  0.35126342  0.28384405  0.32387433  1
  O  O27  1  0.91901477  0.36376621  0.60312617  1
  O  O28  1  0.37067446  0.46523751  0.94457209  1
  O  O29  1  0.04101821  0.78384405  0.82387433  1
  O  O30  1  0.59097986  0.46516954  0.36710821  1
  O  O31  1  0.95898179  0.21615595  0.17612567  1
