# generated using pymatgen
data_Hg2PO3F
_symmetry_space_group_name_H-M   'P 1'
_cell_length_a   8.85208484
_cell_length_b   9.02679190
_cell_length_c   9.02679170
_cell_angle_alpha   64.37141203
_cell_angle_beta   60.63819136
_cell_angle_gamma   60.63819242
_symmetry_Int_Tables_number   1
_chemical_formula_structural   Hg2PO3F
_chemical_formula_sum   'Hg8 P4 O12 F4'
_cell_volume   530.06889316
_cell_formula_units_Z   4
loop_
 _symmetry_equiv_pos_site_id
 _symmetry_equiv_pos_as_xyz
  1  'x, y, z'
loop_
 _atom_site_type_symbol
 _atom_site_label
 _atom_site_symmetry_multiplicity
 _atom_site_fract_x
 _atom_site_fract_y
 _atom_site_fract_z
 _atom_site_occupancy
  Hg  Hg0  1  0.11931956  0.89837899  0.30647061  1
  Hg  Hg1  1  0.32416916  0.10162101  0.69352939  1
  Hg  Hg2  1  0.67583084  0.89837899  0.30647061  1
  Hg  Hg3  1  0.61931956  0.30647061  0.89837899  1
  Hg  Hg4  1  0.17583084  0.30647061  0.89837899  1
  Hg  Hg5  1  0.82416916  0.69352939  0.10162101  1
  Hg  Hg6  1  0.38068044  0.69352939  0.10162101  1
  Hg  Hg7  1  0.88068044  0.10162101  0.69352939  1
  P  P8  1  0.75841264  0.79027063  0.69290408  1
  P  P9  1  0.74158736  0.30709592  0.20972937  1
  P  P10  1  0.24158736  0.20972937  0.30709592  1
  P  P11  1  0.25841264  0.69290408  0.79027063  1
  O  O12  1  0.90790733  0.87400033  0.60134037  1
  O  O13  1  0.33121967  0.22753386  0.11002681  1
  O  O14  1  0.61675197  0.87400033  0.60134037  1
  O  O15  1  0.38324803  0.12599967  0.39865963  1
  O  O16  1  0.16878033  0.88997319  0.77246614  1
  O  O17  1  0.83121967  0.11002681  0.22753386  1
  O  O18  1  0.09209267  0.12599967  0.39865963  1
  O  O19  1  0.59209267  0.39865963  0.12599967  1
  O  O20  1  0.40790733  0.60134037  0.87400033  1
  O  O21  1  0.11675197  0.60134037  0.87400033  1
  O  O22  1  0.88324803  0.39865963  0.12599967  1
  O  O23  1  0.66878033  0.77246614  0.88997319  1
  F  F24  1  0.37005977  0.66319200  0.59668846  1
  F  F25  1  0.12994023  0.40331154  0.33680800  1
  F  F26  1  0.62994023  0.33680800  0.40331154  1
  F  F27  1  0.87005977  0.59668846  0.66319200  1
