# generated using pymatgen
data_K2U(WO5)2
_symmetry_space_group_name_H-M   'P 1'
_cell_length_a   7.70159565
_cell_length_b   8.78539733
_cell_length_c   14.33855676
_cell_angle_alpha   90.00000000
_cell_angle_beta   90.00000000
_cell_angle_gamma   90.00000000
_symmetry_Int_Tables_number   1
_chemical_formula_structural   K2U(WO5)2
_chemical_formula_sum   'K8 U4 W8 O40'
_cell_volume   970.16937462
_cell_formula_units_Z   4
loop_
 _symmetry_equiv_pos_site_id
 _symmetry_equiv_pos_as_xyz
  1  'x, y, z'
loop_
 _atom_site_type_symbol
 _atom_site_label
 _atom_site_symmetry_multiplicity
 _atom_site_fract_x
 _atom_site_fract_y
 _atom_site_fract_z
 _atom_site_occupancy
  K  K0  1  0.75000000  0.15546029  0.30165662  1
  K  K1  1  0.25000000  0.84453971  0.69834338  1
  K  K2  1  0.25000000  0.65546029  0.19834338  1
  K  K3  1  0.75000000  0.34453971  0.80165662  1
  K  K4  1  0.25000000  0.17395231  0.28376580  1
  K  K5  1  0.75000000  0.82604769  0.71623420  1
  K  K6  1  0.75000000  0.67395231  0.21623420  1
  K  K7  1  0.25000000  0.32604769  0.78376580  1
  U  U8  1  0.25000000  0.52499872  0.49609337  1
  U  U9  1  0.75000000  0.47500128  0.50390663  1
  U  U10  1  0.75000000  0.02499872  0.00390663  1
  U  U11  1  0.25000000  0.97500128  0.99609337  1
  W  W12  1  0.00120517  0.85361956  0.43100066  1
  W  W13  1  0.50120517  0.14638044  0.56899934  1
  W  W14  1  0.99879483  0.35361956  0.06899934  1
  W  W15  1  0.49879483  0.64638044  0.93100066  1
  W  W16  1  0.99879483  0.14638044  0.56899934  1
  W  W17  1  0.49879483  0.85361956  0.43100066  1
  W  W18  1  0.00120517  0.64638044  0.93100066  1
  W  W19  1  0.50120517  0.35361956  0.06899934  1
  O  O20  1  0.97227949  0.64735498  0.48448296  1
  O  O21  1  0.47227949  0.35264502  0.51551704  1
  O  O22  1  0.02772051  0.14735498  0.01551704  1
  O  O23  1  0.52772051  0.85264502  0.98448296  1
  O  O24  1  0.02772051  0.35264502  0.51551704  1
  O  O25  1  0.52772051  0.64735498  0.48448296  1
  O  O26  1  0.97227949  0.85264502  0.98448296  1
  O  O27  1  0.47227949  0.14735498  0.01551704  1
  O  O28  1  0.75000000  0.86685552  0.42202358  1
  O  O29  1  0.25000000  0.13314448  0.57797642  1
  O  O30  1  0.25000000  0.36685552  0.07797642  1
  O  O31  1  0.75000000  0.63314448  0.92202358  1
  O  O32  1  0.03206408  0.06753322  0.42391954  1
  O  O33  1  0.53206408  0.93246678  0.57608046  1
  O  O34  1  0.96793592  0.56753322  0.07608046  1
  O  O35  1  0.46793592  0.43246678  0.92391954  1
  O  O36  1  0.96793592  0.93246678  0.57608046  1
  O  O37  1  0.46793592  0.06753322  0.42391954  1
  O  O38  1  0.03206408  0.43246678  0.92391954  1
  O  O39  1  0.53206408  0.56753322  0.07608046  1
  O  O40  1  0.25000000  0.81003878  0.46484966  1
  O  O41  1  0.75000000  0.18996122  0.53515034  1
  O  O42  1  0.75000000  0.31003878  0.03515034  1
  O  O43  1  0.25000000  0.68996122  0.96484966  1
  O  O44  1  0.02802681  0.80943436  0.31037364  1
  O  O45  1  0.52802681  0.19056564  0.68962636  1
  O  O46  1  0.97197319  0.30943436  0.18962636  1
  O  O47  1  0.47197319  0.69056564  0.81037364  1
  O  O48  1  0.97197319  0.19056564  0.68962636  1
  O  O49  1  0.47197319  0.80943436  0.31037364  1
  O  O50  1  0.02802681  0.69056564  0.81037364  1
  O  O51  1  0.52802681  0.30943436  0.18962636  1
  O  O52  1  0.25000000  0.55729823  0.62228599  1
  O  O53  1  0.75000000  0.44270177  0.37771401  1
  O  O54  1  0.75000000  0.05729823  0.87771401  1
  O  O55  1  0.25000000  0.94270177  0.12228599  1
  O  O56  1  0.25000000  0.48778858  0.37009403  1
  O  O57  1  0.75000000  0.51221142  0.62990597  1
  O  O58  1  0.75000000  0.98778858  0.12990597  1
  O  O59  1  0.25000000  0.01221142  0.87009403  1
