# generated using pymatgen
data_Sr2FeBiPbO6
_symmetry_space_group_name_H-M   'P 1'
_cell_length_a   3.79766239
_cell_length_b   3.79766239
_cell_length_c   12.24307056
_cell_angle_alpha   81.07229170
_cell_angle_beta   81.07229170
_cell_angle_gamma   89.96535288
_symmetry_Int_Tables_number   1
_chemical_formula_structural   Sr2FeBiPbO6
_chemical_formula_sum   'Sr2 Fe1 Bi1 Pb1 O6'
_cell_volume   172.27016230
_cell_formula_units_Z   1
loop_
 _symmetry_equiv_pos_site_id
 _symmetry_equiv_pos_as_xyz
  1  'x, y, z'
loop_
 _atom_site_type_symbol
 _atom_site_label
 _atom_site_symmetry_multiplicity
 _atom_site_fract_x
 _atom_site_fract_y
 _atom_site_fract_z
 _atom_site_occupancy
  Sr  Sr0  1  0.91899880  0.91899880  0.16200241  1
  Sr  Sr1  1  0.07651482  0.07651482  0.84697036  1
  Fe  Fe2  1  0.49251422  0.49251422  0.01497155  1
  Bi  Bi3  1  0.69169044  0.69169044  0.61661912  1
  Pb  Pb4  1  0.30849701  0.30849701  0.38300598  1
  O  O5  1  0.80920309  0.80920309  0.38159382  1
  O  O6  1  0.18738832  0.18738832  0.62522337  1
  O  O7  1  0.40771416  0.40771416  0.18457169  1
  O  O8  1  0.60332799  0.60332799  0.79334402  1
  O  O9  1  0.50207558  0.00207558  0.99584885  1
  O  O10  1  0.00207558  0.50207558  0.99584885  1
