# generated using pymatgen
data_Ba8Sb6S17
_symmetry_space_group_name_H-M   'P 1'
_cell_length_a   11.61829666
_cell_length_b   14.01549409
_cell_length_c   22.88945486
_cell_angle_alpha   90.00000000
_cell_angle_beta   91.06845552
_cell_angle_gamma   90.00000000
_symmetry_Int_Tables_number   1
_chemical_formula_structural   Ba8Sb6S17
_chemical_formula_sum   'Ba32 Sb24 S68'
_cell_volume   3726.58306722
_cell_formula_units_Z   4
loop_
 _symmetry_equiv_pos_site_id
 _symmetry_equiv_pos_as_xyz
  1  'x, y, z'
loop_
 _atom_site_type_symbol
 _atom_site_label
 _atom_site_symmetry_multiplicity
 _atom_site_fract_x
 _atom_site_fract_y
 _atom_site_fract_z
 _atom_site_occupancy
  Ba  Ba0  1  0.24280778  0.84239762  0.92973260  1
  Ba  Ba1  1  0.24280778  0.15760238  0.42973260  1
  Ba  Ba2  1  0.00000000  0.34323168  0.75000000  1
  Ba  Ba3  1  0.75969888  0.49516596  0.10145203  1
  Ba  Ba4  1  0.20082105  0.51602084  0.61815001  1
  Ba  Ba5  1  0.79917895  0.51602084  0.88184999  1
  Ba  Ba6  1  0.24030112  0.50483404  0.89854797  1
  Ba  Ba7  1  0.82043064  0.16169821  0.88426623  1
  Ba  Ba8  1  0.79917895  0.48397916  0.38184999  1
  Ba  Ba9  1  0.50000000  0.49718614  0.75000000  1
  Ba  Ba10  1  0.82043064  0.83830179  0.38426623  1
  Ba  Ba11  1  0.85708948  0.84135129  0.88551569  1
  Ba  Ba12  1  0.17956936  0.16169821  0.61573377  1
  Ba  Ba13  1  0.14291052  0.15864871  0.11448431  1
  Ba  Ba14  1  0.24030112  0.49516596  0.39854797  1
  Ba  Ba15  1  0.50000000  0.16930961  0.75000000  1
  Ba  Ba16  1  0.50000000  0.83069039  0.25000000  1
  Ba  Ba17  1  0.22872228  0.16911903  0.91027675  1
  Ba  Ba18  1  0.85708948  0.15864871  0.38551569  1
  Ba  Ba19  1  0.20082105  0.48397916  0.11815001  1
  Ba  Ba20  1  0.75719222  0.84239762  0.57026740  1
  Ba  Ba21  1  0.50000000  0.15303508  0.25000000  1
  Ba  Ba22  1  0.75719222  0.15760238  0.07026740  1
  Ba  Ba23  1  0.00000000  0.65676832  0.25000000  1
  Ba  Ba24  1  0.14291052  0.84135129  0.61448431  1
  Ba  Ba25  1  0.17956936  0.83830179  0.11573377  1
  Ba  Ba26  1  0.50000000  0.50281386  0.25000000  1
  Ba  Ba27  1  0.75969888  0.50483404  0.60145203  1
  Ba  Ba28  1  0.77127772  0.16911903  0.58972325  1
  Ba  Ba29  1  0.77127772  0.83088097  0.08972325  1
  Ba  Ba30  1  0.22872228  0.83088097  0.41027675  1
  Ba  Ba31  1  0.50000000  0.84696492  0.75000000  1
  Sb  Sb32  1  0.56188660  0.30834459  0.42431567  1
  Sb  Sb33  1  0.56805155  0.01712631  0.42485308  1
  Sb  Sb34  1  0.15837285  0.99842094  0.27975478  1
  Sb  Sb35  1  0.53566516  0.33258823  0.90897615  1
  Sb  Sb36  1  0.98036811  0.34702999  0.99419912  1
  Sb  Sb37  1  0.84162715  0.99842094  0.22024522  1
  Sb  Sb38  1  0.43811340  0.30834459  0.07568433  1
  Sb  Sb39  1  0.84565550  0.32087281  0.22320050  1
  Sb  Sb40  1  0.43194845  0.01712631  0.07514692  1
  Sb  Sb41  1  0.56188660  0.69165541  0.92431567  1
  Sb  Sb42  1  0.53566516  0.66741177  0.40897615  1
  Sb  Sb43  1  0.46433484  0.66741177  0.09102385  1
  Sb  Sb44  1  0.43194845  0.98287369  0.57514692  1
  Sb  Sb45  1  0.15434450  0.32087281  0.27679950  1
  Sb  Sb46  1  0.01963189  0.65297001  0.00580088  1
  Sb  Sb47  1  0.56805155  0.98287369  0.92485308  1
  Sb  Sb48  1  0.84565550  0.67912719  0.72320050  1
  Sb  Sb49  1  0.15434450  0.67912719  0.77679950  1
  Sb  Sb50  1  0.98036811  0.65297001  0.49419912  1
  Sb  Sb51  1  0.15837285  0.00157906  0.77975478  1
  Sb  Sb52  1  0.01963189  0.34702999  0.50580088  1
  Sb  Sb53  1  0.43811340  0.69165541  0.57568433  1
  Sb  Sb54  1  0.46433484  0.33258823  0.59102385  1
  Sb  Sb55  1  0.84162715  0.00157906  0.72024522  1
  S  S56  1  0.46325259  0.84724067  0.04948999  1
  S  S57  1  0.73620274  0.33239040  0.48543456  1
  S  S58  1  0.95489526  0.00285038  0.62962196  1
  S  S59  1  0.34474752  0.99261062  0.83334536  1
  S  S60  1  0.00717985  0.17437321  0.50302504  1
  S  S61  1  0.98255230  0.64280848  0.11352117  1
  S  S62  1  0.66294959  0.71071656  0.83183067  1
  S  S63  1  0.24760112  0.02086972  0.02041726  1
  S  S64  1  0.00717985  0.82562679  0.00302504  1
  S  S65  1  0.82416314  0.17100542  0.74002880  1
  S  S66  1  0.66294959  0.28928344  0.33183067  1
  S  S67  1  0.03633204  0.33442953  0.36692437  1
  S  S68  1  0.76816121  0.64415192  0.48777843  1
  S  S69  1  0.33705041  0.28928344  0.16816933  1
  S  S70  1  0.66413007  0.29532590  0.17033749  1
  S  S71  1  0.33220817  0.32744553  0.67280650  1
  S  S72  1  0.03633204  0.66557047  0.86692437  1
  S  S73  1  0.80588831  0.49030496  0.24215836  1
  S  S74  1  0.66779183  0.32744553  0.82719350  1
  S  S75  1  0.65525248  0.99261062  0.66665464  1
  S  S76  1  0.51345947  0.52556716  0.89732283  1
  S  S77  1  0.26379726  0.33239040  0.01456544  1
  S  S78  1  0.19411169  0.50969504  0.75784164  1
  S  S79  1  0.75239888  0.02086972  0.47958274  1
  S  S80  1  0.62775893  0.32493021  0.66002876  1
  S  S81  1  0.26379726  0.66760960  0.51456544  1
  S  S82  1  0.33220817  0.67255447  0.17280650  1
  S  S83  1  0.82416314  0.82899458  0.24002880  1
  S  S84  1  0.65525248  0.00738938  0.16665464  1
  S  S85  1  0.65933263  0.00212668  0.32945638  1
  S  S86  1  0.48654053  0.52556716  0.60267717  1
  S  S87  1  0.33586993  0.29532590  0.32966251  1
  S  S88  1  0.99282015  0.17437321  0.99697496  1
  S  S89  1  0.73620274  0.66760960  0.98543456  1
  S  S90  1  0.33586993  0.70467410  0.82966251  1
  S  S91  1  0.62775893  0.67506979  0.16002876  1
  S  S92  1  0.53674741  0.15275933  0.95051001  1
  S  S93  1  0.53674741  0.84724067  0.45051001  1
  S  S94  1  0.66779183  0.67255447  0.32719350  1
  S  S95  1  0.48654053  0.47443284  0.10267717  1
  S  S96  1  0.24760112  0.97913028  0.52041726  1
  S  S97  1  0.76816121  0.35584808  0.98777843  1
  S  S98  1  0.23183879  0.35584808  0.51222157  1
  S  S99  1  0.46325259  0.15275933  0.54948999  1
  S  S100  1  0.34066737  0.99787332  0.67054362  1
  S  S101  1  0.37224107  0.32493021  0.83997124  1
  S  S102  1  0.80588831  0.50969504  0.74215836  1
  S  S103  1  0.34474752  0.00738938  0.33334536  1
  S  S104  1  0.17583686  0.82899458  0.25997120  1
  S  S105  1  0.95489526  0.99714962  0.12962196  1
  S  S106  1  0.96366796  0.66557047  0.63307563  1
  S  S107  1  0.17583686  0.17100542  0.75997120  1
  S  S108  1  0.99282015  0.82562679  0.49697496  1
  S  S109  1  0.98255230  0.35719152  0.61352117  1
  S  S110  1  0.23183879  0.64415192  0.01222157  1
  S  S111  1  0.65933263  0.99787332  0.82945638  1
  S  S112  1  0.75239888  0.97913028  0.97958274  1
  S  S113  1  0.19411169  0.49030496  0.25784164  1
  S  S114  1  0.96366796  0.33442953  0.13307563  1
  S  S115  1  0.37224107  0.67506979  0.33997124  1
  S  S116  1  0.51345947  0.47443284  0.39732283  1
  S  S117  1  0.01744770  0.64280848  0.38647883  1
  S  S118  1  0.66413007  0.70467410  0.67033749  1
  S  S119  1  0.34066737  0.00212668  0.17054362  1
  S  S120  1  0.33705041  0.71071656  0.66816933  1
  S  S121  1  0.04510474  0.99714962  0.37037804  1
  S  S122  1  0.01744770  0.35719152  0.88647883  1
  S  S123  1  0.04510474  0.00285038  0.87037804  1
