# generated using pymatgen
data_KAu(SO4)2
_symmetry_space_group_name_H-M   'P 1'
_cell_length_a   6.83856393
_cell_length_b   6.83856389
_cell_length_c   9.37107729
_cell_angle_alpha   97.10347074
_cell_angle_beta   108.84193016
_cell_angle_gamma   112.82910835
_symmetry_Int_Tables_number   1
_chemical_formula_structural   KAu(SO4)2
_chemical_formula_sum   'K2 Au2 S4 O16'
_cell_volume   366.37166252
_cell_formula_units_Z   2
loop_
 _symmetry_equiv_pos_site_id
 _symmetry_equiv_pos_as_xyz
  1  'x, y, z'
loop_
 _atom_site_type_symbol
 _atom_site_label
 _atom_site_symmetry_multiplicity
 _atom_site_fract_x
 _atom_site_fract_y
 _atom_site_fract_z
 _atom_site_occupancy
  K  K0  1  0.23112723  0.98112723  0.25000000  1
  K  K1  1  0.76887277  0.01887277  0.75000000  1
  Au  Au2  1  0.00000000  0.50000000  0.50000000  1
  Au  Au3  1  0.50000000  0.50000000  0.00000000  1
  S  S4  1  0.81981674  0.28484632  0.14088798  1
  S  S5  1  0.64395833  0.67892876  0.35911202  1
  S  S6  1  0.35604167  0.32107124  0.64088798  1
  S  S7  1  0.18018326  0.71515368  0.85911202  1
  O  O8  1  0.47523394  0.45112095  0.31933248  1
  O  O9  1  0.71006501  0.72264754  0.21697265  1
  O  O10  1  0.93483169  0.17313338  0.08534215  1
  O  O11  1  0.88107660  0.73266273  0.49140047  1
  O  O12  1  0.06516831  0.82686662  0.91465785  1
  O  O13  1  0.58779123  0.84948954  0.41465785  1
  O  O14  1  0.28993499  0.27735246  0.78302735  1
  O  O15  1  0.25873774  0.61032387  0.99140047  1
  O  O16  1  0.99432511  0.50690764  0.71697265  1
  O  O17  1  0.74126226  0.38967613  0.00859953  1
  O  O18  1  0.00567489  0.49309236  0.28302735  1
  O  O19  1  0.52476606  0.54887905  0.68066752  1
  O  O20  1  0.36821153  0.84409854  0.81933248  1
  O  O21  1  0.63178847  0.15590146  0.18066752  1
  O  O22  1  0.41220877  0.15051046  0.58534215  1
  O  O23  1  0.11892340  0.26733727  0.50859953  1
