# generated using pymatgen
data_NaNiF3
_symmetry_space_group_name_H-M   'P 1'
_cell_length_a   5.41325853
_cell_length_b   5.59947519
_cell_length_c   7.76890591
_cell_angle_alpha   90.00000000
_cell_angle_beta   90.00000000
_cell_angle_gamma   90.00000000
_symmetry_Int_Tables_number   1
_chemical_formula_structural   NaNiF3
_chemical_formula_sum   'Na4 Ni4 F12'
_cell_volume   235.48646771
_cell_formula_units_Z   4
loop_
 _symmetry_equiv_pos_site_id
 _symmetry_equiv_pos_as_xyz
  1  'x, y, z'
loop_
 _atom_site_type_symbol
 _atom_site_label
 _atom_site_symmetry_multiplicity
 _atom_site_fract_x
 _atom_site_fract_y
 _atom_site_fract_z
 _atom_site_occupancy
  F  F0  1  0.69717949  0.29913377  0.44610868  1
  F  F1  1  0.19717949  0.20086623  0.55389132  1
  F  F2  1  0.80282051  0.79913377  0.05389132  1
  F  F3  1  0.30282051  0.70086623  0.94610868  1
  F  F4  1  0.30282051  0.70086623  0.55389132  1
  F  F5  1  0.80282051  0.79913377  0.44610868  1
  F  F6  1  0.19717949  0.20086623  0.94610868  1
  F  F7  1  0.69717949  0.29913377  0.05389132  1
  F  F8  1  0.10333869  0.46464105  0.25000000  1
  F  F9  1  0.60333869  0.03535895  0.75000000  1
  F  F10  1  0.39666131  0.96464105  0.25000000  1
  F  F11  1  0.89666131  0.53535895  0.75000000  1
  Na  Na12  1  0.01578765  0.94281811  0.75000000  1
  Na  Na13  1  0.51578765  0.55718189  0.25000000  1
  Na  Na14  1  0.48421235  0.44281811  0.75000000  1
  Na  Na15  1  0.98421235  0.05718189  0.25000000  1
  Ni  Ni16  1  0.50000000  0.00000000  0.50000000  1
  Ni  Ni17  1  0.00000000  0.50000000  0.50000000  1
  Ni  Ni18  1  0.00000000  0.50000000  0.00000000  1
  Ni  Ni19  1  0.50000000  0.00000000  0.00000000  1
