# generated using pymatgen
data_KNaMg2Si4(O5F)2
_symmetry_space_group_name_H-M   'P 1'
_cell_length_a   5.30965830
_cell_length_b   5.30965795
_cell_length_c   10.42862997
_cell_angle_alpha   95.69245689
_cell_angle_beta   95.69245671
_cell_angle_gamma   119.49131580
_symmetry_Int_Tables_number   1
_chemical_formula_structural   KNaMg2Si4(O5F)2
_chemical_formula_sum   'K1 Na1 Mg2 Si4 O10 F2'
_cell_volume   250.90607531
_cell_formula_units_Z   1
loop_
 _symmetry_equiv_pos_site_id
 _symmetry_equiv_pos_as_xyz
  1  'x, y, z'
loop_
 _atom_site_type_symbol
 _atom_site_label
 _atom_site_symmetry_multiplicity
 _atom_site_fract_x
 _atom_site_fract_y
 _atom_site_fract_z
 _atom_site_occupancy
  K  K0  1  0.50000000  0.50000000  0.00000000  1
  Na  Na1  1  0.00000000  0.00000000  0.50000000  1
  Mg  Mg2  1  0.33401789  0.66598211  0.50000000  1
  Mg  Mg3  1  0.66598211  0.33401789  0.50000000  1
  Si  Si4  1  0.74877265  0.08895968  0.77260533  1
  Si  Si5  1  0.91104032  0.25122735  0.22739467  1
  Si  Si6  1  0.08895968  0.74877265  0.77260533  1
  Si  Si7  1  0.25122735  0.91104032  0.22739467  1
  O  O8  1  0.04104127  0.67760300  0.61653764  1
  O  O9  1  0.94804152  0.94804152  0.82910629  1
  O  O10  1  0.44448906  0.93932152  0.83874242  1
  O  O11  1  0.55551094  0.06067848  0.16125758  1
  O  O12  1  0.95895873  0.32239700  0.38346236  1
  O  O13  1  0.05195848  0.05195848  0.17089371  1
  O  O14  1  0.67760300  0.04104127  0.61653764  1
  O  O15  1  0.06067848  0.55551094  0.16125758  1
  O  O16  1  0.32239700  0.95895873  0.38346236  1
  O  O17  1  0.93932152  0.44448906  0.83874242  1
  F  F18  1  0.59474094  0.59474094  0.39259472  1
  F  F19  1  0.40525906  0.40525906  0.60740528  1
