# generated using pymatgen
data_Ba8B5N10F
_symmetry_space_group_name_H-M   'P 1'
_cell_length_a   4.25956368
_cell_length_b   21.14171090
_cell_length_c   21.22529632
_cell_angle_alpha   91.73286404
_cell_angle_beta   90.01587468
_cell_angle_gamma   93.10959917
_symmetry_Int_Tables_number   1
_chemical_formula_structural   Ba8B5N10F
_chemical_formula_sum   'Ba32 B20 N40 F4'
_cell_volume   1907.74190978
_cell_formula_units_Z   4
loop_
 _symmetry_equiv_pos_site_id
 _symmetry_equiv_pos_as_xyz
  1  'x, y, z'
loop_
 _atom_site_type_symbol
 _atom_site_label
 _atom_site_symmetry_multiplicity
 _atom_site_fract_x
 _atom_site_fract_y
 _atom_site_fract_z
 _atom_site_occupancy
  Ba  Ba0  1  0.22040296  0.49049411  0.41661753  1
  Ba  Ba1  1  0.33105257  0.19701740  0.88383799  1
  Ba  Ba2  1  0.12490483  0.66014582  0.20625683  1
  Ba  Ba3  1  0.35467913  0.18099436  0.49631717  1
  Ba  Ba4  1  0.09173386  0.66980796  0.41438754  1
  Ba  Ba5  1  0.11790636  0.69356800  0.60962837  1
  Ba  Ba6  1  0.07514222  0.70461631  0.80428829  1
  Ba  Ba7  1  0.37614166  0.16840354  0.07834116  1
  Ba  Ba8  1  0.62385834  0.83159646  0.92165884  1
  Ba  Ba9  1  0.64532087  0.81900564  0.50368283  1
  Ba  Ba10  1  0.88209364  0.30643200  0.39037163  1
  Ba  Ba11  1  0.13160949  0.67982946  0.99887655  1
  Ba  Ba12  1  0.29042932  0.52696621  0.74952959  1
  Ba  Ba13  1  0.06087684  0.02377453  0.66313112  1
  Ba  Ba14  1  0.86839051  0.32017054  0.00112345  1
  Ba  Ba15  1  0.50000000  0.00000000  0.50000000  1
  Ba  Ba16  1  0.87509517  0.33985418  0.79374317  1
  Ba  Ba17  1  0.21340793  0.48595242  0.07958716  1
  Ba  Ba18  1  0.93912316  0.97622547  0.33686888  1
  Ba  Ba19  1  0.78659207  0.51404758  0.92041284  1
  Ba  Ba20  1  0.77959704  0.50950589  0.58338247  1
  Ba  Ba21  1  0.70957068  0.47303379  0.25047041  1
  Ba  Ba22  1  0.45563120  0.98146913  0.16529793  1
  Ba  Ba23  1  0.66894743  0.80298260  0.11616201  1
  Ba  Ba24  1  0.38012833  0.16041533  0.29096748  1
  Ba  Ba25  1  0.63320875  0.79754486  0.30766915  1
  Ba  Ba26  1  0.36679125  0.20245514  0.69233085  1
  Ba  Ba27  1  0.54436880  0.01853087  0.83470207  1
  Ba  Ba28  1  0.90826614  0.33019204  0.58561246  1
  Ba  Ba29  1  0.92485778  0.29538369  0.19571171  1
  Ba  Ba30  1  0.00000000  0.00000000  0.00000000  1
  Ba  Ba31  1  0.61987167  0.83958467  0.70903252  1
  B  B32  1  0.63832114  0.61169952  0.32588451  1
  B  B33  1  0.50061097  0.64457194  0.88830968  1
  B  B34  1  0.09546710  0.88813671  0.83831432  1
  B  B35  1  0.33082579  0.35131813  0.29742889  1
  B  B36  1  0.07943952  0.85211573  0.21656086  1
  B  B37  1  0.34232740  0.38139680  0.92044953  1
  B  B38  1  0.50512850  0.36940888  0.48404350  1
  B  B39  1  0.49938903  0.35542806  0.11169032  1
  B  B40  1  0.09359055  0.88097809  0.59018873  1
  B  B41  1  0.73831432  0.13367674  0.96808424  1
  B  B42  1  0.90453290  0.11186329  0.16168568  1
  B  B43  1  0.75714118  0.14207830  0.59772441  1
  B  B44  1  0.92056048  0.14788427  0.78343914  1
  B  B45  1  0.26168568  0.86632326  0.03191576  1
  B  B46  1  0.24285882  0.85792170  0.40227559  1
  B  B47  1  0.49487150  0.63059112  0.51595650  1
  B  B48  1  0.66917421  0.64868187  0.70257111  1
  B  B49  1  0.65767260  0.61860320  0.07955047  1
  B  B50  1  0.36167886  0.38830048  0.67411549  1
  B  B51  1  0.90640945  0.11902191  0.40981127  1
  N  N52  1  0.37053779  0.31017555  0.48959957  1
  N  N53  1  0.40538907  0.32646300  0.88986927  1
  N  N54  1  0.12237906  0.80889339  0.01619603  1
  N  N55  1  0.19175579  0.40646220  0.30610897  1
  N  N56  1  0.67420607  0.40787780  0.12909117  1
  N  N57  1  0.58622910  0.66973748  0.30374388  1
  N  N58  1  0.00307223  0.06676705  0.43711289  1
  N  N59  1  0.31191525  0.57750716  0.52293475  1
  N  N60  1  0.36367343  0.29843521  0.09334676  1
  N  N61  1  0.15431423  0.83327190  0.80706912  1
  N  N62  1  0.55451670  0.08144872  0.95398756  1
  N  N63  1  0.84079418  0.17651132  0.38800965  1
  N  N64  1  0.17035099  0.79170003  0.21187753  1
  N  N65  1  0.10850256  0.79902497  0.40842998  1
  N  N66  1  0.57792173  0.08851652  0.60522201  1
  N  N67  1  0.26312271  0.43110896  0.95731163  1
  N  N68  1  0.62946221  0.68982445  0.51040043  1
  N  N69  1  0.63632657  0.70156479  0.90665324  1
  N  N70  1  0.97679083  0.06233081  0.12373189  1
  N  N71  1  0.44548330  0.91855128  0.04601244  1
  N  N72  1  0.71960733  0.55879006  0.35410749  1
  N  N73  1  0.68808475  0.42249284  0.47706525  1
  N  N74  1  0.99692777  0.93323295  0.56288711  1
  N  N75  1  0.93686641  0.90721523  0.21945839  1
  N  N76  1  0.82964901  0.20829997  0.78812247  1
  N  N77  1  0.41377090  0.33026252  0.69625612  1
  N  N78  1  0.42207827  0.91148348  0.39477799  1
  N  N79  1  0.87762094  0.19110661  0.98380397  1
  N  N80  1  0.28039267  0.44120994  0.64589251  1
  N  N81  1  0.57050583  0.70802491  0.71051128  1
  N  N82  1  0.89149744  0.20097503  0.59157002  1
  N  N83  1  0.02320917  0.93766919  0.87626811  1
  N  N84  1  0.59461093  0.67353700  0.11013073  1
  N  N85  1  0.32579393  0.59212220  0.87090883  1
  N  N86  1  0.80824421  0.59353780  0.69389103  1
  N  N87  1  0.06313359  0.09278477  0.78054161  1
  N  N88  1  0.15920582  0.82348868  0.61199035  1
  N  N89  1  0.84568577  0.16672810  0.19293088  1
  N  N90  1  0.73687729  0.56889104  0.04268837  1
  N  N91  1  0.42949417  0.29197509  0.28948872  1
  F  F92  1  0.55244959  0.96549731  0.71683542  1
  F  F93  1  0.44755041  0.03450269  0.28316458  1
  F  F94  1  0.78428206  0.46576175  0.80189105  1
  F  F95  1  0.21571794  0.53423825  0.19810895  1
