# generated using pymatgen
data_CoSnF6
_symmetry_space_group_name_H-M   'P 1'
_cell_length_a   5.59181142
_cell_length_b   5.59181169
_cell_length_c   5.59181197
_cell_angle_alpha   56.96461966
_cell_angle_beta   56.96461787
_cell_angle_gamma   56.96461406
_symmetry_Int_Tables_number   1
_chemical_formula_structural   CoSnF6
_chemical_formula_sum   'Co1 Sn1 F6'
_cell_volume   114.98071556
_cell_formula_units_Z   1
loop_
 _symmetry_equiv_pos_site_id
 _symmetry_equiv_pos_as_xyz
  1  'x, y, z'
loop_
 _atom_site_type_symbol
 _atom_site_label
 _atom_site_symmetry_multiplicity
 _atom_site_fract_x
 _atom_site_fract_y
 _atom_site_fract_z
 _atom_site_occupancy
  Co  Co0  1  0.50000000  0.50000000  0.50000000  1
  Sn  Sn1  1  0.00000000  0.00000000  0.00000000  1
  F  F2  1  0.24633659  0.87076929  0.63596524  1
  F  F3  1  0.87076929  0.63596524  0.24633659  1
  F  F4  1  0.36403476  0.75366341  0.12923071  1
  F  F5  1  0.12923071  0.36403476  0.75366341  1
  F  F6  1  0.75366341  0.12923071  0.36403476  1
  F  F7  1  0.63596524  0.24633659  0.87076929  1
