# generated using pymatgen
data_NbTlCl4O
_symmetry_space_group_name_H-M   'P 1'
_cell_length_a   8.08540746
_cell_length_b   13.05887275
_cell_length_c   15.33044695
_cell_angle_alpha   90.00000000
_cell_angle_beta   90.00000000
_cell_angle_gamma   90.00000000
_symmetry_Int_Tables_number   1
_chemical_formula_structural   NbTlCl4O
_chemical_formula_sum   'Nb8 Tl8 Cl32 O8'
_cell_volume   1618.68528044
_cell_formula_units_Z   8
loop_
 _symmetry_equiv_pos_site_id
 _symmetry_equiv_pos_as_xyz
  1  'x, y, z'
loop_
 _atom_site_type_symbol
 _atom_site_label
 _atom_site_symmetry_multiplicity
 _atom_site_fract_x
 _atom_site_fract_y
 _atom_site_fract_z
 _atom_site_occupancy
  Nb  Nb0  1  0.69101599  0.75380419  0.40825786  1
  Nb  Nb1  1  0.80898401  0.75380419  0.90825786  1
  Nb  Nb2  1  0.69101599  0.25380419  0.09174214  1
  Nb  Nb3  1  0.30898401  0.24619581  0.59174214  1
  Nb  Nb4  1  0.30898401  0.74619581  0.90825786  1
  Nb  Nb5  1  0.80898401  0.25380419  0.59174214  1
  Nb  Nb6  1  0.19101599  0.24619581  0.09174214  1
  Nb  Nb7  1  0.19101599  0.74619581  0.40825786  1
  Tl  Tl8  1  0.01088534  0.39543271  0.84491287  1
  Tl  Tl9  1  0.48911466  0.89543271  0.15508713  1
  Tl  Tl10  1  0.51088534  0.60456729  0.65508713  1
  Tl  Tl11  1  0.01088534  0.89543271  0.65508713  1
  Tl  Tl12  1  0.51088534  0.10456729  0.84491287  1
  Tl  Tl13  1  0.48911466  0.39543271  0.34491287  1
  Tl  Tl14  1  0.98911466  0.10456729  0.34491287  1
  Tl  Tl15  1  0.98911466  0.60456729  0.15508713  1
  Cl  Cl16  1  0.14939962  0.18675965  0.94439667  1
  Cl  Cl17  1  0.14476279  0.07590530  0.14670595  1
  Cl  Cl18  1  0.85523721  0.42409470  0.64670595  1
  Cl  Cl19  1  0.14939962  0.68675965  0.55560333  1
  Cl  Cl20  1  0.85060038  0.31324035  0.44439667  1
  Cl  Cl21  1  0.64939962  0.31324035  0.94439667  1
  Cl  Cl22  1  0.67137965  0.57961170  0.46149045  1
  Cl  Cl23  1  0.15456813  0.31274830  0.23865391  1
  Cl  Cl24  1  0.82862035  0.07961170  0.53850955  1
  Cl  Cl25  1  0.15456813  0.81274830  0.26134609  1
  Cl  Cl26  1  0.67137965  0.07961170  0.03850955  1
  Cl  Cl27  1  0.34543187  0.31274830  0.73865391  1
  Cl  Cl28  1  0.35060038  0.18675965  0.44439667  1
  Cl  Cl29  1  0.14476279  0.57590530  0.35329405  1
  Cl  Cl30  1  0.84543187  0.18725170  0.73865391  1
  Cl  Cl31  1  0.35523721  0.57590530  0.85329405  1
  Cl  Cl32  1  0.35523721  0.07590530  0.64670595  1
  Cl  Cl33  1  0.65456813  0.68725170  0.26134609  1
  Cl  Cl34  1  0.65456813  0.18725170  0.23865391  1
  Cl  Cl35  1  0.17137965  0.92038830  0.46149045  1
  Cl  Cl36  1  0.85060038  0.81324035  0.05560333  1
  Cl  Cl37  1  0.32862035  0.42038830  0.53850955  1
  Cl  Cl38  1  0.17137965  0.42038830  0.03850955  1
  Cl  Cl39  1  0.84543187  0.68725170  0.76134609  1
  Cl  Cl40  1  0.85523721  0.92409470  0.85329405  1
  Cl  Cl41  1  0.64476279  0.42409470  0.14670595  1
  Cl  Cl42  1  0.32862035  0.92038830  0.96149045  1
  Cl  Cl43  1  0.35060038  0.68675965  0.05560333  1
  Cl  Cl44  1  0.64476279  0.92409470  0.35329405  1
  Cl  Cl45  1  0.82862035  0.57961170  0.96149045  1
  Cl  Cl46  1  0.34543187  0.81274830  0.76134609  1
  Cl  Cl47  1  0.64939962  0.81324035  0.55560333  1
  O  O48  1  0.58847800  0.25722450  0.59194052  1
  O  O49  1  0.91152200  0.75722450  0.40805948  1
  O  O50  1  0.41152200  0.24277550  0.09194052  1
  O  O51  1  0.08847800  0.24277550  0.59194052  1
  O  O52  1  0.58847800  0.75722450  0.90805948  1
  O  O53  1  0.41152200  0.74277550  0.40805948  1
  O  O54  1  0.91152200  0.25722450  0.09194052  1
  O  O55  1  0.08847800  0.74277550  0.90805948  1
