# generated using pymatgen
data_NaSrB5O9
_symmetry_space_group_name_H-M   'P 1'
_cell_length_a   6.56194982
_cell_length_b   8.17882569
_cell_length_c   14.10479978
_cell_angle_alpha   90.00000000
_cell_angle_beta   90.00000000
_cell_angle_gamma   106.69060145
_symmetry_Int_Tables_number   1
_chemical_formula_structural   NaSrB5O9
_chemical_formula_sum   'Na4 Sr4 B20 O36'
_cell_volume   725.09879284
_cell_formula_units_Z   4
loop_
 _symmetry_equiv_pos_site_id
 _symmetry_equiv_pos_as_xyz
  1  'x, y, z'
loop_
 _atom_site_type_symbol
 _atom_site_label
 _atom_site_symmetry_multiplicity
 _atom_site_fract_x
 _atom_site_fract_y
 _atom_site_fract_z
 _atom_site_occupancy
  Na  Na0  1  0.46566813  0.65012762  0.58409415  1
  Na  Na1  1  0.53433187  0.34987238  0.41590585  1
  Na  Na2  1  0.53433187  0.84987238  0.08409415  1
  Na  Na3  1  0.46566813  0.15012762  0.91590585  1
  Sr  Sr4  1  0.10206711  0.56078882  0.23004110  1
  Sr  Sr5  1  0.89793289  0.93921118  0.73004110  1
  Sr  Sr6  1  0.89793289  0.43921118  0.76995890  1
  Sr  Sr7  1  0.10206711  0.06078882  0.26995890  1
  B  B8  1  0.55770068  0.86960138  0.35448052  1
  B  B9  1  0.08954457  0.83382647  0.05650752  1
  B  B10  1  0.15832357  0.26729573  0.61249697  1
  B  B11  1  0.59024938  0.62554778  0.25288760  1
  B  B12  1  0.21454492  0.76733217  0.44888794  1
  B  B13  1  0.21454492  0.26733217  0.05111206  1
  B  B14  1  0.44229932  0.63039862  0.85448052  1
  B  B15  1  0.44229932  0.13039862  0.64551948  1
  B  B16  1  0.15832357  0.76729573  0.88750303  1
  B  B17  1  0.40975062  0.37445222  0.74711240  1
  B  B18  1  0.55770068  0.36960138  0.14551948  1
  B  B19  1  0.08954457  0.33382647  0.44349248  1
  B  B20  1  0.91045543  0.16617353  0.94349248  1
  B  B21  1  0.40975062  0.87445222  0.75288760  1
  B  B22  1  0.78545508  0.23266783  0.55111206  1
  B  B23  1  0.78545508  0.73266783  0.94888794  1
  B  B24  1  0.91045543  0.66617353  0.55650752  1
  B  B25  1  0.84167643  0.73270427  0.38750303  1
  B  B26  1  0.59024938  0.12554778  0.24711240  1
  B  B27  1  0.84167643  0.23270427  0.11249697  1
  O  O28  1  0.16156130  0.85403485  0.14610724  1
  O  O29  1  0.83843870  0.64596515  0.64610724  1
  O  O30  1  0.13137831  0.71038460  0.53764185  1
  O  O31  1  0.16156130  0.35403485  0.35389276  1
  O  O32  1  0.07959178  0.27783863  0.12521188  1
  O  O33  1  0.42787435  0.80293113  0.43928959  1
  O  O34  1  0.77338149  0.64975645  0.47924019  1
  O  O35  1  0.57212565  0.69706887  0.93928959  1
  O  O36  1  0.51383485  0.25457883  0.72660599  1
  O  O37  1  0.78204822  0.88837122  0.37259685  1
  O  O38  1  0.24679543  0.39620469  0.69075718  1
  O  O39  1  0.83843870  0.14596515  0.85389276  1
  O  O40  1  0.77338149  0.14975645  0.02075981  1
  O  O41  1  0.13137831  0.21038460  0.96235815  1
  O  O42  1  0.75320457  0.10379531  0.19075718  1
  O  O43  1  0.51383485  0.75457883  0.77339401  1
  O  O44  1  0.21795178  0.61162878  0.87259685  1
  O  O45  1  0.92040822  0.72216137  0.87478812  1
  O  O46  1  0.48616515  0.74542117  0.27339401  1
  O  O47  1  0.48533752  0.96976711  0.67380404  1
  O  O48  1  0.42787435  0.30293113  0.06071041  1
  O  O49  1  0.51466248  0.53023289  0.17380404  1
  O  O50  1  0.86862169  0.28961540  0.46235815  1
  O  O51  1  0.51466248  0.03023289  0.32619596  1
  O  O52  1  0.22661851  0.85024355  0.97924019  1
  O  O53  1  0.92040822  0.22216137  0.62521188  1
  O  O54  1  0.57212565  0.19706887  0.56071041  1
  O  O55  1  0.22661851  0.35024355  0.52075981  1
  O  O56  1  0.24679543  0.89620469  0.80924282  1
  O  O57  1  0.48616515  0.24542117  0.22660599  1
  O  O58  1  0.86862169  0.78961540  0.03764185  1
  O  O59  1  0.21795178  0.11162878  0.62740315  1
  O  O60  1  0.07959178  0.77783863  0.37478812  1
  O  O61  1  0.75320457  0.60379531  0.30924282  1
  O  O62  1  0.48533752  0.46976711  0.82619596  1
  O  O63  1  0.78204822  0.38837122  0.12740315  1
