# generated using pymatgen
data_Rb3Zr2P5S18
_symmetry_space_group_name_H-M   'P 1'
_cell_length_a   6.96110491
_cell_length_b   6.96110493
_cell_length_c   34.12899510
_cell_angle_alpha   93.68332696
_cell_angle_beta   93.68332697
_cell_angle_gamma   93.06736865
_symmetry_Int_Tables_number   1
_chemical_formula_structural   Rb3Zr2P5S18
_chemical_formula_sum   'Rb6 Zr4 P10 S36'
_cell_volume   1644.20219900
_cell_formula_units_Z   2
loop_
 _symmetry_equiv_pos_site_id
 _symmetry_equiv_pos_as_xyz
  1  'x, y, z'
loop_
 _atom_site_type_symbol
 _atom_site_label
 _atom_site_symmetry_multiplicity
 _atom_site_fract_x
 _atom_site_fract_y
 _atom_site_fract_z
 _atom_site_occupancy
  Rb  Rb0  1  0.45694597  0.27786067  0.86510433  1
  Rb  Rb1  1  0.27786067  0.45694597  0.36510433  1
  Rb  Rb2  1  0.67549480  0.91395121  0.25365882  1
  Rb  Rb3  1  0.91395121  0.67549480  0.75365882  1
  Rb  Rb4  1  0.98430416  0.79560959  0.56933860  1
  Rb  Rb5  1  0.79560959  0.98430416  0.06933860  1
  Zr  Zr6  1  0.53928696  0.12201972  0.46321412  1
  Zr  Zr7  1  0.12201972  0.53928696  0.96321412  1
  Zr  Zr8  1  0.51280531  0.37043765  0.65454422  1
  Zr  Zr9  1  0.37043765  0.51280531  0.15454422  1
  P  P10  1  0.74351306  0.17635582  0.37837145  1
  P  P11  1  1.00348455  0.07393116  0.94457330  1
  P  P12  1  0.55696223  0.27610781  0.55842811  1
  P  P13  1  0.17635582  0.74351306  0.87837145  1
  P  P14  1  0.18135847  0.63347065  0.23932873  1
  P  P15  1  0.41640260  0.82631796  0.67367635  1
  P  P16  1  0.82631796  0.41640260  0.17367635  1
  P  P17  1  0.63347065  0.18135847  0.73932873  1
  P  P18  1  0.27610781  0.55696223  0.05842811  1
  P  P19  1  0.07393116  1.00348455  0.44457330  1
  S  S20  1  0.19589254  0.79298287  0.19119964  1
  S  S21  1  0.43931165  0.38523035  0.72936164  1
  S  S22  1  0.60331388  0.21353856  0.16880502  1
  S  S23  1  0.04137816  0.31016277  0.14231277  1
  S  S24  1  0.33208561  0.39692701  0.58544217  1
  S  S25  1  0.27809904  0.80779714  0.44989313  1
  S  S26  1  0.75562022  0.28442529  0.32636099  1
  S  S27  1  0.79298287  0.19589254  0.69119964  1
  S  S28  1  0.38523035  0.43931165  0.22936164  1
  S  S29  1  0.80779714  0.27809904  0.94989313  1
  S  S30  1  0.91888617  0.84459414  0.97519887  1
  S  S31  1  0.18599409  0.77723796  0.29114469  1
  S  S32  1  0.99378633  0.51508321  0.88864026  1
  S  S33  1  0.31016277  0.04137816  0.64231277  1
  S  S34  1  0.72226611  0.66814156  0.15518802  1
  S  S35  1  0.66814156  0.72226611  0.65518802  1
  S  S36  1  0.21353856  0.60331388  0.66880502  1
  S  S37  1  0.74593055  0.37220452  0.42575266  1
  S  S38  1  0.64242654  0.42320562  0.51181957  1
  S  S39  1  0.46564950  0.90620106  0.73515067  1
  S  S40  1  0.77723796  0.18599409  0.79114469  1
  S  S41  1  0.77039643  0.28666061  0.60324757  1
  S  S42  1  0.84459414  0.91888617  0.47519887  1
  S  S43  1  0.00125069  0.48927628  0.03448868  1
  S  S44  1  0.99752828  0.00965633  0.38286413  1
  S  S45  1  0.37220452  0.74593055  0.92575266  1
  S  S46  1  0.20158311  0.26817546  0.46312149  1
  S  S47  1  0.51508321  0.99378633  0.38864026  1
  S  S48  1  0.00965633  0.99752828  0.88286413  1
  S  S49  1  0.90620106  0.46564950  0.23515067  1
  S  S50  1  0.42320562  0.64242654  0.01181957  1
  S  S51  1  0.26817546  0.20158311  0.96312149  1
  S  S52  1  0.28666061  0.77039643  0.10324757  1
  S  S53  1  0.28442529  0.75562022  0.82636099  1
  S  S54  1  0.48927628  0.00125069  0.53448868  1
  S  S55  1  0.39692701  0.33208561  0.08544217  1
