# generated using pymatgen
data_Cs4CuSi2O7
_symmetry_space_group_name_H-M   'P 1'
_cell_length_a   6.60378807
_cell_length_b   7.54547273
_cell_length_c   7.61738741
_cell_angle_alpha   106.39019001
_cell_angle_beta   110.54448443
_cell_angle_gamma   109.25786203
_symmetry_Int_Tables_number   1
_chemical_formula_structural   Cs4CuSi2O7
_chemical_formula_sum   'Cs4 Si2 Cu1 O7'
_cell_volume   299.62004934
_cell_formula_units_Z   1
loop_
 _symmetry_equiv_pos_site_id
 _symmetry_equiv_pos_as_xyz
  1  'x, y, z'
loop_
 _atom_site_type_symbol
 _atom_site_label
 _atom_site_symmetry_multiplicity
 _atom_site_fract_x
 _atom_site_fract_y
 _atom_site_fract_z
 _atom_site_occupancy
  Cs  Cs0  1  0.28793203  0.76415174  0.22623066  1
  Cs  Cs1  1  0.71206797  0.23584826  0.77376934  1
  Cs  Cs2  1  0.60445051  0.36987430  0.27450729  1
  Cs  Cs3  1  0.39554949  0.63012570  0.72549271  1
  Si  Si4  1  0.99127365  0.86446530  0.77830862  1
  Si  Si5  1  0.00872635  0.13553470  0.22169138  1
  Cu  Cu6  1  0.00000000  0.00000000  0.50000000  1
  O  O7  1  0.76952824  0.99103341  0.23744625  1
  O  O8  1  0.96299971  0.63982043  0.76605900  1
  O  O9  1  0.23047176  0.00896659  0.76255375  1
  O  O10  1  0.23771408  0.15315963  0.42381522  1
  O  O11  1  0.76228592  0.84684037  0.57618478  1
  O  O12  1  0.03700029  0.36017957  0.23394100  1
  O  O13  1  0.00000000  0.00000000  0.00000000  1
