# generated using pymatgen
data_K4Cu4Cl10O
_symmetry_space_group_name_H-M   'P 1'
_cell_length_a   9.03490001
_cell_length_b   10.57722313
_cell_length_c   10.57722327
_cell_angle_alpha   90.66119132
_cell_angle_beta   100.05816733
_cell_angle_gamma   100.05816688
_symmetry_Int_Tables_number   1
_chemical_formula_structural   K4Cu4Cl10O
_chemical_formula_sum   'K8 Cu8 Cl20 O2'
_cell_volume   979.05015077
_cell_formula_units_Z   2
loop_
 _symmetry_equiv_pos_site_id
 _symmetry_equiv_pos_as_xyz
  1  'x, y, z'
loop_
 _atom_site_type_symbol
 _atom_site_label
 _atom_site_symmetry_multiplicity
 _atom_site_fract_x
 _atom_site_fract_y
 _atom_site_fract_z
 _atom_site_occupancy
  K  K0  1  0.13628039  0.55725675  0.70476156  1
  K  K1  1  0.87587632  0.03063966  0.28688164  1
  K  K2  1  0.37587632  0.28688164  0.03063966  1
  K  K3  1  0.36371961  0.29523844  0.44274325  1
  K  K4  1  0.63628039  0.70476156  0.55725675  1
  K  K5  1  0.62412368  0.71311836  0.96936034  1
  K  K6  1  0.86371961  0.44274325  0.29523844  1
  K  K7  1  0.12412368  0.96936034  0.71311836  1
  Cu  Cu8  1  0.11475215  0.76825497  0.04822729  1
  Cu  Cu9  1  0.88524785  0.23174503  0.95177271  1
  Cu  Cu10  1  0.12732586  0.77241567  0.35299486  1
  Cu  Cu11  1  0.37267414  0.64700514  0.22758433  1
  Cu  Cu12  1  0.62732586  0.35299486  0.77241567  1
  Cu  Cu13  1  0.87267414  0.22758433  0.64700514  1
  Cu  Cu14  1  0.38524785  0.95177271  0.23174503  1
  Cu  Cu15  1  0.61475215  0.04822729  0.76825497  1
  Cl  Cl16  1  0.95886405  0.73438205  0.85382422  1
  Cl  Cl17  1  0.25000000  0.97874704  0.02125296  1
  Cl  Cl18  1  0.54113595  0.14617578  0.26561795  1
  Cl  Cl19  1  0.77636519  0.01129012  0.60128846  1
  Cl  Cl20  1  0.48131961  0.50531669  0.73867113  1
  Cl  Cl21  1  0.72363481  0.39871154  0.98870988  1
  Cl  Cl22  1  0.91848987  0.72264025  0.17419554  1
  Cl  Cl23  1  0.75000000  0.41187605  0.58812395  1
  Cl  Cl24  1  0.98131961  0.73867113  0.50531669  1
  Cl  Cl25  1  0.75000000  0.02125296  0.97874704  1
  Cl  Cl26  1  0.41848987  0.17419554  0.72264025  1
  Cl  Cl27  1  0.27636519  0.60128846  0.01129012  1
  Cl  Cl28  1  0.04113595  0.26561795  0.14617578  1
  Cl  Cl29  1  0.51868039  0.49468331  0.26132887  1
  Cl  Cl30  1  0.22363481  0.98870988  0.39871154  1
  Cl  Cl31  1  0.58151013  0.82580446  0.27735975  1
  Cl  Cl32  1  0.08151013  0.27735975  0.82580446  1
  Cl  Cl33  1  0.25000000  0.58812395  0.41187605  1
  Cl  Cl34  1  0.45886405  0.85382422  0.73438205  1
  Cl  Cl35  1  0.01868039  0.26132887  0.49468331  1
  O  O36  1  0.75000000  0.21907248  0.78092752  1
  O  O37  1  0.25000000  0.78092752  0.21907248  1
