# generated using pymatgen
data_CoSb2Br2O3
_symmetry_space_group_name_H-M   'P 1'
_cell_length_a   5.31331439
_cell_length_b   8.45646572
_cell_length_c   8.20366276
_cell_angle_alpha   87.72045637
_cell_angle_beta   82.71771871
_cell_angle_gamma   82.63006773
_symmetry_Int_Tables_number   1
_chemical_formula_structural   CoSb2Br2O3
_chemical_formula_sum   'Co2 Sb4 Br4 O6'
_cell_volume   362.50830262
_cell_formula_units_Z   2
loop_
 _symmetry_equiv_pos_site_id
 _symmetry_equiv_pos_as_xyz
  1  'x, y, z'
loop_
 _atom_site_type_symbol
 _atom_site_label
 _atom_site_symmetry_multiplicity
 _atom_site_fract_x
 _atom_site_fract_y
 _atom_site_fract_z
 _atom_site_occupancy
  O  O0  1  0.78593418  0.48301912  0.08638757  1
  O  O1  1  0.23084960  0.36699065  0.24587127  1
  O  O2  1  0.23366515  0.51404134  0.53354681  1
  Br  Br3  1  0.35631869  0.77231886  0.21925727  1
  O  O4  1  0.76632416  0.48595153  0.46646389  1
  Sb  Sb5  1  0.90417760  0.68625449  0.96519884  1
  Co  Co6  1  0.47356362  0.51199191  0.71224216  1
  Br  Br7  1  0.64368581  0.22767879  0.78074469  1
  O  O8  1  0.21406849  0.51698061  0.91360958  1
  O  O9  1  0.76914479  0.63302067  0.75413283  1
  Sb  Sb10  1  0.93785096  0.69562325  0.52473164  1
  Br  Br11  1  0.23852255  0.86166984  0.70119305  1
  Br  Br12  1  0.76147269  0.13833458  0.29878526  1
  Sb  Sb13  1  0.09582956  0.31374584  0.03480379  1
  Co  Co14  1  0.52644491  0.48800593  0.28775957  1
  Sb  Sb15  1  0.06214726  0.30437257  0.47527179  1
