# generated using pymatgen
data_Ta2MnO6
_symmetry_space_group_name_H-M   'P 1'
_cell_length_a   5.13878216
_cell_length_b   5.87441320
_cell_length_c   14.59484764
_cell_angle_alpha   90.00000000
_cell_angle_beta   90.00000000
_cell_angle_gamma   90.00000000
_symmetry_Int_Tables_number   1
_chemical_formula_structural   Ta2MnO6
_chemical_formula_sum   'Ta8 Mn4 O24'
_cell_volume   440.57947840
_cell_formula_units_Z   4
loop_
 _symmetry_equiv_pos_site_id
 _symmetry_equiv_pos_as_xyz
  1  'x, y, z'
loop_
 _atom_site_type_symbol
 _atom_site_label
 _atom_site_symmetry_multiplicity
 _atom_site_fract_x
 _atom_site_fract_y
 _atom_site_fract_z
 _atom_site_occupancy
  Ta  Ta0  1  0.23925090  0.67511394  0.83725249  1
  Ta  Ta1  1  0.73925090  0.82488606  0.66274751  1
  Ta  Ta2  1  0.26074910  0.67511394  0.16274751  1
  Ta  Ta3  1  0.76074910  0.82488606  0.33725249  1
  Ta  Ta4  1  0.76074910  0.32488606  0.16274751  1
  Ta  Ta5  1  0.26074910  0.17511394  0.33725249  1
  Ta  Ta6  1  0.73925090  0.32488606  0.83725249  1
  Ta  Ta7  1  0.23925090  0.17511394  0.66274751  1
  Mn  Mn8  1  0.75000000  0.82906159  0.00000000  1
  Mn  Mn9  1  0.25000000  0.67093841  0.50000000  1
  Mn  Mn10  1  0.25000000  0.17093841  0.00000000  1
  Mn  Mn11  1  0.75000000  0.32906159  0.50000000  1
  O  O12  1  0.56339853  0.59890400  0.89974119  1
  O  O13  1  0.06339853  0.90109600  0.60025881  1
  O  O14  1  0.93660147  0.59890400  0.10025881  1
  O  O15  1  0.43660147  0.90109600  0.39974119  1
  O  O16  1  0.43660147  0.40109600  0.10025881  1
  O  O17  1  0.93660147  0.09890400  0.39974119  1
  O  O18  1  0.06339853  0.40109600  0.89974119  1
  O  O19  1  0.56339853  0.09890400  0.60025881  1
  O  O20  1  0.09919145  0.87962969  0.91792444  1
  O  O21  1  0.59919145  0.62037031  0.58207556  1
  O  O22  1  0.40080855  0.87962969  0.08207556  1
  O  O23  1  0.90080855  0.62037031  0.41792444  1
  O  O24  1  0.90080855  0.12037031  0.08207556  1
  O  O25  1  0.40080855  0.37962969  0.41792444  1
  O  O26  1  0.59919145  0.12037031  0.91792444  1
  O  O27  1  0.09919145  0.37962969  0.58207556  1
  O  O28  1  0.41474040  0.87037386  0.74466793  1
  O  O29  1  0.91474040  0.62962614  0.75533207  1
  O  O30  1  0.08525960  0.87037386  0.25533207  1
  O  O31  1  0.58525960  0.62962614  0.24466793  1
  O  O32  1  0.58525960  0.12962614  0.25533207  1
  O  O33  1  0.08525960  0.37037386  0.24466793  1
  O  O34  1  0.91474040  0.12962614  0.74466793  1
  O  O35  1  0.41474040  0.37037386  0.75533207  1
