# generated using pymatgen
data_NaLuP2O7
_symmetry_space_group_name_H-M   'P 1'
_cell_length_a   5.41513880
_cell_length_b   9.07779308
_cell_length_c   12.86705678
_cell_angle_alpha   103.12775886
_cell_angle_beta   90.00000000
_cell_angle_gamma   90.00000000
_symmetry_Int_Tables_number   1
_chemical_formula_structural   NaLuP2O7
_chemical_formula_sum   'Na4 Lu4 P8 O28'
_cell_volume   615.98241367
_cell_formula_units_Z   4
loop_
 _symmetry_equiv_pos_site_id
 _symmetry_equiv_pos_as_xyz
  1  'x, y, z'
loop_
 _atom_site_type_symbol
 _atom_site_label
 _atom_site_symmetry_multiplicity
 _atom_site_fract_x
 _atom_site_fract_y
 _atom_site_fract_z
 _atom_site_occupancy
  Na  Na0  1  0.22812646  0.63694216  0.19193528  1
  Na  Na1  1  0.77187354  0.36305784  0.80806472  1
  Na  Na2  1  0.27187354  0.13694216  0.69193528  1
  Na  Na3  1  0.72812646  0.86305784  0.30806472  1
  Lu  Lu4  1  0.73738371  0.26992733  0.52550449  1
  Lu  Lu5  1  0.23738371  0.23007267  0.97449551  1
  Lu  Lu6  1  0.26261629  0.73007267  0.47449551  1
  Lu  Lu7  1  0.76261629  0.76992733  0.02550449  1
  P  P8  1  0.75002000  0.02632109  0.84759981  1
  P  P9  1  0.27808718  0.56926354  0.88302906  1
  P  P10  1  0.24998000  0.97367891  0.15240019  1
  P  P11  1  0.72191282  0.43073646  0.11697094  1
  P  P12  1  0.77808718  0.93073646  0.61697094  1
  P  P13  1  0.25002000  0.47367891  0.65240019  1
  P  P14  1  0.74998000  0.52632109  0.34759981  1
  P  P15  1  0.22191282  0.06926354  0.38302906  1
  O  O16  1  0.53392530  0.13941070  0.85503593  1
  O  O17  1  0.88827737  0.31940945  0.04293214  1
  O  O18  1  0.22348903  0.59751107  0.76477227  1
  O  O19  1  0.76217842  0.43560127  0.43269224  1
  O  O20  1  0.94649941  0.09856196  0.40797835  1
  O  O21  1  0.29043312  0.90310434  0.37616860  1
  O  O22  1  0.00257771  0.89246119  0.15746813  1
  O  O23  1  0.70956688  0.09689566  0.62383140  1
  O  O24  1  0.99742229  0.10753881  0.84253187  1
  O  O25  1  0.23782158  0.56439873  0.56730776  1
  O  O26  1  0.72348903  0.90248893  0.73522773  1
  O  O27  1  0.38827737  0.18059055  0.45706786  1
  O  O28  1  0.27651097  0.09751107  0.26477227  1
  O  O29  1  0.44649941  0.40143804  0.09202165  1
  O  O30  1  0.77651097  0.40248893  0.23522773  1
  O  O31  1  0.05350059  0.90143804  0.59202165  1
  O  O32  1  0.61172263  0.81940945  0.54293214  1
  O  O33  1  0.46607470  0.86058930  0.14496407  1
  O  O34  1  0.49742229  0.39246119  0.65746813  1
  O  O35  1  0.55350059  0.59856196  0.90797835  1
  O  O36  1  0.79043312  0.59689566  0.12383140  1
  O  O37  1  0.03392530  0.36058930  0.64496407  1
  O  O38  1  0.26217842  0.06439873  0.06730776  1
  O  O39  1  0.73782158  0.93560127  0.93269224  1
  O  O40  1  0.11172263  0.68059055  0.95706786  1
  O  O41  1  0.96607470  0.63941070  0.35503593  1
  O  O42  1  0.50257771  0.60753881  0.34253187  1
  O  O43  1  0.20956688  0.40310434  0.87616860  1
