# generated using pymatgen
data_Ag3AsS3
_symmetry_space_group_name_H-M   'P 1'
_cell_length_a   6.40899416
_cell_length_b   6.88608465
_cell_length_c   16.47310931
_cell_angle_alpha   85.28417158
_cell_angle_beta   78.78278999
_cell_angle_gamma   62.26658693
_symmetry_Int_Tables_number   1
_chemical_formula_structural   Ag3AsS3
_chemical_formula_sum   'Ag12 As4 S12'
_cell_volume   631.16737653
_cell_formula_units_Z   4
loop_
 _symmetry_equiv_pos_site_id
 _symmetry_equiv_pos_as_xyz
  1  'x, y, z'
loop_
 _atom_site_type_symbol
 _atom_site_label
 _atom_site_symmetry_multiplicity
 _atom_site_fract_x
 _atom_site_fract_y
 _atom_site_fract_z
 _atom_site_occupancy
  Ag  Ag0  1  0.88968547  0.94059880  0.21537513  1
  Ag  Ag1  1  0.54565940  0.55940120  0.28462487  1
  Ag  Ag2  1  0.18241088  0.41616923  0.13425850  1
  Ag  Ag3  1  0.81758912  0.58383077  0.86574150  1
  Ag  Ag4  1  0.05117507  0.80753923  0.93761464  1
  Ag  Ag5  1  0.70367106  0.30753923  0.43761464  1
  Ag  Ag6  1  0.11031453  0.05940120  0.78462487  1
  Ag  Ag7  1  0.29632894  0.69246077  0.56238536  1
  Ag  Ag8  1  0.23283861  0.08383077  0.36574150  1
  Ag  Ag9  1  0.94882493  0.19246077  0.06238536  1
  Ag  Ag10  1  0.45434060  0.44059880  0.71537513  1
  Ag  Ag11  1  0.76716139  0.91616923  0.63425850  1
  As  As12  1  0.51778828  0.78454527  0.07198970  1
  As  As13  1  0.87432325  0.71545473  0.42801030  1
  As  As14  1  0.12567675  0.28454527  0.57198970  1
  As  As15  1  0.48221172  0.21545473  0.92801030  1
  S  S16  1  0.23992527  0.72350877  0.41420302  1
  S  S17  1  0.25249200  0.03041590  0.17329100  1
  S  S18  1  0.66275754  0.02827349  0.35921231  1
  S  S19  1  0.55024334  0.47172651  0.14078769  1
  S  S20  1  0.95619890  0.46958410  0.32670900  1
  S  S21  1  0.33724246  0.97172651  0.64078769  1
  S  S22  1  0.44975666  0.52827349  0.85921231  1
  S  S23  1  0.74750800  0.96958410  0.82670900  1
  S  S24  1  0.12236294  0.22350877  0.91420302  1
  S  S25  1  0.87763706  0.77649123  0.08579698  1
  S  S26  1  0.76007473  0.27649123  0.58579698  1
  S  S27  1  0.04380110  0.53041590  0.67329100  1
