# generated using pymatgen
data_Gd2GeO5
_symmetry_space_group_name_H-M   'P 1'
_cell_length_a   6.89514382
_cell_length_b   7.14232130
_cell_length_c   9.42275721
_cell_angle_alpha   90.00000000
_cell_angle_beta   104.93910290
_cell_angle_gamma   90.00000000
_symmetry_Int_Tables_number   1
_chemical_formula_structural   Gd2GeO5
_chemical_formula_sum   'Gd8 Ge4 O20'
_cell_volume   448.36108535
_cell_formula_units_Z   4
loop_
 _symmetry_equiv_pos_site_id
 _symmetry_equiv_pos_as_xyz
  1  'x, y, z'
loop_
 _atom_site_type_symbol
 _atom_site_label
 _atom_site_symmetry_multiplicity
 _atom_site_fract_x
 _atom_site_fract_y
 _atom_site_fract_z
 _atom_site_occupancy
  Gd  Gd0  1  0.04347291  0.36432551  0.36561822  1
  Gd  Gd1  1  0.95652709  0.63567449  0.63438178  1
  Gd  Gd2  1  0.54347291  0.13567449  0.36561822  1
  Gd  Gd3  1  0.73098001  0.12729604  0.02594429  1
  Gd  Gd4  1  0.76901999  0.62729604  0.97405571  1
  Gd  Gd5  1  0.26901999  0.87270396  0.97405571  1
  Gd  Gd6  1  0.45652709  0.86432551  0.63438178  1
  Gd  Gd7  1  0.23098001  0.37270396  0.02594429  1
  Ge  Ge8  1  0.97638688  0.09184657  0.69833486  1
  Ge  Ge9  1  0.02361312  0.90815343  0.30166514  1
  Ge  Ge10  1  0.52361312  0.59184657  0.30166514  1
  Ge  Ge11  1  0.47638688  0.40815343  0.69833486  1
  O  O12  1  0.32726107  0.41711112  0.28408053  1
  O  O13  1  0.21944447  0.06107769  0.38925185  1
  O  O14  1  0.49388060  0.79718216  0.39146463  1
  O  O15  1  0.99169802  0.86442805  0.10908362  1
  O  O16  1  0.06723249  0.61648756  0.88993700  1
  O  O17  1  0.49169802  0.63557195  0.10908362  1
  O  O18  1  0.00611940  0.29718216  0.60853537  1
  O  O19  1  0.93276751  0.38351244  0.11006300  1
  O  O20  1  0.00830198  0.13557195  0.89091638  1
  O  O21  1  0.67273893  0.58288888  0.71591947  1
  O  O22  1  0.71944447  0.43892231  0.38925185  1
  O  O23  1  0.50611940  0.20281784  0.60853537  1
  O  O24  1  0.78055553  0.93892231  0.61074815  1
  O  O25  1  0.82726107  0.08288888  0.28408053  1
  O  O26  1  0.17273893  0.91711112  0.71591947  1
  O  O27  1  0.28055553  0.56107769  0.61074815  1
  O  O28  1  0.50830198  0.36442805  0.89091638  1
  O  O29  1  0.56723249  0.88351244  0.88993700  1
  O  O30  1  0.99388060  0.70281784  0.39146463  1
  O  O31  1  0.43276751  0.11648756  0.11006300  1
