# generated using pymatgen
data_K2Be2(Si2O5)3
_symmetry_space_group_name_H-M   'P 1'
_cell_length_a   7.60035343
_cell_length_b   8.65544541
_cell_length_c   11.63047484
_cell_angle_alpha   90.00000000
_cell_angle_beta   90.00000000
_cell_angle_gamma   116.04330824
_symmetry_Int_Tables_number   1
_chemical_formula_structural   K2Be2(Si2O5)3
_chemical_formula_sum   'K4 Be4 Si12 O30'
_cell_volume   687.41749514
_cell_formula_units_Z   2
loop_
 _symmetry_equiv_pos_site_id
 _symmetry_equiv_pos_as_xyz
  1  'x, y, z'
loop_
 _atom_site_type_symbol
 _atom_site_label
 _atom_site_symmetry_multiplicity
 _atom_site_fract_x
 _atom_site_fract_y
 _atom_site_fract_z
 _atom_site_occupancy
  K  K0  1  0.09748617  0.19497134  0.39843061  1
  K  K1  1  0.79267177  0.58534355  0.62290308  1
  K  K2  1  0.20732823  0.41465645  0.12290308  1
  K  K3  1  0.90251383  0.80502866  0.89843061  1
  Be  Be4  1  0.22809876  0.75932408  0.75479383  1
  Be  Be5  1  0.77190124  0.24067592  0.25479383  1
  Be  Be6  1  0.46877468  0.24067592  0.25479383  1
  Be  Be7  1  0.53122532  0.75932408  0.75479383  1
  Si  Si8  1  0.64791731  0.29583361  0.01890412  1
  Si  Si9  1  0.55110525  0.10221050  0.48201161  1
  Si  Si10  1  0.15119792  0.89260362  0.17042722  1
  Si  Si11  1  0.74140570  0.89260362  0.17042722  1
  Si  Si12  1  0.00101949  0.58432644  0.35076940  1
  Si  Si13  1  0.84880208  0.10739638  0.67042722  1
  Si  Si14  1  0.41669305  0.41567356  0.85076940  1
  Si  Si15  1  0.58330695  0.58432644  0.35076940  1
  Si  Si16  1  0.35208269  0.70416639  0.51890412  1
  Si  Si17  1  0.44889475  0.89778950  0.98201161  1
  Si  Si18  1  0.25859430  0.10739638  0.67042722  1
  Si  Si19  1  0.99898051  0.41567356  0.85076940  1
  O  O20  1  0.44800884  0.89601668  0.46531204  1
  O  O21  1  0.92912049  0.85823998  0.12783280  1
  O  O22  1  0.56116417  0.59456828  0.79322364  1
  O  O23  1  0.81573843  0.08506910  0.21526869  1
  O  O24  1  0.26932966  0.08506910  0.21526869  1
  O  O25  1  0.18426157  0.91493090  0.71526869  1
  O  O26  1  0.87537475  0.39218345  0.97208783  1
  O  O27  1  0.75601143  0.15770014  0.55510754  1
  O  O28  1  0.48319131  0.60781655  0.47208783  1
  O  O29  1  0.35219127  0.70438355  0.65758012  1
  O  O30  1  0.07087951  0.14176002  0.62783280  1
  O  O31  1  0.55199116  0.10398332  0.96531204  1
  O  O32  1  0.87280258  0.25164522  0.76804432  1
  O  O33  1  0.40372645  0.80745191  0.85698474  1
  O  O34  1  0.96659588  0.40543172  0.29322364  1
  O  O35  1  0.40168871  0.15770014  0.55510754  1
  O  O36  1  0.59831129  0.84229986  0.05510754  1
  O  O37  1  0.51680869  0.39218345  0.97208783  1
  O  O38  1  0.79770855  0.59541711  0.38999695  1
  O  O39  1  0.03340412  0.59456828  0.79322364  1
  O  O40  1  0.73067034  0.91493090  0.71526869  1
  O  O41  1  0.59627355  0.19254809  0.35698474  1
  O  O42  1  0.62115836  0.74835478  0.26804432  1
  O  O43  1  0.24398857  0.84229986  0.05510754  1
  O  O44  1  0.20229145  0.40458289  0.88999695  1
  O  O45  1  0.64780873  0.29561645  0.15758012  1
  O  O46  1  0.12462525  0.60781655  0.47208783  1
  O  O47  1  0.12719742  0.74835478  0.26804432  1
  O  O48  1  0.37884164  0.25164522  0.76804432  1
  O  O49  1  0.43883583  0.40543172  0.29322364  1
