# generated using pymatgen
data_SbOF
_symmetry_space_group_name_H-M   'P 1'
_cell_length_a   5.75161843
_cell_length_b   11.78647659
_cell_length_c   12.61048605
_cell_angle_alpha   90.00000000
_cell_angle_beta   90.00000000
_cell_angle_gamma   90.00000000
_symmetry_Int_Tables_number   1
_chemical_formula_structural   SbOF
_chemical_formula_sum   'Sb16 O16 F16'
_cell_volume   854.88144447
_cell_formula_units_Z   16
loop_
 _symmetry_equiv_pos_site_id
 _symmetry_equiv_pos_as_xyz
  1  'x, y, z'
loop_
 _atom_site_type_symbol
 _atom_site_label
 _atom_site_symmetry_multiplicity
 _atom_site_fract_x
 _atom_site_fract_y
 _atom_site_fract_z
 _atom_site_occupancy
  Sb  Sb0  1  0.69660545  0.64346858  0.79511653  1
  Sb  Sb1  1  0.79392977  0.38483605  0.51002094  1
  Sb  Sb2  1  0.79392977  0.88483605  0.98997906  1
  Sb  Sb3  1  0.80339455  0.64346858  0.29511653  1
  Sb  Sb4  1  0.20607023  0.61516395  0.48997906  1
  Sb  Sb5  1  0.19660545  0.85653142  0.79511653  1
  Sb  Sb6  1  0.70607023  0.88483605  0.48997906  1
  Sb  Sb7  1  0.30339455  0.85653142  0.29511653  1
  Sb  Sb8  1  0.29392977  0.11516395  0.51002094  1
  Sb  Sb9  1  0.69660545  0.14346858  0.70488347  1
  Sb  Sb10  1  0.70607023  0.38483605  0.01002094  1
  Sb  Sb11  1  0.80339455  0.14346858  0.20488347  1
  Sb  Sb12  1  0.30339455  0.35653142  0.20488347  1
  Sb  Sb13  1  0.29392977  0.61516395  0.98997906  1
  Sb  Sb14  1  0.20607023  0.11516395  0.01002094  1
  Sb  Sb15  1  0.19660545  0.35653142  0.70488347  1
  O  O16  1  0.91933513  0.54901378  0.41944315  1
  O  O17  1  0.11552236  0.73699835  0.37402433  1
  O  O18  1  0.38447764  0.23699835  0.62597567  1
  O  O19  1  0.58066487  0.04901378  0.58055685  1
  O  O20  1  0.08066487  0.45098622  0.58055685  1
  O  O21  1  0.41933513  0.95098622  0.41944315  1
  O  O22  1  0.08066487  0.95098622  0.91944315  1
  O  O23  1  0.11552236  0.23699835  0.12597567  1
  O  O24  1  0.61552236  0.26300165  0.12597567  1
  O  O25  1  0.41933513  0.45098622  0.08055685  1
  O  O26  1  0.88447764  0.26300165  0.62597567  1
  O  O27  1  0.91933513  0.04901378  0.08055685  1
  O  O28  1  0.58066487  0.54901378  0.91944315  1
  O  O29  1  0.61552236  0.76300165  0.37402433  1
  O  O30  1  0.38447764  0.73699835  0.87402433  1
  O  O31  1  0.88447764  0.76300165  0.87402433  1
  F  F32  1  0.49179003  0.95534680  0.81441159  1
  F  F33  1  0.50820997  0.04465320  0.18558841  1
  F  F34  1  0.50909395  0.29952414  0.90736825  1
  F  F35  1  0.99090605  0.29952414  0.40736825  1
  F  F36  1  0.49179003  0.45534680  0.68558841  1
  F  F37  1  0.99179003  0.54465320  0.81441159  1
  F  F38  1  0.00820997  0.95534680  0.31441159  1
  F  F39  1  0.00909395  0.20047586  0.90736825  1
  F  F40  1  0.49090605  0.20047586  0.40736825  1
  F  F41  1  0.50820997  0.54465320  0.31441159  1
  F  F42  1  0.49090605  0.70047586  0.09263175  1
  F  F43  1  0.00820997  0.45534680  0.18558841  1
  F  F44  1  0.99179003  0.04465320  0.68558841  1
  F  F45  1  0.50909395  0.79952414  0.59263175  1
  F  F46  1  0.00909395  0.70047586  0.59263175  1
  F  F47  1  0.99090605  0.79952414  0.09263175  1
