# generated using pymatgen
data_KEu2Si4O10F
_symmetry_space_group_name_H-M   'P 1'
_cell_length_a   8.58524316
_cell_length_b   11.58217488
_cell_length_c   11.72601405
_cell_angle_alpha   112.16632435
_cell_angle_beta   90.00000000
_cell_angle_gamma   90.00000000
_symmetry_Int_Tables_number   1
_chemical_formula_structural   KEu2Si4O10F
_chemical_formula_sum   'K4 Eu8 Si16 O40 F4'
_cell_volume   1079.81037558
_cell_formula_units_Z   4
loop_
 _symmetry_equiv_pos_site_id
 _symmetry_equiv_pos_as_xyz
  1  'x, y, z'
loop_
 _atom_site_type_symbol
 _atom_site_label
 _atom_site_symmetry_multiplicity
 _atom_site_fract_x
 _atom_site_fract_y
 _atom_site_fract_z
 _atom_site_occupancy
  Eu  Eu0  1  0.97910743  0.21376116  0.77971694  1
  Eu  Eu1  1  0.47910743  0.28623884  0.72028306  1
  Eu  Eu2  1  0.28210518  0.54251939  0.96058234  1
  Eu  Eu3  1  0.52089257  0.71376116  0.27971694  1
  Eu  Eu4  1  0.02089257  0.78623884  0.22028306  1
  Eu  Eu5  1  0.78210518  0.95748061  0.53941766  1
  Eu  Eu6  1  0.21789482  0.04251939  0.46058234  1
  Eu  Eu7  1  0.71789482  0.45748061  0.03941766  1
  K  K8  1  0.78304956  0.53368509  0.42610427  1
  K  K9  1  0.21695044  0.46631491  0.57389573  1
  K  K10  1  0.28304956  0.96631491  0.07389573  1
  K  K11  1  0.71695044  0.03368509  0.92610427  1
  Si  Si12  1  0.12343681  0.75135364  0.49598191  1
  Si  Si13  1  0.62343681  0.74864636  0.00401809  1
  Si  Si14  1  0.53338717  0.61789551  0.74258499  1
  Si  Si15  1  0.15869619  0.51599193  0.26890409  1
  Si  Si16  1  0.52525913  0.22322720  0.41548249  1
  Si  Si17  1  0.46661283  0.38210449  0.25741501  1
  Si  Si18  1  0.47474087  0.77677280  0.58451751  1
  Si  Si19  1  0.96661283  0.11789551  0.24258499  1
  Si  Si20  1  0.97474087  0.72322720  0.91548249  1
  Si  Si21  1  0.65869619  0.98400807  0.23109591  1
  Si  Si22  1  0.87656319  0.24864636  0.50401809  1
  Si  Si23  1  0.02525913  0.27677280  0.08451751  1
  Si  Si24  1  0.84130381  0.48400807  0.73109591  1
  Si  Si25  1  0.37656319  0.25135364  0.99598191  1
  Si  Si26  1  0.34130381  0.01599193  0.76890409  1
  Si  Si27  1  0.03338717  0.88210449  0.75741501  1
  O  O28  1  0.45756002  0.35339903  0.95305383  1
  O  O29  1  0.37740396  0.23658894  0.50317337  1
  O  O30  1  0.57506081  0.48388257  0.23563527  1
  O  O31  1  0.04243998  0.85339903  0.45305383  1
  O  O32  1  0.95725379  0.83476437  0.86139634  1
  O  O33  1  0.18456559  0.26768087  0.00087084  1
  O  O34  1  0.47930143  0.91329325  0.70060848  1
  O  O35  1  0.28119446  0.09367693  0.68973693  1
  O  O36  1  0.81543441  0.73231913  0.99912916  1
  O  O37  1  0.41852616  0.10670176  0.90317778  1
  O  O38  1  0.71880554  0.90632307  0.31026307  1
  O  O39  1  0.07506081  0.01611743  0.26436473  1
  O  O40  1  0.58147384  0.89329824  0.09682222  1
  O  O41  1  0.52069857  0.08670675  0.29939152  1
  O  O42  1  0.78119446  0.40632307  0.81026307  1
  O  O43  1  0.20638048  0.93871509  0.81191999  1
  O  O44  1  0.79361952  0.06128491  0.18808001  1
  O  O45  1  0.91852616  0.39329824  0.59682222  1
  O  O46  1  0.54274621  0.33476437  0.36139634  1
  O  O47  1  0.29361952  0.43871509  0.31191999  1
  O  O48  1  0.12259604  0.73658894  0.00317337  1
  O  O49  1  0.31543441  0.76768087  0.50087084  1
  O  O50  1  0.92493919  0.98388257  0.73563527  1
  O  O51  1  0.87740396  0.26341106  0.99682663  1
  O  O52  1  0.21880554  0.59367693  0.18973693  1
  O  O53  1  0.42493919  0.51611743  0.76436473  1
  O  O54  1  0.95756002  0.14660097  0.54694617  1
  O  O55  1  0.43868251  0.25619889  0.13070717  1
  O  O56  1  0.62259604  0.76341106  0.49682663  1
  O  O57  1  0.97930143  0.58670675  0.79939152  1
  O  O58  1  0.70638048  0.56128491  0.68808001  1
  O  O59  1  0.54243998  0.64660097  0.04694617  1
  O  O60  1  0.45725379  0.66523563  0.63860366  1
  O  O61  1  0.08147384  0.60670176  0.40317778  1
  O  O62  1  0.93868251  0.24380111  0.36929283  1
  O  O63  1  0.02069857  0.41329325  0.20060848  1
  O  O64  1  0.56131749  0.74380111  0.86929283  1
  O  O65  1  0.04274621  0.16523563  0.13860366  1
  O  O66  1  0.06131749  0.75619889  0.63070717  1
  O  O67  1  0.68456559  0.23231913  0.49912916  1
  F  F68  1  0.68470978  0.13903822  0.71051246  1
  F  F69  1  0.31529022  0.86096178  0.28948754  1
  F  F70  1  0.18470978  0.36096178  0.78948754  1
  F  F71  1  0.81529022  0.63903822  0.21051246  1
