# generated using pymatgen
data_Co2TeCl2O3
_symmetry_space_group_name_H-M   'P 1'
_cell_length_a   5.05981268
_cell_length_b   6.74321947
_cell_length_c   8.52884286
_cell_angle_alpha   89.84387041
_cell_angle_beta   105.27933069
_cell_angle_gamma   90.01274236
_symmetry_Int_Tables_number   1
_chemical_formula_structural   Co2TeCl2O3
_chemical_formula_sum   'Co4 Te2 Cl4 O6'
_cell_volume   280.71207341
_cell_formula_units_Z   2
loop_
 _symmetry_equiv_pos_site_id
 _symmetry_equiv_pos_as_xyz
  1  'x, y, z'
loop_
 _atom_site_type_symbol
 _atom_site_label
 _atom_site_symmetry_multiplicity
 _atom_site_fract_x
 _atom_site_fract_y
 _atom_site_fract_z
 _atom_site_occupancy
  Co  Co0  1  0.23320546  0.75124364  0.77510222  1
  Co  Co1  1  0.76674508  0.24875714  0.22485338  1
  Co  Co2  1  0.00001521  0.50000509  0.00000949  1
  Co  Co3  1  0.00001484  0.99999262  0.00001274  1
  Te  Te4  1  0.40682477  0.25130005  0.75410480  1
  Te  Te5  1  0.59319011  0.74869768  0.24591245  1
  Cl  Cl6  1  0.16075925  0.75001178  0.49702812  1
  Cl  Cl7  1  0.74562156  0.75034939  0.79985311  1
  Cl  Cl8  1  0.25438667  0.24965067  0.20014713  1
  Cl  Cl9  1  0.83924310  0.24999608  0.50294395  1
  O  O10  1  0.76121180  0.96218594  0.16138190  1
  O  O11  1  0.23919834  0.46411382  0.83868401  1
  O  O12  1  0.23878271  0.03780644  0.83861790  1
  O  O13  1  0.74902358  0.25014758  0.92764533  1
  O  O14  1  0.25097252  0.74984951  0.07239275  1
  O  O15  1  0.76080501  0.53589157  0.16131172  1
