# generated using pymatgen
data_CsSbS2
_symmetry_space_group_name_H-M   'P 1'
_cell_length_a   7.18810747
_cell_length_b   7.99826952
_cell_length_c   9.95511001
_cell_angle_alpha   90.00000000
_cell_angle_beta   90.00000000
_cell_angle_gamma   102.28645409
_symmetry_Int_Tables_number   1
_chemical_formula_structural   CsSbS2
_chemical_formula_sum   'Cs4 Sb4 S8'
_cell_volume   559.23437141
_cell_formula_units_Z   4
loop_
 _symmetry_equiv_pos_site_id
 _symmetry_equiv_pos_as_xyz
  1  'x, y, z'
loop_
 _atom_site_type_symbol
 _atom_site_label
 _atom_site_symmetry_multiplicity
 _atom_site_fract_x
 _atom_site_fract_y
 _atom_site_fract_z
 _atom_site_occupancy
  Cs  Cs0  1  0.21241428  0.34618092  0.42816389  1
  Cs  Cs1  1  0.71241428  0.34618092  0.07183611  1
  Cs  Cs2  1  0.78758572  0.65381908  0.57183611  1
  Cs  Cs3  1  0.28758572  0.65381908  0.92816389  1
  Sb  Sb4  1  0.85473106  0.89873779  0.16342797  1
  Sb  Sb5  1  0.14526894  0.10126221  0.83657203  1
  Sb  Sb6  1  0.35473106  0.89873779  0.33657203  1
  Sb  Sb7  1  0.64526894  0.10126221  0.66342797  1
  S  S8  1  0.45503443  0.30798891  0.74538335  1
  S  S9  1  0.04496557  0.69201109  0.24538335  1
  S  S10  1  0.30491660  0.81324493  0.56745266  1
  S  S11  1  0.19508340  0.18675507  0.06745266  1
  S  S12  1  0.95503443  0.30798891  0.75461665  1
  S  S13  1  0.54496557  0.69201109  0.25461665  1
  S  S14  1  0.80491660  0.81324493  0.93254734  1
  S  S15  1  0.69508340  0.18675507  0.43254734  1
