# generated using pymatgen
data_CsSmSiS4
_symmetry_space_group_name_H-M   'P 1'
_cell_length_a   6.49623268
_cell_length_b   6.80302607
_cell_length_c   18.05905413
_cell_angle_alpha   90.00000000
_cell_angle_beta   90.00000000
_cell_angle_gamma   90.00000000
_symmetry_Int_Tables_number   1
_chemical_formula_structural   CsSmSiS4
_chemical_formula_sum   'Cs4 Sm4 Si4 S16'
_cell_volume   798.10256562
_cell_formula_units_Z   4
loop_
 _symmetry_equiv_pos_site_id
 _symmetry_equiv_pos_as_xyz
  1  'x, y, z'
loop_
 _atom_site_type_symbol
 _atom_site_label
 _atom_site_symmetry_multiplicity
 _atom_site_fract_x
 _atom_site_fract_y
 _atom_site_fract_z
 _atom_site_occupancy
  Cs  Cs0  1  1.00350841  0.50643048  0.46647229  1
  Cs  Cs1  1  0.49649159  0.49356952  0.96647229  1
  Cs  Cs2  1  -0.00350841  0.00643048  0.03352771  1
  Cs  Cs3  1  0.50350841  0.99356952  0.53352771  1
  Sm  Sm4  1  0.20751733  0.52076426  0.72828972  1
  Sm  Sm5  1  0.70751733  0.97923574  0.27171028  1
  Sm  Sm6  1  0.79248267  0.02076426  0.77171028  1
  Sm  Sm7  1  0.29248267  0.47923574  0.22828972  1
  Si  Si8  1  0.79001192  0.51567562  0.16771737  1
  Si  Si9  1  0.29001192  0.98432438  0.83228263  1
  Si  Si10  1  0.70998808  0.48432438  0.66771737  1
  Si  Si11  1  0.20998808  0.01567562  0.33228263  1
  S  S12  1  0.54951855  0.98882802  0.90285567  1
  S  S13  1  0.60861018  0.25344851  0.15564198  1
  S  S14  1  0.11276786  0.07032329  0.22134283  1
  S  S15  1  0.42889404  0.24432844  0.35378163  1
  S  S16  1  0.38723214  0.92967671  0.72134283  1
  S  S17  1  0.39138982  0.75344851  0.34435802  1
  S  S18  1  0.89138982  0.74655149  0.65564198  1
  S  S19  1  0.61276786  0.42967671  0.77865717  1
  S  S20  1  0.95048145  0.01117198  0.40285567  1
  S  S21  1  0.57110596  0.74432844  0.14621837  1
  S  S22  1  0.04951855  0.51117198  0.09714433  1
  S  S23  1  0.07110596  0.75567156  0.85378163  1
  S  S24  1  0.10861018  0.24655149  0.84435802  1
  S  S25  1  0.92889404  0.25567156  0.64621837  1
  S  S26  1  0.45048145  0.48882802  0.59714433  1
  S  S27  1  0.88723214  0.57032329  0.27865717  1
