# generated using pymatgen
data_CsSnS3
_symmetry_space_group_name_H-M   'P 1'
_cell_length_a   6.86085069
_cell_length_b   7.56113334
_cell_length_c   7.76603565
_cell_angle_alpha   98.82044067
_cell_angle_beta   114.44949015
_cell_angle_gamma   107.95583945
_symmetry_Int_Tables_number   1
_chemical_formula_structural   CsSnS3
_chemical_formula_sum   'Cs2 Sn2 S6'
_cell_volume   330.01174465
_cell_formula_units_Z   2
loop_
 _symmetry_equiv_pos_site_id
 _symmetry_equiv_pos_as_xyz
  1  'x, y, z'
loop_
 _atom_site_type_symbol
 _atom_site_label
 _atom_site_symmetry_multiplicity
 _atom_site_fract_x
 _atom_site_fract_y
 _atom_site_fract_z
 _atom_site_occupancy
  Cs  Cs0  1  0.76808515  0.81579832  0.13893439  1
  Cs  Cs1  1  0.23191485  0.18420168  0.86106561  1
  Sn  Sn2  1  0.22247378  0.51291687  0.42574731  1
  Sn  Sn3  1  0.77752622  0.48708313  0.57425269  1
  S  S4  1  0.16843919  0.60212920  0.11324337  1
  S  S5  1  0.78154357  0.30136146  0.28821570  1
  S  S6  1  0.34020782  0.23984238  0.43775359  1
  S  S7  1  0.65979218  0.76015762  0.56224641  1
  S  S8  1  0.83156081  0.39787080  0.88675663  1
  S  S9  1  0.21845643  0.69863854  0.71178430  1
