# generated using pymatgen
data_Cs2TeOF4
_symmetry_space_group_name_H-M   'P 1'
_cell_length_a   6.81796591
_cell_length_b   7.32636335
_cell_length_c   8.27594430
_cell_angle_alpha   90.00000000
_cell_angle_beta   114.32517195
_cell_angle_gamma   90.00000000
_symmetry_Int_Tables_number   1
_chemical_formula_structural   Cs2TeOF4
_chemical_formula_sum   'Cs4 Te2 O2 F8'
_cell_volume   376.69098239
_cell_formula_units_Z   2
loop_
 _symmetry_equiv_pos_site_id
 _symmetry_equiv_pos_as_xyz
  1  'x, y, z'
loop_
 _atom_site_type_symbol
 _atom_site_label
 _atom_site_symmetry_multiplicity
 _atom_site_fract_x
 _atom_site_fract_y
 _atom_site_fract_z
 _atom_site_occupancy
  Cs  Cs0  1  0.43578893  0.25000000  0.87157786  1
  Cs  Cs1  1  0.24356546  0.75000000  0.48713091  1
  Cs  Cs2  1  0.75643454  0.25000000  0.51286909  1
  Cs  Cs3  1  0.56421107  0.75000000  0.12842214  1
  Te  Te4  1  0.10940416  0.25000000  0.21880833  1
  Te  Te5  1  0.89059584  0.75000000  0.78119167  1
  O  O6  1  0.23018087  0.25000000  0.46036175  1
  O  O7  1  0.76981913  0.75000000  0.53963825  1
  F  F8  1  0.33208072  0.04983016  0.21773863  1
  F  F9  1  0.66791928  0.95016984  0.78226137  1
  F  F10  1  0.88565790  0.45016984  0.21773863  1
  F  F11  1  0.11434210  0.95016984  0.78226137  1
  F  F12  1  0.66791928  0.54983016  0.78226137  1
  F  F13  1  0.88565790  0.04983016  0.21773863  1
  F  F14  1  0.11434210  0.54983016  0.78226137  1
  F  F15  1  0.33208072  0.45016984  0.21773863  1
