# generated using pymatgen
data_Ba2FeO4
_symmetry_space_group_name_H-M   'P 1'
_cell_length_a   6.23942953
_cell_length_b   7.75690285
_cell_length_c   10.34850547
_cell_angle_alpha   90.00000000
_cell_angle_beta   94.27016912
_cell_angle_gamma   90.00000000
_symmetry_Int_Tables_number   1
_chemical_formula_structural   Ba2FeO4
_chemical_formula_sum   'Ba8 Fe4 O16'
_cell_volume   499.46332885
_cell_formula_units_Z   4
loop_
 _symmetry_equiv_pos_site_id
 _symmetry_equiv_pos_as_xyz
  1  'x, y, z'
loop_
 _atom_site_type_symbol
 _atom_site_label
 _atom_site_symmetry_multiplicity
 _atom_site_fract_x
 _atom_site_fract_y
 _atom_site_fract_z
 _atom_site_occupancy
  Ba  Ba0  1  0.75623953  0.84527283  0.07510579  1
  Ba  Ba1  1  0.74376047  0.34527283  0.42489421  1
  Ba  Ba2  1  0.24376047  0.15472717  0.92489421  1
  Ba  Ba3  1  0.25623953  0.65472717  0.57510579  1
  Ba  Ba4  1  0.22027922  0.50587922  0.19738922  1
  Ba  Ba5  1  0.27972078  0.00587922  0.30261078  1
  Ba  Ba6  1  0.77972078  0.49412078  0.80261078  1
  Ba  Ba7  1  0.72027922  0.99412078  0.69738922  1
  Fe  Fe8  1  0.74252605  0.27886974  0.08318757  1
  Fe  Fe9  1  0.75747395  0.77886974  0.41681243  1
  Fe  Fe10  1  0.25747395  0.72113026  0.91681243  1
  Fe  Fe11  1  0.24252605  0.22113026  0.58318757  1
  O  O12  1  0.70481106  0.00719590  0.40419791  1
  O  O13  1  0.79518894  0.50719590  0.09580209  1
  O  O14  1  0.29518894  0.99280410  0.59580209  1
  O  O15  1  0.20481106  0.49280410  0.90419791  1
  O  O16  1  0.49673100  0.24427578  0.16299102  1
  O  O17  1  0.00326900  0.74427578  0.33700898  1
  O  O18  1  0.50326900  0.75572422  0.83700898  1
  O  O19  1  0.99673100  0.25572422  0.66299102  1
  O  O20  1  0.00164112  0.18297717  0.13233291  1
  O  O21  1  0.49835888  0.68297717  0.36766709  1
  O  O22  1  0.99835888  0.81702283  0.86766709  1
  O  O23  1  0.50164112  0.31702283  0.63233291  1
  O  O24  1  0.68253879  0.16856817  0.92730882  1
  O  O25  1  0.81746121  0.66856817  0.57269118  1
  O  O26  1  0.31746121  0.83143183  0.07269118  1
  O  O27  1  0.18253879  0.33143183  0.42730882  1
