# generated using pymatgen
data_Na2Mn2O3
_symmetry_space_group_name_H-M   'P 1'
_cell_length_a   6.48881561
_cell_length_b   6.48881561
_cell_length_c   9.63722968
_cell_angle_alpha   90.00000000
_cell_angle_beta   90.00000000
_cell_angle_gamma   90.00000000
_symmetry_Int_Tables_number   1
_chemical_formula_structural   Na2Mn2O3
_chemical_formula_sum   'Na8 Mn8 O12'
_cell_volume   405.77293455
_cell_formula_units_Z   4
loop_
 _symmetry_equiv_pos_site_id
 _symmetry_equiv_pos_as_xyz
  1  'x, y, z'
loop_
 _atom_site_type_symbol
 _atom_site_label
 _atom_site_symmetry_multiplicity
 _atom_site_fract_x
 _atom_site_fract_y
 _atom_site_fract_z
 _atom_site_occupancy
  Na  Na0  1  0.52131376  0.74036170  0.36176154  1
  Na  Na1  1  0.47868624  0.25963830  0.86176154  1
  Na  Na2  1  0.24036170  0.97868624  0.61176154  1
  Na  Na3  1  0.75963830  0.02131376  0.11176154  1
  Na  Na4  1  0.02131376  0.75963830  0.88823846  1
  Na  Na5  1  0.97868624  0.24036170  0.38823846  1
  Na  Na6  1  0.25963830  0.47868624  0.13823846  1
  Na  Na7  1  0.74036170  0.52131376  0.63823846  1
  Mn  Mn8  1  0.45829120  0.24602657  0.38407955  1
  Mn  Mn9  1  0.74602657  0.04170880  0.63407955  1
  Mn  Mn10  1  0.95829120  0.25397343  0.86592045  1
  Mn  Mn11  1  0.75397343  0.54170880  0.11592045  1
  Mn  Mn12  1  0.25397343  0.95829120  0.13407955  1
  Mn  Mn13  1  0.54170880  0.75397343  0.88407955  1
  Mn  Mn14  1  0.04170880  0.74602657  0.36592045  1
  Mn  Mn15  1  0.24602657  0.45829120  0.61592045  1
  O  O16  1  0.19087512  0.19087512  0.00000000  1
  O  O17  1  0.69087512  0.30912488  0.25000000  1
  O  O18  1  0.80912488  0.80912488  0.50000000  1
  O  O19  1  0.74468730  0.00091019  0.85302814  1
  O  O20  1  0.25531270  0.99908981  0.35302814  1
  O  O21  1  0.30912488  0.69087512  0.75000000  1
  O  O22  1  0.24468730  0.49908981  0.39697186  1
  O  O23  1  0.99908981  0.25531270  0.64697186  1
  O  O24  1  0.50091019  0.75531270  0.10302814  1
  O  O25  1  0.49908981  0.24468730  0.60302814  1
  O  O26  1  0.75531270  0.50091019  0.89697186  1
  O  O27  1  0.00091019  0.74468730  0.14697186  1
