# generated using pymatgen
data_CsErS2
_symmetry_space_group_name_H-M   'P 1'
_cell_length_a   8.38219358
_cell_length_b   8.38219347
_cell_length_c   8.38219333
_cell_angle_alpha   28.08958359
_cell_angle_beta   28.08958500
_cell_angle_gamma   28.08958627
_symmetry_Int_Tables_number   1
_chemical_formula_structural   CsErS2
_chemical_formula_sum   'Cs1 Er1 S2'
_cell_volume   115.33862089
_cell_formula_units_Z   1
loop_
 _symmetry_equiv_pos_site_id
 _symmetry_equiv_pos_as_xyz
  1  'x, y, z'
loop_
 _atom_site_type_symbol
 _atom_site_label
 _atom_site_symmetry_multiplicity
 _atom_site_fract_x
 _atom_site_fract_y
 _atom_site_fract_z
 _atom_site_occupancy
  Cs  Cs0  1  0.00000000  0.00000000  0.00000000  1
  Er  Er1  1  0.50000000  0.50000000  0.50000000  1
  S  S2  1  0.22698936  0.22698936  0.22698936  1
  S  S3  1  0.77301064  0.77301064  0.77301064  1
