# generated using pymatgen
data_Sm2(CoCu)5
_symmetry_space_group_name_H-M   'P 1'
_cell_length_a   4.05662144
_cell_length_b   5.03175970
_cell_length_c   8.56305671
_cell_angle_alpha   90.00000034
_cell_angle_beta   90.00000000
_cell_angle_gamma   90.00000000
_symmetry_Int_Tables_number   1
_chemical_formula_structural   Sm2(CoCu)5
_chemical_formula_sum   'Sm2 Co5 Cu5'
_cell_volume   174.78863657
_cell_formula_units_Z   1
loop_
 _symmetry_equiv_pos_site_id
 _symmetry_equiv_pos_as_xyz
  1  'x, y, z'
loop_
 _atom_site_type_symbol
 _atom_site_label
 _atom_site_symmetry_multiplicity
 _atom_site_fract_x
 _atom_site_fract_y
 _atom_site_fract_z
 _atom_site_occupancy
  Sm  Sm0  1  -0.00000000  0.99998332  0.00000000  1
  Sm  Sm1  1  -0.00000000  0.49997493  0.50000000  1
  Co  Co2  1  0.00000000  -0.00000637  0.34747235  1
  Co  Co3  1  0.00000000  0.49999458  0.83596957  1
  Co  Co4  1  -0.00000000  0.49999458  0.16403043  1
  Co  Co5  1  -0.00000000  -0.00000637  0.65252765  1
  Co  Co6  1  0.50000000  0.99997097  0.50000000  1
  Cu  Cu7  1  0.50000000  0.49998825  0.00000000  1
  Cu  Cu8  1  0.50000000  0.25032364  0.25197985  1
  Cu  Cu9  1  0.50000000  0.74962942  0.74802372  1
  Cu  Cu10  1  0.50000000  0.74962942  0.25197628  1
  Cu  Cu11  1  0.50000000  0.25032364  0.74802015  1
