# generated using pymatgen
data_Ba6Na2Mn2Ru2O17
_symmetry_space_group_name_H-M   'P 1'
_cell_length_a   5.92056684
_cell_length_b   5.92056763
_cell_length_c   30.11224707
_cell_angle_alpha   90.00000000
_cell_angle_beta   90.00000000
_cell_angle_gamma   120.00000118
_symmetry_Int_Tables_number   1
_chemical_formula_structural   Ba6Na2Mn2Ru2O17
_chemical_formula_sum   'Ba12 Na4 Mn4 Ru4 O34'
_cell_volume   914.11413886
_cell_formula_units_Z   2
loop_
 _symmetry_equiv_pos_site_id
 _symmetry_equiv_pos_as_xyz
  1  'x, y, z'
loop_
 _atom_site_type_symbol
 _atom_site_label
 _atom_site_symmetry_multiplicity
 _atom_site_fract_x
 _atom_site_fract_y
 _atom_site_fract_z
 _atom_site_occupancy
  Ba  Ba0  1  0.33333300  0.66666700  0.17970680  1
  Ba  Ba1  1  0.66666700  0.33333300  0.67970680  1
  Ba  Ba2  1  0.66666700  0.33333300  0.82029320  1
  Ba  Ba3  1  0.33333300  0.66666700  0.32029320  1
  Ba  Ba4  1  0.33333300  0.66666700  0.59192003  1
  Ba  Ba5  1  0.66666700  0.33333300  0.09192003  1
  Ba  Ba6  1  0.66666700  0.33333300  0.40807997  1
  Ba  Ba7  1  0.33333300  0.66666700  0.90807997  1
  Ba  Ba8  1  0.00000000  0.00000000  0.00000000  1
  Ba  Ba9  1  0.00000000  0.00000000  0.50000000  1
  Ba  Ba10  1  0.00000000  0.00000000  0.25000000  1
  Ba  Ba11  1  0.00000000  0.00000000  0.75000000  1
  Na  Na12  1  0.00000000  0.00000000  0.12431491  1
  Na  Na13  1  0.00000000  0.00000000  0.62431491  1
  Na  Na14  1  0.00000000  0.00000000  0.87568509  1
  Na  Na15  1  0.00000000  0.00000000  0.37568509  1
  Mn  Mn16  1  0.33333300  0.66666700  0.05231221  1
  Mn  Mn17  1  0.66666700  0.33333300  0.55231221  1
  Mn  Mn18  1  0.66666700  0.33333300  0.94768779  1
  Mn  Mn19  1  0.33333300  0.66666700  0.44768779  1
  Ru  Ru20  1  0.33333300  0.66666700  0.70372994  1
  Ru  Ru21  1  0.66666700  0.33333300  0.20372994  1
  Ru  Ru22  1  0.66666700  0.33333300  0.29627006  1
  Ru  Ru23  1  0.33333300  0.66666700  0.79627006  1
  O  O24  1  0.17648225  0.35296351  0.42685595  1
  O  O25  1  0.82351775  0.17648225  0.92685595  1
  O  O26  1  0.35296351  0.17648225  0.92685595  1
  O  O27  1  0.64703649  0.82351775  0.42685595  1
  O  O28  1  0.17648225  0.82351775  0.42685595  1
  O  O29  1  0.82351775  0.64703649  0.57314405  1
  O  O30  1  0.82351775  0.17648225  0.57314405  1
  O  O31  1  0.82351775  0.64703649  0.92685595  1
  O  O32  1  0.35296351  0.17648225  0.57314405  1
  O  O33  1  0.64703649  0.82351775  0.07314405  1
  O  O34  1  0.17648225  0.35296351  0.07314405  1
  O  O35  1  0.17648225  0.82351775  0.07314405  1
  O  O36  1  0.17679353  0.35358606  0.83011452  1
  O  O37  1  0.82320647  0.17679353  0.33011452  1
  O  O38  1  0.35358606  0.17679353  0.33011452  1
  O  O39  1  0.64641394  0.82320647  0.83011452  1
  O  O40  1  0.17679353  0.82320647  0.83011452  1
  O  O41  1  0.82320647  0.64641394  0.16988548  1
  O  O42  1  0.82320647  0.17679353  0.16988548  1
  O  O43  1  0.82320647  0.64641394  0.33011452  1
  O  O44  1  0.35358606  0.17679353  0.16988548  1
  O  O45  1  0.64641394  0.82320647  0.66988548  1
  O  O46  1  0.17679353  0.35358606  0.66988548  1
  O  O47  1  0.17679353  0.82320647  0.66988548  1
  O  O48  1  0.51372984  0.02745868  0.25000000  1
  O  O49  1  0.48627016  0.51372984  0.75000000  1
  O  O50  1  0.02745868  0.51372984  0.75000000  1
  O  O51  1  0.97254132  0.48627016  0.25000000  1
  O  O52  1  0.51372984  0.48627016  0.25000000  1
  O  O53  1  0.48627016  0.97254132  0.75000000  1
  O  O54  1  0.33333300  0.66666700  0.50394566  1
  O  O55  1  0.66666700  0.33333300  0.00394566  1
  O  O56  1  0.66666700  0.33333300  0.49605434  1
  O  O57  1  0.33333300  0.66666700  0.99605434  1
