# generated using pymatgen
data_CsBO2
_symmetry_space_group_name_H-M   'P 1'
_cell_length_a   8.48486620
_cell_length_b   8.48486583
_cell_length_c   8.48486578
_cell_angle_alpha   109.23304465
_cell_angle_beta   109.23304383
_cell_angle_gamma   109.23304459
_symmetry_Int_Tables_number   1
_chemical_formula_structural   CsBO2
_chemical_formula_sum   'Cs6 B6 O12'
_cell_volume   474.33426701
_cell_formula_units_Z   6
loop_
 _symmetry_equiv_pos_site_id
 _symmetry_equiv_pos_as_xyz
  1  'x, y, z'
loop_
 _atom_site_type_symbol
 _atom_site_label
 _atom_site_symmetry_multiplicity
 _atom_site_fract_x
 _atom_site_fract_y
 _atom_site_fract_z
 _atom_site_occupancy
  Cs  Cs0  1  0.30878057  0.75000000  0.19121943  1
  Cs  Cs1  1  0.19121943  0.30878057  0.75000000  1
  Cs  Cs2  1  0.69121943  0.25000000  0.80878057  1
  Cs  Cs3  1  0.25000000  0.80878057  0.69121943  1
  Cs  Cs4  1  0.75000000  0.19121943  0.30878057  1
  Cs  Cs5  1  0.80878057  0.69121943  0.25000000  1
  B  B6  1  0.85537063  0.64462937  0.75000000  1
  B  B7  1  0.25000000  0.14462937  0.35537063  1
  B  B8  1  0.35537063  0.25000000  0.14462937  1
  B  B9  1  0.14462937  0.35537063  0.25000000  1
  B  B10  1  0.64462937  0.75000000  0.85537063  1
  B  B11  1  0.75000000  0.85537063  0.64462937  1
  O  O12  1  0.85071508  0.75000000  0.64928492  1
  O  O13  1  0.35071508  0.14928492  0.25000000  1
  O  O14  1  0.14928492  0.25000000  0.35071508  1
  O  O15  1  0.45138946  0.25000000  0.04861054  1
  O  O16  1  0.95138946  0.54861054  0.75000000  1
  O  O17  1  0.75000000  0.95138946  0.54861054  1
  O  O18  1  0.04861054  0.45138946  0.25000000  1
  O  O19  1  0.64928492  0.85071508  0.75000000  1
  O  O20  1  0.25000000  0.35071508  0.14928492  1
  O  O21  1  0.75000000  0.64928492  0.85071508  1
  O  O22  1  0.54861054  0.75000000  0.95138946  1
  O  O23  1  0.25000000  0.04861054  0.45138946  1
