# generated using pymatgen
data_Cs2Ca2Be3F12
_symmetry_space_group_name_H-M   'P 1'
_cell_length_a   10.81764582
_cell_length_b   10.81764582
_cell_length_c   10.81764582
_cell_angle_alpha   90.00000000
_cell_angle_beta   90.00000000
_cell_angle_gamma   90.00000000
_symmetry_Int_Tables_number   1
_chemical_formula_structural   Cs2Ca2Be3F12
_chemical_formula_sum   'Cs8 Ca8 Be12 F48'
_cell_volume   1265.89671938
_cell_formula_units_Z   4
loop_
 _symmetry_equiv_pos_site_id
 _symmetry_equiv_pos_as_xyz
  1  'x, y, z'
loop_
 _atom_site_type_symbol
 _atom_site_label
 _atom_site_symmetry_multiplicity
 _atom_site_fract_x
 _atom_site_fract_y
 _atom_site_fract_z
 _atom_site_occupancy
  Cs  Cs0  1  0.93532434  0.56467566  0.43532434  1
  Cs  Cs1  1  0.43532434  0.93532434  0.56467566  1
  Cs  Cs2  1  0.56467566  0.43532434  0.93532434  1
  Cs  Cs3  1  0.20305917  0.70305917  0.79694083  1
  Cs  Cs4  1  0.79694083  0.20305917  0.70305917  1
  Cs  Cs5  1  0.29694083  0.29694083  0.29694083  1
  Cs  Cs6  1  0.70305917  0.79694083  0.20305917  1
  Cs  Cs7  1  0.06467566  0.06467566  0.06467566  1
  Ca  Ca8  1  0.91765303  0.41765303  0.08234697  1
  Ca  Ca9  1  0.58234697  0.58234697  0.58234697  1
  Ca  Ca10  1  0.08234697  0.91765303  0.41765303  1
  Ca  Ca11  1  0.34472488  0.65527512  0.15527512  1
  Ca  Ca12  1  0.65527512  0.15527512  0.34472488  1
  Ca  Ca13  1  0.15527512  0.34472488  0.65527512  1
  Ca  Ca14  1  0.84472488  0.84472488  0.84472488  1
  Ca  Ca15  1  0.41765303  0.08234697  0.91765303  1
  Be  Be16  1  0.73590591  0.12523750  0.03179931  1
  Be  Be17  1  0.46820069  0.26409409  0.62523750  1
  Be  Be18  1  0.53179931  0.76409409  0.87476250  1
  Be  Be19  1  0.23590591  0.37476250  0.96820069  1
  Be  Be20  1  0.96820069  0.23590591  0.37476250  1
  Be  Be21  1  0.03179931  0.73590591  0.12523750  1
  Be  Be22  1  0.87476250  0.53179931  0.76409409  1
  Be  Be23  1  0.26409409  0.62523750  0.46820069  1
  Be  Be24  1  0.37476250  0.96820069  0.23590591  1
  Be  Be25  1  0.76409409  0.87476250  0.53179931  1
  Be  Be26  1  0.62523750  0.46820069  0.26409409  1
  Be  Be27  1  0.12523750  0.03179931  0.73590591  1
  F  F28  1  0.48646975  0.18720743  0.74733845  1
  F  F29  1  0.83057431  0.24465409  0.41879167  1
  F  F30  1  0.18720743  0.74733845  0.48646975  1
  F  F31  1  0.58120833  0.33057431  0.25534591  1
  F  F32  1  0.98646975  0.31279257  0.25266155  1
  F  F33  1  0.70567832  0.97598686  0.44510861  1
  F  F34  1  0.75534591  0.91879167  0.66942569  1
  F  F35  1  0.55489139  0.20567832  0.52401314  1
  F  F36  1  0.99510474  0.59902211  0.15028550  1
  F  F37  1  0.20567832  0.52401314  0.55489139  1
  F  F38  1  0.24465409  0.41879167  0.83057431  1
  F  F39  1  0.91879167  0.66942569  0.75534591  1
  F  F40  1  0.97598686  0.44510861  0.70567832  1
  F  F41  1  0.31279257  0.25266155  0.98646975  1
  F  F42  1  0.34971450  0.00489526  0.09902211  1
  F  F43  1  0.29432168  0.47598686  0.05489139  1
  F  F44  1  0.47598686  0.05489139  0.29432168  1
  F  F45  1  0.00489526  0.09902211  0.34971450  1
  F  F46  1  0.25266155  0.98646975  0.31279257  1
  F  F47  1  0.74733845  0.48646975  0.18720743  1
  F  F48  1  0.01353025  0.81279257  0.24733845  1
  F  F49  1  0.49510474  0.90097789  0.84971450  1
  F  F50  1  0.66942569  0.75534591  0.91879167  1
  F  F51  1  0.09902211  0.34971450  0.00489526  1
  F  F52  1  0.40097789  0.65028550  0.50489526  1
  F  F53  1  0.25534591  0.58120833  0.33057431  1
  F  F54  1  0.08120833  0.16942569  0.74465409  1
  F  F55  1  0.05489139  0.29432168  0.47598686  1
  F  F56  1  0.84971450  0.49510474  0.90097789  1
  F  F57  1  0.79432168  0.02401314  0.94510861  1
  F  F58  1  0.44510861  0.70567832  0.97598686  1
  F  F59  1  0.59902211  0.15028550  0.99510474  1
  F  F60  1  0.52401314  0.55489139  0.20567832  1
  F  F61  1  0.50489526  0.40097789  0.65028550  1
  F  F62  1  0.15028550  0.99510474  0.59902211  1
  F  F63  1  0.68720743  0.75266155  0.51353025  1
  F  F64  1  0.33057431  0.25534591  0.58120833  1
  F  F65  1  0.02401314  0.94510861  0.79432168  1
  F  F66  1  0.90097789  0.84971450  0.49510474  1
  F  F67  1  0.81279257  0.24733845  0.01353025  1
  F  F68  1  0.74465409  0.08120833  0.16942569  1
  F  F69  1  0.41879167  0.83057431  0.24465409  1
  F  F70  1  0.75266155  0.51353025  0.68720743  1
  F  F71  1  0.24733845  0.01353025  0.81279257  1
  F  F72  1  0.16942569  0.74465409  0.08120833  1
  F  F73  1  0.94510861  0.79432168  0.02401314  1
  F  F74  1  0.65028550  0.50489526  0.40097789  1
  F  F75  1  0.51353025  0.68720743  0.75266155  1
