# generated using pymatgen
data_Yb(GaS2)2
_symmetry_space_group_name_H-M   'P 1'
_cell_length_a   11.76846112
_cell_length_b   11.76846118
_cell_length_c   11.77823357
_cell_angle_alpha   105.57059678
_cell_angle_beta   105.57059684
_cell_angle_gamma   117.56167690
_symmetry_Int_Tables_number   1
_chemical_formula_structural   Yb(GaS2)2
_chemical_formula_sum   'Yb8 Ga16 S32'
_cell_volume   1237.08667994
_cell_formula_units_Z   8
loop_
 _symmetry_equiv_pos_site_id
 _symmetry_equiv_pos_as_xyz
  1  'x, y, z'
loop_
 _atom_site_type_symbol
 _atom_site_label
 _atom_site_symmetry_multiplicity
 _atom_site_fract_x
 _atom_site_fract_y
 _atom_site_fract_z
 _atom_site_occupancy
  Yb  Yb0  1  0.12691629  0.37691629  0.75383257  1
  Yb  Yb1  1  0.87308371  0.62308371  0.24616743  1
  Yb  Yb2  1  0.37691629  0.12691629  0.25383257  1
  Yb  Yb3  1  0.37500000  0.62500000  0.25000000  1
  Yb  Yb4  1  0.12500000  0.87500000  0.75000000  1
  Yb  Yb5  1  0.87500000  0.12500000  0.25000000  1
  Yb  Yb6  1  0.62308371  0.87308371  0.74616743  1
  Yb  Yb7  1  0.62500000  0.37500000  0.75000000  1
  Ga  Ga8  1  0.13627358  0.11298937  0.50026314  1
  Ga  Ga9  1  0.63993733  0.53107013  0.49842023  1
  Ga  Ga10  1  0.86398956  0.38727377  0.50026314  1
  Ga  Ga11  1  0.36006267  0.46892987  0.50157977  1
  Ga  Ga12  1  0.53107013  0.63993733  0.99842023  1
  Ga  Ga13  1  0.11298937  0.13627358  1.00026314  1
  Ga  Ga14  1  0.13601044  0.61272623  0.49973686  1
  Ga  Ga15  1  0.38727377  0.86398956  1.00026314  1
  Ga  Ga16  1  0.35848290  0.96735010  0.49842023  1
  Ga  Ga17  1  0.96735010  0.35848290  0.99842023  1
  Ga  Ga18  1  0.61272623  0.13601044  -0.00026314  1
  Ga  Ga19  1  0.03264990  0.64151710  0.00157977  1
  Ga  Ga20  1  0.64151710  0.03264990  0.50157977  1
  Ga  Ga21  1  0.86372642  0.88701063  0.49973686  1
  Ga  Ga22  1  0.88701063  0.86372642  -0.00026314  1
  Ga  Ga23  1  0.46892987  0.36006267  0.00157977  1
  S  S24  1  0.58742996  0.08638895  0.17203274  1
  S  S25  1  0.65747306  0.34490565  0.99899522  1
  S  S26  1  0.58433401  0.08510688  0.67320674  1
  S  S27  1  0.65509435  0.34252694  0.50100478  1
  S  S28  1  0.81473972  0.14892321  0.99675983  1
  S  S29  1  0.84152216  0.65408957  0.99899522  1
  S  S30  1  0.58809987  0.58887273  0.17320674  1
  S  S31  1  0.68202011  0.84783662  0.99675983  1
  S  S32  1  0.91539722  0.91435621  0.82796726  1
  S  S33  1  0.41257004  0.91361105  0.82796726  1
  S  S34  1  0.08510688  0.58433401  0.17320674  1
  S  S35  1  0.14892321  0.81473972  0.49675983  1
  S  S36  1  0.08638895  0.58742996  0.67203274  1
  S  S37  1  0.34591043  0.15847784  0.50100478  1
  S  S38  1  0.08564379  0.08460278  0.67203274  1
  S  S39  1  0.41112727  0.41190013  0.32679326  1
  S  S40  1  0.91435621  0.91539722  0.32796726  1
  S  S41  1  0.91361105  0.41257004  0.32796726  1
  S  S42  1  0.34490565  0.65747306  0.49899522  1
  S  S43  1  0.15847784  0.34591043  0.00100478  1
  S  S44  1  0.91489312  0.41566599  0.82679326  1
  S  S45  1  0.08460278  0.08564379  0.17203274  1
  S  S46  1  0.85107679  0.18526028  0.50324017  1
  S  S47  1  0.18526028  0.85107679  0.00324017  1
  S  S48  1  0.84783662  0.68202011  0.49675983  1
  S  S49  1  0.34252694  0.65509435  0.00100478  1
  S  S50  1  0.41190013  0.41112727  0.82679326  1
  S  S51  1  0.65408957  0.84152216  0.49899522  1
  S  S52  1  0.31797989  0.15216338  0.00324017  1
  S  S53  1  0.58887273  0.58809987  0.67320674  1
  S  S54  1  0.41566599  0.91489312  0.32679326  1
  S  S55  1  0.15216338  0.31797989  0.50324017  1
