# generated using pymatgen
data_CsAuSe3
_symmetry_space_group_name_H-M   'P 1'
_cell_length_a   6.70624081
_cell_length_b   7.79075350
_cell_length_c   7.79786296
_cell_angle_alpha   80.84821752
_cell_angle_beta   68.29871753
_cell_angle_gamma   64.49336778
_symmetry_Int_Tables_number   1
_chemical_formula_structural   CsAuSe3
_chemical_formula_sum   'Cs2 Au2 Se6'
_cell_volume   341.64280590
_cell_formula_units_Z   2
loop_
 _symmetry_equiv_pos_site_id
 _symmetry_equiv_pos_as_xyz
  1  'x, y, z'
loop_
 _atom_site_type_symbol
 _atom_site_label
 _atom_site_symmetry_multiplicity
 _atom_site_fract_x
 _atom_site_fract_y
 _atom_site_fract_z
 _atom_site_occupancy
  Cs  Cs0  1  0.85300758  0.29401580  0.25000418  1
  Cs  Cs1  1  0.14699242  0.70598420  0.74999582  1
  Au  Au2  1  0.42332088  0.15343245  0.74993484  1
  Au  Au3  1  0.57667912  0.84656755  0.25006516  1
  Se  Se4  1  0.80559971  0.82201721  0.44229304  1
  Se  Se5  1  0.62751225  0.17809981  0.94220878  1
  Se  Se6  1  0.19440029  0.17798279  0.55770696  1
  Se  Se7  1  0.37248775  0.82190019  0.05779122  1
  Se  Se8  1  0.19289484  0.61427596  0.24999251  1
  Se  Se9  1  0.80710516  0.38572404  0.75000749  1
