# generated using pymatgen
data_CsBi3Se5
_symmetry_space_group_name_H-M   'P 1'
_cell_length_a   4.22005614
_cell_length_b   12.58137624
_cell_length_c   23.22580591
_cell_angle_alpha   90.00000000
_cell_angle_beta   90.00000000
_cell_angle_gamma   90.00000000
_symmetry_Int_Tables_number   1
_chemical_formula_structural   CsBi3Se5
_chemical_formula_sum   'Cs4 Bi12 Se20'
_cell_volume   1233.15358792
_cell_formula_units_Z   4
loop_
 _symmetry_equiv_pos_site_id
 _symmetry_equiv_pos_as_xyz
  1  'x, y, z'
loop_
 _atom_site_type_symbol
 _atom_site_label
 _atom_site_symmetry_multiplicity
 _atom_site_fract_x
 _atom_site_fract_y
 _atom_site_fract_z
 _atom_site_occupancy
  Cs  Cs0  1  0.25000000  0.98955425  0.28751948  1
  Cs  Cs1  1  0.75000000  0.48955425  0.21248052  1
  Cs  Cs2  1  0.75000000  0.01044575  0.71248052  1
  Cs  Cs3  1  0.25000000  0.51044575  0.78751948  1
  Bi  Bi4  1  0.75000000  0.80407161  0.12119076  1
  Bi  Bi5  1  0.25000000  0.40762611  0.57274904  1
  Bi  Bi6  1  0.25000000  0.19592839  0.87880924  1
  Bi  Bi7  1  0.75000000  0.59237389  0.42725096  1
  Bi  Bi8  1  0.25000000  0.09237389  0.07274904  1
  Bi  Bi9  1  0.25000000  0.63644177  0.97608088  1
  Bi  Bi10  1  0.25000000  0.30407161  0.37880924  1
  Bi  Bi11  1  0.25000000  0.86355823  0.47608088  1
  Bi  Bi12  1  0.75000000  0.90762611  0.92725096  1
  Bi  Bi13  1  0.75000000  0.69592839  0.62119076  1
  Bi  Bi14  1  0.75000000  0.36355823  0.02391912  1
  Bi  Bi15  1  0.75000000  0.13644177  0.52391912  1
  Se  Se16  1  0.25000000  0.75008024  0.69605024  1
  Se  Se17  1  0.75000000  0.13948263  0.98085010  1
  Se  Se18  1  0.25000000  0.30532233  0.10916594  1
  Se  Se19  1  0.75000000  0.58543445  0.06130686  1
  Se  Se20  1  0.25000000  0.08543445  0.43869314  1
  Se  Se21  1  0.75000000  0.91456555  0.56130686  1
  Se  Se22  1  0.25000000  0.41456555  0.93869314  1
  Se  Se23  1  0.25000000  0.86051737  0.01914990  1
  Se  Se24  1  0.75000000  0.36051737  0.48085010  1
  Se  Se25  1  0.75000000  0.25008024  0.80394976  1
  Se  Se26  1  0.25000000  0.52629053  0.34788843  1
  Se  Se27  1  0.25000000  0.97370947  0.84788843  1
  Se  Se28  1  0.75000000  0.80532233  0.39083406  1
  Se  Se29  1  0.75000000  0.47370947  0.65211157  1
  Se  Se30  1  0.25000000  0.19467767  0.60916594  1
  Se  Se31  1  0.25000000  0.74991976  0.19605024  1
  Se  Se32  1  0.75000000  0.02629053  0.15211157  1
  Se  Se33  1  0.75000000  0.24991976  0.30394976  1
  Se  Se34  1  0.75000000  0.69467767  0.89083406  1
  Se  Se35  1  0.25000000  0.63948263  0.51914990  1
