# generated using pymatgen
data_ZrAlPt
_symmetry_space_group_name_H-M   'P 1'
_cell_length_a   7.16523200
_cell_length_b   7.16523229
_cell_length_c   7.29246026
_cell_angle_alpha   90.00000000
_cell_angle_beta   90.00000000
_cell_angle_gamma   119.99999866
_symmetry_Int_Tables_number   1
_chemical_formula_structural   ZrAlPt
_chemical_formula_sum   'Zr6 Al6 Pt6'
_cell_volume   324.23899140
_cell_formula_units_Z   6
loop_
 _symmetry_equiv_pos_site_id
 _symmetry_equiv_pos_as_xyz
  1  'x, y, z'
loop_
 _atom_site_type_symbol
 _atom_site_label
 _atom_site_symmetry_multiplicity
 _atom_site_fract_x
 _atom_site_fract_y
 _atom_site_fract_z
 _atom_site_occupancy
  Zr  Zr0  1  0.01780996  0.60593877  0.75000000  1
  Zr  Zr1  1  0.98219004  0.58812882  0.25000000  1
  Zr  Zr2  1  0.60593877  0.01780996  0.25000000  1
  Zr  Zr3  1  0.58812882  0.98219004  0.75000000  1
  Zr  Zr4  1  0.41187118  0.39406123  0.25000000  1
  Zr  Zr5  1  0.39406123  0.41187118  0.75000000  1
  Al  Al6  1  0.00000000  0.25815447  0.50000000  1
  Al  Al7  1  0.74184553  0.74184553  0.00000000  1
  Al  Al8  1  0.00000000  0.25815447  0.00000000  1
  Al  Al9  1  0.25815447  0.00000000  0.50000000  1
  Al  Al10  1  0.25815447  0.00000000  0.00000000  1
  Al  Al11  1  0.74184553  0.74184553  0.50000000  1
  Pt  Pt12  1  0.33333300  0.66666700  0.47567711  1
  Pt  Pt13  1  0.66666700  0.33333300  0.52432289  1
  Pt  Pt14  1  0.66666700  0.33333300  0.97567711  1
  Pt  Pt15  1  0.00000000  0.00000000  0.25000000  1
  Pt  Pt16  1  0.00000000  0.00000000  0.75000000  1
  Pt  Pt17  1  0.33333300  0.66666700  0.02432289  1
