# generated using pymatgen
data_ScMn2Ga3S8
_symmetry_space_group_name_H-M   'P 1'
_cell_length_a   3.77468103
_cell_length_b   6.58844350
_cell_length_c   12.50563342
_cell_angle_alpha   90.08599118
_cell_angle_beta   90.01264350
_cell_angle_gamma   90.00830828
_symmetry_Int_Tables_number   1
_chemical_formula_structural   ScMn2Ga3S8
_chemical_formula_sum   'Sc1 Mn2 Ga3 S8'
_cell_volume   311.00564680
_cell_formula_units_Z   1
loop_
 _symmetry_equiv_pos_site_id
 _symmetry_equiv_pos_as_xyz
  1  'x, y, z'
loop_
 _atom_site_type_symbol
 _atom_site_label
 _atom_site_symmetry_multiplicity
 _atom_site_fract_x
 _atom_site_fract_y
 _atom_site_fract_z
 _atom_site_occupancy
  Sc  Sc0  1  0.00007051  0.33387135  0.21014970  1
  Mn  Mn1  1  0.00000331  0.00031736  0.50123441  1
  Mn  Mn2  1  0.49999548  0.49938928  0.50244096  1
  Ga  Ga3  1  0.50001956  0.83426277  0.21499905  1
  Ga  Ga4  1  0.49996748  0.16573659  0.78627923  1
  Ga  Ga5  1  0.99998237  0.66708802  0.78594890  1
  S  S6  1  0.00001775  0.33392242  0.86423315  1
  S  S7  1  0.50002354  0.83323865  0.86441183  1
  S  S8  1  0.49998357  0.14782665  0.12917042  1
  S  S9  1  0.99994884  0.68419712  0.13303584  1
  S  S10  1  0.00005087  0.33398497  0.39829126  1
  S  S11  1  0.50008643  0.83339942  0.39394684  1
  S  S12  1  0.49991844  0.16489254  0.60819607  1
  S  S13  1  0.99993185  0.66787284  0.60766233  1
