# generated using pymatgen
data_Nd23Cd4Rh7
_symmetry_space_group_name_H-M   'P 1'
_cell_length_a   10.02300261
_cell_length_b   10.02300216
_cell_length_c   22.62376903
_cell_angle_alpha   90.00000000
_cell_angle_beta   90.00000000
_cell_angle_gamma   120.00000144
_symmetry_Int_Tables_number   1
_chemical_formula_structural   Nd23Cd4Rh7
_chemical_formula_sum   'Nd46 Cd8 Rh14'
_cell_volume   1968.29981340
_cell_formula_units_Z   2
loop_
 _symmetry_equiv_pos_site_id
 _symmetry_equiv_pos_as_xyz
  1  'x, y, z'
loop_
 _atom_site_type_symbol
 _atom_site_label
 _atom_site_symmetry_multiplicity
 _atom_site_fract_x
 _atom_site_fract_y
 _atom_site_fract_z
 _atom_site_occupancy
  Nd  Nd0  1  0.25368629  0.12684314  0.63551308  1
  Nd  Nd1  1  0.45856715  0.91713431  0.85633451  1
  Nd  Nd2  1  0.74631371  0.87315686  0.13551308  1
  Nd  Nd3  1  0.79235944  0.20764056  0.94715937  1
  Nd  Nd4  1  0.08286569  0.54143285  0.85633451  1
  Nd  Nd5  1  0.46006969  0.92013939  0.58538963  1
  Nd  Nd6  1  0.53993031  0.07986061  0.08538963  1
  Nd  Nd7  1  0.87315686  0.12684314  0.63551308  1
  Nd  Nd8  1  0.79837784  0.20162216  0.78285721  1
  Nd  Nd9  1  0.41528112  0.20764056  0.94715937  1
  Nd  Nd10  1  0.45856715  0.54143285  0.85633451  1
  Nd  Nd11  1  0.58504872  0.79252436  0.72109441  1
  Nd  Nd12  1  0.54143285  0.08286569  0.35633451  1
  Nd  Nd13  1  0.92013939  0.46006969  0.08538963  1
  Nd  Nd14  1  0.79067832  0.58135663  0.48950568  1
  Nd  Nd15  1  0.79252436  0.58504872  0.22109441  1
  Nd  Nd16  1  0.79067832  0.20932168  0.48950568  1
  Nd  Nd17  1  0.91713431  0.45856715  0.35633451  1
  Nd  Nd18  1  0.20764056  0.41528112  0.44715937  1
  Nd  Nd19  1  0.40324432  0.20162216  0.78285721  1
  Nd  Nd20  1  0.41495128  0.20747564  0.22109441  1
  Nd  Nd21  1  0.54143285  0.45856715  0.35633451  1
  Nd  Nd22  1  0.66666700  0.33333300  0.64518811  1
  Nd  Nd23  1  0.00000000  0.00000000  0.49511405  1
  Nd  Nd24  1  0.79837784  0.59675568  0.78285721  1
  Nd  Nd25  1  0.20764056  0.79235944  0.44715937  1
  Nd  Nd26  1  0.79235944  0.58471888  0.94715937  1
  Nd  Nd27  1  0.12684314  0.25368629  0.13551308  1
  Nd  Nd28  1  0.87315686  0.74631371  0.63551308  1
  Nd  Nd29  1  0.07986061  0.53993031  0.58538963  1
  Nd  Nd30  1  0.20932168  0.79067832  0.98950568  1
  Nd  Nd31  1  0.59675568  0.79837784  0.28285721  1
  Nd  Nd32  1  0.58471888  0.79235944  0.44715937  1
  Nd  Nd33  1  0.20747564  0.41495128  0.72109441  1
  Nd  Nd34  1  0.53993031  0.46006969  0.08538963  1
  Nd  Nd35  1  0.20747564  0.79252436  0.72109441  1
  Nd  Nd36  1  0.41864337  0.20932168  0.48950568  1
  Nd  Nd37  1  0.46006969  0.53993031  0.58538963  1
  Nd  Nd38  1  0.20932168  0.41864337  0.98950568  1
  Nd  Nd39  1  0.00000000  0.00000000  0.99511405  1
  Nd  Nd40  1  0.58135663  0.79067832  0.98950568  1
  Nd  Nd41  1  0.20162216  0.79837784  0.28285721  1
  Nd  Nd42  1  0.20162216  0.40324432  0.28285721  1
  Nd  Nd43  1  0.79252436  0.20747564  0.22109441  1
  Nd  Nd44  1  0.12684314  0.87315686  0.13551308  1
  Nd  Nd45  1  0.33333300  0.66666700  0.14518811  1
  Cd  Cd46  1  0.21512315  0.10756158  0.36291884  1
  Cd  Cd47  1  0.78487685  0.89243842  0.86291884  1
  Cd  Cd48  1  0.10756158  0.89243842  0.86291884  1
  Cd  Cd49  1  0.10756158  0.21512315  0.86291884  1
  Cd  Cd50  1  0.89243842  0.10756158  0.36291884  1
  Cd  Cd51  1  0.89243842  0.78487685  0.36291884  1
  Cd  Cd52  1  0.00000000  0.00000000  0.24903077  1
  Cd  Cd53  1  0.00000000  0.00000000  0.74903077  1
  Rh  Rh54  1  0.52167785  0.04335570  0.71098159  1
  Rh  Rh55  1  0.28516116  0.14258058  0.06266700  1
  Rh  Rh56  1  0.85741942  0.14258058  0.06266700  1
  Rh  Rh57  1  0.14258058  0.28516116  0.56266700  1
  Rh  Rh58  1  0.04335570  0.52167785  0.21098159  1
  Rh  Rh59  1  0.47832215  0.95664430  0.21098159  1
  Rh  Rh60  1  0.85741942  0.71483884  0.06266700  1
  Rh  Rh61  1  0.33333300  0.66666700  0.36308312  1
  Rh  Rh62  1  0.14258058  0.85741942  0.56266700  1
  Rh  Rh63  1  0.47832215  0.52167785  0.21098159  1
  Rh  Rh64  1  0.52167785  0.47832215  0.71098159  1
  Rh  Rh65  1  0.71483884  0.85741942  0.56266700  1
  Rh  Rh66  1  0.95664430  0.47832215  0.71098159  1
  Rh  Rh67  1  0.66666700  0.33333300  0.86308312  1
