# generated using pymatgen
data_U11Ni16
_symmetry_space_group_name_H-M   'P 1'
_cell_length_a   9.61821309
_cell_length_b   9.61821387
_cell_length_c   9.61821315
_cell_angle_alpha   74.97169168
_cell_angle_beta   74.97169038
_cell_angle_gamma   74.97168891
_symmetry_Int_Tables_number   1
_chemical_formula_structural   U11Ni16
_chemical_formula_sum   'U22 Ni32'
_cell_volume   812.17269247
_cell_formula_units_Z   2
loop_
 _symmetry_equiv_pos_site_id
 _symmetry_equiv_pos_as_xyz
  1  'x, y, z'
loop_
 _atom_site_type_symbol
 _atom_site_label
 _atom_site_symmetry_multiplicity
 _atom_site_fract_x
 _atom_site_fract_y
 _atom_site_fract_z
 _atom_site_occupancy
  U  U0  1  0.88468215  0.41356735  0.57724479  1
  U  U1  1  0.58643265  0.42275521  0.11531785  1
  U  U2  1  0.42798917  0.42798917  0.42798917  1
  U  U3  1  0.41304295  0.94755021  0.12569929  1
  U  U4  1  0.57201083  0.57201083  0.57201083  1
  U  U5  1  0.58695705  0.05244979  0.87430071  1
  U  U6  1  0.72103186  0.14588287  0.05698979  1
  U  U7  1  0.42275521  0.11531785  0.58643265  1
  U  U8  1  0.94755021  0.12569929  0.41304295  1
  U  U9  1  0.87430071  0.58695705  0.05244979  1
  U  U10  1  0.19381559  0.19381559  0.19381559  1
  U  U11  1  0.41356735  0.57724479  0.88468215  1
  U  U12  1  0.12569929  0.41304295  0.94755021  1
  U  U13  1  0.14588287  0.05698979  0.72103186  1
  U  U14  1  0.11531785  0.58643265  0.42275521  1
  U  U15  1  0.05244979  0.87430071  0.58695705  1
  U  U16  1  0.57724479  0.88468215  0.41356735  1
  U  U17  1  0.80618441  0.80618441  0.80618441  1
  U  U18  1  0.85411713  0.94301021  0.27896814  1
  U  U19  1  0.05698979  0.72103186  0.14588287  1
  U  U20  1  0.27896814  0.85411713  0.94301021  1
  U  U21  1  0.94301021  0.27896814  0.85411713  1
  Ni  Ni22  1  0.84519595  0.11239036  0.72101264  1
  Ni  Ni23  1  0.99212706  0.57408886  0.72734241  1
  Ni  Ni24  1  0.64852308  0.33400614  0.81359823  1
  Ni  Ni25  1  0.18640177  0.35147692  0.66599386  1
  Ni  Ni26  1  0.55871003  0.81728413  0.72488435  1
  Ni  Ni27  1  0.88760964  0.27898736  0.15480405  1
  Ni  Ni28  1  0.72488435  0.55871003  0.81728413  1
  Ni  Ni29  1  0.81359823  0.64852308  0.33400614  1
  Ni  Ni30  1  0.74310249  0.41463738  0.34801421  1
  Ni  Ni31  1  0.66599386  0.18640177  0.35147692  1
  Ni  Ni32  1  0.41463738  0.34801421  0.74310249  1
  Ni  Ni33  1  0.42591114  0.27265759  0.00787294  1
  Ni  Ni34  1  0.72101264  0.84519595  0.11239036  1
  Ni  Ni35  1  0.06163556  0.06163556  0.06163556  1
  Ni  Ni36  1  0.72734241  0.99212706  0.57408886  1
  Ni  Ni37  1  0.27265759  0.00787294  0.42591114  1
  Ni  Ni38  1  0.00787294  0.42591114  0.27265759  1
  Ni  Ni39  1  0.93836444  0.93836444  0.93836444  1
  Ni  Ni40  1  0.57408886  0.72734241  0.99212706  1
  Ni  Ni41  1  0.33400614  0.81359823  0.64852308  1
  Ni  Ni42  1  0.81728413  0.72488435  0.55871003  1
  Ni  Ni43  1  0.44128997  0.18271587  0.27511565  1
  Ni  Ni44  1  0.35147692  0.66599386  0.18640177  1
  Ni  Ni45  1  0.18271587  0.27511565  0.44128997  1
  Ni  Ni46  1  0.34801421  0.74310249  0.41463738  1
  Ni  Ni47  1  0.58536262  0.65198579  0.25689751  1
  Ni  Ni48  1  0.27511565  0.44128997  0.18271587  1
  Ni  Ni49  1  0.25689751  0.58536262  0.65198579  1
  Ni  Ni50  1  0.11239036  0.72101264  0.84519595  1
  Ni  Ni51  1  0.15480405  0.88760964  0.27898736  1
  Ni  Ni52  1  0.65198579  0.25689751  0.58536262  1
  Ni  Ni53  1  0.27898736  0.15480405  0.88760964  1
