# generated using pymatgen
data_Sm4MgRh
_symmetry_space_group_name_H-M   'P 1'
_cell_length_a   9.89934858
_cell_length_b   9.89934815
_cell_length_c   9.89934868
_cell_angle_alpha   59.99999822
_cell_angle_beta   59.99999966
_cell_angle_gamma   60.00000026
_symmetry_Int_Tables_number   1
_chemical_formula_structural   Sm4MgRh
_chemical_formula_sum   'Sm16 Mg4 Rh4'
_cell_volume   685.96954164
_cell_formula_units_Z   4
loop_
 _symmetry_equiv_pos_site_id
 _symmetry_equiv_pos_as_xyz
  1  'x, y, z'
loop_
 _atom_site_type_symbol
 _atom_site_label
 _atom_site_symmetry_multiplicity
 _atom_site_fract_x
 _atom_site_fract_y
 _atom_site_fract_z
 _atom_site_occupancy
  Sm  Sm0  1  0.56423776  0.56423776  0.93576224  1
  Sm  Sm1  1  0.93576224  0.56423776  0.56423776  1
  Sm  Sm2  1  0.18790714  0.18790714  0.81209286  1
  Sm  Sm3  1  0.18790714  0.81209286  0.18790714  1
  Sm  Sm4  1  0.56423776  0.93576224  0.56423776  1
  Sm  Sm5  1  0.34684196  0.95947412  0.34684196  1
  Sm  Sm6  1  0.56423776  0.93576224  0.93576224  1
  Sm  Sm7  1  0.93576224  0.56423776  0.93576224  1
  Sm  Sm8  1  0.81209286  0.81209286  0.18790714  1
  Sm  Sm9  1  0.81209286  0.18790714  0.18790714  1
  Sm  Sm10  1  0.93576224  0.93576224  0.56423776  1
  Sm  Sm11  1  0.18790714  0.81209286  0.81209286  1
  Sm  Sm12  1  0.95947412  0.34684196  0.34684196  1
  Sm  Sm13  1  0.34684196  0.34684196  0.95947412  1
  Sm  Sm14  1  0.34684196  0.34684196  0.34684196  1
  Sm  Sm15  1  0.81209286  0.18790714  0.81209286  1
  Mg  Mg16  1  0.26216856  0.57927715  0.57927715  1
  Mg  Mg17  1  0.57927715  0.57927715  0.26216856  1
  Mg  Mg18  1  0.57927715  0.57927715  0.57927715  1
  Mg  Mg19  1  0.57927715  0.26216856  0.57927715  1
  Rh  Rh20  1  0.57417058  0.14194314  0.14194314  1
  Rh  Rh21  1  0.14194314  0.57417058  0.14194314  1
  Rh  Rh22  1  0.14194314  0.14194314  0.14194314  1
  Rh  Rh23  1  0.14194314  0.14194314  0.57417058  1
