# generated using pymatgen
data_RbPr6(CI6)2
_symmetry_space_group_name_H-M   'P 1'
_cell_length_a   9.77311966
_cell_length_b   9.80062923
_cell_length_c   10.26374994
_cell_angle_alpha   70.82858836
_cell_angle_beta   71.91440128
_cell_angle_gamma   72.58088696
_symmetry_Int_Tables_number   1
_chemical_formula_structural   RbPr6(CI6)2
_chemical_formula_sum   'Rb1 Pr6 C2 I12'
_cell_volume   861.09148833
_cell_formula_units_Z   1
loop_
 _symmetry_equiv_pos_site_id
 _symmetry_equiv_pos_as_xyz
  1  'x, y, z'
loop_
 _atom_site_type_symbol
 _atom_site_label
 _atom_site_symmetry_multiplicity
 _atom_site_fract_x
 _atom_site_fract_y
 _atom_site_fract_z
 _atom_site_occupancy
  Rb  Rb0  1  0.50000000  0.00000000  0.00000000  1
  Pr  Pr1  1  0.96921532  0.22840163  0.58963737  1
  Pr  Pr2  1  0.03078468  0.77159837  0.41036263  1
  Pr  Pr3  1  0.10847286  0.47637529  0.19290289  1
  Pr  Pr4  1  0.73033761  0.59015719  0.47608472  1
  Pr  Pr5  1  0.26966239  0.40984281  0.52391528  1
  Pr  Pr6  1  0.89152714  0.52362471  0.80709711  1
  C  C7  1  0.02408161  0.49436509  0.42947840  1
  C  C8  1  0.97591839  0.50563491  0.57052160  1
  I  I9  1  0.36626449  0.71906693  0.42975697  1
  I  I10  1  0.63373551  0.28093307  0.57024303  1
  I  I11  1  0.22284054  0.41220866  0.85659698  1
  I  I12  1  0.77715946  0.58779134  0.14340302  1
  I  I13  1  0.15969594  0.80202367  0.07770737  1
  I  I14  1  0.71692706  0.92876989  0.35424425  1
  I  I15  1  0.43607626  0.35124261  0.21983261  1
  I  I16  1  0.92993739  0.86338877  0.70907401  1
  I  I17  1  0.84030406  0.19797633  0.92229263  1
  I  I18  1  0.07006261  0.13661123  0.29092599  1
  I  I19  1  0.56392374  0.64875739  0.78016739  1
  I  I20  1  0.28307294  0.07123011  0.64575575  1
