# generated using pymatgen
data_Er5(NiTe)2
_symmetry_space_group_name_H-M   'P 1'
_cell_length_a   3.96184430
_cell_length_b   7.70141020
_cell_length_c   14.85696523
_cell_angle_alpha   90.00000000
_cell_angle_beta   90.00000000
_cell_angle_gamma   104.90490427
_symmetry_Int_Tables_number   1
_chemical_formula_structural   Er5(NiTe)2
_chemical_formula_sum   'Er10 Ni4 Te4'
_cell_volume   438.06044993
_cell_formula_units_Z   2
loop_
 _symmetry_equiv_pos_site_id
 _symmetry_equiv_pos_as_xyz
  1  'x, y, z'
loop_
 _atom_site_type_symbol
 _atom_site_label
 _atom_site_symmetry_multiplicity
 _atom_site_fract_x
 _atom_site_fract_y
 _atom_site_fract_z
 _atom_site_occupancy
  Er  Er0  1  0.95949708  0.91899417  0.87439561  1
  Er  Er1  1  0.04050292  0.08100583  0.12560439  1
  Er  Er2  1  0.25998576  0.51997152  0.62923372  1
  Er  Er3  1  0.04050292  0.08100583  0.37439561  1
  Er  Er4  1  0.60654175  0.21308351  0.75000000  1
  Er  Er5  1  0.74001424  0.48002848  0.37076628  1
  Er  Er6  1  0.74001424  0.48002848  0.12923372  1
  Er  Er7  1  0.25998576  0.51997152  0.87076628  1
  Er  Er8  1  0.39345825  0.78691649  0.25000000  1
  Er  Er9  1  0.95949708  0.91899417  0.62560439  1
  Ni  Ni10  1  0.58635073  0.17270146  0.25000000  1
  Ni  Ni11  1  0.81323914  0.62647828  0.75000000  1
  Ni  Ni12  1  0.41364927  0.82729854  0.75000000  1
  Ni  Ni13  1  0.18676086  0.37352172  0.25000000  1
  Te  Te14  1  0.61560544  0.23121089  0.53980911  1
  Te  Te15  1  0.38439456  0.76878911  0.46019089  1
  Te  Te16  1  0.61560544  0.23121089  0.96019089  1
  Te  Te17  1  0.38439456  0.76878911  0.03980911  1
