# generated using pymatgen
data_RbZr6CCl15
_symmetry_space_group_name_H-M   'P 1'
_cell_length_a   9.96992952
_cell_length_b   14.21674837
_cell_length_c   18.93029695
_cell_angle_alpha   90.00000000
_cell_angle_beta   90.00000000
_cell_angle_gamma   90.00000000
_symmetry_Int_Tables_number   1
_chemical_formula_structural   RbZr6CCl15
_chemical_formula_sum   'Rb4 Zr24 C4 Cl60'
_cell_volume   2683.17989694
_cell_formula_units_Z   4
loop_
 _symmetry_equiv_pos_site_id
 _symmetry_equiv_pos_as_xyz
  1  'x, y, z'
loop_
 _atom_site_type_symbol
 _atom_site_label
 _atom_site_symmetry_multiplicity
 _atom_site_fract_x
 _atom_site_fract_y
 _atom_site_fract_z
 _atom_site_occupancy
  Rb  Rb0  1  0.32606072  0.74769834  0.75000000  1
  Rb  Rb1  1  0.67393928  0.74769834  0.25000000  1
  Rb  Rb2  1  0.32606072  0.25230166  0.75000000  1
  Rb  Rb3  1  0.67393928  0.25230166  0.25000000  1
  Zr  Zr4  1  0.34633723  0.61465954  0.46990777  1
  Zr  Zr5  1  0.60989157  0.00000000  0.75000000  1
  Zr  Zr6  1  0.41962694  0.50000000  0.88751821  1
  Zr  Zr7  1  0.34633723  0.38534046  0.46990777  1
  Zr  Zr8  1  0.16374745  0.11487785  0.16365625  1
  Zr  Zr9  1  0.83625255  0.11487785  0.83634375  1
  Zr  Zr10  1  0.16374745  0.88512215  0.16365625  1
  Zr  Zr11  1  0.16374745  0.88512215  0.33634375  1
  Zr  Zr12  1  0.16374745  0.11487785  0.33634375  1
  Zr  Zr13  1  0.65366277  0.38534046  0.96990777  1
  Zr  Zr14  1  0.65366277  0.38534046  0.53009223  1
  Zr  Zr15  1  0.83625255  0.11487785  0.66365625  1
  Zr  Zr16  1  0.06508338  0.00000000  0.75000000  1
  Zr  Zr17  1  0.41962694  0.50000000  0.61248179  1
  Zr  Zr18  1  0.58037306  0.50000000  0.38751821  1
  Zr  Zr19  1  0.39010843  0.00000000  0.25000000  1
  Zr  Zr20  1  0.34633723  0.61465954  0.03009223  1
  Zr  Zr21  1  0.93491662  0.00000000  0.25000000  1
  Zr  Zr22  1  0.65366277  0.61465954  0.53009223  1
  Zr  Zr23  1  0.58037306  0.50000000  0.11248179  1
  Zr  Zr24  1  0.83625255  0.88512215  0.66365625  1
  Zr  Zr25  1  0.83625255  0.88512215  0.83634375  1
  Zr  Zr26  1  0.65366277  0.61465954  0.96990777  1
  Zr  Zr27  1  0.34633723  0.38534046  0.03009223  1
  C  C28  1  0.50000000  0.50000000  0.00000000  1
  C  C29  1  0.83788821  0.00000000  0.75000000  1
  C  C30  1  0.16211179  0.00000000  0.25000000  1
  C  C31  1  0.50000000  0.50000000  0.50000000  1
  Cl  Cl32  1  0.50000000  0.75169663  0.00000000  1
  Cl  Cl33  1  0.41912776  0.87511603  0.15548066  1
  Cl  Cl34  1  0.50000000  0.75169663  0.50000000  1
  Cl  Cl35  1  0.09268923  0.87467910  0.84598450  1
  Cl  Cl36  1  0.50000000  0.24830337  0.00000000  1
  Cl  Cl37  1  0.66320700  0.00000000  0.25000000  1
  Cl  Cl38  1  0.41912776  0.12488397  0.34451934  1
  Cl  Cl39  1  0.33679300  0.00000000  0.75000000  1
  Cl  Cl40  1  0.83138690  0.25050672  0.56487920  1
  Cl  Cl41  1  0.57956722  0.37559407  0.84131037  1
  Cl  Cl42  1  0.90731077  0.87467910  0.15401550  1
  Cl  Cl43  1  0.42043278  0.62440593  0.34131037  1
  Cl  Cl44  1  0.42043278  0.62440593  0.15868963  1
  Cl  Cl45  1  0.83769831  0.50000000  0.56597792  1
  Cl  Cl46  1  0.09268923  0.12532090  0.65401550  1
  Cl  Cl47  1  0.42043278  0.37559407  0.15868963  1
  Cl  Cl48  1  0.83138690  0.74949328  0.93512080  1
  Cl  Cl49  1  0.42043278  0.37559407  0.34131037  1
  Cl  Cl50  1  0.75935914  0.62620172  0.40654877  1
  Cl  Cl51  1  0.15556263  0.74787255  0.25000000  1
  Cl  Cl52  1  0.41912776  0.87511603  0.34451934  1
  Cl  Cl53  1  0.90731077  0.12532090  0.15401550  1
  Cl  Cl54  1  0.24064086  0.62620172  0.59345123  1
  Cl  Cl55  1  0.50000000  0.24830337  0.50000000  1
  Cl  Cl56  1  0.83138690  0.74949328  0.56487920  1
  Cl  Cl57  1  0.58087224  0.12488397  0.84451934  1
  Cl  Cl58  1  0.09268923  0.12532090  0.84598450  1
  Cl  Cl59  1  0.83769831  0.50000000  0.93402208  1
  Cl  Cl60  1  0.84443737  0.25212745  0.75000000  1
  Cl  Cl61  1  0.57956722  0.37559407  0.65868963  1
  Cl  Cl62  1  0.32161853  0.50000000  0.75000000  1
  Cl  Cl63  1  0.83138690  0.25050672  0.93512080  1
  Cl  Cl64  1  0.16230169  0.50000000  0.43402208  1
  Cl  Cl65  1  0.09268923  0.87467910  0.65401550  1
  Cl  Cl66  1  0.84443737  0.74787255  0.75000000  1
  Cl  Cl67  1  0.16230169  0.50000000  0.06597792  1
  Cl  Cl68  1  0.75935914  0.37379828  0.40654877  1
  Cl  Cl69  1  0.83694880  0.00000000  0.93953852  1
  Cl  Cl70  1  0.16861310  0.74949328  0.06487920  1
  Cl  Cl71  1  0.16861310  0.25050672  0.43512080  1
  Cl  Cl72  1  0.16305120  0.00000000  0.06046148  1
  Cl  Cl73  1  0.57956722  0.62440593  0.84131037  1
  Cl  Cl74  1  0.15556263  0.25212745  0.25000000  1
  Cl  Cl75  1  0.58087224  0.87511603  0.84451934  1
  Cl  Cl76  1  0.75935914  0.62620172  0.09345123  1
  Cl  Cl77  1  0.24064086  0.62620172  0.90654877  1
  Cl  Cl78  1  0.90731077  0.87467910  0.34598450  1
  Cl  Cl79  1  0.24064086  0.37379828  0.59345123  1
  Cl  Cl80  1  0.41912776  0.12488397  0.15548066  1
  Cl  Cl81  1  0.16305120  0.00000000  0.43953852  1
  Cl  Cl82  1  0.67838147  0.50000000  0.25000000  1
  Cl  Cl83  1  0.90731077  0.12532090  0.34598450  1
  Cl  Cl84  1  0.24064086  0.37379828  0.90654877  1
  Cl  Cl85  1  0.58087224  0.87511603  0.65548066  1
  Cl  Cl86  1  0.57956722  0.62440593  0.65868963  1
  Cl  Cl87  1  0.16861310  0.74949328  0.43512080  1
  Cl  Cl88  1  0.16861310  0.25050672  0.06487920  1
  Cl  Cl89  1  0.83694880  0.00000000  0.56046148  1
  Cl  Cl90  1  0.75935914  0.37379828  0.09345123  1
  Cl  Cl91  1  0.58087224  0.12488397  0.65548066  1
