# generated using pymatgen
data_Tb2Zn17
_symmetry_space_group_name_H-M   'P 1'
_cell_length_a   6.80270767
_cell_length_b   6.80270788
_cell_length_c   6.80270791
_cell_angle_alpha   82.55451235
_cell_angle_beta   82.55451214
_cell_angle_gamma   82.55450864
_symmetry_Int_Tables_number   1
_chemical_formula_structural   Tb2Zn17
_chemical_formula_sum   'Tb2 Zn17'
_cell_volume   307.47820174
_cell_formula_units_Z   1
loop_
 _symmetry_equiv_pos_site_id
 _symmetry_equiv_pos_as_xyz
  1  'x, y, z'
loop_
 _atom_site_type_symbol
 _atom_site_label
 _atom_site_symmetry_multiplicity
 _atom_site_fract_x
 _atom_site_fract_y
 _atom_site_fract_z
 _atom_site_occupancy
  Tb  Tb0  1  0.33485714  0.33485714  0.33485714  1
  Tb  Tb1  1  0.66514286  0.66514286  0.66514286  1
  Zn  Zn2  1  0.35168228  0.83840478  0.35168228  1
  Zn  Zn3  1  0.29683439  1.00000000  0.70316561  1
  Zn  Zn4  1  0.70316561  0.29683439  1.00000000  1
  Zn  Zn5  1  1.00000000  0.29683439  0.70316561  1
  Zn  Zn6  1  0.70316561  0.00000000  0.29683439  1
  Zn  Zn7  1  0.64831772  0.64831772  0.16159522  1
  Zn  Zn8  1  0.89990407  0.89990407  0.89990407  1
  Zn  Zn9  1  0.00000000  0.70316561  0.29683439  1
  Zn  Zn10  1  0.00000000  0.00000000  0.50000000  1
  Zn  Zn11  1  0.16159522  0.64831772  0.64831772  1
  Zn  Zn12  1  0.64831772  0.16159522  0.64831772  1
  Zn  Zn13  1  0.10009593  0.10009593  0.10009593  1
  Zn  Zn14  1  0.83840478  0.35168228  0.35168228  1
  Zn  Zn15  1  0.35168228  0.35168228  0.83840478  1
  Zn  Zn16  1  0.29683439  0.70316561  0.00000000  1
  Zn  Zn17  1  0.00000000  0.50000000  0.00000000  1
  Zn  Zn18  1  0.50000000  0.00000000  0.00000000  1
