# generated using pymatgen
data_AlHg2SbCl4
_symmetry_space_group_name_H-M   'P 1'
_cell_length_a   8.99104607
_cell_length_b   12.44215090
_cell_length_c   18.19549724
_cell_angle_alpha   90.00000000
_cell_angle_beta   90.00000000
_cell_angle_gamma   90.00000000
_symmetry_Int_Tables_number   1
_chemical_formula_structural   AlHg2SbCl4
_chemical_formula_sum   'Al8 Hg16 Sb8 Cl32'
_cell_volume   2035.49301098
_cell_formula_units_Z   8
loop_
 _symmetry_equiv_pos_site_id
 _symmetry_equiv_pos_as_xyz
  1  'x, y, z'
loop_
 _atom_site_type_symbol
 _atom_site_label
 _atom_site_symmetry_multiplicity
 _atom_site_fract_x
 _atom_site_fract_y
 _atom_site_fract_z
 _atom_site_occupancy
  Al  Al0  1  0.08434647  0.60842936  0.62595963  1
  Al  Al1  1  0.41565353  0.89157064  0.12595963  1
  Al  Al2  1  0.91565353  0.60842936  0.12595963  1
  Al  Al3  1  0.41565353  0.10842936  0.37404037  1
  Al  Al4  1  0.58434647  0.89157064  0.62595963  1
  Al  Al5  1  0.91565353  0.39157064  0.37404037  1
  Al  Al6  1  0.08434647  0.39157064  0.87404037  1
  Al  Al7  1  0.58434647  0.10842936  0.87404037  1
  Hg  Hg8  1  0.53809221  0.50000000  0.75000000  1
  Hg  Hg9  1  0.96190779  0.00000000  0.25000000  1
  Hg  Hg10  1  0.82394924  0.26278020  0.62237150  1
  Hg  Hg11  1  0.46190779  0.50000000  0.25000000  1
  Hg  Hg12  1  0.17605076  0.73721980  0.37762850  1
  Hg  Hg13  1  0.17605076  0.26278020  0.12237150  1
  Hg  Hg14  1  0.32394924  0.23721980  0.62237150  1
  Hg  Hg15  1  0.82394924  0.73721980  0.87762850  1
  Hg  Hg16  1  0.50000000  0.50000000  0.00000000  1
  Hg  Hg17  1  0.03809221  0.00000000  0.75000000  1
  Hg  Hg18  1  0.67605076  0.23721980  0.12237150  1
  Hg  Hg19  1  0.32394924  0.76278020  0.87762850  1
  Hg  Hg20  1  0.00000000  0.00000000  0.00000000  1
  Hg  Hg21  1  0.67605076  0.76278020  0.37762850  1
  Hg  Hg22  1  0.50000000  0.50000000  0.50000000  1
  Hg  Hg23  1  0.00000000  0.00000000  0.50000000  1
  Sb  Sb24  1  0.93910837  0.12206026  0.12382373  1
  Sb  Sb25  1  0.93910837  0.87793974  0.37617627  1
  Sb  Sb26  1  0.56089163  0.62206026  0.87617627  1
  Sb  Sb27  1  0.56089163  0.37793974  0.62382373  1
  Sb  Sb28  1  0.43910837  0.62206026  0.37617627  1
  Sb  Sb29  1  0.06089163  0.87793974  0.87617627  1
  Sb  Sb30  1  0.06089163  0.12206026  0.62382373  1
  Sb  Sb31  1  0.43910837  0.37793974  0.12382373  1
  Cl  Cl32  1  0.13624017  0.41926631  0.33429097  1
  Cl  Cl33  1  0.34001577  0.96734894  0.43348225  1
  Cl  Cl34  1  0.73501517  0.85867380  0.71590648  1
  Cl  Cl35  1  0.84001577  0.46734894  0.06651775  1
  Cl  Cl36  1  0.15998423  0.53265106  0.93348225  1
  Cl  Cl37  1  0.84001577  0.53265106  0.43348225  1
  Cl  Cl38  1  0.65998423  0.96734894  0.93348225  1
  Cl  Cl39  1  0.26498483  0.85867380  0.21590648  1
  Cl  Cl40  1  0.73501517  0.14132620  0.78409352  1
  Cl  Cl41  1  0.58913091  0.75501012  0.55227625  1
  Cl  Cl42  1  0.26498483  0.14132620  0.28409352  1
  Cl  Cl43  1  0.91086909  0.25501012  0.44772375  1
  Cl  Cl44  1  0.58913091  0.24498988  0.94772375  1
  Cl  Cl45  1  0.63624017  0.91926631  0.16570903  1
  Cl  Cl46  1  0.13624017  0.58073369  0.16570903  1
  Cl  Cl47  1  0.08913091  0.74498988  0.55227625  1
  Cl  Cl48  1  0.41086909  0.75501012  0.05227625  1
  Cl  Cl49  1  0.34001577  0.03265106  0.06651775  1
  Cl  Cl50  1  0.76498483  0.64132620  0.21590648  1
  Cl  Cl51  1  0.36375983  0.91926631  0.66570903  1
  Cl  Cl52  1  0.41086909  0.24498988  0.44772375  1
  Cl  Cl53  1  0.91086909  0.74498988  0.05227625  1
  Cl  Cl54  1  0.63624017  0.08073369  0.33429097  1
  Cl  Cl55  1  0.15998423  0.46734894  0.56651775  1
  Cl  Cl56  1  0.86375983  0.41926631  0.83429097  1
  Cl  Cl57  1  0.23501517  0.35867380  0.78409352  1
  Cl  Cl58  1  0.23501517  0.64132620  0.71590648  1
  Cl  Cl59  1  0.65998423  0.03265106  0.56651775  1
  Cl  Cl60  1  0.76498483  0.35867380  0.28409352  1
  Cl  Cl61  1  0.08913091  0.25501012  0.94772375  1
  Cl  Cl62  1  0.36375983  0.08073369  0.83429097  1
  Cl  Cl63  1  0.86375983  0.58073369  0.66570903  1
