# generated using pymatgen
data_Lu5Ir2
_symmetry_space_group_name_H-M   'P 1'
_cell_length_a   6.39069181
_cell_length_b   7.11135342
_cell_length_c   8.27450155
_cell_angle_alpha   96.52614461
_cell_angle_beta   112.73552688
_cell_angle_gamma   90.01234501
_symmetry_Int_Tables_number   1
_chemical_formula_structural   Lu5Ir2
_chemical_formula_sum   'Lu10 Ir4'
_cell_volume   344.18006200
_cell_formula_units_Z   2
loop_
 _symmetry_equiv_pos_site_id
 _symmetry_equiv_pos_as_xyz
  1  'x, y, z'
loop_
 _atom_site_type_symbol
 _atom_site_label
 _atom_site_symmetry_multiplicity
 _atom_site_fract_x
 _atom_site_fract_y
 _atom_site_fract_z
 _atom_site_occupancy
  Lu  Lu0  1  0.57151275  0.75001198  0.00005238  1
  Lu  Lu1  1  0.21252881  0.18199047  0.55792310  1
  Lu  Lu2  1  0.96951081  0.41989043  0.18188414  1
  Lu  Lu3  1  0.03048919  0.58010957  0.81811586  1
  Lu  Lu4  1  0.21230271  0.91978905  0.18189221  1
  Lu  Lu5  1  0.78747119  0.81800953  0.44207690  1
  Lu  Lu6  1  0.34535265  0.68193827  0.55795001  1
  Lu  Lu7  1  0.65464735  0.31806173  0.44204999  1
  Lu  Lu8  1  0.78769729  0.08021095  0.81810779  1
  Lu  Lu9  1  0.42848725  0.24998802  0.99994762  1
  Ir  Ir10  1  0.82712029  0.07284439  0.21790328  1
  Ir  Ir11  1  0.60920870  0.42717652  0.78206744  1
  Ir  Ir12  1  0.39079130  0.57282348  0.21793256  1
  Ir  Ir13  1  0.17287971  0.92715561  0.78209672  1
