# generated using pymatgen
data_LiGaI4
_symmetry_space_group_name_H-M   'P 1'
_cell_length_a   7.74673214
_cell_length_b   8.19309777
_cell_length_c   15.20520423
_cell_angle_alpha   92.77173510
_cell_angle_beta   90.00000000
_cell_angle_gamma   90.00000000
_symmetry_Int_Tables_number   1
_chemical_formula_structural   LiGaI4
_chemical_formula_sum   'Li4 Ga4 I16'
_cell_volume   963.94124342
_cell_formula_units_Z   4
loop_
 _symmetry_equiv_pos_site_id
 _symmetry_equiv_pos_as_xyz
  1  'x, y, z'
loop_
 _atom_site_type_symbol
 _atom_site_label
 _atom_site_symmetry_multiplicity
 _atom_site_fract_x
 _atom_site_fract_y
 _atom_site_fract_z
 _atom_site_occupancy
  Li  Li0  1  0.49412982  0.84591943  0.11976498  1
  Li  Li1  1  0.99412982  0.15408057  0.38023502  1
  Li  Li2  1  0.00587018  0.84591943  0.61976498  1
  Li  Li3  1  0.50587018  0.15408057  0.88023502  1
  Ga  Ga4  1  0.32564128  0.70618268  0.90097351  1
  Ga  Ga5  1  0.82564128  0.29381732  0.59902649  1
  Ga  Ga6  1  0.17435872  0.70618268  0.40097351  1
  Ga  Ga7  1  0.67435872  0.29381732  0.09902649  1
  I  I8  1  0.81935107  0.06378167  0.18657522  1
  I  I9  1  0.68183977  0.30846457  0.44665802  1
  I  I10  1  0.63876725  0.81392390  0.93174081  1
  I  I11  1  0.81816023  0.30846457  0.94665802  1
  I  I12  1  0.18183977  0.69153543  0.05334198  1
  I  I13  1  0.81456146  0.56613371  0.69083372  1
  I  I14  1  0.31456146  0.43386629  0.80916628  1
  I  I15  1  0.18543854  0.43386629  0.30916628  1
  I  I16  1  0.36123275  0.18607610  0.06825919  1
  I  I17  1  0.86123275  0.81392390  0.43174081  1
  I  I18  1  0.68543854  0.56613371  0.19083372  1
  I  I19  1  0.68064893  0.06378167  0.68657522  1
  I  I20  1  0.18064893  0.93621833  0.81342478  1
  I  I21  1  0.13876725  0.18607610  0.56825919  1
  I  I22  1  0.31816023  0.69153543  0.55334198  1
  I  I23  1  0.31935107  0.93621833  0.31342478  1
