# generated using pymatgen
data_K3P5RuSe10
_symmetry_space_group_name_H-M   'P 1'
_cell_length_a   7.42463746
_cell_length_b   11.37741535
_cell_length_c   12.68372639
_cell_angle_alpha   93.08430309
_cell_angle_beta   90.00000000
_cell_angle_gamma   90.00000000
_symmetry_Int_Tables_number   1
_chemical_formula_structural   K3P5RuSe10
_chemical_formula_sum   'K6 P10 Ru2 Se20'
_cell_volume   1069.88272714
_cell_formula_units_Z   2
loop_
 _symmetry_equiv_pos_site_id
 _symmetry_equiv_pos_as_xyz
  1  'x, y, z'
loop_
 _atom_site_type_symbol
 _atom_site_label
 _atom_site_symmetry_multiplicity
 _atom_site_fract_x
 _atom_site_fract_y
 _atom_site_fract_z
 _atom_site_occupancy
  K  K0  1  0.25000000  0.01290860  0.60781447  1
  K  K1  1  0.75000000  0.98709140  0.39218553  1
  K  K2  1  0.25000000  0.90184713  0.06887129  1
  K  K3  1  0.25000000  0.52730008  0.61222457  1
  K  K4  1  0.75000000  0.09815287  0.93112871  1
  K  K5  1  0.75000000  0.47269992  0.38777543  1
  P  P6  1  0.75000000  0.72391187  0.59135557  1
  P  P7  1  0.52011635  0.52387178  0.91632438  1
  P  P8  1  0.47988365  0.47612822  0.08367562  1
  P  P9  1  0.25000000  0.13595478  0.27389609  1
  P  P10  1  0.25000000  0.27608813  0.40864443  1
  P  P11  1  0.75000000  0.86404522  0.72610391  1
  P  P12  1  0.25000000  0.27733175  0.94230945  1
  P  P13  1  0.97988365  0.52387178  0.91632438  1
  P  P14  1  0.02011635  0.47612822  0.08367562  1
  P  P15  1  0.75000000  0.72266825  0.05769055  1
  Ru  Ru16  1  0.25000000  0.35009321  0.11498237  1
  Ru  Ru17  1  0.75000000  0.64990679  0.88501763  1
  Se  Se18  1  0.25000000  0.09392670  0.88126847  1
  Se  Se19  1  0.75000000  0.03772689  0.66693088  1
  Se  Se20  1  0.25000000  0.62098910  0.87906139  1
  Se  Se21  1  0.99548095  0.74222598  0.50037800  1
  Se  Se22  1  0.47586504  0.18664058  0.16871847  1
  Se  Se23  1  0.49013491  0.34088093  0.83842312  1
  Se  Se24  1  0.00986509  0.34088093  0.83842312  1
  Se  Se25  1  0.50451905  0.74222598  0.50037800  1
  Se  Se26  1  0.25000000  0.96227311  0.33306912  1
  Se  Se27  1  0.50986509  0.65911907  0.16157688  1
  Se  Se28  1  0.75000000  0.37901090  0.12093861  1
  Se  Se29  1  0.52413496  0.81335942  0.83128153  1
  Se  Se30  1  0.25000000  0.43826945  0.31220532  1
  Se  Se31  1  0.97586504  0.81335942  0.83128153  1
  Se  Se32  1  0.49548095  0.25777402  0.49962200  1
  Se  Se33  1  0.99013491  0.65911907  0.16157688  1
  Se  Se34  1  0.75000000  0.90607330  0.11873153  1
  Se  Se35  1  0.02413496  0.18664058  0.16871847  1
  Se  Se36  1  0.00451905  0.25777402  0.49962200  1
  Se  Se37  1  0.75000000  0.56173055  0.68779468  1
