# generated using pymatgen
data_ErCuPbSe3
_symmetry_space_group_name_H-M   'P 1'
_cell_length_a   4.04935411
_cell_length_b   10.56782624
_cell_length_c   13.63375100
_cell_angle_alpha   90.00000000
_cell_angle_beta   90.00000000
_cell_angle_gamma   90.00000000
_symmetry_Int_Tables_number   1
_chemical_formula_structural   ErCuPbSe3
_chemical_formula_sum   'Er4 Cu4 Pb4 Se12'
_cell_volume   583.42734259
_cell_formula_units_Z   4
loop_
 _symmetry_equiv_pos_site_id
 _symmetry_equiv_pos_as_xyz
  1  'x, y, z'
loop_
 _atom_site_type_symbol
 _atom_site_label
 _atom_site_symmetry_multiplicity
 _atom_site_fract_x
 _atom_site_fract_y
 _atom_site_fract_z
 _atom_site_occupancy
  Er  Er0  1  0.25000000  0.01112760  0.24432180  1
  Er  Er1  1  0.25000000  0.51112760  0.25567820  1
  Er  Er2  1  0.75000000  0.48887240  0.74432180  1
  Er  Er3  1  0.75000000  0.98887240  0.75567820  1
  Cu  Cu4  1  0.75000000  0.25677945  0.21844154  1
  Cu  Cu5  1  0.25000000  0.24322055  0.71844154  1
  Cu  Cu6  1  0.75000000  0.75677945  0.28155846  1
  Cu  Cu7  1  0.25000000  0.74322055  0.78155846  1
  Pb  Pb8  1  0.25000000  0.76912608  0.49382708  1
  Pb  Pb9  1  0.25000000  0.26912608  0.00617292  1
  Pb  Pb10  1  0.75000000  0.73087392  0.99382708  1
  Pb  Pb11  1  0.75000000  0.23087392  0.50617292  1
  Se  Se12  1  0.25000000  0.75820206  0.17150580  1
  Se  Se13  1  0.75000000  0.94856351  0.38612451  1
  Se  Se14  1  0.75000000  0.57600448  0.39331632  1
  Se  Se15  1  0.75000000  0.24179794  0.82849420  1
  Se  Se16  1  0.25000000  0.42399552  0.60668368  1
  Se  Se17  1  0.25000000  0.92399552  0.89331632  1
  Se  Se18  1  0.25000000  0.05143649  0.61387549  1
  Se  Se19  1  0.75000000  0.44856351  0.11387549  1
  Se  Se20  1  0.25000000  0.55143649  0.88612451  1
  Se  Se21  1  0.75000000  0.74179794  0.67150580  1
  Se  Se22  1  0.25000000  0.25820206  0.32849420  1
  Se  Se23  1  0.75000000  0.07600448  0.10668368  1
