# generated using pymatgen
data_La2GaN3
_symmetry_space_group_name_H-M   'P 1'
_cell_length_a   5.74238857
_cell_length_b   6.19517811
_cell_length_c   12.00902596
_cell_angle_alpha   88.35353006
_cell_angle_beta   86.44562001
_cell_angle_gamma   62.38963829
_symmetry_Int_Tables_number   1
_chemical_formula_structural   La2GaN3
_chemical_formula_sum   'La8 Ga4 N12'
_cell_volume   377.84212711
_cell_formula_units_Z   4
loop_
 _symmetry_equiv_pos_site_id
 _symmetry_equiv_pos_as_xyz
  1  'x, y, z'
loop_
 _atom_site_type_symbol
 _atom_site_label
 _atom_site_symmetry_multiplicity
 _atom_site_fract_x
 _atom_site_fract_y
 _atom_site_fract_z
 _atom_site_occupancy
  La  La0  1  0.55328964  0.41388059  0.84925487  1
  La  La1  1  0.03282977  0.41388059  0.65074513  1
  La  La2  1  0.86759894  0.78844132  0.92525688  1
  La  La3  1  0.34395974  0.78844132  0.57474312  1
  La  La4  1  0.44671036  0.58611941  0.15074513  1
  La  La5  1  0.65604026  0.21155868  0.42525688  1
  La  La6  1  0.96717023  0.58611941  0.34925487  1
  La  La7  1  0.13240106  0.21155868  0.07474312  1
  Ga  Ga8  1  0.72817897  0.00332763  0.66245818  1
  Ga  Ga9  1  0.26849340  0.00332763  0.83754182  1
  Ga  Ga10  1  0.73150660  0.99667237  0.16245818  1
  Ga  Ga11  1  0.27182103  0.99667237  0.33754182  1
  N  N12  1  0.31914400  0.79892833  0.97298678  1
  N  N13  1  0.00842762  0.98314475  0.25000000  1
  N  N14  1  0.99157238  0.01685525  0.75000000  1
  N  N15  1  0.60043601  0.79912797  0.75000000  1
  N  N16  1  0.39956399  0.20087203  0.25000000  1
  N  N17  1  0.88192767  0.79892833  0.52701322  1
  N  N18  1  0.68085600  0.20107167  0.02701322  1
  N  N19  1  0.50470169  0.64264786  0.37042201  1
  N  N20  1  0.14734955  0.35735214  0.87042201  1
  N  N21  1  0.49529831  0.35735214  0.62957799  1
  N  N22  1  0.11807233  0.20107167  0.47298678  1
  N  N23  1  0.85265045  0.64264786  0.12957799  1
