# generated using pymatgen
data_Y5Mg13Cu5
_symmetry_space_group_name_H-M   'P 1'
_cell_length_a   4.15407572
_cell_length_b   9.74753608
_cell_length_c   25.54792746
_cell_angle_alpha   90.00000000
_cell_angle_beta   90.00000000
_cell_angle_gamma   102.30310722
_symmetry_Int_Tables_number   1
_chemical_formula_structural   Y5Mg13Cu5
_chemical_formula_sum   'Y10 Mg26 Cu10'
_cell_volume   1010.72875207
_cell_formula_units_Z   2
loop_
 _symmetry_equiv_pos_site_id
 _symmetry_equiv_pos_as_xyz
  1  'x, y, z'
loop_
 _atom_site_type_symbol
 _atom_site_label
 _atom_site_symmetry_multiplicity
 _atom_site_fract_x
 _atom_site_fract_y
 _atom_site_fract_z
 _atom_site_occupancy
  Y  Y0  1  0.32522456  0.65044912  0.35617765  1
  Y  Y1  1  0.67477544  0.34955088  0.85617765  1
  Y  Y2  1  0.44439065  0.88878130  0.75000000  1
  Y  Y3  1  0.48423019  0.96846039  0.60599536  1
  Y  Y4  1  0.51576981  0.03153961  0.10599536  1
  Y  Y5  1  0.51576981  0.03153961  0.39400464  1
  Y  Y6  1  0.32522456  0.65044912  0.14382235  1
  Y  Y7  1  0.48423019  0.96846039  0.89400464  1
  Y  Y8  1  0.55560935  0.11121870  0.25000000  1
  Y  Y9  1  0.67477544  0.34955088  0.64382235  1
  Mg  Mg10  1  0.61692997  0.23385995  0.98298067  1
  Mg  Mg11  1  0.31450955  0.62901910  0.65768144  1
  Mg  Mg12  1  0.05339025  0.10678050  0.81098035  1
  Mg  Mg13  1  0.85021897  0.70043794  0.92902559  1
  Mg  Mg14  1  0.76720895  0.53441790  0.04580590  1
  Mg  Mg15  1  0.23279105  0.46558210  0.95419410  1
  Mg  Mg16  1  0.19336030  0.38672061  0.75000000  1
  Mg  Mg17  1  0.14978103  0.29956206  0.42902559  1
  Mg  Mg18  1  0.68549045  0.37098090  0.15768144  1
  Mg  Mg19  1  0.19435855  0.38871709  0.25000000  1
  Mg  Mg20  1  0.85021897  0.70043794  0.57097441  1
  Mg  Mg21  1  0.38307003  0.76614005  0.01701933  1
  Mg  Mg22  1  0.94660975  0.89321950  0.18901965  1
  Mg  Mg23  1  0.14978103  0.29956206  0.07097441  1
  Mg  Mg24  1  0.94660975  0.89321950  0.31098035  1
  Mg  Mg25  1  0.00000000  0.00000000  0.50000000  1
  Mg  Mg26  1  0.80663970  0.61327939  0.25000000  1
  Mg  Mg27  1  0.38307003  0.76614005  0.48298067  1
  Mg  Mg28  1  0.23279105  0.46558210  0.54580590  1
  Mg  Mg29  1  0.61692997  0.23385995  0.51701933  1
  Mg  Mg30  1  0.76720895  0.53441790  0.45419410  1
  Mg  Mg31  1  0.80564145  0.61128291  0.75000000  1
  Mg  Mg32  1  0.00000000  0.00000000  0.00000000  1
  Mg  Mg33  1  0.68549045  0.37098090  0.34231856  1
  Mg  Mg34  1  0.05339025  0.10678050  0.68901965  1
  Mg  Mg35  1  0.31450955  0.62901910  0.84231856  1
  Cu  Cu36  1  0.09332944  0.18665888  0.17056984  1
  Cu  Cu37  1  0.09562121  0.19124243  0.91460242  1
  Cu  Cu38  1  0.60037130  0.20074260  0.75000000  1
  Cu  Cu39  1  0.39962870  0.79925740  0.25000000  1
  Cu  Cu40  1  0.90667056  0.81334112  0.82943016  1
  Cu  Cu41  1  0.90437879  0.80875757  0.41460242  1
  Cu  Cu42  1  0.09332944  0.18665888  0.32943016  1
  Cu  Cu43  1  0.90667056  0.81334112  0.67056984  1
  Cu  Cu44  1  0.90437879  0.80875757  0.08539758  1
  Cu  Cu45  1  0.09562121  0.19124243  0.58539758  1
