# generated using pymatgen
data_K2Ga3
_symmetry_space_group_name_H-M   'P 1'
_cell_length_a   6.21471724
_cell_length_b   6.21471700
_cell_length_c   8.67596071
_cell_angle_alpha   110.98707621
_cell_angle_beta   110.98707539
_cell_angle_gamma   89.99999445
_symmetry_Int_Tables_number   1
_chemical_formula_structural   K2Ga3
_chemical_formula_sum   'K4 Ga6'
_cell_volume   288.92505911
_cell_formula_units_Z   2
loop_
 _symmetry_equiv_pos_site_id
 _symmetry_equiv_pos_as_xyz
  1  'x, y, z'
loop_
 _atom_site_type_symbol
 _atom_site_label
 _atom_site_symmetry_multiplicity
 _atom_site_fract_x
 _atom_site_fract_y
 _atom_site_fract_z
 _atom_site_occupancy
  K  K0  1  0.39035422  0.39035422  0.78070843  1
  K  K1  1  0.25000000  0.75000000  0.50000000  1
  K  K2  1  0.60964578  0.60964578  0.21929157  1
  K  K3  1  0.75000000  0.25000000  0.50000000  1
  Ga  Ga4  1  0.00000000  0.29430928  0.00000000  1
  Ga  Ga5  1  0.13923475  0.13923475  0.27846950  1
  Ga  Ga6  1  0.29430928  0.00000000  0.00000000  1
  Ga  Ga7  1  1.00000000  0.70569072  0.00000000  1
  Ga  Ga8  1  0.86076525  0.86076525  0.72153050  1
  Ga  Ga9  1  0.70569072  1.00000000  0.00000000  1
