# generated using pymatgen
data_Tl3SiTe3
_symmetry_space_group_name_H-M   'P 1'
_cell_length_a   9.66124143
_cell_length_b   9.93642963
_cell_length_c   10.71961177
_cell_angle_alpha   89.22677320
_cell_angle_beta   83.66417321
_cell_angle_gamma   79.06618815
_symmetry_Int_Tables_number   1
_chemical_formula_structural   Tl3SiTe3
_chemical_formula_sum   'Tl12 Si4 Te12'
_cell_volume   1004.18283935
_cell_formula_units_Z   4
loop_
 _symmetry_equiv_pos_site_id
 _symmetry_equiv_pos_as_xyz
  1  'x, y, z'
loop_
 _atom_site_type_symbol
 _atom_site_label
 _atom_site_symmetry_multiplicity
 _atom_site_fract_x
 _atom_site_fract_y
 _atom_site_fract_z
 _atom_site_occupancy
  Tl  Tl0  1  0.10438832  0.95985359  0.64632227  1
  Tl  Tl1  1  0.48448126  0.62741364  0.64489968  1
  Tl  Tl2  1  0.19433201  0.15487726  0.15768913  1
  Tl  Tl3  1  0.64307792  0.22570343  0.91399850  1
  Tl  Tl4  1  0.80566799  0.84512274  0.84231087  1
  Tl  Tl5  1  0.68590876  0.71310866  0.24078997  1
  Tl  Tl6  1  0.09851255  0.56547064  0.34121067  1
  Tl  Tl7  1  0.35692208  0.77429657  0.08600150  1
  Tl  Tl8  1  0.31409124  0.28689134  0.75921003  1
  Tl  Tl9  1  0.90148745  0.43452936  0.65878933  1
  Tl  Tl10  1  0.51551874  0.37258636  0.35510032  1
  Tl  Tl11  1  0.89561168  0.04014641  0.35367773  1
  Si  Si12  1  0.91313199  0.43027077  0.01336965  1
  Si  Si13  1  0.08686801  0.56972923  0.98663035  1
  Si  Si14  1  0.42560810  0.01674554  0.41860997  1
  Si  Si15  1  0.57439190  0.98325446  0.58139003  1
  Te  Te16  1  0.30793570  0.44362640  0.07696086  1
  Te  Te17  1  0.32167189  0.80051422  0.40664849  1
  Te  Te18  1  0.12560874  0.61910430  0.75392969  1
  Te  Te19  1  0.22513182  0.22069497  0.47168498  1
  Te  Te20  1  0.00107559  0.20871659  0.89165315  1
  Te  Te21  1  0.77486818  0.77930503  0.52831502  1
  Te  Te22  1  0.67832811  0.19948578  0.59335151  1
  Te  Te23  1  0.57727452  0.06510769  0.22090234  1
  Te  Te24  1  0.69206430  0.55637360  0.92303914  1
  Te  Te25  1  0.87439126  0.38089570  0.24607031  1
  Te  Te26  1  0.42272548  0.93489231  0.77909766  1
  Te  Te27  1  0.99892441  0.79128341  0.10834685  1
