# generated using pymatgen
data_NdMgSi2
_symmetry_space_group_name_H-M   'P 1'
_cell_length_a   4.26067943
_cell_length_b   4.26067967
_cell_length_c   18.65577663
_cell_angle_alpha   96.55701403
_cell_angle_beta   96.55701437
_cell_angle_gamma   90.00000500
_symmetry_Int_Tables_number   1
_chemical_formula_structural   NdMgSi2
_chemical_formula_sum   'Nd4 Mg4 Si8'
_cell_volume   334.22029391
_cell_formula_units_Z   4
loop_
 _symmetry_equiv_pos_site_id
 _symmetry_equiv_pos_as_xyz
  1  'x, y, z'
loop_
 _atom_site_type_symbol
 _atom_site_label
 _atom_site_symmetry_multiplicity
 _atom_site_fract_x
 _atom_site_fract_y
 _atom_site_fract_z
 _atom_site_occupancy
  Nd  Nd0  1  0.70274083  0.95274083  0.90548167  1
  Nd  Nd1  1  0.54725917  0.79725917  0.59451833  1
  Nd  Nd2  1  0.45274083  0.20274083  0.40548167  1
  Nd  Nd3  1  0.29725917  0.04725917  0.09451833  1
  Mg  Mg4  1  0.62499677  0.37499677  0.74999355  1
  Mg  Mg5  1  0.87499677  0.12499677  0.24999355  1
  Mg  Mg6  1  0.37500323  0.62500323  0.25000645  1
  Mg  Mg7  1  0.12500323  0.87500323  0.75000645  1
  Si  Si8  1  0.07710618  0.32710618  0.65421236  1
  Si  Si9  1  0.76416982  0.51416982  0.02833965  1
  Si  Si10  1  0.17289382  0.42289382  0.84578764  1
  Si  Si11  1  0.92289382  0.67289382  0.34578764  1
  Si  Si12  1  0.98583018  0.73583018  0.47166035  1
  Si  Si13  1  0.82710618  0.57710618  0.15421236  1
  Si  Si14  1  0.01416982  0.26416982  0.52833965  1
  Si  Si15  1  0.23583018  0.48583018  0.97166035  1
