# generated using pymatgen
data_La2AlNi9
_symmetry_space_group_name_H-M   'P 1'
_cell_length_a   4.98551746
_cell_length_b   4.98551706
_cell_length_c   8.03450301
_cell_angle_alpha   90.00000000
_cell_angle_beta   90.00000000
_cell_angle_gamma   119.17085986
_symmetry_Int_Tables_number   1
_chemical_formula_structural   La2AlNi9
_chemical_formula_sum   'La2 Al1 Ni9'
_cell_volume   174.37262868
_cell_formula_units_Z   1
loop_
 _symmetry_equiv_pos_site_id
 _symmetry_equiv_pos_as_xyz
  1  'x, y, z'
loop_
 _atom_site_type_symbol
 _atom_site_label
 _atom_site_symmetry_multiplicity
 _atom_site_fract_x
 _atom_site_fract_y
 _atom_site_fract_z
 _atom_site_occupancy
  La  La0  1  0.00000000  0.00000000  0.01549777  1
  La  La1  1  0.00000000  0.00000000  0.48450223  1
  Al  Al2  1  0.50000000  0.50000000  0.75000000  1
  Ni  Ni3  1  0.66875425  0.33124575  0.99948307  1
  Ni  Ni4  1  0.66875425  0.33124575  0.50051693  1
  Ni  Ni5  1  0.50000000  0.50000000  0.25000000  1
  Ni  Ni6  1  0.33124575  0.66875425  0.99948307  1
  Ni  Ni7  1  0.50000000  0.00000000  0.75000000  1
  Ni  Ni8  1  0.00000000  0.50000000  0.25000000  1
  Ni  Ni9  1  0.50000000  0.00000000  0.25000000  1
  Ni  Ni10  1  0.33124575  0.66875425  0.50051693  1
  Ni  Ni11  1  0.00000000  0.50000000  0.75000000  1
