# generated using pymatgen
data_Ga8Cu3W2
_symmetry_space_group_name_H-M   'P 1'
_cell_length_a   10.42434182
_cell_length_b   10.42434152
_cell_length_c   10.42434126
_cell_angle_alpha   109.47122014
_cell_angle_beta   109.47121954
_cell_angle_gamma   109.47121950
_symmetry_Int_Tables_number   1
_chemical_formula_structural   Ga8Cu3W2
_chemical_formula_sum   'Ga32 Cu12 W8'
_cell_volume   872.01512762
_cell_formula_units_Z   4
loop_
 _symmetry_equiv_pos_site_id
 _symmetry_equiv_pos_as_xyz
  1  'x, y, z'
loop_
 _atom_site_type_symbol
 _atom_site_label
 _atom_site_symmetry_multiplicity
 _atom_site_fract_x
 _atom_site_fract_y
 _atom_site_fract_z
 _atom_site_occupancy
  Ga  Ga0  1  0.00000000  0.29001064  0.50000000  1
  Ga  Ga1  1  0.25690119  0.76689306  0.76744801  1
  Ga  Ga2  1  0.99000813  1.00055494  0.73310694  1
  Ga  Ga3  1  0.49944506  0.48945318  0.73255199  1
  Ga  Ga4  1  -0.00055494  0.23255199  0.98945318  1
  Ga  Ga5  1  0.00999187  0.51054682  0.74309881  1
  Ga  Ga6  1  0.76689306  0.76744801  0.25690119  1
  Ga  Ga7  1  0.98945318  -0.00055494  0.23255199  1
  Ga  Ga8  1  0.70998936  0.70998936  0.70998936  1
  Ga  Ga9  1  0.26744801  0.26689306  0.75690119  1
  Ga  Ga10  1  0.79001064  0.50000000  0.00000000  1
  Ga  Ga11  1  0.76744801  0.25690119  0.76689306  1
  Ga  Ga12  1  0.51054682  0.74309881  0.00999187  1
  Ga  Ga13  1  0.48945318  0.73255199  0.49944506  1
  Ga  Ga14  1  0.50999187  0.24309881  0.01054682  1
  Ga  Ga15  1  1.00055494  0.73310694  0.99000813  1
  Ga  Ga16  1  0.75690119  0.26744801  0.26689306  1
  Ga  Ga17  1  0.49000813  0.23310694  0.50055494  1
  Ga  Ga18  1  0.50055494  0.49000813  0.23310694  1
  Ga  Ga19  1  0.01054682  0.50999187  0.24309881  1
  Ga  Ga20  1  0.24309881  0.01054682  0.50999187  1
  Ga  Ga21  1  0.00000000  0.79001064  0.50000000  1
  Ga  Ga22  1  0.73310694  0.99000813  1.00055494  1
  Ga  Ga23  1  0.74309881  0.00999187  0.51054682  1
  Ga  Ga24  1  0.50000000  0.00000000  0.29001064  1
  Ga  Ga25  1  0.50000000  0.00000000  0.79001064  1
  Ga  Ga26  1  0.23255199  0.98945318  -0.00055494  1
  Ga  Ga27  1  0.20998936  0.20998936  0.20998936  1
  Ga  Ga28  1  0.73255199  0.49944506  0.48945318  1
  Ga  Ga29  1  0.23310694  0.50055494  0.49000813  1
  Ga  Ga30  1  0.29001064  0.50000000  0.00000000  1
  Ga  Ga31  1  0.26689306  0.75690119  0.26744801  1
  Cu  Cu32  1  0.01801063  0.26801063  0.75000000  1
  Cu  Cu33  1  0.51801063  0.25000000  0.76801063  1
  Cu  Cu34  1  0.98198937  0.75000000  0.73198937  1
  Cu  Cu35  1  0.23198937  0.25000000  0.48198937  1
  Cu  Cu36  1  0.76801063  0.51801063  0.25000000  1
  Cu  Cu37  1  0.25000000  0.48198937  0.23198937  1
  Cu  Cu38  1  0.25000000  0.76801063  0.51801063  1
  Cu  Cu39  1  0.75000000  0.01801063  0.26801063  1
  Cu  Cu40  1  0.75000000  0.73198937  0.98198937  1
  Cu  Cu41  1  0.73198937  0.98198937  0.75000000  1
  Cu  Cu42  1  0.26801063  0.75000000  0.01801063  1
  Cu  Cu43  1  0.48198937  0.23198937  0.25000000  1
  W  W44  1  0.45792435  0.45792435  0.45792435  1
  W  W45  1  0.50000000  0.00000000  0.54207565  1
  W  W46  1  0.54207565  0.50000000  0.00000000  1
  W  W47  1  0.00000000  0.54207565  0.50000000  1
  W  W48  1  0.04207565  0.50000000  0.00000000  1
  W  W49  1  0.95792435  0.95792435  0.95792435  1
  W  W50  1  0.50000000  0.00000000  0.04207565  1
  W  W51  1  0.00000000  0.04207565  0.50000000  1
