# generated using pymatgen
data_PrNb4O12
_symmetry_space_group_name_H-M   'P 1'
_cell_length_a   5.59595316
_cell_length_b   5.59595316
_cell_length_c   7.97690058
_cell_angle_alpha   90.00000000
_cell_angle_beta   90.00000000
_cell_angle_gamma   89.50411369
_symmetry_Int_Tables_number   1
_chemical_formula_structural   PrNb4O12
_chemical_formula_sum   'Pr1 Nb4 O12'
_cell_volume   249.78482782
_cell_formula_units_Z   1
loop_
 _symmetry_equiv_pos_site_id
 _symmetry_equiv_pos_as_xyz
  1  'x, y, z'
loop_
 _atom_site_type_symbol
 _atom_site_label
 _atom_site_symmetry_multiplicity
 _atom_site_fract_x
 _atom_site_fract_y
 _atom_site_fract_z
 _atom_site_occupancy
  Pr  Pr0  1  0.74189120  0.74189120  0.00000000  1
  Nb  Nb1  1  0.24661722  0.75051511  0.74079198  1
  Nb  Nb2  1  0.75051511  0.24661722  0.74079198  1
  Nb  Nb3  1  0.75051511  0.24661722  0.25920802  1
  Nb  Nb4  1  0.24661722  0.75051511  0.25920802  1
  O  O5  1  0.29320964  0.72050922  0.00000000  1
  O  O6  1  0.72050922  0.29320964  -0.00000000  1
  O  O7  1  0.21533590  0.78758897  0.50000000  1
  O  O8  1  0.78758897  0.21533590  0.50000000  1
  O  O9  1  0.50683157  0.50683157  0.73121612  1
  O  O10  1  0.50683157  0.50683157  0.26878388  1
  O  O11  1  0.98784520  0.98784520  0.79991198  1
  O  O12  1  0.98784520  0.98784520  0.20008802  1
  O  O13  1  0.99061729  0.51055614  0.77075190  1
  O  O14  1  0.51055614  0.99061729  0.22924810  1
  O  O15  1  0.99061729  0.51055614  0.22924810  1
  O  O16  1  0.51055614  0.99061729  0.77075190  1
