# generated using pymatgen
data_Mg15Si2Ir5
_symmetry_space_group_name_H-M   'P 1'
_cell_length_a   8.80872521
_cell_length_b   13.77835530
_cell_length_c   13.77835530
_cell_angle_alpha   90.00000000
_cell_angle_beta   90.00000000
_cell_angle_gamma   90.00000000
_symmetry_Int_Tables_number   1
_chemical_formula_structural   Mg15Si2Ir5
_chemical_formula_sum   'Mg60 Si8 Ir20'
_cell_volume   1672.27547870
_cell_formula_units_Z   4
loop_
 _symmetry_equiv_pos_site_id
 _symmetry_equiv_pos_as_xyz
  1  'x, y, z'
loop_
 _atom_site_type_symbol
 _atom_site_label
 _atom_site_symmetry_multiplicity
 _atom_site_fract_x
 _atom_site_fract_y
 _atom_site_fract_z
 _atom_site_occupancy
  Mg  Mg0  1  0.65807654  0.49402025  0.98339327  1
  Mg  Mg1  1  0.97433602  0.61890801  0.68906842  1
  Mg  Mg2  1  0.18488394  0.66341721  0.87850445  1
  Mg  Mg3  1  0.14390086  0.19404527  0.41045821  1
  Mg  Mg4  1  0.65807654  0.00597975  0.51660673  1
  Mg  Mg5  1  0.35609914  0.41045821  0.30595473  1
  Mg  Mg6  1  0.86105408  0.54700343  0.19698751  1
  Mg  Mg7  1  0.36105408  0.69698751  0.45299657  1
  Mg  Mg8  1  0.13894592  0.04700343  0.69698751  1
  Mg  Mg9  1  0.52566398  0.81093158  0.61890801  1
  Mg  Mg10  1  0.34192346  0.99402025  0.48339327  1
  Mg  Mg11  1  0.02566398  0.11890801  0.18906842  1
  Mg  Mg12  1  0.34192346  0.50597975  0.01660673  1
  Mg  Mg13  1  0.63894592  0.19698751  0.95299657  1
  Mg  Mg14  1  0.38462254  0.17748242  0.61822443  1
  Mg  Mg15  1  0.02566398  0.38109199  0.31093158  1
  Mg  Mg16  1  0.64390086  0.58954179  0.69404527  1
  Mg  Mg17  1  0.61168327  0.88114110  0.17794248  1
  Mg  Mg18  1  0.13894592  0.45299657  0.80301249  1
  Mg  Mg19  1  0.84192346  0.98339327  0.00597975  1
  Mg  Mg20  1  0.85609914  0.69404527  0.91045821  1
  Mg  Mg21  1  0.15807654  0.01660673  0.99402025  1
  Mg  Mg22  1  0.68488394  0.37850445  0.33658279  1
  Mg  Mg23  1  0.50000000  0.50000000  0.50000000  1
  Mg  Mg24  1  0.47433602  0.31093158  0.11890801  1
  Mg  Mg25  1  0.52566398  0.68906842  0.88109199  1
  Mg  Mg26  1  0.35609914  0.08954179  0.19404527  1
  Mg  Mg27  1  0.81511606  0.33658279  0.12149555  1
  Mg  Mg28  1  0.11168327  0.82205752  0.38114110  1
  Mg  Mg29  1  0.38462254  0.32251758  0.88177557  1
  Mg  Mg30  1  0.86105408  0.95299657  0.30301249  1
  Mg  Mg31  1  0.61168327  0.61885890  0.32205752  1
  Mg  Mg32  1  0.81511606  0.16341721  0.37850445  1
  Mg  Mg33  1  0.97433602  0.88109199  0.81093158  1
  Mg  Mg34  1  0.11537746  0.61822443  0.32251758  1
  Mg  Mg35  1  0.14390086  0.30595473  0.08954179  1
  Mg  Mg36  1  0.18488394  0.83658279  0.62149555  1
  Mg  Mg37  1  0.61537746  0.82251758  0.38177557  1
  Mg  Mg38  1  0.00000000  0.50000000  0.00000000  1
  Mg  Mg39  1  0.00000000  0.00000000  0.50000000  1
  Mg  Mg40  1  0.38831673  0.11885890  0.82205752  1
  Mg  Mg41  1  0.85609914  0.80595473  0.58954179  1
  Mg  Mg42  1  0.15807654  0.48339327  0.50597975  1
  Mg  Mg43  1  0.63894592  0.30301249  0.54700343  1
  Mg  Mg44  1  0.88831673  0.32205752  0.88114110  1
  Mg  Mg45  1  0.31511606  0.62149555  0.66341721  1
  Mg  Mg46  1  0.11537746  0.88177557  0.17748242  1
  Mg  Mg47  1  0.11168327  0.67794248  0.11885890  1
  Mg  Mg48  1  0.88831673  0.17794248  0.61885890  1
  Mg  Mg49  1  0.84192346  0.51660673  0.49402025  1
  Mg  Mg50  1  0.38831673  0.38114110  0.67794248  1
  Mg  Mg51  1  0.68488394  0.12149555  0.16341721  1
  Mg  Mg52  1  0.47433602  0.18906842  0.38109199  1
  Mg  Mg53  1  0.50000000  0.00000000  0.00000000  1
  Mg  Mg54  1  0.64390086  0.91045821  0.80595473  1
  Mg  Mg55  1  0.36105408  0.80301249  0.04700343  1
  Mg  Mg56  1  0.88462254  0.38177557  0.67748242  1
  Mg  Mg57  1  0.31511606  0.87850445  0.83658279  1
  Mg  Mg58  1  0.61537746  0.67748242  0.11822443  1
  Mg  Mg59  1  0.88462254  0.11822443  0.82251758  1
  Si  Si60  1  0.36509085  0.58417755  0.20212281  1
  Si  Si61  1  0.13490915  0.20212281  0.91582245  1
  Si  Si62  1  0.86509085  0.79787719  0.08417755  1
  Si  Si63  1  0.63490915  0.41582245  0.79787719  1
  Si  Si64  1  0.36509085  0.91582245  0.29787719  1
  Si  Si65  1  0.63490915  0.08417755  0.70212281  1
  Si  Si66  1  0.86509085  0.70212281  0.41582245  1
  Si  Si67  1  0.13490915  0.29787719  0.58417755  1
  Ir  Ir68  1  0.34853624  0.17009084  0.01457964  1
  Ir  Ir69  1  0.42453544  0.51805024  0.82575183  1
  Ir  Ir70  1  0.57546456  0.01805024  0.32575183  1
  Ir  Ir71  1  0.36351797  0.75000000  0.25000000  1
  Ir  Ir72  1  0.92453544  0.17424817  0.01805024  1
  Ir  Ir73  1  0.63648203  0.25000000  0.75000000  1
  Ir  Ir74  1  0.92453544  0.32575183  0.48194976  1
  Ir  Ir75  1  0.42453544  0.98194976  0.67424817  1
  Ir  Ir76  1  0.65146376  0.67009084  0.51457964  1
  Ir  Ir77  1  0.07546456  0.67424817  0.51805024  1
  Ir  Ir78  1  0.57546456  0.48194976  0.17424817  1
  Ir  Ir79  1  0.15146376  0.48542036  0.17009084  1
  Ir  Ir80  1  0.07546456  0.82575183  0.98194976  1
  Ir  Ir81  1  0.84853624  0.51457964  0.82990916  1
  Ir  Ir82  1  0.34853624  0.32990916  0.48542036  1
  Ir  Ir83  1  0.13648203  0.25000000  0.75000000  1
  Ir  Ir84  1  0.65146376  0.82990916  0.98542036  1
  Ir  Ir85  1  0.15146376  0.01457964  0.32990916  1
  Ir  Ir86  1  0.84853624  0.98542036  0.67009084  1
  Ir  Ir87  1  0.86351797  0.75000000  0.25000000  1
