# generated using pymatgen
data_Dy2Sn5
_symmetry_space_group_name_H-M   'P 1'
_cell_length_a   4.37669031
_cell_length_b   4.45981111
_cell_length_c   19.16614643
_cell_angle_alpha   90.00000000
_cell_angle_beta   90.00000000
_cell_angle_gamma   90.00000000
_symmetry_Int_Tables_number   1
_chemical_formula_structural   Dy2Sn5
_chemical_formula_sum   'Dy4 Sn10'
_cell_volume   374.10807672
_cell_formula_units_Z   2
loop_
 _symmetry_equiv_pos_site_id
 _symmetry_equiv_pos_as_xyz
  1  'x, y, z'
loop_
 _atom_site_type_symbol
 _atom_site_label
 _atom_site_symmetry_multiplicity
 _atom_site_fract_x
 _atom_site_fract_y
 _atom_site_fract_z
 _atom_site_occupancy
  Dy  Dy0  1  0.25000000  0.75000000  0.87082077  1
  Dy  Dy1  1  0.25000000  0.25000000  0.30108081  1
  Dy  Dy2  1  0.75000000  0.75000000  0.69891919  1
  Dy  Dy3  1  0.75000000  0.25000000  0.12917923  1
  Sn  Sn4  1  0.25000000  0.25000000  0.73517003  1
  Sn  Sn5  1  0.75000000  0.25000000  0.42464392  1
  Sn  Sn6  1  0.75000000  0.25000000  0.84353815  1
  Sn  Sn7  1  0.75000000  0.25000000  0.57668203  1
  Sn  Sn8  1  0.75000000  0.75000000  0.26482997  1
  Sn  Sn9  1  0.25000000  0.75000000  0.42331797  1
  Sn  Sn10  1  0.25000000  0.75000000  0.57535608  1
  Sn  Sn11  1  0.25000000  0.75000000  0.15646185  1
  Sn  Sn12  1  0.25000000  0.25000000  0.99843449  1
  Sn  Sn13  1  0.75000000  0.75000000  0.00156551  1
