# generated using pymatgen
data_Tb4Ga12Pt
_symmetry_space_group_name_H-M   'P 1'
_cell_length_a   7.50426363
_cell_length_b   7.50426422
_cell_length_c   7.50426369
_cell_angle_alpha   109.47121920
_cell_angle_beta   109.47122081
_cell_angle_gamma   109.47122285
_symmetry_Int_Tables_number   1
_chemical_formula_structural   Tb4Ga12Pt
_chemical_formula_sum   'Tb4 Ga12 Pt1'
_cell_volume   325.31372746
_cell_formula_units_Z   1
loop_
 _symmetry_equiv_pos_site_id
 _symmetry_equiv_pos_as_xyz
  1  'x, y, z'
loop_
 _atom_site_type_symbol
 _atom_site_label
 _atom_site_symmetry_multiplicity
 _atom_site_fract_x
 _atom_site_fract_y
 _atom_site_fract_z
 _atom_site_occupancy
  Tb  Tb0  1  0.50000000  0.00000000  0.00000000  1
  Tb  Tb1  1  0.50000000  0.50000000  0.50000000  1
  Tb  Tb2  1  0.00000000  0.00000000  0.50000000  1
  Tb  Tb3  1  0.00000000  0.50000000  0.00000000  1
  Ga  Ga4  1  0.00000000  0.29626856  0.29626856  1
  Ga  Ga5  1  0.70373144  0.00000000  0.70373144  1
  Ga  Ga6  1  0.25000000  0.75000000  0.50000000  1
  Ga  Ga7  1  0.50000000  0.75000000  0.25000000  1
  Ga  Ga8  1  0.25000000  0.50000000  0.75000000  1
  Ga  Ga9  1  0.75000000  0.25000000  0.50000000  1
  Ga  Ga10  1  0.29626856  0.29626856  0.00000000  1
  Ga  Ga11  1  1.00000000  0.70373144  0.70373144  1
  Ga  Ga12  1  0.50000000  0.25000000  0.75000000  1
  Ga  Ga13  1  0.75000000  0.50000000  0.25000000  1
  Ga  Ga14  1  0.70373144  0.70373144  1.00000000  1
  Ga  Ga15  1  0.29626856  1.00000000  0.29626856  1
  Pt  Pt16  1  0.00000000  0.00000000  0.00000000  1
