# generated using pymatgen
data_La3CuSiSe7
_symmetry_space_group_name_H-M   'P 1'
_cell_length_a   10.78520509
_cell_length_b   10.78520535
_cell_length_c   6.15494843
_cell_angle_alpha   90.00000000
_cell_angle_beta   90.00000000
_cell_angle_gamma   119.99999921
_symmetry_Int_Tables_number   1
_chemical_formula_structural   La3CuSiSe7
_chemical_formula_sum   'La6 Si2 Cu2 Se14'
_cell_volume   620.02882469
_cell_formula_units_Z   2
loop_
 _symmetry_equiv_pos_site_id
 _symmetry_equiv_pos_as_xyz
  1  'x, y, z'
loop_
 _atom_site_type_symbol
 _atom_site_label
 _atom_site_symmetry_multiplicity
 _atom_site_fract_x
 _atom_site_fract_y
 _atom_site_fract_z
 _atom_site_occupancy
  La  La0  1  0.22891778  0.87345491  0.73677118  1
  La  La1  1  0.64453713  0.77108222  0.73677118  1
  La  La2  1  0.12654509  0.35546287  0.73677118  1
  La  La3  1  0.77108222  0.12654509  0.23677118  1
  La  La4  1  0.35546287  0.22891778  0.23677118  1
  La  La5  1  0.87345491  0.64453713  0.23677118  1
  Si  Si6  1  0.66666700  0.33333300  0.82463799  1
  Si  Si7  1  0.33333300  0.66666700  0.32463799  1
  Cu  Cu8  1  0.00000000  0.00000000  0.69561090  1
  Cu  Cu9  1  0.00000000  0.00000000  0.19561090  1
  Se  Se10  1  0.91047205  0.74773350  0.71894130  1
  Se  Se11  1  0.16273855  0.91047205  0.21894130  1
  Se  Se12  1  0.10838147  0.58518725  0.46988727  1
  Se  Se13  1  0.33333300  0.66666700  0.95555187  1
  Se  Se14  1  0.47680578  0.89161853  0.46988727  1
  Se  Se15  1  0.89161853  0.41481275  0.96988727  1
  Se  Se16  1  0.66666700  0.33333300  0.45555187  1
  Se  Se17  1  0.83726145  0.08952795  0.71894130  1
  Se  Se18  1  0.08952795  0.25226650  0.21894130  1
  Se  Se19  1  0.25226650  0.16273855  0.71894130  1
  Se  Se20  1  0.41481275  0.52319422  0.46988727  1
  Se  Se21  1  0.58518725  0.47680578  0.96988727  1
  Se  Se22  1  0.74773350  0.83726145  0.21894130  1
  Se  Se23  1  0.52319422  0.10838147  0.96988727  1
