# generated using pymatgen
data_LaCo9Si4
_symmetry_space_group_name_H-M   'P 1'
_cell_length_a   7.76900289
_cell_length_b   7.76900230
_cell_length_c   7.94888997
_cell_angle_alpha   119.25417258
_cell_angle_beta   119.25417008
_cell_angle_gamma   90.00000099
_symmetry_Int_Tables_number   1
_chemical_formula_structural   LaCo9Si4
_chemical_formula_sum   'La2 Co18 Si8'
_cell_volume   346.75917524
_cell_formula_units_Z   2
loop_
 _symmetry_equiv_pos_site_id
 _symmetry_equiv_pos_as_xyz
  1  'x, y, z'
loop_
 _atom_site_type_symbol
 _atom_site_label
 _atom_site_symmetry_multiplicity
 _atom_site_fract_x
 _atom_site_fract_y
 _atom_site_fract_z
 _atom_site_occupancy
  La  La0  1  0.25000000  0.25000000  0.50000000  1
  La  La1  1  0.75000000  0.75000000  0.50000000  1
  Co  Co2  1  0.29963946  0.43011003  0.00000000  1
  Co  Co3  1  0.80864893  0.30864893  0.36007840  1
  Co  Co4  1  0.05142947  0.80864893  0.36007840  1
  Co  Co5  1  0.19135107  0.69135107  0.63992160  1
  Co  Co6  1  0.94857053  0.19135107  0.63992160  1
  Co  Co7  1  0.69135107  0.44857053  0.63992160  1
  Co  Co8  1  0.70036054  0.56988997  1.00000000  1
  Co  Co9  1  0.93011003  0.79963946  0.00000000  1
  Co  Co10  1  0.30864893  0.55142947  0.36007840  1
  Co  Co11  1  0.79963946  0.06988997  1.00000000  1
  Co  Co12  1  0.44857053  0.94857053  0.63992160  1
  Co  Co13  1  0.56988997  0.29963946  0.00000000  1
  Co  Co14  1  0.20036054  0.93011003  0.00000000  1
  Co  Co15  1  0.06988997  0.20036054  1.00000000  1
  Co  Co16  1  0.43011003  0.70036054  1.00000000  1
  Co  Co17  1  0.00000000  0.50000000  0.00000000  1
  Co  Co18  1  0.55142947  0.05142947  0.36007840  1
  Co  Co19  1  0.50000000  0.00000000  0.00000000  1
  Si  Si20  1  0.28973819  0.78973819  0.24079695  1
  Si  Si21  1  0.45105876  0.28973819  0.24079695  1
  Si  Si22  1  0.95105876  0.45105876  0.24079695  1
  Si  Si23  1  0.78973819  0.95105876  0.24079695  1
  Si  Si24  1  0.04894124  0.54894124  0.75920305  1
  Si  Si25  1  0.54894124  0.71026181  0.75920305  1
  Si  Si26  1  0.71026181  0.21026181  0.75920305  1
  Si  Si27  1  0.21026181  0.04894124  0.75920305  1
