# generated using pymatgen
data_LaBC
_symmetry_space_group_name_H-M   'P 1'
_cell_length_a   8.68002604
_cell_length_b   8.70715845
_cell_length_c   12.39356381
_cell_angle_alpha   90.00000000
_cell_angle_beta   90.00000000
_cell_angle_gamma   90.00000000
_symmetry_Int_Tables_number   1
_chemical_formula_structural   LaBC
_chemical_formula_sum   'La20 B20 C20'
_cell_volume   936.68525310
_cell_formula_units_Z   20
loop_
 _symmetry_equiv_pos_site_id
 _symmetry_equiv_pos_as_xyz
  1  'x, y, z'
loop_
 _atom_site_type_symbol
 _atom_site_label
 _atom_site_symmetry_multiplicity
 _atom_site_fract_x
 _atom_site_fract_y
 _atom_site_fract_z
 _atom_site_occupancy
  La  La0  1  0.15974571  0.59142452  0.40292428  1
  La  La1  1  0.75435836  0.78905831  0.32648743  1
  La  La2  1  0.84031572  0.49421436  0.57968397  1
  La  La3  1  0.44931914  0.90195431  0.14155838  1
  La  La4  1  0.34031572  0.00578564  0.42031603  1
  La  La5  1  0.25435836  0.71094169  0.67351257  1
  La  La6  1  0.74564164  0.21094169  0.82648743  1
  La  La7  1  0.55068086  0.40195431  0.35844162  1
  La  La8  1  0.93903454  0.19714675  0.36847615  1
  La  La9  1  0.94931914  0.59804569  0.85844162  1
  La  La10  1  0.34025429  0.40857548  0.90292428  1
  La  La11  1  0.65968428  0.50578564  0.07968397  1
  La  La12  1  0.24564164  0.28905831  0.17351257  1
  La  La13  1  0.15968428  0.99421436  0.92031603  1
  La  La14  1  0.05068086  0.09804569  0.64155838  1
  La  La15  1  0.65974571  0.90857548  0.59707572  1
  La  La16  1  0.43903454  0.30285325  0.63152385  1
  La  La17  1  0.84025429  0.09142452  0.09707572  1
  La  La18  1  0.06096546  0.69714675  0.13152385  1
  La  La19  1  0.56096546  0.80285325  0.86847615  1
  B  B20  1  0.56203179  0.19844237  0.17873969  1
  B  B21  1  0.48068196  0.11347894  0.96021308  1
  B  B22  1  0.81493401  0.81002812  0.00657879  1
  B  B23  1  0.61699766  0.10324325  0.28649276  1
  B  B24  1  0.51931804  0.61347894  0.53978692  1
  B  B25  1  0.90179188  0.47016743  0.25751470  1
  B  B26  1  0.88300234  0.89675675  0.78649276  1
  B  B27  1  0.40179188  0.02983257  0.74248530  1
  B  B28  1  0.01931804  0.88652106  0.46021308  1
  B  B29  1  0.18506599  0.31002812  0.49342121  1
  B  B30  1  0.98068196  0.38652106  0.03978692  1
  B  B31  1  0.93796821  0.80155763  0.67873969  1
  B  B32  1  0.43796821  0.69844237  0.32126031  1
  B  B33  1  0.59820812  0.52983257  0.75751470  1
  B  B34  1  0.06203179  0.30155763  0.82126031  1
  B  B35  1  0.68506599  0.18997188  0.50657879  1
  B  B36  1  0.31493401  0.68997188  0.99342121  1
  B  B37  1  0.11699766  0.39675675  0.71350724  1
  B  B38  1  0.38300234  0.60324325  0.21350724  1
  B  B39  1  0.09820812  0.97016743  0.24248530  1
  C  C40  1  0.02590398  0.30866717  0.93825681  1
  C  C41  1  0.05542196  0.88987100  0.34344952  1
  C  C42  1  0.55542196  0.61012900  0.65655048  1
  C  C43  1  0.14118573  0.99842745  0.12997441  1
  C  C44  1  0.94457804  0.38987100  0.15655048  1
  C  C45  1  0.24598245  0.29712129  0.38345815  1
  C  C46  1  0.35406183  0.60717099  0.09453156  1
  C  C47  1  0.25401755  0.70287871  0.88345815  1
  C  C48  1  0.97409602  0.80866717  0.56174319  1
  C  C49  1  0.44457804  0.11012900  0.84344952  1
  C  C50  1  0.47409602  0.69133283  0.43825681  1
  C  C51  1  0.85406183  0.89282901  0.90546844  1
  C  C52  1  0.35881427  0.00157255  0.62997441  1
  C  C53  1  0.52590398  0.19133283  0.06174319  1
  C  C54  1  0.74598245  0.20287871  0.61654185  1
  C  C55  1  0.75401755  0.79712129  0.11654185  1
  C  C56  1  0.64118573  0.50157255  0.87002559  1
  C  C57  1  0.14593817  0.39282901  0.59453156  1
  C  C58  1  0.64593817  0.10717099  0.40546844  1
  C  C59  1  0.85881427  0.49842745  0.37002559  1
