# generated using pymatgen
data_CeCoSb3
_symmetry_space_group_name_H-M   'P 1'
_cell_length_a   6.18968929
_cell_length_b   12.16785117
_cell_length_c   12.57147397
_cell_angle_alpha   90.00000000
_cell_angle_beta   90.00000000
_cell_angle_gamma   90.00000000
_symmetry_Int_Tables_number   1
_chemical_formula_structural   CeCoSb3
_chemical_formula_sum   'Ce8 Co8 Sb24'
_cell_volume   946.82330350
_cell_formula_units_Z   8
loop_
 _symmetry_equiv_pos_site_id
 _symmetry_equiv_pos_as_xyz
  1  'x, y, z'
loop_
 _atom_site_type_symbol
 _atom_site_label
 _atom_site_symmetry_multiplicity
 _atom_site_fract_x
 _atom_site_fract_y
 _atom_site_fract_z
 _atom_site_occupancy
  Ce  Ce0  1  0.22784078  0.25000000  0.30204072  1
  Ce  Ce1  1  0.77215922  0.75000000  0.69795928  1
  Ce  Ce2  1  0.75000000  0.50000000  0.29949098  1
  Ce  Ce3  1  0.25000000  0.50000000  0.70050902  1
  Ce  Ce4  1  0.72784078  0.25000000  0.69795928  1
  Ce  Ce5  1  0.27215922  0.75000000  0.30204072  1
  Ce  Ce6  1  0.75000000  0.00000000  0.29949098  1
  Ce  Ce7  1  0.25000000  0.00000000  0.70050902  1
  Co  Co8  1  0.53688335  0.86420338  0.89963608  1
  Co  Co9  1  0.46311665  0.36420338  0.10036392  1
  Co  Co10  1  0.53688335  0.63579662  0.89963608  1
  Co  Co11  1  0.46311665  0.13579662  0.10036392  1
  Co  Co12  1  0.96311665  0.13579662  0.89963608  1
  Co  Co13  1  0.03688335  0.86420338  0.10036392  1
  Co  Co14  1  0.03688335  0.63579662  0.10036392  1
  Co  Co15  1  0.96311665  0.36420338  0.89963608  1
  Sb  Sb16  1  0.38410982  0.75000000  0.05529705  1
  Sb  Sb17  1  0.26716235  0.75000000  0.78024397  1
  Sb  Sb18  1  0.11589018  0.25000000  0.05529705  1
  Sb  Sb19  1  0.75000000  0.00000000  0.77593259  1
  Sb  Sb20  1  0.01151554  0.87557211  0.49765500  1
  Sb  Sb21  1  0.76716235  0.75000000  0.21975603  1
  Sb  Sb22  1  0.23283765  0.25000000  0.78024397  1
  Sb  Sb23  1  0.75000000  0.50000000  0.02808286  1
  Sb  Sb24  1  0.73283765  0.25000000  0.21975603  1
  Sb  Sb25  1  0.48848446  0.12442789  0.49765500  1
  Sb  Sb26  1  0.75000000  0.50000000  0.77593259  1
  Sb  Sb27  1  0.98848446  0.12442789  0.50234500  1
  Sb  Sb28  1  0.61589018  0.25000000  0.94470295  1
  Sb  Sb29  1  0.88410982  0.75000000  0.94470295  1
  Sb  Sb30  1  0.25000000  0.50000000  0.22406741  1
  Sb  Sb31  1  0.25000000  0.00000000  0.97191714  1
  Sb  Sb32  1  0.01151554  0.62442789  0.49765500  1
  Sb  Sb33  1  0.48848446  0.37557211  0.49765500  1
  Sb  Sb34  1  0.25000000  0.00000000  0.22406741  1
  Sb  Sb35  1  0.75000000  0.00000000  0.02808286  1
  Sb  Sb36  1  0.51151554  0.62442789  0.50234500  1
  Sb  Sb37  1  0.98848446  0.37557211  0.50234500  1
  Sb  Sb38  1  0.25000000  0.50000000  0.97191714  1
  Sb  Sb39  1  0.51151554  0.87557211  0.50234500  1
