# generated using pymatgen
data_Ba2Zr6BCl17
_symmetry_space_group_name_H-M   'P 1'
_cell_length_a   9.73951745
_cell_length_b   9.73951737
_cell_length_c   9.73951779
_cell_angle_alpha   105.29661209
_cell_angle_beta   105.29661188
_cell_angle_gamma   118.18811814
_symmetry_Int_Tables_number   1
_chemical_formula_structural   Ba2Zr6BCl17
_chemical_formula_sum   'Ba2 Zr6 B1 Cl17'
_cell_volume   698.68152986
_cell_formula_units_Z   1
loop_
 _symmetry_equiv_pos_site_id
 _symmetry_equiv_pos_as_xyz
  1  'x, y, z'
loop_
 _atom_site_type_symbol
 _atom_site_label
 _atom_site_symmetry_multiplicity
 _atom_site_fract_x
 _atom_site_fract_y
 _atom_site_fract_z
 _atom_site_occupancy
  Ba  Ba0  1  0.75000000  0.25000000  0.50000000  1
  Ba  Ba1  1  0.25000000  0.75000000  0.50000000  1
  Zr  Zr2  1  0.76659379  0.76659379  0.00000000  1
  Zr  Zr3  1  0.23340621  0.23340621  1.00000000  1
  Zr  Zr4  1  0.18356547  0.06729645  0.25086192  1
  Zr  Zr5  1  0.93270355  0.18356547  0.11626903  1
  Zr  Zr6  1  0.81643453  0.93270355  0.74913808  1
  Zr  Zr7  1  0.06729645  0.81643453  0.88373097  1
  B  B8  1  0.00000000  0.00000000  0.00000000  1
  Cl  Cl9  1  0.87122509  0.72183419  0.59305928  1
  Cl  Cl10  1  0.27816581  0.87122509  0.14939090  1
  Cl  Cl11  1  0.13068092  0.59505995  0.72574087  1
  Cl  Cl12  1  0.04944663  0.17928695  0.71986840  1
  Cl  Cl13  1  0.86931908  0.40494005  0.27425913  1
  Cl  Cl14  1  0.95055337  0.82071305  0.28013160  1
  Cl  Cl15  1  0.32957823  0.04944663  0.87015969  1
  Cl  Cl16  1  0.40494005  0.13068092  0.53562097  1
  Cl  Cl17  1  0.59505995  0.86931908  0.46437903  1
  Cl  Cl18  1  0.12877491  0.27816581  0.40694072  1
  Cl  Cl19  1  0.82071305  0.54058146  0.87015969  1
  Cl  Cl20  1  0.45941854  0.32957823  0.28013160  1
  Cl  Cl21  1  0.72183419  0.12877491  0.85060910  1
  Cl  Cl22  1  0.50000000  0.50000000  0.00000000  1
  Cl  Cl23  1  0.67042177  0.95055337  0.12984031  1
  Cl  Cl24  1  0.54058146  0.67042177  0.71986840  1
  Cl  Cl25  1  0.17928695  0.45941854  0.12984031  1
