# generated using pymatgen
data_Mn4Si7
_symmetry_space_group_name_H-M   'P 1'
_cell_length_a   5.50224847
_cell_length_b   5.50246188
_cell_length_c   17.36608446
_cell_angle_alpha   90.00000000
_cell_angle_beta   90.00000000
_cell_angle_gamma   89.96970902
_symmetry_Int_Tables_number   1
_chemical_formula_structural   Mn4Si7
_chemical_formula_sum   'Mn16 Si28'
_cell_volume   525.77397984
_cell_formula_units_Z   4
loop_
 _symmetry_equiv_pos_site_id
 _symmetry_equiv_pos_as_xyz
  1  'x, y, z'
loop_
 _atom_site_type_symbol
 _atom_site_label
 _atom_site_symmetry_multiplicity
 _atom_site_fract_x
 _atom_site_fract_y
 _atom_site_fract_z
 _atom_site_occupancy
  Mn  Mn0  1  0.00000000  0.50000000  0.31019156  1
  Mn  Mn1  1  0.50000000  0.50000000  0.87001859  1
  Mn  Mn2  1  0.50000000  0.00000000  0.19294458  1
  Mn  Mn3  1  0.50000000  0.50000000  0.62921776  1
  Mn  Mn4  1  0.50000000  0.50000000  0.12871806  1
  Mn  Mn5  1  0.50000000  0.50000000  0.36980798  1
  Mn  Mn6  1  0.00000000  0.00000000  0.49901532  1
  Mn  Mn7  1  0.50000000  0.00000000  0.93327924  1
  Mn  Mn8  1  0.00000000  0.00000000  0.25258220  1
  Mn  Mn9  1  0.50000000  0.00000000  0.43367030  1
  Mn  Mn10  1  0.00000000  0.50000000  0.56391240  1
  Mn  Mn11  1  0.00000000  0.00000000  0.99862696  1
  Mn  Mn12  1  0.50000000  0.00000000  0.69299886  1
  Mn  Mn13  1  0.00000000  0.50000000  0.06358473  1
  Mn  Mn14  1  0.00000000  0.50000000  0.81017210  1
  Mn  Mn15  1  0.00000000  0.00000000  0.75248765  1
  Si  Si16  1  0.78504403  0.84641628  0.10732135  1
  Si  Si17  1  0.32836178  0.66185142  0.74769565  1
  Si  Si18  1  0.21252576  0.34484798  0.95459329  1
  Si  Si19  1  0.21495597  0.15358372  0.10732135  1
  Si  Si20  1  0.15687030  0.31224615  0.67942389  1
  Si  Si21  1  0.21301774  0.84585322  0.60795864  1
  Si  Si22  1  0.15658379  0.81262792  0.88291335  1
  Si  Si23  1  0.67140209  0.16204512  0.31484915  1
  Si  Si24  1  0.84312970  0.68775385  0.67942389  1
  Si  Si25  1  0.15682908  0.18777937  0.38317638  1
  Si  Si26  1  0.67204483  0.66161652  0.24753584  1
  Si  Si27  1  0.15673918  0.68886966  0.17905210  1
  Si  Si28  1  0.78747424  0.65515202  0.95459329  1
  Si  Si29  1  0.32859791  0.83795488  0.31484915  1
  Si  Si30  1  0.78698226  0.15414678  0.60795864  1
  Si  Si31  1  0.34585726  0.74646936  0.03001632  1
  Si  Si32  1  0.32853416  0.16208875  0.81482411  1
  Si  Si33  1  0.32795517  0.33838348  0.24753584  1
  Si  Si34  1  0.67146584  0.83791125  0.81482411  1
  Si  Si35  1  0.65414274  0.25353064  0.03001632  1
  Si  Si36  1  0.21323849  0.65423122  0.45481888  1
  Si  Si37  1  0.78676151  0.34576878  0.45481888  1
  Si  Si38  1  0.84317092  0.81222063  0.38317638  1
  Si  Si39  1  0.65392499  0.75004416  0.53135690  1
  Si  Si40  1  0.34607501  0.24995584  0.53135690  1
  Si  Si41  1  0.67163822  0.33814858  0.74769565  1
  Si  Si42  1  0.84326082  0.31113034  0.17905210  1
  Si  Si43  1  0.84341621  0.18737208  0.88291335  1
