# generated using pymatgen
data_Dy5In3
_symmetry_space_group_name_H-M   'P 1'
_cell_length_a   5.99320555
_cell_length_b   9.19579639
_cell_length_c   9.19579595
_cell_angle_alpha   83.90432387
_cell_angle_beta   70.98191476
_cell_angle_gamma   70.98191492
_symmetry_Int_Tables_number   1
_chemical_formula_structural   Dy5In3
_chemical_formula_sum   'Dy10 In6'
_cell_volume   452.98469114
_cell_formula_units_Z   2
loop_
 _symmetry_equiv_pos_site_id
 _symmetry_equiv_pos_as_xyz
  1  'x, y, z'
loop_
 _atom_site_type_symbol
 _atom_site_label
 _atom_site_symmetry_multiplicity
 _atom_site_fract_x
 _atom_site_fract_y
 _atom_site_fract_z
 _atom_site_occupancy
  Dy  Dy0  1  0.58325160  0.69728366  0.13621313  1
  Dy  Dy1  1  0.41674840  0.30271634  0.86378687  1
  Dy  Dy2  1  0.28053527  0.13621313  0.30271634  1
  Dy  Dy3  1  0.91674840  0.86378687  0.30271634  1
  Dy  Dy4  1  0.78053527  0.30271634  0.13621313  1
  Dy  Dy5  1  0.75000000  0.50000000  0.50000000  1
  Dy  Dy6  1  0.25000000  0.50000000  0.50000000  1
  Dy  Dy7  1  0.08325160  0.13621313  0.69728366  1
  Dy  Dy8  1  0.71946473  0.86378687  0.69728366  1
  Dy  Dy9  1  0.21946473  0.69728366  0.86378687  1
  In  In10  1  0.33863999  0.82272003  0.50000000  1
  In  In11  1  0.16136001  0.50000000  0.17727997  1
  In  In12  1  0.25000000  0.00000000  0.00000000  1
  In  In13  1  0.83863999  0.50000000  0.82272003  1
  In  In14  1  0.66136001  0.17727997  0.50000000  1
  In  In15  1  0.75000000  0.00000000  0.00000000  1
