# generated using pymatgen
data_PrZn11
_symmetry_space_group_name_H-M   'P 1'
_cell_length_a   6.85487179
_cell_length_b   8.28966897
_cell_length_c   8.28966878
_cell_angle_alpha   80.15704949
_cell_angle_beta   65.57771267
_cell_angle_gamma   65.57770992
_symmetry_Int_Tables_number   1
_chemical_formula_structural   PrZn11
_chemical_formula_sum   'Pr2 Zn22'
_cell_volume   390.53093321
_cell_formula_units_Z   2
loop_
 _symmetry_equiv_pos_site_id
 _symmetry_equiv_pos_as_xyz
  1  'x, y, z'
loop_
 _atom_site_type_symbol
 _atom_site_label
 _atom_site_symmetry_multiplicity
 _atom_site_fract_x
 _atom_site_fract_y
 _atom_site_fract_z
 _atom_site_occupancy
  Pr  Pr0  1  0.37500000  0.25000000  0.75000000  1
  Pr  Pr1  1  0.62500000  0.75000000  0.25000000  1
  Zn  Zn2  1  0.72139276  0.83431375  0.57759431  1
  Zn  Zn3  1  0.00000000  0.00000000  0.00000000  1
  Zn  Zn4  1  0.20101293  0.07759431  0.16568625  1
  Zn  Zn5  1  0.13330083  0.42240569  0.16568625  1
  Zn  Zn6  1  0.20101293  0.66568625  0.57759431  1
  Zn  Zn7  1  0.86669917  0.57759431  0.83431375  1
  Zn  Zn8  1  0.13330083  0.66568625  0.92240569  1
  Zn  Zn9  1  0.12500000  0.75000000  0.25000000  1
  Zn  Zn10  1  0.86669917  0.33431375  0.07759431  1
  Zn  Zn11  1  0.87500000  0.25000000  0.75000000  1
  Zn  Zn12  1  0.55570652  0.57759431  0.66568625  1
  Zn  Zn13  1  0.50000000  0.50000000  0.00000000  1
  Zn  Zn14  1  0.27860724  0.16568625  0.42240569  1
  Zn  Zn15  1  0.79898707  0.33431375  0.42240569  1
  Zn  Zn16  1  0.72139276  0.07759431  0.33431375  1
  Zn  Zn17  1  0.44429348  0.42240569  0.33431375  1
  Zn  Zn18  1  0.55570652  0.16568625  0.07759431  1
  Zn  Zn19  1  0.27860724  0.92240569  0.66568625  1
  Zn  Zn20  1  0.79898707  0.92240569  0.83431375  1
  Zn  Zn21  1  0.44429348  0.83431375  0.92240569  1
  Zn  Zn22  1  0.00000000  0.00000000  0.50000000  1
  Zn  Zn23  1  0.00000000  0.50000000  0.50000000  1
