# generated using pymatgen
data_Cs4Sc6CCl13
_symmetry_space_group_name_H-M   'P 1'
_cell_length_a   10.52232264
_cell_length_b   12.17821014
_cell_length_c   12.17821030
_cell_angle_alpha   79.24344730
_cell_angle_beta   64.40453573
_cell_angle_gamma   64.40453474
_symmetry_Int_Tables_number   1
_chemical_formula_structural   Cs4Sc6CCl13
_chemical_formula_sum   'Cs8 Sc12 C2 Cl26'
_cell_volume   1269.29706111
_cell_formula_units_Z   2
loop_
 _symmetry_equiv_pos_site_id
 _symmetry_equiv_pos_as_xyz
  1  'x, y, z'
loop_
 _atom_site_type_symbol
 _atom_site_label
 _atom_site_symmetry_multiplicity
 _atom_site_fract_x
 _atom_site_fract_y
 _atom_site_fract_z
 _atom_site_occupancy
  Cs  Cs0  1  0.27985828  0.44028344  0.25000000  1
  Cs  Cs1  1  0.97014172  0.75000000  0.55971656  1
  Cs  Cs2  1  0.97014172  0.05971656  0.25000000  1
  Cs  Cs3  1  0.02985828  0.25000000  0.44028344  1
  Cs  Cs4  1  0.72014172  0.25000000  0.05971656  1
  Cs  Cs5  1  0.27985828  0.75000000  0.94028344  1
  Cs  Cs6  1  0.02985828  0.94028344  0.75000000  1
  Cs  Cs7  1  0.72014172  0.55971656  0.75000000  1
  Sc  Sc8  1  0.62324371  0.89454125  0.10545875  1
  Sc  Sc9  1  0.22870246  0.39454125  0.89454125  1
  Sc  Sc10  1  0.51778496  0.10545875  0.60545875  1
  Sc  Sc11  1  0.41126038  0.75000000  0.25000000  1
  Sc  Sc12  1  0.62324371  0.60545875  0.39454125  1
  Sc  Sc13  1  0.58873962  0.25000000  0.75000000  1
  Sc  Sc14  1  0.16126038  0.25000000  0.75000000  1
  Sc  Sc15  1  0.77129754  0.60545875  0.10545875  1
  Sc  Sc16  1  0.83873962  0.75000000  0.25000000  1
  Sc  Sc17  1  0.48221504  0.89454125  0.39454125  1
  Sc  Sc18  1  0.37675629  0.10545875  0.89454125  1
  Sc  Sc19  1  0.37675629  0.39454125  0.60545875  1
  C  C20  1  0.62500000  0.75000000  0.25000000  1
  C  C21  1  0.37500000  0.25000000  0.75000000  1
  Cl  Cl22  1  0.87103272  0.91653388  0.08346612  1
  Cl  Cl23  1  0.78979009  0.75000000  0.92041982  1
  Cl  Cl24  1  0.46020991  0.75000000  0.57958018  1
  Cl  Cl25  1  0.37754780  0.58358025  0.41641975  1
  Cl  Cl26  1  0.12896728  0.08346612  0.91653388  1
  Cl  Cl27  1  0.21243340  0.91653388  0.41653388  1
  Cl  Cl28  1  0.03887195  0.58358025  0.08358025  1
  Cl  Cl29  1  0.70603245  0.91641975  0.41641975  1
  Cl  Cl30  1  0.96112805  0.41641975  0.91641975  1
  Cl  Cl31  1  0.21020991  0.57958018  0.75000000  1
  Cl  Cl32  1  0.37754780  0.91641975  0.08358025  1
  Cl  Cl33  1  0.62245220  0.41641975  0.58358025  1
  Cl  Cl34  1  0.12896728  0.41653388  0.58346612  1
  Cl  Cl35  1  0.78979009  0.42041982  0.25000000  1
  Cl  Cl36  1  0.21020991  0.25000000  0.07958018  1
  Cl  Cl37  1  0.54550116  0.58346612  0.08346612  1
  Cl  Cl38  1  0.87500000  0.25000000  0.75000000  1
  Cl  Cl39  1  0.45449884  0.41653388  0.91653388  1
  Cl  Cl40  1  0.62245220  0.08358025  0.91641975  1
  Cl  Cl41  1  0.46020991  0.07958018  0.25000000  1
  Cl  Cl42  1  0.53979009  0.92041982  0.75000000  1
  Cl  Cl43  1  0.87103272  0.58346612  0.41653388  1
  Cl  Cl44  1  0.53979009  0.25000000  0.42041982  1
  Cl  Cl45  1  0.29396755  0.08358025  0.58358025  1
  Cl  Cl46  1  0.78756660  0.08346612  0.58346612  1
  Cl  Cl47  1  0.12500000  0.75000000  0.25000000  1
