# generated using pymatgen
data_InBr2
_symmetry_space_group_name_H-M   'P 1'
_cell_length_a   8.06913024
_cell_length_b   10.70083989
_cell_length_c   10.77919972
_cell_angle_alpha   90.00000000
_cell_angle_beta   90.00000000
_cell_angle_gamma   90.00000000
_symmetry_Int_Tables_number   1
_chemical_formula_structural   InBr2
_chemical_formula_sum   'In8 Br16'
_cell_volume   930.74585333
_cell_formula_units_Z   8
loop_
 _symmetry_equiv_pos_site_id
 _symmetry_equiv_pos_as_xyz
  1  'x, y, z'
loop_
 _atom_site_type_symbol
 _atom_site_label
 _atom_site_symmetry_multiplicity
 _atom_site_fract_x
 _atom_site_fract_y
 _atom_site_fract_z
 _atom_site_occupancy
  In  In0  1  0.75000000  0.00000000  0.81848820  1
  In  In1  1  0.32386460  0.75000000  0.75000000  1
  In  In2  1  0.25000000  0.00000000  0.18151180  1
  In  In3  1  0.67613540  0.25000000  0.25000000  1
  In  In4  1  0.17613540  0.25000000  0.75000000  1
  In  In5  1  0.25000000  0.50000000  0.31848820  1
  In  In6  1  0.82386460  0.75000000  0.25000000  1
  In  In7  1  0.75000000  0.50000000  0.68151180  1
  Br  Br8  1  0.49817649  0.45554549  0.81852688  1
  Br  Br9  1  0.50182351  0.54445451  0.18147312  1
  Br  Br10  1  0.99817649  0.04445451  0.31852688  1
  Br  Br11  1  0.84426741  0.31484607  0.54980112  1
  Br  Br12  1  0.50182351  0.95554549  0.31852688  1
  Br  Br13  1  0.34426741  0.31484607  0.45019888  1
  Br  Br14  1  0.84426741  0.18515393  0.95019888  1
  Br  Br15  1  0.34426741  0.18515393  0.04980112  1
  Br  Br16  1  0.65573259  0.81484607  0.95019888  1
  Br  Br17  1  0.99817649  0.45554549  0.18147312  1
  Br  Br18  1  0.15573259  0.81484607  0.04980112  1
  Br  Br19  1  0.49817649  0.04445451  0.68147312  1
  Br  Br20  1  0.65573259  0.68515393  0.54980112  1
  Br  Br21  1  0.00182351  0.54445451  0.81852688  1
  Br  Br22  1  0.15573259  0.68515393  0.45019888  1
  Br  Br23  1  0.00182351  0.95554549  0.68147312  1
