# generated using pymatgen
data_Yb6Co30P19
_symmetry_space_group_name_H-M   'P 1'
_cell_length_a   14.65353657
_cell_length_b   14.65353699
_cell_length_c   3.54498557
_cell_angle_alpha   90.00000000
_cell_angle_beta   90.00000000
_cell_angle_gamma   119.99999907
_symmetry_Int_Tables_number   1
_chemical_formula_structural   Yb6Co30P19
_chemical_formula_sum   'Yb6 Co30 P19'
_cell_volume   659.21946891
_cell_formula_units_Z   1
loop_
 _symmetry_equiv_pos_site_id
 _symmetry_equiv_pos_as_xyz
  1  'x, y, z'
loop_
 _atom_site_type_symbol
 _atom_site_label
 _atom_site_symmetry_multiplicity
 _atom_site_fract_x
 _atom_site_fract_y
 _atom_site_fract_z
 _atom_site_occupancy
  Yb  Yb0  1  0.29532319  0.39246410  0.00000000  1
  Yb  Yb1  1  0.90320000  0.29634789  0.50000000  1
  Yb  Yb2  1  0.70365211  0.60685211  0.50000000  1
  Yb  Yb3  1  0.39314789  0.09680000  0.50000000  1
  Yb  Yb4  1  0.09714092  0.70467681  0.00000000  1
  Yb  Yb5  1  0.60753590  0.90285908  0.00000000  1
  Co  Co6  1  0.07419114  0.53623628  0.50000000  1
  Co  Co7  1  0.77514883  0.04690862  0.50000000  1
  Co  Co8  1  0.22297106  0.94865981  0.00000000  1
  Co  Co9  1  0.58296478  0.73417680  0.50000000  1
  Co  Co10  1  0.05134019  0.27431125  0.00000000  1
  Co  Co11  1  0.27175979  0.22485117  0.50000000  1
  Co  Co12  1  0.77448115  0.42632710  0.50000000  1
  Co  Co13  1  0.02401206  0.88781802  0.00000000  1
  Co  Co14  1  0.53594261  0.46225533  0.00000000  1
  Co  Co15  1  0.72568875  0.77702894  0.00000000  1
  Co  Co16  1  0.22585920  0.57369961  0.00000000  1
  Co  Co17  1  0.42630039  0.65215959  0.00000000  1
  Co  Co18  1  0.97238585  0.12963858  0.50000000  1
  Co  Co19  1  0.34784041  0.77414080  0.00000000  1
  Co  Co20  1  0.26582320  0.84878797  0.50000000  1
  Co  Co21  1  0.15121203  0.41703522  0.50000000  1
  Co  Co22  1  0.46376372  0.53795486  0.50000000  1
  Co  Co23  1  0.87036142  0.84274727  0.50000000  1
  Co  Co24  1  0.15725273  0.02761415  0.50000000  1
  Co  Co25  1  0.65184594  0.22551885  0.50000000  1
  Co  Co26  1  0.84935425  0.58419181  0.00000000  1
  Co  Co27  1  0.57367290  0.34815406  0.50000000  1
  Co  Co28  1  0.95309138  0.72824021  0.50000000  1
  Co  Co29  1  0.11218198  0.13619403  0.00000000  1
  Co  Co30  1  0.53774467  0.07368728  0.00000000  1
  Co  Co31  1  0.73483756  0.15064575  0.00000000  1
  Co  Co32  1  0.86380597  0.97598794  0.00000000  1
  Co  Co33  1  0.46204514  0.92580886  0.50000000  1
  Co  Co34  1  0.92631272  0.46405739  0.00000000  1
  Co  Co35  1  0.41580819  0.26516244  0.00000000  1
  P  P36  1  0.56662236  0.62946730  0.00000000  1
  P  P37  1  0.45102444  0.76844758  0.50000000  1
  P  P38  1  0.43226289  0.37040476  0.50000000  1
  P  P39  1  0.23155242  0.68257686  0.50000000  1
  P  P40  1  0.13691762  0.25653558  0.50000000  1
  P  P41  1  0.54867474  0.23152262  0.00000000  1
  P  P42  1  0.86443728  0.74439332  0.00000000  1
  P  P43  1  0.11961797  0.86308238  0.50000000  1
  P  P44  1  0.31742314  0.54897556  0.50000000  1
  P  P45  1  0.62959524  0.06185813  0.50000000  1
  P  P46  1  0.93814187  0.56773711  0.50000000  1
  P  P47  1  0.37053270  0.93715506  0.00000000  1
  P  P48  1  0.25560668  0.12004396  0.00000000  1
  P  P49  1  0.74346442  0.88038203  0.50000000  1
  P  P50  1  0.68284787  0.45132526  0.00000000  1
  P  P51  1  0.76847738  0.31715213  0.00000000  1
  P  P52  1  0.00000000  0.00000000  0.50000000  1
  P  P53  1  0.87995604  0.13556272  0.00000000  1
  P  P54  1  0.06284494  0.43337764  0.00000000  1
