# generated using pymatgen
data_SrLuCuSe3
_symmetry_space_group_name_H-M   'P 1'
_cell_length_a   4.05943019
_cell_length_b   7.07137206
_cell_length_c   10.44620234
_cell_angle_alpha   90.00000000
_cell_angle_beta   90.00000000
_cell_angle_gamma   106.68039185
_symmetry_Int_Tables_number   1
_chemical_formula_structural   SrLuCuSe3
_chemical_formula_sum   'Sr2 Lu2 Cu2 Se6'
_cell_volume   287.24785502
_cell_formula_units_Z   2
loop_
 _symmetry_equiv_pos_site_id
 _symmetry_equiv_pos_as_xyz
  1  'x, y, z'
loop_
 _atom_site_type_symbol
 _atom_site_label
 _atom_site_symmetry_multiplicity
 _atom_site_fract_x
 _atom_site_fract_y
 _atom_site_fract_z
 _atom_site_occupancy
  Sr  Sr0  1  0.24870549  0.49741098  0.25000000  1
  Sr  Sr1  1  0.75129451  0.50258902  0.75000000  1
  Lu  Lu2  1  0.00000000  0.00000000  0.00000000  1
  Lu  Lu3  1  0.00000000  0.00000000  0.50000000  1
  Cu  Cu4  1  0.47076239  0.94152478  0.75000000  1
  Cu  Cu5  1  0.52923761  0.05847522  0.25000000  1
  Se  Se6  1  0.63779412  0.27558823  0.43846989  1
  Se  Se7  1  0.07741475  0.15482951  0.75000000  1
  Se  Se8  1  0.36220588  0.72441177  0.93846989  1
  Se  Se9  1  0.63779412  0.27558823  0.06153011  1
  Se  Se10  1  0.92258525  0.84517049  0.25000000  1
  Se  Se11  1  0.36220588  0.72441177  0.56153011  1
