# generated using pymatgen
data_Sm3CuSe6
_symmetry_space_group_name_H-M   'P 1'
_cell_length_a   7.23385718
_cell_length_b   7.95462507
_cell_length_c   17.03508087
_cell_angle_alpha   90.00000000
_cell_angle_beta   90.00000000
_cell_angle_gamma   90.58666656
_symmetry_Int_Tables_number   1
_chemical_formula_structural   Sm3CuSe6
_chemical_formula_sum   'Sm12 Cu4 Se24'
_cell_volume   980.19182914
_cell_formula_units_Z   4
loop_
 _symmetry_equiv_pos_site_id
 _symmetry_equiv_pos_as_xyz
  1  'x, y, z'
loop_
 _atom_site_type_symbol
 _atom_site_label
 _atom_site_symmetry_multiplicity
 _atom_site_fract_x
 _atom_site_fract_y
 _atom_site_fract_z
 _atom_site_occupancy
  Sm  Sm0  1  0.23865003  0.44288079  0.75000000  1
  Sm  Sm1  1  0.74443248  0.55901125  0.58739342  1
  Sm  Sm2  1  0.72808643  0.94234809  0.40955556  1
  Sm  Sm3  1  0.72808643  0.94234809  0.09044444  1
  Sm  Sm4  1  0.27191357  0.05765191  0.90955556  1
  Sm  Sm5  1  0.76353405  0.94525780  0.75000000  1
  Sm  Sm6  1  0.25556752  0.44098875  0.41260658  1
  Sm  Sm7  1  0.25556752  0.44098875  0.08739342  1
  Sm  Sm8  1  0.27191357  0.05765191  0.59044444  1
  Sm  Sm9  1  0.76134997  0.55711921  0.25000000  1
  Sm  Sm10  1  0.23646595  0.05474220  0.25000000  1
  Sm  Sm11  1  0.74443248  0.55901125  0.91260658  1
  Cu  Cu12  1  0.10341743  0.79555050  0.47127673  1
  Cu  Cu13  1  0.89658257  0.20444950  0.97127673  1
  Cu  Cu14  1  0.89658257  0.20444950  0.52872327  1
  Cu  Cu15  1  0.10341743  0.79555050  0.02872327  1
  Se  Se16  1  0.89120389  0.91003517  0.58124223  1
  Se  Se17  1  0.10879611  0.08996483  0.08124223  1
  Se  Se18  1  0.11499466  0.39713301  0.25000000  1
  Se  Se19  1  0.56876526  0.25022538  0.17399380  1
  Se  Se20  1  0.10879611  0.08996483  0.41875777  1
  Se  Se21  1  0.57861826  0.25530239  0.82522963  1
  Se  Se22  1  0.42679156  0.74719927  0.99982800  1
  Se  Se23  1  0.43123474  0.74977462  0.67399380  1
  Se  Se24  1  0.43123474  0.74977462  0.82600620  1
  Se  Se25  1  0.12599620  0.09638990  0.75000000  1
  Se  Se26  1  0.88385056  0.59747990  0.41861600  1
  Se  Se27  1  0.57320844  0.25280073  0.49982800  1
  Se  Se28  1  0.11614944  0.40252010  0.91861600  1
  Se  Se29  1  0.42138174  0.74469761  0.17477037  1
  Se  Se30  1  0.88500534  0.60286699  0.75000000  1
  Se  Se31  1  0.42679156  0.74719927  0.50017200  1
  Se  Se32  1  0.57861826  0.25530239  0.67477037  1
  Se  Se33  1  0.11614944  0.40252010  0.58138400  1
  Se  Se34  1  0.56876526  0.25022538  0.32600620  1
  Se  Se35  1  0.42138174  0.74469761  0.32522963  1
  Se  Se36  1  0.57320844  0.25280073  0.00017200  1
  Se  Se37  1  0.88385056  0.59747990  0.08138400  1
  Se  Se38  1  0.87400380  0.90361010  0.25000000  1
  Se  Se39  1  0.89120389  0.91003517  0.91875777  1
