# generated using pymatgen
data_RbMoIO6
_symmetry_space_group_name_H-M   'P 1'
_cell_length_a   7.49920739
_cell_length_b   7.84686336
_cell_length_c   10.46506188
_cell_angle_alpha   90.00000000
_cell_angle_beta   90.00000000
_cell_angle_gamma   90.00000000
_symmetry_Int_Tables_number   1
_chemical_formula_structural   RbMoIO6
_chemical_formula_sum   'Rb4 Mo4 I4 O24'
_cell_volume   615.81924222
_cell_formula_units_Z   4
loop_
 _symmetry_equiv_pos_site_id
 _symmetry_equiv_pos_as_xyz
  1  'x, y, z'
loop_
 _atom_site_type_symbol
 _atom_site_label
 _atom_site_symmetry_multiplicity
 _atom_site_fract_x
 _atom_site_fract_y
 _atom_site_fract_z
 _atom_site_occupancy
  Rb  Rb0  1  0.86298528  0.01847886  0.61844229  1
  Rb  Rb1  1  0.36298528  0.98152114  0.38155771  1
  Rb  Rb2  1  0.86298528  0.51847886  0.88155771  1
  Rb  Rb3  1  0.36298528  0.48152114  0.11844229  1
  Mo  Mo4  1  0.09454528  0.50784795  0.52870582  1
  Mo  Mo5  1  0.59454528  0.49215205  0.47129418  1
  Mo  Mo6  1  0.09454528  0.00784795  0.97129418  1
  Mo  Mo7  1  0.59454528  0.99215205  0.02870582  1
  I  I8  1  0.43088686  0.27855497  0.74091175  1
  I  I9  1  0.93088686  0.22144503  0.24091175  1
  I  I10  1  0.93088686  0.72144503  0.25908825  1
  I  I11  1  0.43088686  0.77855497  0.75908825  1
  O  O12  1  0.04761125  0.27882433  0.38980765  1
  O  O13  1  0.63363917  0.36291938  0.65949019  1
  O  O14  1  0.04761125  0.77882433  0.11019235  1
  O  O15  1  0.53190923  0.13163330  0.15133430  1
  O  O16  1  0.13363917  0.13708062  0.15949019  1
  O  O17  1  0.03190923  0.86836670  0.84866570  1
  O  O18  1  0.13020252  0.70151890  0.60906041  1
  O  O19  1  0.33853853  0.43774642  0.51936537  1
  O  O20  1  0.54761125  0.72117567  0.61019235  1
  O  O21  1  0.63363917  0.86291938  0.84050981  1
  O  O22  1  0.63020252  0.79848110  0.10906041  1
  O  O23  1  0.03190923  0.36836670  0.65133430  1
  O  O24  1  0.53190923  0.63163330  0.34866570  1
  O  O25  1  0.42227189  0.57187385  0.84287506  1
  O  O26  1  0.42227189  0.07187385  0.65712494  1
  O  O27  1  0.83853853  0.56225358  0.48063463  1
  O  O28  1  0.92227189  0.42812615  0.15712494  1
  O  O29  1  0.33853853  0.93774642  0.98063463  1
  O  O30  1  0.54761125  0.22117567  0.88980765  1
  O  O31  1  0.92227189  0.92812615  0.34287506  1
  O  O32  1  0.13363917  0.63708062  0.34050981  1
  O  O33  1  0.13020252  0.20151890  0.89093959  1
  O  O34  1  0.83853853  0.06225358  0.01936537  1
  O  O35  1  0.63020252  0.29848110  0.39093959  1
