# generated using pymatgen
data_Gd3CuGeSe7
_symmetry_space_group_name_H-M   'P 1'
_cell_length_a   10.45366120
_cell_length_b   10.45366164
_cell_length_c   6.10188649
_cell_angle_alpha   90.00000000
_cell_angle_beta   90.00000000
_cell_angle_gamma   119.99999863
_symmetry_Int_Tables_number   1
_chemical_formula_structural   Gd3CuGeSe7
_chemical_formula_sum   'Gd6 Cu2 Ge2 Se14'
_cell_volume   577.47291807
_cell_formula_units_Z   2
loop_
 _symmetry_equiv_pos_site_id
 _symmetry_equiv_pos_as_xyz
  1  'x, y, z'
loop_
 _atom_site_type_symbol
 _atom_site_label
 _atom_site_symmetry_multiplicity
 _atom_site_fract_x
 _atom_site_fract_y
 _atom_site_fract_z
 _atom_site_occupancy
  Gd  Gd0  1  0.22250598  0.86702810  0.74966551  1
  Gd  Gd1  1  0.35547788  0.22250598  0.24966551  1
  Gd  Gd2  1  0.86702810  0.64452212  0.24966551  1
  Gd  Gd3  1  0.64452212  0.77749402  0.74966551  1
  Gd  Gd4  1  0.13297190  0.35547788  0.74966551  1
  Gd  Gd5  1  0.77749402  0.13297190  0.24966551  1
  Cu  Cu6  1  0.00000000  0.00000000  0.71287735  1
  Cu  Cu7  1  0.00000000  0.00000000  0.21287735  1
  Ge  Ge8  1  0.33333300  0.66666700  0.33198285  1
  Ge  Ge9  1  0.66666700  0.33333300  0.83198285  1
  Se  Se10  1  0.25970908  0.16109739  0.72593242  1
  Se  Se11  1  0.51805060  0.09445334  0.99612696  1
  Se  Se12  1  0.66666700  0.33333300  0.44526512  1
  Se  Se13  1  0.90554666  0.42359726  0.99612696  1
  Se  Se14  1  0.42359726  0.51805060  0.49612696  1
  Se  Se15  1  0.09861168  0.25970908  0.22593242  1
  Se  Se16  1  0.33333300  0.66666700  0.94526512  1
  Se  Se17  1  0.90138832  0.74029092  0.72593242  1
  Se  Se18  1  0.74029092  0.83890261  0.22593242  1
  Se  Se19  1  0.48194940  0.90554666  0.49612696  1
  Se  Se20  1  0.09445334  0.57640274  0.49612696  1
  Se  Se21  1  0.57640274  0.48194940  0.99612696  1
  Se  Se22  1  0.16109739  0.90138832  0.22593242  1
  Se  Se23  1  0.83890261  0.09861168  0.72593242  1
