# generated using pymatgen
data_LaMgSi2
_symmetry_space_group_name_H-M   'P 1'
_cell_length_a   4.32113766
_cell_length_b   4.32113724
_cell_length_c   18.76802524
_cell_angle_alpha   96.61052753
_cell_angle_beta   96.61052687
_cell_angle_gamma   90.00000125
_symmetry_Int_Tables_number   1
_chemical_formula_structural   LaMgSi2
_chemical_formula_sum   'La4 Mg4 Si8'
_cell_volume   345.76544296
_cell_formula_units_Z   4
loop_
 _symmetry_equiv_pos_site_id
 _symmetry_equiv_pos_as_xyz
  1  'x, y, z'
loop_
 _atom_site_type_symbol
 _atom_site_label
 _atom_site_symmetry_multiplicity
 _atom_site_fract_x
 _atom_site_fract_y
 _atom_site_fract_z
 _atom_site_occupancy
  La  La0  1  0.54803360  0.79803360  0.59606719  1
  La  La1  1  0.29803360  0.04803360  0.09606719  1
  La  La2  1  0.70196640  0.95196640  0.90393281  1
  La  La3  1  0.45196640  0.20196640  0.40393281  1
  Mg  Mg4  1  0.37492714  0.62492714  0.24985428  1
  Mg  Mg5  1  0.87507286  0.12507286  0.25014572  1
  Mg  Mg6  1  0.12492714  0.87492714  0.74985428  1
  Mg  Mg7  1  0.62507286  0.37507286  0.75014572  1
  Si  Si8  1  0.01419846  0.26419846  0.52839693  1
  Si  Si9  1  0.23580154  0.48580154  0.97160307  1
  Si  Si10  1  0.17273769  0.42273769  0.84547537  1
  Si  Si11  1  0.07726231  0.32726231  0.65452463  1
  Si  Si12  1  0.98580154  0.73580154  0.47160307  1
  Si  Si13  1  0.76419846  0.51419846  0.02839693  1
  Si  Si14  1  0.82726231  0.57726231  0.15452463  1
  Si  Si15  1  0.92273769  0.67273769  0.34547537  1
