# generated using pymatgen
data_RbLaSi(CN2)4
_symmetry_space_group_name_H-M   'P 1'
_cell_length_a   6.94835349
_cell_length_b   7.01732003
_cell_length_c   7.01683992
_cell_angle_alpha   75.80967693
_cell_angle_beta   60.32215551
_cell_angle_gamma   60.32381817
_symmetry_Int_Tables_number   1
_chemical_formula_structural   RbLaSi(CN2)4
_chemical_formula_sum   'Rb1 La1 Si1 C4 N8'
_cell_volume   258.26442841
_cell_formula_units_Z   1
loop_
 _symmetry_equiv_pos_site_id
 _symmetry_equiv_pos_as_xyz
  1  'x, y, z'
loop_
 _atom_site_type_symbol
 _atom_site_label
 _atom_site_symmetry_multiplicity
 _atom_site_fract_x
 _atom_site_fract_y
 _atom_site_fract_z
 _atom_site_occupancy
  Rb  Rb0  1  1.00000092  0.00000606  -0.00000822  1
  La  La1  1  0.74979411  0.49998641  0.50003398  1
  Si  Si2  1  0.24998404  0.49999896  0.50000752  1
  C  C3  1  0.55886692  0.08711123  0.53026888  1
  C  C4  1  0.91088557  0.53026157  0.91295446  1
  C  C5  1  0.35415232  0.46972472  0.08698334  1
  C  C6  1  0.17623061  0.91290508  0.46972849  1
  N  N7  1  0.50451966  0.42605165  0.90027707  1
  N  N8  1  0.99270207  0.47943787  0.71593024  1
  N  N9  1  0.29148034  0.71587510  0.52055792  1
  N  N10  1  0.52791814  0.28413197  0.47944685  1
  N  N11  1  0.06940677  0.09970397  0.42603941  1
  N  N12  1  0.59515242  0.90029090  0.57395931  1
  N  N13  1  0.18806538  0.52056119  0.28407699  1
  N  N14  1  0.83084073  0.57395334  0.09974375  1
