# generated using pymatgen
data_Er3CoSi3
_symmetry_space_group_name_H-M   'P 1'
_cell_length_a   4.13872840
_cell_length_b   5.58480777
_cell_length_c   12.64573639
_cell_angle_alpha   84.86850397
_cell_angle_beta   80.58169499
_cell_angle_gamma   68.25140806
_symmetry_Int_Tables_number   1
_chemical_formula_structural   Er3CoSi3
_chemical_formula_sum   'Er6 Co2 Si6'
_cell_volume   267.69566980
_cell_formula_units_Z   2
loop_
 _symmetry_equiv_pos_site_id
 _symmetry_equiv_pos_as_xyz
  1  'x, y, z'
loop_
 _atom_site_type_symbol
 _atom_site_label
 _atom_site_symmetry_multiplicity
 _atom_site_fract_x
 _atom_site_fract_y
 _atom_site_fract_z
 _atom_site_occupancy
  Er  Er0  1  0.74663960  0.73506193  0.77165888  1
  Er  Er1  1  0.39892134  0.28248762  0.91966971  1
  Er  Er2  1  0.60107866  0.71751238  0.08033029  1
  Er  Er3  1  0.47471475  0.67129412  0.37927639  1
  Er  Er4  1  0.25336040  0.26493807  0.22834112  1
  Er  Er5  1  0.52528525  0.32870588  0.62072361  1
  Co  Co6  1  0.75297089  0.07710236  0.41695587  1
  Co  Co7  1  0.24702911  0.92289764  0.58304413  1
  Si  Si8  1  0.05171589  0.13742451  0.75914370  1
  Si  Si9  1  0.13904009  0.26587259  0.45604723  1
  Si  Si10  1  0.86095991  0.73412741  0.54395277  1
  Si  Si11  1  0.94828411  0.86257549  0.24085630  1
  Si  Si12  1  0.88463054  0.15470655  0.07603238  1
  Si  Si13  1  0.11536946  0.84529345  0.92396762  1
