# generated using pymatgen
data_Pr8(BCl)7
_symmetry_space_group_name_H-M   'P 1'
_cell_length_a   7.79377815
_cell_length_b   9.22709193
_cell_length_c   14.39302381
_cell_angle_alpha   81.83705106
_cell_angle_beta   82.18603101
_cell_angle_gamma   65.00971271
_symmetry_Int_Tables_number   1
_chemical_formula_structural   Pr8(BCl)7
_chemical_formula_sum   'Pr16 B14 Cl14'
_cell_volume   925.31535006
_cell_formula_units_Z   2
loop_
 _symmetry_equiv_pos_site_id
 _symmetry_equiv_pos_as_xyz
  1  'x, y, z'
loop_
 _atom_site_type_symbol
 _atom_site_label
 _atom_site_symmetry_multiplicity
 _atom_site_fract_x
 _atom_site_fract_y
 _atom_site_fract_z
 _atom_site_occupancy
  Pr  Pr0  1  0.88223746  0.16115155  0.19954204  1
  Pr  Pr1  1  0.35654916  0.16110099  0.19954707  1
  Pr  Pr2  1  0.49579670  0.71629065  0.58442259  1
  Pr  Pr3  1  0.00782090  0.27152498  0.42404201  1
  Pr  Pr4  1  0.34060906  0.42035755  0.74602918  1
  Pr  Pr5  1  0.11808506  0.28086474  0.96587603  1
  Pr  Pr6  1  0.64345084  0.83889901  0.80045293  1
  Pr  Pr7  1  0.99217910  0.72847502  0.57595799  1
  Pr  Pr8  1  0.65939094  0.57964245  0.25397082  1
  Pr  Pr9  1  0.60998077  0.29640488  0.96796156  1
  Pr  Pr10  1  0.13274817  0.57962799  0.25357395  1
  Pr  Pr11  1  0.11776254  0.83884845  0.80045796  1
  Pr  Pr12  1  0.39001923  0.70359512  0.03203844  1
  Pr  Pr13  1  0.86725183  0.42037201  0.74642605  1
  Pr  Pr14  1  0.88191494  0.71913526  0.03412397  1
  Pr  Pr15  1  0.50420330  0.28370935  0.41557741  1
  B  B16  1  0.20747811  0.53842647  0.93293693  1
  B  B17  1  0.78741229  0.53863576  0.93299866  1
  B  B18  1  0.59772239  0.57740596  0.87450169  1
  B  B19  1  0.40227761  0.42259404  0.12549831  1
  B  B20  1  0.50729360  0.36946676  0.23127583  1
  B  B21  1  0.99105980  0.64435409  0.74853644  1
  B  B22  1  0.79252189  0.46157353  0.06706307  1
  B  B23  1  0.49270640  0.63053324  0.76872417  1
  B  B24  1  0.00894020  0.35564591  0.25146356  1
  B  B25  1  0.00603969  0.42169751  0.13211956  1
  B  B26  1  0.99396031  0.57830249  0.86788044  1
  B  B27  1  0.38758753  0.57747307  0.87451438  1
  B  B28  1  0.21258771  0.46136424  0.06700134  1
  B  B29  1  0.61241247  0.42252693  0.12548562  1
  Cl  Cl30  1  0.75707458  0.88016530  0.21118243  1
  Cl  Cl31  1  0.26468961  0.86578760  0.20811187  1
  Cl  Cl32  1  0.24292542  0.11983470  0.78881757  1
  Cl  Cl33  1  0.88128115  0.03017563  0.39679613  1
  Cl  Cl34  1  0.67074215  0.36225286  0.57014281  1
  Cl  Cl35  1  0.73531039  0.13421240  0.79188813  1
  Cl  Cl36  1  0.32925785  0.63774714  0.42985719  1
  Cl  Cl37  1  0.00000000  0.00000000  0.00000000  1
  Cl  Cl38  1  0.11871885  0.96982437  0.60320387  1
  Cl  Cl39  1  0.17828200  0.36855668  0.56770039  1
  Cl  Cl40  1  0.82171800  0.63144332  0.43229961  1
  Cl  Cl41  1  0.61066039  0.96830860  0.60366318  1
  Cl  Cl42  1  0.50000000  0.00000000  0.00000000  1
  Cl  Cl43  1  0.38933961  0.03169140  0.39633682  1
