# generated using pymatgen
data_Sr3Li3(NiN)4
_symmetry_space_group_name_H-M   'P 1'
_cell_length_a   4.05305805
_cell_length_b   7.05965199
_cell_length_c   9.33380362
_cell_angle_alpha   112.16267504
_cell_angle_beta   102.55835330
_cell_angle_gamma   90.00256371
_symmetry_Int_Tables_number   1
_chemical_formula_structural   Sr3Li3(NiN)4
_chemical_formula_sum   'Sr3 Li3 Ni4 N4'
_cell_volume   240.42320018
_cell_formula_units_Z   1
loop_
 _symmetry_equiv_pos_site_id
 _symmetry_equiv_pos_as_xyz
  1  'x, y, z'
loop_
 _atom_site_type_symbol
 _atom_site_label
 _atom_site_symmetry_multiplicity
 _atom_site_fract_x
 _atom_site_fract_y
 _atom_site_fract_z
 _atom_site_occupancy
  Sr  Sr0  1  0.78184519  0.78184986  0.56366605  1
  Sr  Sr1  1  0.21815481  0.21815014  0.43633395  1
  Sr  Sr2  1  0.00000000  0.00000000  0.00000000  1
  Li  Li3  1  0.11586918  0.61588789  0.23169287  1
  Li  Li4  1  0.88413082  0.38411211  0.76830713  1
  Li  Li5  1  0.50000000  0.50000000  0.00000000  1
  Ni  Ni6  1  0.38036829  0.63023891  0.76052086  1
  Ni  Ni7  1  0.38035661  0.13019546  0.76064272  1
  Ni  Ni8  1  0.61963171  0.36976109  0.23947914  1
  Ni  Ni9  1  0.61964339  0.86980454  0.23935728  1
  N  N10  1  0.38364988  0.88355405  0.76717143  1
  N  N11  1  0.61635012  0.11644595  0.23282857  1
  N  N12  1  0.37947840  0.37936032  0.75892404  1
  N  N13  1  0.62052160  0.62063968  0.24107596  1
