# generated using pymatgen
data_KTaTe3
_symmetry_space_group_name_H-M   'P 1'
_cell_length_a   7.98636523
_cell_length_b   14.26880863
_cell_length_c   31.32861632
_cell_angle_alpha   90.00000000
_cell_angle_beta   90.07541675
_cell_angle_gamma   90.00000000
_symmetry_Int_Tables_number   1
_chemical_formula_structural   KTaTe3
_chemical_formula_sum   'K20 Ta20 Te60'
_cell_volume   3570.07811288
_cell_formula_units_Z   20
loop_
 _symmetry_equiv_pos_site_id
 _symmetry_equiv_pos_as_xyz
  1  'x, y, z'
loop_
 _atom_site_type_symbol
 _atom_site_label
 _atom_site_symmetry_multiplicity
 _atom_site_fract_x
 _atom_site_fract_y
 _atom_site_fract_z
 _atom_site_occupancy
  K  K0  1  0.71858520  0.05180600  0.54955918  1
  K  K1  1  0.28141480  0.94819400  0.45044082  1
  K  K2  1  0.71858520  0.44819400  0.04955918  1
  K  K3  1  0.76337249  0.08968839  0.14120219  1
  K  K4  1  0.77574468  0.03468412  0.35150548  1
  K  K5  1  0.78830123  0.10765969  0.75027727  1
  K  K6  1  0.28141480  0.55180600  0.95044082  1
  K  K7  1  0.21169877  0.60765969  0.74972273  1
  K  K8  1  0.77298916  0.11939361  0.94925676  1
  K  K9  1  0.22701084  0.88060639  0.05074324  1
  K  K10  1  0.23662751  0.58968839  0.35879781  1
  K  K11  1  0.77574468  0.46531588  0.85150548  1
  K  K12  1  0.22425532  0.96531588  0.64849452  1
  K  K13  1  0.23662751  0.91031161  0.85879781  1
  K  K14  1  0.22701084  0.61939361  0.55074324  1
  K  K15  1  0.77298916  0.38060639  0.44925676  1
  K  K16  1  0.21169877  0.89234031  0.24972273  1
  K  K17  1  0.76337249  0.41031161  0.64120219  1
  K  K18  1  0.22425532  0.53468412  0.14849452  1
  K  K19  1  0.78830123  0.39234031  0.25027727  1
  Ta  Ta20  1  0.22472143  0.18288390  0.19512943  1
  Ta  Ta21  1  0.68637812  0.74317994  0.10367080  1
  Ta  Ta22  1  0.23363789  0.24209662  0.09125136  1
  Ta  Ta23  1  0.68637812  0.75682006  0.60367080  1
  Ta  Ta24  1  0.31362188  0.24317994  0.39632920  1
  Ta  Ta25  1  0.34956355  0.21371541  0.29821362  1
  Ta  Ta26  1  0.34956355  0.28628459  0.79821362  1
  Ta  Ta27  1  0.77527857  0.68288390  0.30487057  1
  Ta  Ta28  1  0.28017221  0.25330245  0.49185018  1
  Ta  Ta29  1  0.76636211  0.75790338  0.90874864  1
  Ta  Ta30  1  0.71982779  0.75330245  0.00814982  1
  Ta  Ta31  1  0.31362188  0.25682006  0.89632920  1
  Ta  Ta32  1  0.23363789  0.25790338  0.59125136  1
  Ta  Ta33  1  0.65043645  0.78628459  0.70178638  1
  Ta  Ta34  1  0.65043645  0.71371541  0.20178638  1
  Ta  Ta35  1  0.77527857  0.81711610  0.80487057  1
  Ta  Ta36  1  0.76636211  0.74209662  0.40874864  1
  Ta  Ta37  1  0.71982779  0.74669755  0.50814982  1
  Ta  Ta38  1  0.22472143  0.31711610  0.69512943  1
  Ta  Ta39  1  0.28017221  0.24669755  0.99185018  1
  Te  Te40  1  0.45793882  0.78382572  0.94608111  1
  Te  Te41  1  0.52281136  0.37840598  0.73627020  1
  Te  Te42  1  0.67930065  0.91108432  0.05936248  1
  Te  Te43  1  0.47448926  0.30927466  0.15309229  1
  Te  Te44  1  0.73647390  0.56926143  0.14991736  1
  Te  Te45  1  -0.00209682  0.80202815  0.34837185  1
  Te  Te46  1  0.32085652  0.13812755  0.73634947  1
  Te  Te47  1  0.45793882  0.71617428  0.44608111  1
  Te  Te48  1  0.13412321  0.15442369  0.83265434  1
  Te  Te49  1  0.38502185  0.73164193  0.65478963  1
  Te  Te50  1  0.01652361  0.36520002  0.75597706  1
  Te  Te51  1  0.03845656  0.17403937  0.43911877  1
  Te  Te52  1  0.32069935  0.08891568  0.94063752  1
  Te  Te53  1  0.93271663  0.87813944  0.96240988  1
  Te  Te54  1  0.16138441  0.39719790  0.04497170  1
  Te  Te55  1  0.54206118  0.28382572  0.55391889  1
  Te  Te56  1  0.83861559  0.60280210  0.95502830  1
  Te  Te57  1  0.86587679  0.84557631  0.16734566  1
  Te  Te58  1  1.00209682  0.19797185  0.65162815  1
  Te  Te59  1  0.61497815  0.23164193  0.84521037  1
  Te  Te60  1  0.98347639  0.86520002  0.74402294  1
  Te  Te61  1  0.47718864  0.62159402  0.26372980  1
  Te  Te62  1  0.61497815  0.26835807  0.34521037  1
  Te  Te63  1  0.73647390  0.93073857  0.64991736  1
  Te  Te64  1  0.32085652  0.36187245  0.23634947  1
  Te  Te65  1  0.96154344  0.82596063  0.56088123  1
  Te  Te66  1  0.96154344  0.67403937  0.06088123  1
  Te  Te67  1  0.06728337  0.12186056  0.03759012  1
  Te  Te68  1  0.67930065  0.58891568  0.55936248  1
  Te  Te69  1  0.52281136  0.12159402  0.23627020  1
  Te  Te70  1  0.83861559  0.89719790  0.45502830  1
  Te  Te71  1  0.24911832  0.44712276  0.63571536  1
  Te  Te72  1  -0.00209682  0.69797185  0.84837185  1
  Te  Te73  1  0.75088168  0.94712276  0.86428464  1
  Te  Te74  1  0.47718864  0.87840598  0.76372980  1
  Te  Te75  1  0.67914348  0.86187245  0.26365053  1
  Te  Te76  1  0.86587679  0.65442369  0.66734566  1
  Te  Te77  1  0.26352610  0.06926143  0.35008264  1
  Te  Te78  1  0.01652361  0.13479998  0.25597706  1
  Te  Te79  1  1.00209682  0.30202815  0.15162815  1
  Te  Te80  1  0.06728337  0.37813944  0.53759012  1
  Te  Te81  1  0.52551074  0.69072534  0.84690771  1
  Te  Te82  1  0.38502185  0.76835807  0.15478963  1
  Te  Te83  1  0.93271663  0.62186056  0.46240988  1
  Te  Te84  1  0.45860093  0.65738876  0.04798824  1
  Te  Te85  1  0.67914348  0.63812755  0.76365053  1
  Te  Te86  1  0.98347639  0.63479998  0.24402294  1
  Te  Te87  1  0.03845656  0.32596063  0.93911877  1
  Te  Te88  1  0.75088168  0.55287724  0.36428464  1
  Te  Te89  1  0.54139907  0.15738876  0.45201176  1
  Te  Te90  1  0.45860093  0.84261124  0.54798824  1
  Te  Te91  1  0.32069935  0.41108432  0.44063752  1
  Te  Te92  1  0.54139907  0.34261124  0.95201176  1
  Te  Te93  1  0.54206118  0.21617428  0.05391889  1
  Te  Te94  1  0.47448926  0.19072534  0.65309229  1
  Te  Te95  1  0.24911832  0.05287724  0.13571536  1
  Te  Te96  1  0.16138441  0.10280210  0.54497170  1
  Te  Te97  1  0.26352610  0.43073857  0.85008264  1
  Te  Te98  1  0.52551074  0.80927466  0.34690771  1
  Te  Te99  1  0.13412321  0.34557631  0.33265434  1
