# generated using pymatgen
data_Rb2Hg2PdCl8
_symmetry_space_group_name_H-M   'P 1'
_cell_length_a   6.85821829
_cell_length_b   6.85821828
_cell_length_c   10.28368501
_cell_angle_alpha   73.76418096
_cell_angle_beta   73.76418097
_cell_angle_gamma   61.88704479
_symmetry_Int_Tables_number   1
_chemical_formula_structural   Rb2Hg2PdCl8
_chemical_formula_sum   'Rb2 Hg2 Pd1 Cl8'
_cell_volume   403.32359375
_cell_formula_units_Z   1
loop_
 _symmetry_equiv_pos_site_id
 _symmetry_equiv_pos_as_xyz
  1  'x, y, z'
loop_
 _atom_site_type_symbol
 _atom_site_label
 _atom_site_symmetry_multiplicity
 _atom_site_fract_x
 _atom_site_fract_y
 _atom_site_fract_z
 _atom_site_occupancy
  Rb  Rb0  1  0.39097526  0.39097526  0.83691904  1
  Rb  Rb1  1  0.60902474  0.60902474  0.16308096  1
  Hg  Hg2  1  0.86758580  0.86758580  0.39451702  1
  Hg  Hg3  1  0.13241420  0.13241420  0.60548298  1
  Pd  Pd4  1  0.00000000  0.00000000  0.00000000  1
  Cl  Cl5  1  0.07918138  0.07918138  0.31221859  1
  Cl  Cl6  1  0.10590823  0.64085692  0.13276600  1
  Cl  Cl7  1  0.65731391  0.65731391  0.49586138  1
  Cl  Cl8  1  0.35914308  0.89409177  0.86723400  1
  Cl  Cl9  1  0.34268609  0.34268609  0.50413862  1
  Cl  Cl10  1  0.64085692  0.10590823  0.13276600  1
  Cl  Cl11  1  0.89409177  0.35914308  0.86723400  1
  Cl  Cl12  1  0.92081862  0.92081862  0.68778141  1
