# generated using pymatgen
data_TmAu3
_symmetry_space_group_name_H-M   'P 1'
_cell_length_a   5.13571992
_cell_length_b   5.01900689
_cell_length_c   6.13586032
_cell_angle_alpha   90.00000000
_cell_angle_beta   90.00000000
_cell_angle_gamma   90.00000000
_symmetry_Int_Tables_number   1
_chemical_formula_structural   TmAu3
_chemical_formula_sum   'Tm2 Au6'
_cell_volume   158.15924662
_cell_formula_units_Z   2
loop_
 _symmetry_equiv_pos_site_id
 _symmetry_equiv_pos_as_xyz
  1  'x, y, z'
loop_
 _atom_site_type_symbol
 _atom_site_label
 _atom_site_symmetry_multiplicity
 _atom_site_fract_x
 _atom_site_fract_y
 _atom_site_fract_z
 _atom_site_occupancy
  Tm  Tm0  1  0.34566520  0.75000000  0.75000000  1
  Tm  Tm1  1  0.65433480  0.25000000  0.25000000  1
  Au  Au2  1  0.65742246  0.25000000  0.75000000  1
  Au  Au3  1  0.15693436  0.25000000  0.50470026  1
  Au  Au4  1  0.15693436  0.25000000  0.99529974  1
  Au  Au5  1  0.84306564  0.75000000  0.00470026  1
  Au  Au6  1  0.34257754  0.75000000  0.25000000  1
  Au  Au7  1  0.84306564  0.75000000  0.49529974  1
