# generated using pymatgen
data_Nd4Ga17Ni2
_symmetry_space_group_name_H-M   'P 1'
_cell_length_a   4.35534705
_cell_length_b   4.29388440
_cell_length_c   24.07949637
_cell_angle_alpha   84.88468147
_cell_angle_beta   84.81126141
_cell_angle_gamma   90.00000000
_symmetry_Int_Tables_number   1
_chemical_formula_structural   Nd4Ga17Ni2
_chemical_formula_sum   'Nd4 Ga17 Ni2'
_cell_volume   446.67301826
_cell_formula_units_Z   1
loop_
 _symmetry_equiv_pos_site_id
 _symmetry_equiv_pos_as_xyz
  1  'x, y, z'
loop_
 _atom_site_type_symbol
 _atom_site_label
 _atom_site_symmetry_multiplicity
 _atom_site_fract_x
 _atom_site_fract_y
 _atom_site_fract_z
 _atom_site_occupancy
  Nd  Nd0  1  0.30573490  0.30573490  0.38853021  1
  Nd  Nd1  1  0.69422722  0.69422722  0.61154557  1
  Nd  Nd2  1  0.07785643  0.07785643  0.84428714  1
  Nd  Nd3  1  0.92138155  0.92138155  0.15723690  1
  Ga  Ga4  1  0.39081549  0.39081549  0.21836901  1
  Ga  Ga5  1  0.60759001  0.60759001  0.78481997  1
  Ga  Ga6  1  0.44183029  0.44183029  0.11633941  1
  Ga  Ga7  1  0.55462283  0.55462283  0.89075433  1
  Ga  Ga8  1  0.16940361  0.16940361  0.66119278  1
  Ga  Ga9  1  0.83053403  0.83053403  0.33893193  1
  Ga  Ga10  1  0.63886918  0.13886918  0.72226163  1
  Ga  Ga11  1  0.13859271  0.63859271  0.72281458  1
  Ga  Ga12  1  0.36061807  0.86061807  0.27876386  1
  Ga  Ga13  1  0.86119298  0.36119298  0.27761405  1
  Ga  Ga14  1  0.22068694  0.22068694  0.55862612  1
  Ga  Ga15  1  0.77939741  0.77939741  0.44120518  1
  Ga  Ga16  1  0.74984864  0.24984864  0.50030271  1
  Ga  Ga17  1  0.25032984  0.75032984  0.49934032  1
  Ga  Ga18  1  0.02624441  0.52624441  0.94751117  1
  Ga  Ga19  1  0.47816557  0.97816557  0.04366885  1
  Ga  Ga20  1  0.97274417  0.47274417  0.05451165  1
  Ni  Ni21  1  0.99859101  0.99859101  0.00281799  1
  Ni  Ni22  1  0.53072270  0.03072270  0.93855460  1
