# generated using pymatgen
data_K3Na2SnBi3
_symmetry_space_group_name_H-M   'P 1'
_cell_length_a   7.26793296
_cell_length_b   14.38106084
_cell_length_c   14.38106044
_cell_angle_alpha   73.86614983
_cell_angle_beta   75.36318266
_cell_angle_gamma   75.36318368
_symmetry_Int_Tables_number   1
_chemical_formula_structural   K3Na2SnBi3
_chemical_formula_sum   'K12 Na8 Sn4 Bi12'
_cell_volume   1369.86897641
_cell_formula_units_Z   4
loop_
 _symmetry_equiv_pos_site_id
 _symmetry_equiv_pos_as_xyz
  1  'x, y, z'
loop_
 _atom_site_type_symbol
 _atom_site_label
 _atom_site_symmetry_multiplicity
 _atom_site_fract_x
 _atom_site_fract_y
 _atom_site_fract_z
 _atom_site_occupancy
  K  K0  1  0.11336568  0.08776915  0.24208003  1
  K  K1  1  0.25000000  0.57611956  0.42388044  1
  K  K2  1  0.94321486  0.41223085  0.25791997  1
  K  K3  1  0.88663432  0.91223085  0.75791997  1
  K  K4  1  0.44321486  0.25791997  0.41223085  1
  K  K5  1  0.55678514  0.74208003  0.58776915  1
  K  K6  1  0.05678514  0.58776915  0.74208003  1
  K  K7  1  0.75000000  0.92388044  0.07611956  1
  K  K8  1  0.61336568  0.24208003  0.08776915  1
  K  K9  1  0.38663432  0.75791997  0.91223085  1
  K  K10  1  0.75000000  0.42388044  0.57611956  1
  K  K11  1  0.25000000  0.07611956  0.92388044  1
  Na  Na12  1  0.24715331  0.50284669  0.00284669  1
  Na  Na13  1  0.58798810  0.16201190  0.66201190  1
  Na  Na14  1  0.75284669  0.49715331  0.99715331  1
  Na  Na15  1  0.25284669  0.99715331  0.49715331  1
  Na  Na16  1  0.74715331  0.00284669  0.50284669  1
  Na  Na17  1  0.08798810  0.66201190  0.16201190  1
  Na  Na18  1  0.41201190  0.83798810  0.33798810  1
  Na  Na19  1  0.91201190  0.33798810  0.83798810  1
  Sn  Sn20  1  0.08238334  0.16761666  0.66761666  1
  Sn  Sn21  1  0.58238334  0.66761666  0.16761666  1
  Sn  Sn22  1  0.41761666  0.33238334  0.83238334  1
  Sn  Sn23  1  0.91761666  0.83238334  0.33238334  1
  Bi  Bi24  1  0.25000000  0.85167743  0.14832257  1
  Bi  Bi25  1  0.37248549  0.97813317  0.70201495  1
  Bi  Bi26  1  0.44736640  0.47813317  0.20201495  1
  Bi  Bi27  1  0.62751451  0.02186683  0.29798505  1
  Bi  Bi28  1  0.05263360  0.79798505  0.52186683  1
  Bi  Bi29  1  0.94736640  0.20201495  0.47813317  1
  Bi  Bi30  1  0.55263360  0.52186683  0.79798505  1
  Bi  Bi31  1  0.75000000  0.14832257  0.85167743  1
  Bi  Bi32  1  0.12751451  0.29798505  0.02186683  1
  Bi  Bi33  1  0.75000000  0.64832257  0.35167743  1
  Bi  Bi34  1  0.87248549  0.70201495  0.97813317  1
  Bi  Bi35  1  0.25000000  0.35167743  0.64832257  1
