# generated using pymatgen
data_K4La6OsI14
_symmetry_space_group_name_H-M   'P 1'
_cell_length_a   10.13146779
_cell_length_b   10.13146779
_cell_length_c   22.41990761
_cell_angle_alpha   90.00000000
_cell_angle_beta   90.00000000
_cell_angle_gamma   90.00000000
_symmetry_Int_Tables_number   1
_chemical_formula_structural   K4La6OsI14
_chemical_formula_sum   'K8 La12 Os2 I28'
_cell_volume   2301.32817586
_cell_formula_units_Z   2
loop_
 _symmetry_equiv_pos_site_id
 _symmetry_equiv_pos_as_xyz
  1  'x, y, z'
loop_
 _atom_site_type_symbol
 _atom_site_label
 _atom_site_symmetry_multiplicity
 _atom_site_fract_x
 _atom_site_fract_y
 _atom_site_fract_z
 _atom_site_occupancy
  K  K0  1  0.66789523  0.16789523  0.25000000  1
  K  K1  1  0.33210477  0.83210477  0.75000000  1
  K  K2  1  0.33210477  0.83210477  0.25000000  1
  K  K3  1  0.83210477  0.66789523  0.75000000  1
  K  K4  1  0.16789523  0.33210477  0.75000000  1
  K  K5  1  0.16789523  0.33210477  0.25000000  1
  K  K6  1  0.83210477  0.66789523  0.25000000  1
  K  K7  1  0.66789523  0.16789523  0.75000000  1
  La  La8  1  0.50000000  0.50000000  0.12859063  1
  La  La9  1  0.40917699  0.23156162  0.00000000  1
  La  La10  1  0.00000000  0.00000000  0.62859063  1
  La  La11  1  0.09082301  0.73156162  0.50000000  1
  La  La12  1  0.90917699  0.26843838  0.50000000  1
  La  La13  1  0.73156162  0.90917699  0.50000000  1
  La  La14  1  0.23156162  0.59082301  0.00000000  1
  La  La15  1  0.26843838  0.09082301  0.50000000  1
  La  La16  1  0.59082301  0.76843838  0.00000000  1
  La  La17  1  0.50000000  0.50000000  0.87140937  1
  La  La18  1  0.76843838  0.40917699  0.00000000  1
  La  La19  1  0.00000000  0.00000000  0.37140937  1
  Os  Os20  1  0.00000000  0.00000000  0.50000000  1
  Os  Os21  1  0.50000000  0.50000000  0.00000000  1
  I  I22  1  0.50000000  0.50000000  0.27723970  1
  I  I23  1  0.69321197  0.89731553  0.35369834  1
  I  I24  1  0.60268447  0.80678803  0.14630166  1
  I  I25  1  0.39731553  0.19321197  0.14630166  1
  I  I26  1  0.30678803  0.10268447  0.64630166  1
  I  I27  1  0.80024919  0.59336602  0.50000000  1
  I  I28  1  0.19321197  0.60268447  0.85369834  1
  I  I29  1  0.39731553  0.19321197  0.85369834  1
  I  I30  1  0.00000000  0.00000000  0.22276030  1
  I  I31  1  0.10268447  0.69321197  0.35369834  1
  I  I32  1  0.09336602  0.30024919  0.00000000  1
  I  I33  1  0.90663398  0.69975081  0.00000000  1
  I  I34  1  0.89731553  0.30678803  0.35369834  1
  I  I35  1  0.69321197  0.89731553  0.64630166  1
  I  I36  1  0.80678803  0.39731553  0.85369834  1
  I  I37  1  0.30024919  0.90663398  0.00000000  1
  I  I38  1  0.59336602  0.19975081  0.50000000  1
  I  I39  1  0.69975081  0.09336602  0.00000000  1
  I  I40  1  0.19975081  0.40663398  0.50000000  1
  I  I41  1  0.19321197  0.60268447  0.14630166  1
  I  I42  1  0.00000000  0.00000000  0.77723970  1
  I  I43  1  0.89731553  0.30678803  0.64630166  1
  I  I44  1  0.30678803  0.10268447  0.35369834  1
  I  I45  1  0.10268447  0.69321197  0.64630166  1
  I  I46  1  0.40663398  0.80024919  0.50000000  1
  I  I47  1  0.80678803  0.39731553  0.14630166  1
  I  I48  1  0.60268447  0.80678803  0.85369834  1
  I  I49  1  0.50000000  0.50000000  0.72276030  1
