# generated using pymatgen
data_Lu2Si5Ir3
_symmetry_space_group_name_H-M   'P 1'
_cell_length_a   5.76818918
_cell_length_b   8.10632743
_cell_length_c   8.10632711
_cell_angle_alpha   76.45295515
_cell_angle_beta   69.15854979
_cell_angle_gamma   69.15855074
_symmetry_Int_Tables_number   1
_chemical_formula_structural   Lu2Si5Ir3
_chemical_formula_sum   'Lu4 Si10 Ir6'
_cell_volume   328.53780414
_cell_formula_units_Z   2
loop_
 _symmetry_equiv_pos_site_id
 _symmetry_equiv_pos_as_xyz
  1  'x, y, z'
loop_
 _atom_site_type_symbol
 _atom_site_label
 _atom_site_symmetry_multiplicity
 _atom_site_fract_x
 _atom_site_fract_y
 _atom_site_fract_z
 _atom_site_occupancy
  Lu  Lu0  1  0.63112990  0.09687788  0.64086231  1
  Lu  Lu1  1  0.36887010  0.90312212  0.35913769  1
  Lu  Lu2  1  0.86887010  0.35913769  0.90312212  1
  Lu  Lu3  1  0.13112990  0.64086231  0.09687788  1
  Si  Si4  1  0.97567733  0.27432267  0.27432267  1
  Si  Si5  1  0.89429818  0.76168771  0.44971592  1
  Si  Si6  1  0.47567733  0.27432267  0.27432267  1
  Si  Si7  1  0.25000000  0.00000000  0.00000000  1
  Si  Si8  1  0.52432267  0.72567733  0.72567733  1
  Si  Si9  1  0.60570182  0.55028408  0.23831229  1
  Si  Si10  1  0.10570182  0.23831229  0.55028408  1
  Si  Si11  1  0.39429818  0.44971592  0.76168771  1
  Si  Si12  1  0.02432267  0.72567733  0.72567733  1
  Si  Si13  1  0.75000000  0.00000000  0.00000000  1
  Ir  Ir14  1  0.14009920  0.97629332  0.74350829  1
  Ir  Ir15  1  0.35990080  0.25649171  0.02370668  1
  Ir  Ir16  1  0.64009920  0.74350829  0.97629332  1
  Ir  Ir17  1  0.85990080  0.02370668  0.25649171  1
  Ir  Ir18  1  0.25000000  0.50000000  0.50000000  1
  Ir  Ir19  1  0.75000000  0.50000000  0.50000000  1
