# generated using pymatgen
data_KPr6OsI10
_symmetry_space_group_name_H-M   'P 1'
_cell_length_a   13.86001790
_cell_length_b   14.33486276
_cell_length_c   15.82894102
_cell_angle_alpha   90.00000000
_cell_angle_beta   90.00000000
_cell_angle_gamma   90.00000000
_symmetry_Int_Tables_number   1
_chemical_formula_structural   KPr6OsI10
_chemical_formula_sum   'K4 Pr24 Os4 I40'
_cell_volume   3144.91702422
_cell_formula_units_Z   4
loop_
 _symmetry_equiv_pos_site_id
 _symmetry_equiv_pos_as_xyz
  1  'x, y, z'
loop_
 _atom_site_type_symbol
 _atom_site_label
 _atom_site_symmetry_multiplicity
 _atom_site_fract_x
 _atom_site_fract_y
 _atom_site_fract_z
 _atom_site_occupancy
  K  K0  1  0.75000000  0.48542688  0.44103196  1
  K  K1  1  0.25000000  0.98542688  0.05896804  1
  K  K2  1  0.25000000  0.51457312  0.55896804  1
  K  K3  1  0.75000000  0.01457312  0.94103196  1
  Pr  Pr4  1  0.10644570  0.38070210  0.05807306  1
  Pr  Pr5  1  0.89355430  0.88070210  0.44192694  1
  Pr  Pr6  1  0.25000000  0.61258815  0.98494968  1
  Pr  Pr7  1  0.10644570  0.11929790  0.55807306  1
  Pr  Pr8  1  0.75000000  0.38741185  0.01505032  1
  Pr  Pr9  1  0.39220108  0.61569810  0.20315368  1
  Pr  Pr10  1  0.89355430  0.61929790  0.94192694  1
  Pr  Pr11  1  0.60779892  0.38430190  0.79684632  1
  Pr  Pr12  1  0.89220108  0.11569810  0.29684632  1
  Pr  Pr13  1  0.75000000  0.61158503  0.72395683  1
  Pr  Pr14  1  0.10779892  0.88430190  0.70315368  1
  Pr  Pr15  1  0.75000000  0.11258815  0.51505032  1
  Pr  Pr16  1  0.60644570  0.61929790  0.94192694  1
  Pr  Pr17  1  0.25000000  0.11158503  0.77604317  1
  Pr  Pr18  1  0.39220108  0.88430190  0.70315368  1
  Pr  Pr19  1  0.39355430  0.38070210  0.05807306  1
  Pr  Pr20  1  0.10779892  0.61569810  0.20315368  1
  Pr  Pr21  1  0.39355430  0.11929790  0.55807306  1
  Pr  Pr22  1  0.89220108  0.38430190  0.79684632  1
  Pr  Pr23  1  0.25000000  0.38841497  0.27604317  1
  Pr  Pr24  1  0.75000000  0.88841497  0.22395683  1
  Pr  Pr25  1  0.25000000  0.88741185  0.48494968  1
  Pr  Pr26  1  0.60644570  0.88070210  0.44192694  1
  Pr  Pr27  1  0.60779892  0.11569810  0.29684632  1
  Os  Os28  1  0.75000000  0.50117635  0.87116781  1
  Os  Os29  1  0.25000000  0.00117635  0.62883219  1
  Os  Os30  1  0.25000000  0.49882365  0.12883219  1
  Os  Os31  1  0.75000000  0.99882365  0.37116781  1
  I  I32  1  0.41709872  0.49710040  0.87706807  1
  I  I33  1  0.91077625  0.76378426  0.78748763  1
  I  I34  1  0.07675078  0.75078627  0.03834531  1
  I  I35  1  0.25000000  0.23199873  0.96795840  1
  I  I36  1  0.42324922  0.75078627  0.03834531  1
  I  I37  1  0.25000000  0.77485349  0.28078696  1
  I  I38  1  0.08290128  0.49710040  0.87706807  1
  I  I39  1  0.75000000  0.22514651  0.71921304  1
  I  I40  1  0.75000000  0.27485349  0.21921304  1
  I  I41  1  0.25000000  0.26800127  0.46795840  1
  I  I42  1  0.91077625  0.73621574  0.28748763  1
  I  I43  1  0.41077625  0.23621574  0.21251237  1
  I  I44  1  0.91441280  0.49695736  0.62166204  1
  I  I45  1  0.41709872  0.00289960  0.37706807  1
  I  I46  1  0.58290128  0.99710040  0.62293193  1
  I  I47  1  0.08290128  0.00289960  0.37706807  1
  I  I48  1  0.58558720  0.00304264  0.12166204  1
  I  I49  1  0.08922375  0.23621574  0.21251237  1
  I  I50  1  0.57675078  0.24921373  0.96165469  1
  I  I51  1  0.75000000  0.73199873  0.53204160  1
  I  I52  1  0.91441280  0.00304264  0.12166204  1
  I  I53  1  0.41441280  0.50304264  0.37833796  1
  I  I54  1  0.41077625  0.26378426  0.71251237  1
  I  I55  1  0.91709872  0.50289960  0.12293193  1
  I  I56  1  0.41441280  0.99695736  0.87833796  1
  I  I57  1  0.58558720  0.49695736  0.62166204  1
  I  I58  1  0.75000000  0.76800127  0.03204160  1
  I  I59  1  0.58922375  0.76378426  0.78748763  1
  I  I60  1  0.58922375  0.73621574  0.28748763  1
  I  I61  1  0.07675078  0.74921373  0.53834531  1
  I  I62  1  0.92324922  0.24921373  0.96165469  1
  I  I63  1  0.42324922  0.74921373  0.53834531  1
  I  I64  1  0.91709872  0.99710040  0.62293193  1
  I  I65  1  0.08558720  0.99695736  0.87833796  1
  I  I66  1  0.08922375  0.26378426  0.71251237  1
  I  I67  1  0.25000000  0.72514651  0.78078696  1
  I  I68  1  0.92324922  0.25078627  0.46165469  1
  I  I69  1  0.08558720  0.50304264  0.37833796  1
  I  I70  1  0.58290128  0.50289960  0.12293193  1
  I  I71  1  0.57675078  0.25078627  0.46165469  1
