# generated using pymatgen
data_Rb2ZnCl4
_symmetry_space_group_name_H-M   'P 1'
_cell_length_a   7.61299617
_cell_length_b   12.98280921
_cell_length_c   28.19181272
_cell_angle_alpha   90.00000000
_cell_angle_beta   90.00000000
_cell_angle_gamma   90.00000000
_symmetry_Int_Tables_number   1
_chemical_formula_structural   Rb2ZnCl4
_chemical_formula_sum   'Rb24 Zn12 Cl48'
_cell_volume   2786.42455051
_cell_formula_units_Z   12
loop_
 _symmetry_equiv_pos_site_id
 _symmetry_equiv_pos_as_xyz
  1  'x, y, z'
loop_
 _atom_site_type_symbol
 _atom_site_label
 _atom_site_symmetry_multiplicity
 _atom_site_fract_x
 _atom_site_fract_y
 _atom_site_fract_z
 _atom_site_occupancy
  Rb  Rb0  1  0.77391636  0.91969213  0.28819896  1
  Rb  Rb1  1  0.26195730  0.81531682  0.16680731  1
  Rb  Rb2  1  0.27702292  0.68908177  0.33258619  1
  Rb  Rb3  1  0.77702292  0.18908177  0.16741381  1
  Rb  Rb4  1  0.70037578  0.30988434  0.00000636  1
  Rb  Rb5  1  0.77702292  0.31091823  0.66741381  1
  Rb  Rb6  1  0.27391636  0.08030787  0.71180104  1
  Rb  Rb7  1  0.72929313  0.58295212  0.11808180  1
  Rb  Rb8  1  0.27391636  0.41969213  0.21180104  1
  Rb  Rb9  1  0.20037578  0.80988434  0.49999364  1
  Rb  Rb10  1  0.71304059  0.91632228  0.95576190  1
  Rb  Rb11  1  0.22929313  0.41704788  0.88191820  1
  Rb  Rb12  1  0.77391636  0.58030787  0.78819896  1
  Rb  Rb13  1  0.22929313  0.08295212  0.38191820  1
  Rb  Rb14  1  0.70037578  0.19011566  0.50000636  1
  Rb  Rb15  1  0.76195730  0.18468318  0.83319269  1
  Rb  Rb16  1  0.21304059  0.08367772  0.04423810  1
  Rb  Rb17  1  0.21304059  0.41632228  0.54423810  1
  Rb  Rb18  1  0.72929313  0.91704788  0.61808180  1
  Rb  Rb19  1  0.76195730  0.31531682  0.33319269  1
  Rb  Rb20  1  0.27702292  0.81091823  0.83258619  1
  Rb  Rb21  1  0.71304059  0.58367772  0.45576190  1
  Rb  Rb22  1  0.20037578  0.69011566  0.99999364  1
  Rb  Rb23  1  0.26195730  0.68468318  0.66680731  1
  Zn  Zn24  1  0.21662953  0.41698840  0.40511113  1
  Zn  Zn25  1  0.76029364  0.58548017  0.25875930  1
  Zn  Zn26  1  0.74619997  0.91960766  0.42728393  1
  Zn  Zn27  1  0.74619997  0.58039234  0.92728393  1
  Zn  Zn28  1  0.24619997  0.08039234  0.57271607  1
  Zn  Zn29  1  0.26029364  0.08548017  0.24124070  1
  Zn  Zn30  1  0.71662953  0.91698840  0.09488887  1
  Zn  Zn31  1  0.71662953  0.58301160  0.59488887  1
  Zn  Zn32  1  0.21662953  0.08301160  0.90511113  1
  Zn  Zn33  1  0.26029364  0.41451983  0.74124070  1
  Zn  Zn34  1  0.24619997  0.41960766  0.07271607  1
  Zn  Zn35  1  0.76029364  0.91451983  0.75875930  1
  Cl  Cl36  1  0.02435393  0.30298284  0.08195172  1
  Cl  Cl37  1  0.33062387  0.56730185  0.77849386  1
  Cl  Cl38  1  0.48943693  0.36145821  0.42781789  1
  Cl  Cl39  1  0.32321595  0.05458553  0.49579403  1
  Cl  Cl40  1  0.67546447  0.07038825  0.38863134  1
  Cl  Cl41  1  0.33062387  0.93269815  0.27849386  1
  Cl  Cl42  1  0.02435393  0.19701716  0.58195172  1
  Cl  Cl43  1  0.17898696  0.06139194  0.82622470  1
  Cl  Cl44  1  0.67898696  0.56139194  0.67377530  1
  Cl  Cl45  1  0.51859227  0.79744115  0.06731942  1
  Cl  Cl46  1  0.83062387  0.06730185  0.72150614  1
  Cl  Cl47  1  0.17546447  0.92961175  0.61136866  1
  Cl  Cl48  1  0.52435393  0.69701716  0.91804828  1
  Cl  Cl49  1  0.49672899  0.35864015  0.11031094  1
  Cl  Cl50  1  0.52435393  0.80298284  0.41804828  1
  Cl  Cl51  1  0.47496825  0.29495366  0.75428259  1
  Cl  Cl52  1  0.47496825  0.20504634  0.25428259  1
  Cl  Cl53  1  0.16642290  0.57062616  0.44451497  1
  Cl  Cl54  1  0.97496825  0.70504634  0.24571741  1
  Cl  Cl55  1  0.66642290  0.42937384  0.55548503  1
  Cl  Cl56  1  0.69001580  0.56799927  0.33666846  1
  Cl  Cl57  1  0.98943693  0.86145821  0.07218211  1
  Cl  Cl58  1  0.83062387  0.43269815  0.22150614  1
  Cl  Cl59  1  0.99672899  0.85864015  0.38968906  1
  Cl  Cl60  1  0.00426046  0.13876129  0.27840671  1
  Cl  Cl61  1  0.67898696  0.93860806  0.17377530  1
  Cl  Cl62  1  0.17546447  0.57038825  0.11136866  1
  Cl  Cl63  1  0.69001580  0.93200073  0.83666846  1
  Cl  Cl64  1  0.00426046  0.36123871  0.77840671  1
  Cl  Cl65  1  0.98943693  0.63854179  0.57218211  1
  Cl  Cl66  1  0.67546447  0.42961175  0.88863134  1
  Cl  Cl67  1  0.01859227  0.20255885  0.93268058  1
  Cl  Cl68  1  0.50426046  0.86123871  0.72159329  1
  Cl  Cl69  1  0.82321595  0.55458553  0.00420597  1
  Cl  Cl70  1  0.48943693  0.13854179  0.92781789  1
  Cl  Cl71  1  0.99672899  0.64135985  0.88968906  1
  Cl  Cl72  1  0.17898696  0.43860806  0.32622470  1
  Cl  Cl73  1  0.66642290  0.07062616  0.05548503  1
  Cl  Cl74  1  0.49672899  0.14135985  0.61031094  1
  Cl  Cl75  1  0.01859227  0.29744115  0.43268058  1
  Cl  Cl76  1  0.97496825  0.79495366  0.74571741  1
  Cl  Cl77  1  0.19001580  0.43200073  0.66333154  1
  Cl  Cl78  1  0.51859227  0.70255885  0.56731942  1
  Cl  Cl79  1  0.82321595  0.94541447  0.50420597  1
  Cl  Cl80  1  0.19001580  0.06799927  0.16333154  1
  Cl  Cl81  1  0.32321595  0.44541447  0.99579403  1
  Cl  Cl82  1  0.16642290  0.92937384  0.94451497  1
  Cl  Cl83  1  0.50426046  0.63876129  0.22159329  1
