# generated using pymatgen
data_Cs2Hg27
_symmetry_space_group_name_H-M   'P 1'
_cell_length_a   15.31367106
_cell_length_b   15.31367099
_cell_length_c   15.31367148
_cell_angle_alpha   109.47121969
_cell_angle_beta   109.47121961
_cell_angle_gamma   109.47122175
_symmetry_Int_Tables_number   1
_chemical_formula_structural   Cs2Hg27
_chemical_formula_sum   'Cs6 Hg81'
_cell_volume   2764.49663796
_cell_formula_units_Z   3
loop_
 _symmetry_equiv_pos_site_id
 _symmetry_equiv_pos_as_xyz
  1  'x, y, z'
loop_
 _atom_site_type_symbol
 _atom_site_label
 _atom_site_symmetry_multiplicity
 _atom_site_fract_x
 _atom_site_fract_y
 _atom_site_fract_z
 _atom_site_occupancy
  Cs  Cs0  1  0.50000000  0.30414279  0.80414279  1
  Cs  Cs1  1  0.80414279  0.50000000  0.30414279  1
  Cs  Cs2  1  0.69585721  0.19585721  0.50000000  1
  Cs  Cs3  1  0.30414279  0.80414279  0.50000000  1
  Cs  Cs4  1  0.50000000  0.69585721  0.19585721  1
  Cs  Cs5  1  0.19585721  0.50000000  0.69585721  1
  Hg  Hg6  1  0.49356026  0.58777769  0.90578257  1
  Hg  Hg7  1  0.45960238  0.72538226  0.73422012  1
  Hg  Hg8  1  0.90578257  0.49356026  0.58777769  1
  Hg  Hg9  1  0.72538226  0.26577988  0.99116214  1
  Hg  Hg10  1  0.31800488  0.41222231  0.90578257  1
  Hg  Hg11  1  0.06208431  0.16719722  0.89488709  1
  Hg  Hg12  1  0.16719722  0.10511291  0.27231012  1
  Hg  Hg13  1  0.54039762  0.27461774  0.26577988  1
  Hg  Hg14  1  0.28470461  0.38493997  0.10023536  1
  Hg  Hg15  1  0.00883786  0.27461774  0.73422012  1
  Hg  Hg16  1  0.83280278  0.10511291  0.93791569  1
  Hg  Hg17  1  0.96732357  0.17582903  0.49558287  1
  Hg  Hg18  1  0.50441713  0.68024616  0.47174070  1
  Hg  Hg19  1  0.31975384  0.82417097  0.79149454  1
  Hg  Hg20  1  0.68024616  0.17582903  0.20850546  1
  Hg  Hg21  1  0.50441713  0.03267643  0.82417097  1
  Hg  Hg22  1  1.00000000  1.00000000  0.64955684  1
  Hg  Hg23  1  0.90578257  0.31800488  0.41222231  1
  Hg  Hg24  1  0.10023536  0.28470461  0.38493997  1
  Hg  Hg25  1  0.49558287  0.31975384  0.52825930  1
  Hg  Hg26  1  0.09421743  0.50643974  0.41222231  1
  Hg  Hg27  1  0.26577988  0.99116214  0.72538226  1
  Hg  Hg28  1  0.49558287  0.96732357  0.17582903  1
  Hg  Hg29  1  1.00000000  0.35044316  1.00000000  1
  Hg  Hg30  1  0.58777769  0.90578257  0.49356026  1
  Hg  Hg31  1  0.26577988  0.54039762  0.27461774  1
  Hg  Hg32  1  0.20850546  0.68024616  0.17582903  1
  Hg  Hg33  1  0.00000000  0.64955684  0.00000000  1
  Hg  Hg34  1  0.73422012  0.45960238  0.72538226  1
  Hg  Hg35  1  0.52825930  0.20850546  0.03267643  1
  Hg  Hg36  1  0.27461774  0.73422012  0.00883786  1
  Hg  Hg37  1  0.71529539  0.81553076  0.10023536  1
  Hg  Hg38  1  0.96732357  0.47174070  0.79149454  1
  Hg  Hg39  1  0.64955684  0.64955684  0.64955684  1
  Hg  Hg40  1  0.38493997  0.10023536  0.28470461  1
  Hg  Hg41  1  0.35044316  1.00000000  0.00000000  1
  Hg  Hg42  1  0.10511291  0.93791569  0.83280278  1
  Hg  Hg43  1  0.68199512  0.58777769  0.09421743  1
  Hg  Hg44  1  0.41222231  0.09421743  0.50643974  1
  Hg  Hg45  1  0.79149454  0.31975384  0.82417097  1
  Hg  Hg46  1  0.73422012  0.00883786  0.27461774  1
  Hg  Hg47  1  0.89488709  0.06208431  0.16719722  1
  Hg  Hg48  1  0.47174070  0.79149454  0.96732357  1
  Hg  Hg49  1  0.58777769  0.09421743  0.68199512  1
  Hg  Hg50  1  0.72538226  0.73422012  0.45960238  1
  Hg  Hg51  1  0.16719722  0.89488709  0.06208431  1
  Hg  Hg52  1  0.20850546  0.03267643  0.52825930  1
  Hg  Hg53  1  0.79149454  0.96732357  0.47174070  1
  Hg  Hg54  1  0.72768988  0.83280278  0.89488709  1
  Hg  Hg55  1  0.89488709  0.72768988  0.83280278  1
  Hg  Hg56  1  0.52825930  0.49558287  0.31975384  1
  Hg  Hg57  1  0.35044316  0.35044316  0.35044316  1
  Hg  Hg58  1  0.28470461  0.18446924  0.89976464  1
  Hg  Hg59  1  0.61506003  0.89976464  0.71529539  1
  Hg  Hg60  1  0.81553076  0.10023536  0.71529539  1
  Hg  Hg61  1  0.64955684  0.00000000  0.00000000  1
  Hg  Hg62  1  0.89976464  0.71529539  0.61506003  1
  Hg  Hg63  1  0.93791569  0.83280278  0.10511291  1
  Hg  Hg64  1  0.83280278  0.89488709  0.72768988  1
  Hg  Hg65  1  0.68024616  0.47174070  0.50441713  1
  Hg  Hg66  1  0.82417097  0.50441713  0.03267643  1
  Hg  Hg67  1  0.50643974  0.41222231  0.09421743  1
  Hg  Hg68  1  0.31975384  0.52825930  0.49558287  1
  Hg  Hg69  1  0.99116214  0.72538226  0.26577988  1
  Hg  Hg70  1  0.82417097  0.79149454  0.31975384  1
  Hg  Hg71  1  0.03267643  0.82417097  0.50441713  1
  Hg  Hg72  1  0.00000000  0.00000000  0.35044316  1
  Hg  Hg73  1  0.71529539  0.61506003  0.89976464  1
  Hg  Hg74  1  0.89976464  0.28470461  0.18446924  1
  Hg  Hg75  1  0.09421743  0.68199512  0.58777769  1
  Hg  Hg76  1  0.47174070  0.50441713  0.68024616  1
  Hg  Hg77  1  0.03267643  0.52825930  0.20850546  1
  Hg  Hg78  1  0.17582903  0.49558287  0.96732357  1
  Hg  Hg79  1  0.00000000  0.00000000  0.00000000  1
  Hg  Hg80  1  0.10511291  0.27231012  0.16719722  1
  Hg  Hg81  1  0.41222231  0.90578257  0.31800488  1
  Hg  Hg82  1  0.17582903  0.20850546  0.68024616  1
  Hg  Hg83  1  0.27461774  0.26577988  0.54039762  1
  Hg  Hg84  1  0.18446924  0.89976464  0.28470461  1
  Hg  Hg85  1  0.10023536  0.71529539  0.81553076  1
  Hg  Hg86  1  0.27231012  0.16719722  0.10511291  1
