# generated using pymatgen
data_Li9Al4
_symmetry_space_group_name_H-M   'P 1'
_cell_length_a   4.47100572
_cell_length_b   5.36843938
_cell_length_c   9.60999285
_cell_angle_alpha   104.81776587
_cell_angle_beta   103.48558756
_cell_angle_gamma   89.96731586
_symmetry_Int_Tables_number   1
_chemical_formula_structural   Li9Al4
_chemical_formula_sum   'Li9 Al4'
_cell_volume   216.41462149
_cell_formula_units_Z   1
loop_
 _symmetry_equiv_pos_site_id
 _symmetry_equiv_pos_as_xyz
  1  'x, y, z'
loop_
 _atom_site_type_symbol
 _atom_site_label
 _atom_site_symmetry_multiplicity
 _atom_site_fract_x
 _atom_site_fract_y
 _atom_site_fract_z
 _atom_site_occupancy
  Li  Li0  1  0.23287271  0.84259404  0.46576104  1
  Li  Li1  1  0.30795235  0.47288537  0.61585467  1
  Li  Li2  1  0.69204765  0.52711463  0.38414533  1
  Li  Li3  1  0.54353460  0.32585992  0.08707689  1
  Li  Li4  1  0.76712729  0.15740596  0.53423896  1
  Li  Li5  1  0.45646540  0.67414008  0.91292311  1
  Li  Li6  1  0.00000000  0.00000000  0.00000000  1
  Li  Li7  1  0.91404491  0.35934741  0.82816749  1
  Li  Li8  1  0.08595509  0.64065259  0.17183251  1
  Al  Al9  1  0.61426635  0.93405766  0.22856080  1
  Al  Al10  1  0.38573365  0.06594234  0.77143920  1
  Al  Al11  1  0.15078461  0.21668445  0.30161108  1
  Al  Al12  1  0.84921539  0.78331555  0.69838892  1
