# generated using pymatgen
data_Ba(FeBr4)2
_symmetry_space_group_name_H-M   'P 1'
_cell_length_a   11.51282820
_cell_length_b   13.48696014
_cell_length_c   22.27164073
_cell_angle_alpha   90.00000000
_cell_angle_beta   90.00000000
_cell_angle_gamma   90.00000000
_symmetry_Int_Tables_number   1
_chemical_formula_structural   Ba(FeBr4)2
_chemical_formula_sum   'Ba8 Fe16 Br64'
_cell_volume   3458.18569672
_cell_formula_units_Z   8
loop_
 _symmetry_equiv_pos_site_id
 _symmetry_equiv_pos_as_xyz
  1  'x, y, z'
loop_
 _atom_site_type_symbol
 _atom_site_label
 _atom_site_symmetry_multiplicity
 _atom_site_fract_x
 _atom_site_fract_y
 _atom_site_fract_z
 _atom_site_occupancy
  Ba  Ba0  1  0.15214854  0.47061982  0.38760892  1
  Ba  Ba1  1  0.65214854  0.52938018  0.11239108  1
  Ba  Ba2  1  0.34785146  0.47061982  0.88760892  1
  Ba  Ba3  1  0.15214854  0.97061982  0.11239108  1
  Ba  Ba4  1  0.84785146  0.02938018  0.88760892  1
  Ba  Ba5  1  0.84785146  0.52938018  0.61239108  1
  Ba  Ba6  1  0.65214854  0.02938018  0.38760892  1
  Ba  Ba7  1  0.34785146  0.97061982  0.61239108  1
  Fe  Fe8  1  0.11098865  0.02999293  0.75340889  1
  Fe  Fe9  1  0.38901135  0.52999293  0.24659111  1
  Fe  Fe10  1  0.77618664  0.27098816  0.49565339  1
  Fe  Fe11  1  0.72381336  0.77098816  0.50434661  1
  Fe  Fe12  1  0.27618664  0.72901184  0.00434661  1
  Fe  Fe13  1  0.77618664  0.77098816  0.00434661  1
  Fe  Fe14  1  0.38901135  0.02999293  0.25340889  1
  Fe  Fe15  1  0.72381336  0.27098816  0.99565339  1
  Fe  Fe16  1  0.27618664  0.22901184  0.49565339  1
  Fe  Fe17  1  0.22381336  0.72901184  0.50434661  1
  Fe  Fe18  1  0.88901135  0.97000707  0.24659111  1
  Fe  Fe19  1  0.61098865  0.97000707  0.74659111  1
  Fe  Fe20  1  0.61098865  0.47000707  0.75340889  1
  Fe  Fe21  1  0.22381336  0.22901184  0.99565339  1
  Fe  Fe22  1  0.11098865  0.52999293  0.74659111  1
  Fe  Fe23  1  0.88901135  0.47000707  0.25340889  1
  Br  Br24  1  0.28565393  0.11537320  0.73357977  1
  Br  Br25  1  0.61381224  0.05691679  0.65435891  1
  Br  Br26  1  0.81655631  0.78341923  0.59802687  1
  Br  Br27  1  0.68344369  0.28341923  0.40197313  1
  Br  Br28  1  0.18344369  0.71658077  0.09802687  1
  Br  Br29  1  0.11381224  0.44308321  0.65435891  1
  Br  Br30  1  0.68373076  0.60124817  0.49082160  1
  Br  Br31  1  0.04576297  0.35791223  0.26153091  1
  Br  Br32  1  0.44931225  0.63027420  0.00082469  1
  Br  Br33  1  0.45423703  0.35791223  0.76153091  1
  Br  Br34  1  0.95423703  0.14208777  0.76153091  1
  Br  Br35  1  0.31655631  0.71658077  0.59802687  1
  Br  Br36  1  0.16230899  0.66301279  0.92643887  1
  Br  Br37  1  0.11381224  0.94308321  0.84564109  1
  Br  Br38  1  0.21434607  0.61537320  0.26642023  1
  Br  Br39  1  0.08951003  0.91659032  0.67306238  1
  Br  Br40  1  0.54576297  0.14208777  0.26153091  1
  Br  Br41  1  0.88618776  0.55691679  0.34564109  1
  Br  Br42  1  0.66230899  0.33698721  0.57356113  1
  Br  Br43  1  0.38618776  0.94308321  0.34564109  1
  Br  Br44  1  0.81626924  0.10124817  0.50917840  1
  Br  Br45  1  0.68344369  0.78341923  0.09802687  1
  Br  Br46  1  0.81626924  0.60124817  0.99082160  1
  Br  Br47  1  0.58951003  0.58340968  0.67306238  1
  Br  Br48  1  0.31626924  0.39875183  0.50917840  1
  Br  Br49  1  0.78565393  0.88462680  0.76642023  1
  Br  Br50  1  0.08951003  0.41659032  0.82693762  1
  Br  Br51  1  0.94931225  0.86972580  0.00082469  1
  Br  Br52  1  0.05068775  0.13027420  0.99917531  1
  Br  Br53  1  0.41048997  0.91659032  0.17306238  1
  Br  Br54  1  0.88618776  0.05691679  0.15435891  1
  Br  Br55  1  0.18373076  0.89875183  0.49082160  1
  Br  Br56  1  0.66230899  0.83698721  0.92643887  1
  Br  Br57  1  0.54576297  0.64208777  0.23846909  1
  Br  Br58  1  0.18373076  0.39875183  0.00917840  1
  Br  Br59  1  0.58951003  0.08340968  0.82693762  1
  Br  Br60  1  0.41048997  0.41659032  0.32693762  1
  Br  Br61  1  0.31655631  0.21658077  0.90197313  1
  Br  Br62  1  0.33769101  0.66301279  0.42643887  1
  Br  Br63  1  0.33769101  0.16301279  0.07356113  1
  Br  Br64  1  0.28565393  0.61537320  0.76642023  1
  Br  Br65  1  0.95423703  0.64208777  0.73846909  1
  Br  Br66  1  0.44931225  0.13027420  0.49917531  1
  Br  Br67  1  0.05068775  0.63027420  0.50082469  1
  Br  Br68  1  0.16230899  0.16301279  0.57356113  1
  Br  Br69  1  0.91048997  0.08340968  0.32693762  1
  Br  Br70  1  0.68373076  0.10124817  0.00917840  1
  Br  Br71  1  0.91048997  0.58340968  0.17306238  1
  Br  Br72  1  0.18344369  0.21658077  0.40197313  1
  Br  Br73  1  0.45423703  0.85791223  0.73846909  1
  Br  Br74  1  0.04576297  0.85791223  0.23846909  1
  Br  Br75  1  0.94931225  0.36972580  0.49917531  1
  Br  Br76  1  0.55068775  0.36972580  0.99917531  1
  Br  Br77  1  0.78565393  0.38462680  0.73357977  1
  Br  Br78  1  0.71434607  0.88462680  0.26642023  1
  Br  Br79  1  0.55068775  0.86972580  0.50082469  1
  Br  Br80  1  0.21434607  0.11537320  0.23357977  1
  Br  Br81  1  0.83769101  0.83698721  0.42643887  1
  Br  Br82  1  0.61381224  0.55691679  0.84564109  1
  Br  Br83  1  0.83769101  0.33698721  0.07356113  1
  Br  Br84  1  0.38618776  0.44308321  0.15435891  1
  Br  Br85  1  0.31626924  0.89875183  0.99082160  1
  Br  Br86  1  0.81655631  0.28341923  0.90197313  1
  Br  Br87  1  0.71434607  0.38462680  0.23357977  1
