# generated using pymatgen
data_KInSnSe4
_symmetry_space_group_name_H-M   'P 1'
_cell_length_a   8.04402988
_cell_length_b   12.94545639
_cell_length_c   18.88152957
_cell_angle_alpha   90.00000000
_cell_angle_beta   98.24757452
_cell_angle_gamma   90.00000000
_symmetry_Int_Tables_number   1
_chemical_formula_structural   KInSnSe4
_chemical_formula_sum   'K8 In8 Sn8 Se32'
_cell_volume   1945.86683863
_cell_formula_units_Z   8
loop_
 _symmetry_equiv_pos_site_id
 _symmetry_equiv_pos_as_xyz
  1  'x, y, z'
loop_
 _atom_site_type_symbol
 _atom_site_label
 _atom_site_symmetry_multiplicity
 _atom_site_fract_x
 _atom_site_fract_y
 _atom_site_fract_z
 _atom_site_occupancy
  K  K0  1  0.25322959  0.92961061  0.67914410  1
  K  K1  1  0.25322959  0.57038939  0.17914410  1
  K  K2  1  0.73597362  0.39848227  0.45602381  1
  K  K3  1  0.26402638  0.60151773  0.54397619  1
  K  K4  1  0.74677041  0.42961061  0.82085590  1
  K  K5  1  0.26402638  0.89848227  0.04397619  1
  K  K6  1  0.74677041  0.07038939  0.32085590  1
  K  K7  1  0.73597362  0.10151773  0.95602381  1
  In  In8  1  0.46851550  0.24294966  0.15775703  1
  In  In9  1  0.53148450  0.74294966  0.34224297  1
  In  In10  1  0.03729046  0.75660504  0.85773375  1
  In  In11  1  0.96270954  0.24339496  0.14226625  1
  In  In12  1  0.53148450  0.75705034  0.84224297  1
  In  In13  1  0.03729046  0.74339496  0.35773375  1
  In  In14  1  0.96270954  0.25660504  0.64226625  1
  In  In15  1  0.46851550  0.25705034  0.65775703  1
  Sn  Sn16  1  0.80231258  0.67161372  0.01522986  1
  Sn  Sn17  1  0.75621611  0.70443105  0.67557282  1
  Sn  Sn18  1  0.19768742  0.17161372  0.48477014  1
  Sn  Sn19  1  0.24378389  0.29556895  0.32442718  1
  Sn  Sn20  1  0.80231258  0.82838628  0.51522986  1
  Sn  Sn21  1  0.19768742  0.32838628  0.98477014  1
  Sn  Sn22  1  0.75621611  0.79556895  0.17557282  1
  Sn  Sn23  1  0.24378389  0.20443105  0.82442718  1
  Se  Se24  1  0.46641488  0.82785472  0.21181194  1
  Se  Se25  1  0.80651678  0.60299920  0.14475408  1
  Se  Se26  1  0.25303871  0.13489380  0.95472808  1
  Se  Se27  1  0.25303871  0.36510620  0.45472808  1
  Se  Se28  1  0.80651678  0.89700080  0.64475408  1
  Se  Se29  1  0.53358512  0.17214528  0.78818806  1
  Se  Se30  1  0.90297265  0.15263914  0.51902176  1
  Se  Se31  1  0.00254981  0.88140680  0.25388707  1
  Se  Se32  1  0.28922908  0.61684418  0.35908931  1
  Se  Se33  1  0.43863977  0.09569143  0.57191135  1
  Se  Se34  1  0.00254981  0.61859320  0.75388707  1
  Se  Se35  1  0.71077092  0.38315582  0.64091069  1
  Se  Se36  1  0.53358512  0.32785472  0.28818806  1
  Se  Se37  1  0.09702735  0.84736086  0.48097824  1
  Se  Se38  1  0.71077092  0.11684418  0.14091069  1
  Se  Se39  1  0.90297265  0.34736086  0.01902176  1
  Se  Se40  1  0.78397255  0.61778626  0.34660880  1
  Se  Se41  1  0.19348322  0.10299920  0.35524592  1
  Se  Se42  1  0.28922908  0.88315582  0.85908931  1
  Se  Se43  1  0.46641488  0.67214528  0.71181194  1
  Se  Se44  1  0.43863977  0.40430857  0.07191135  1
  Se  Se45  1  0.56136023  0.90430857  0.42808865  1
  Se  Se46  1  0.21602745  0.11778626  0.15339120  1
  Se  Se47  1  0.99745019  0.38140680  0.24611293  1
  Se  Se48  1  0.74696129  0.86510620  0.04527192  1
  Se  Se49  1  0.21602745  0.38221374  0.65339120  1
  Se  Se50  1  0.19348322  0.39700080  0.85524592  1
  Se  Se51  1  0.09702735  0.65263914  0.98097824  1
  Se  Se52  1  0.74696129  0.63489380  0.54527192  1
  Se  Se53  1  0.56136023  0.59569143  0.92808865  1
  Se  Se54  1  0.78397255  0.88221374  0.84660880  1
  Se  Se55  1  0.99745019  0.11859320  0.74611293  1
