# generated using pymatgen
data_CuMo3Cl7
_symmetry_space_group_name_H-M   'P 1'
_cell_length_a   13.09423052
_cell_length_b   13.09423052
_cell_length_c   13.09423052
_cell_angle_alpha   90.00000000
_cell_angle_beta   90.00000000
_cell_angle_gamma   90.00000000
_symmetry_Int_Tables_number   1
_chemical_formula_structural   CuMo3Cl7
_chemical_formula_sum   'Cu8 Mo24 Cl56'
_cell_volume   2245.12200659
_cell_formula_units_Z   8
loop_
 _symmetry_equiv_pos_site_id
 _symmetry_equiv_pos_as_xyz
  1  'x, y, z'
loop_
 _atom_site_type_symbol
 _atom_site_label
 _atom_site_symmetry_multiplicity
 _atom_site_fract_x
 _atom_site_fract_y
 _atom_site_fract_z
 _atom_site_occupancy
  Cu  Cu0  1  0.43809383  0.43809383  0.43809383  1
  Cu  Cu1  1  0.56190617  0.93809383  0.93809383  1
  Cu  Cu2  1  0.93809383  0.56190617  0.93809383  1
  Cu  Cu3  1  0.43809383  0.06190617  0.06190617  1
  Cu  Cu4  1  0.56190617  0.56190617  0.56190617  1
  Cu  Cu5  1  0.93809383  0.93809383  0.56190617  1
  Cu  Cu6  1  0.06190617  0.06190617  0.43809383  1
  Cu  Cu7  1  0.06190617  0.43809383  0.06190617  1
  Mo  Mo8  1  0.86401008  0.02525918  0.96839997  1
  Mo  Mo9  1  0.63598992  0.47474082  0.96839997  1
  Mo  Mo10  1  0.96839997  0.86401008  0.02525918  1
  Mo  Mo11  1  0.03160003  0.36401008  0.52525918  1
  Mo  Mo12  1  0.13598992  0.52525918  0.46839997  1
  Mo  Mo13  1  0.97474082  0.03160003  0.13598992  1
  Mo  Mo14  1  0.47474082  0.96839997  0.63598992  1
  Mo  Mo15  1  0.96839997  0.63598992  0.47474082  1
  Mo  Mo16  1  0.97474082  0.46839997  0.36401008  1
  Mo  Mo17  1  0.46839997  0.13598992  0.52525918  1
  Mo  Mo18  1  0.02525918  0.53160003  0.63598992  1
  Mo  Mo19  1  0.36401008  0.97474082  0.46839997  1
  Mo  Mo20  1  0.52525918  0.46839997  0.13598992  1
  Mo  Mo21  1  0.53160003  0.63598992  0.02525918  1
  Mo  Mo22  1  0.46839997  0.36401008  0.97474082  1
  Mo  Mo23  1  0.13598992  0.97474082  0.03160003  1
  Mo  Mo24  1  0.52525918  0.03160003  0.36401008  1
  Mo  Mo25  1  0.36401008  0.52525918  0.03160003  1
  Mo  Mo26  1  0.03160003  0.13598992  0.97474082  1
  Mo  Mo27  1  0.47474082  0.53160003  0.86401008  1
  Mo  Mo28  1  0.53160003  0.86401008  0.47474082  1
  Mo  Mo29  1  0.02525918  0.96839997  0.86401008  1
  Mo  Mo30  1  0.63598992  0.02525918  0.53160003  1
  Mo  Mo31  1  0.86401008  0.47474082  0.53160003  1
  Cl  Cl32  1  0.68212012  0.92614330  0.37624606  1
  Cl  Cl33  1  0.42614330  0.62375394  0.18212012  1
  Cl  Cl34  1  0.13495540  0.36504460  0.36504460  1
  Cl  Cl35  1  0.57385670  0.12375394  0.68212012  1
  Cl  Cl36  1  0.12375394  0.68212012  0.57385670  1
  Cl  Cl37  1  0.36504460  0.13495540  0.36504460  1
  Cl  Cl38  1  0.31673725  0.55927028  0.42109759  1
  Cl  Cl39  1  0.68326275  0.44072972  0.57890241  1
  Cl  Cl40  1  0.18212012  0.07385670  0.87624606  1
  Cl  Cl41  1  0.55927028  0.07890241  0.18326275  1
  Cl  Cl42  1  0.55927028  0.42109759  0.31673725  1
  Cl  Cl43  1  0.36504460  0.36504460  0.13495540  1
  Cl  Cl44  1  0.92614330  0.12375394  0.81787988  1
  Cl  Cl45  1  0.18326275  0.94072972  0.42109759  1
  Cl  Cl46  1  0.86504460  0.86504460  0.86504460  1
  Cl  Cl47  1  0.37624606  0.81787988  0.57385670  1
  Cl  Cl48  1  0.31673725  0.94072972  0.07890241  1
  Cl  Cl49  1  0.12375394  0.81787988  0.92614330  1
  Cl  Cl50  1  0.81787988  0.57385670  0.37624606  1
  Cl  Cl51  1  0.57890241  0.68326275  0.44072972  1
  Cl  Cl52  1  0.07385670  0.62375394  0.31787988  1
  Cl  Cl53  1  0.42614330  0.87624606  0.31787988  1
  Cl  Cl54  1  0.62375394  0.18212012  0.42614330  1
  Cl  Cl55  1  0.63495540  0.63495540  0.86504460  1
  Cl  Cl56  1  0.37624606  0.68212012  0.92614330  1
  Cl  Cl57  1  0.05927028  0.92109759  0.68326275  1
  Cl  Cl58  1  0.68326275  0.05927028  0.92109759  1
  Cl  Cl59  1  0.63495540  0.86504460  0.63495540  1
  Cl  Cl60  1  0.81673725  0.44072972  0.92109759  1
  Cl  Cl61  1  0.18212012  0.42614330  0.62375394  1
  Cl  Cl62  1  0.68212012  0.57385670  0.12375394  1
  Cl  Cl63  1  0.62375394  0.31787988  0.07385670  1
  Cl  Cl64  1  0.87624606  0.18212012  0.07385670  1
  Cl  Cl65  1  0.42109759  0.31673725  0.55927028  1
  Cl  Cl66  1  0.81673725  0.05927028  0.57890241  1
  Cl  Cl67  1  0.07385670  0.87624606  0.18212012  1
  Cl  Cl68  1  0.18326275  0.55927028  0.07890241  1
  Cl  Cl69  1  0.94072972  0.42109759  0.18326275  1
  Cl  Cl70  1  0.31787988  0.07385670  0.62375394  1
  Cl  Cl71  1  0.57385670  0.37624606  0.81787988  1
  Cl  Cl72  1  0.92614330  0.37624606  0.68212012  1
  Cl  Cl73  1  0.86504460  0.63495540  0.63495540  1
  Cl  Cl74  1  0.13495540  0.13495540  0.13495540  1
  Cl  Cl75  1  0.05927028  0.57890241  0.81673725  1
  Cl  Cl76  1  0.42109759  0.18326275  0.94072972  1
  Cl  Cl77  1  0.44072972  0.92109759  0.81673725  1
  Cl  Cl78  1  0.92109759  0.68326275  0.05927028  1
  Cl  Cl79  1  0.57890241  0.81673725  0.05927028  1
  Cl  Cl80  1  0.92109759  0.81673725  0.44072972  1
  Cl  Cl81  1  0.07890241  0.18326275  0.55927028  1
  Cl  Cl82  1  0.44072972  0.57890241  0.68326275  1
  Cl  Cl83  1  0.94072972  0.07890241  0.31673725  1
  Cl  Cl84  1  0.31787988  0.42614330  0.87624606  1
  Cl  Cl85  1  0.07890241  0.31673725  0.94072972  1
  Cl  Cl86  1  0.87624606  0.31787988  0.42614330  1
  Cl  Cl87  1  0.81787988  0.92614330  0.12375394  1
