# generated using pymatgen
data_AlPI8
_symmetry_space_group_name_H-M   'P 1'
_cell_length_a   11.19623032
_cell_length_b   11.40269498
_cell_length_c   16.23096342
_cell_angle_alpha   90.00000000
_cell_angle_beta   90.00000000
_cell_angle_gamma   90.00000000
_symmetry_Int_Tables_number   1
_chemical_formula_structural   AlPI8
_chemical_formula_sum   'Al4 P4 I32'
_cell_volume   2072.16164120
_cell_formula_units_Z   4
loop_
 _symmetry_equiv_pos_site_id
 _symmetry_equiv_pos_as_xyz
  1  'x, y, z'
loop_
 _atom_site_type_symbol
 _atom_site_label
 _atom_site_symmetry_multiplicity
 _atom_site_fract_x
 _atom_site_fract_y
 _atom_site_fract_z
 _atom_site_occupancy
  Al  Al0  1  0.99220608  0.92020139  0.33773345  1
  Al  Al1  1  0.49220608  0.57979861  0.83773345  1
  Al  Al2  1  0.00779392  0.07979861  0.83773345  1
  Al  Al3  1  0.50779392  0.42020139  0.33773345  1
  P  P4  1  0.01499162  0.45798723  0.55067869  1
  P  P5  1  0.51499162  0.04201277  0.05067869  1
  P  P6  1  0.98500838  0.54201277  0.05067869  1
  P  P7  1  0.48500838  0.95798723  0.55067869  1
  I  I8  1  0.48704176  0.60622010  0.25483540  1
  I  I9  1  0.62962675  0.96881736  0.17039553  1
  I  I10  1  0.53876615  0.54675596  0.99300818  1
  I  I11  1  0.95850465  0.75429637  0.02506970  1
  I  I12  1  0.54149535  0.25429637  0.02506970  1
  I  I13  1  0.03876615  0.95324404  0.49300818  1
  I  I14  1  0.87037325  0.46881736  0.17039553  1
  I  I15  1  0.30197827  0.01434872  0.07457788  1
  I  I16  1  0.64688745  0.73266708  0.78612042  1
  I  I17  1  0.51295824  0.39377990  0.75483540  1
  I  I18  1  0.85311255  0.23266708  0.78612042  1
  I  I19  1  0.98704176  0.89377990  0.75483540  1
  I  I20  1  0.35311255  0.26733292  0.28612042  1
  I  I21  1  0.69802173  0.98565128  0.57457788  1
  I  I22  1  0.19802173  0.51434872  0.07457788  1
  I  I23  1  0.37037325  0.03118264  0.67039553  1
  I  I24  1  0.42752833  0.07946339  0.42989050  1
  I  I25  1  0.71797471  0.33006131  0.32422024  1
  I  I26  1  0.45850465  0.74570363  0.52506970  1
  I  I27  1  0.57247167  0.92053661  0.92989050  1
  I  I28  1  0.78202529  0.83006131  0.32422024  1
  I  I29  1  0.92752833  0.42053661  0.92989050  1
  I  I30  1  0.01295824  0.10622010  0.25483540  1
  I  I31  1  0.14688745  0.76733292  0.28612042  1
  I  I32  1  0.12962675  0.53118264  0.67039553  1
  I  I33  1  0.46123385  0.45324404  0.49300818  1
  I  I34  1  0.21797471  0.16993869  0.82422024  1
  I  I35  1  0.80197827  0.48565128  0.57457788  1
  I  I36  1  0.07247167  0.57946339  0.42989050  1
  I  I37  1  0.28202529  0.66993869  0.82422024  1
  I  I38  1  0.04149535  0.24570363  0.52506970  1
  I  I39  1  0.96123385  0.04675596  0.99300818  1
