# generated using pymatgen
data_Tl5Se3
_symmetry_space_group_name_H-M   'P 1'
_cell_length_a   8.48954262
_cell_length_b   8.48954262
_cell_length_c   13.59182876
_cell_angle_alpha   90.00000000
_cell_angle_beta   90.00000000
_cell_angle_gamma   90.00000000
_symmetry_Int_Tables_number   1
_chemical_formula_structural   Tl5Se3
_chemical_formula_sum   'Tl20 Se12'
_cell_volume   979.59482066
_cell_formula_units_Z   4
loop_
 _symmetry_equiv_pos_site_id
 _symmetry_equiv_pos_as_xyz
  1  'x, y, z'
loop_
 _atom_site_type_symbol
 _atom_site_label
 _atom_site_symmetry_multiplicity
 _atom_site_fract_x
 _atom_site_fract_y
 _atom_site_fract_z
 _atom_site_occupancy
  Tl  Tl0  1  0.41874586  0.87540395  0.10024534  1
  Tl  Tl1  1  0.12858684  0.57438936  0.40128175  1
  Tl  Tl2  1  0.37540395  0.58125414  0.89975466  1
  Tl  Tl3  1  0.42561064  0.62858684  0.59871825  1
  Tl  Tl4  1  0.92561064  0.12858684  0.40128175  1
  Tl  Tl5  1  0.12459605  0.91874586  0.89975466  1
  Tl  Tl6  1  0.87141316  0.42561064  0.59871825  1
  Tl  Tl7  1  0.57438936  0.37141316  0.40128175  1
  Tl  Tl8  1  0.62858684  0.07438936  0.59871825  1
  Tl  Tl9  1  0.87540395  0.08125414  0.10024534  1
  Tl  Tl10  1  0.25000000  0.25000000  0.20837741  1
  Tl  Tl11  1  0.25000000  0.25000000  0.70897379  1
  Tl  Tl12  1  0.37141316  0.92561064  0.40128175  1
  Tl  Tl13  1  0.58125414  0.12459605  0.89975466  1
  Tl  Tl14  1  0.75000000  0.75000000  0.79162259  1
  Tl  Tl15  1  0.07438936  0.87141316  0.59871825  1
  Tl  Tl16  1  0.91874586  0.37540395  0.89975466  1
  Tl  Tl17  1  0.08125414  0.62459605  0.10024534  1
  Tl  Tl18  1  0.62459605  0.41874586  0.10024534  1
  Tl  Tl19  1  0.75000000  0.75000000  0.29102621  1
  Se  Se20  1  0.06933477  0.59940806  0.75349985  1
  Se  Se21  1  0.75000000  0.75000000  0.51566888  1
  Se  Se22  1  0.75000000  0.75000000  1.00146367  1
  Se  Se23  1  0.43066523  0.90059194  0.75349985  1
  Se  Se24  1  0.40059194  0.56933477  0.24650015  1
  Se  Se25  1  0.56933477  0.09940806  0.24650015  1
  Se  Se26  1  0.25000000  0.25000000  0.48433112  1
  Se  Se27  1  0.25000000  0.25000000  -0.00146367  1
  Se  Se28  1  0.09940806  0.93066523  0.24650015  1
  Se  Se29  1  0.59940806  0.43066523  0.75349985  1
  Se  Se30  1  0.90059194  0.06933477  0.75349985  1
  Se  Se31  1  0.93066523  0.40059194  0.24650015  1
