# generated using pymatgen
data_SrLiGaN2
_symmetry_space_group_name_H-M   'P 1'
_cell_length_a   5.97786871
_cell_length_b   5.97786867
_cell_length_c   12.74500693
_cell_angle_alpha   90.70323239
_cell_angle_beta   90.70323239
_cell_angle_gamma   118.34307952
_symmetry_Int_Tables_number   1
_chemical_formula_structural   SrLiGaN2
_chemical_formula_sum   'Sr6 Li6 Ga6 N12'
_cell_volume   400.72869302
_cell_formula_units_Z   6
loop_
 _symmetry_equiv_pos_site_id
 _symmetry_equiv_pos_as_xyz
  1  'x, y, z'
loop_
 _atom_site_type_symbol
 _atom_site_label
 _atom_site_symmetry_multiplicity
 _atom_site_fract_x
 _atom_site_fract_y
 _atom_site_fract_z
 _atom_site_occupancy
  Sr  Sr0  1  0.05247365  0.05247365  0.25658614  1
  Sr  Sr1  1  0.82078692  0.17921308  0.50000000  1
  Sr  Sr2  1  0.17921308  0.82078692  0.50000000  1
  Sr  Sr3  1  0.16605982  0.83394018  0.00000000  1
  Sr  Sr4  1  0.83394018  0.16605982  0.00000000  1
  Sr  Sr5  1  0.94752635  0.94752635  0.74341386  1
  Li  Li6  1  0.55289721  0.18710820  0.31800902  1
  Li  Li7  1  0.44710279  0.81289180  0.68199098  1
  Li  Li8  1  0.18710820  0.55289721  0.31800902  1
  Li  Li9  1  0.40504372  0.40504372  0.08111811  1
  Li  Li10  1  0.81289180  0.44710279  0.68199098  1
  Li  Li11  1  0.59495628  0.59495628  0.91888189  1
  Ga  Ga12  1  0.18617771  0.51112095  0.81249784  1
  Ga  Ga13  1  0.51112095  0.18617771  0.81249784  1
  Ga  Ga14  1  0.81382229  0.48887905  0.18750216  1
  Ga  Ga15  1  0.60823383  0.60823383  0.41135204  1
  Ga  Ga16  1  0.39176617  0.39176617  0.58864796  1
  Ga  Ga17  1  0.48887905  0.81382229  0.18750216  1
  N  N18  1  0.86262906  0.54471555  0.34314238  1
  N  N19  1  0.25128144  0.25128144  0.89125056  1
  N  N20  1  0.85258626  0.49677363  0.85096497  1
  N  N21  1  0.74871856  0.74871856  0.10874944  1
  N  N22  1  0.54471555  0.86262906  0.34314238  1
  N  N23  1  0.13737094  0.45528445  0.65685762  1
  N  N24  1  0.50322637  0.14741374  0.14903503  1
  N  N25  1  0.49677363  0.85258626  0.85096497  1
  N  N26  1  0.28062794  0.28062794  0.43311240  1
  N  N27  1  0.71937206  0.71937206  0.56688760  1
  N  N28  1  0.14741374  0.50322637  0.14903503  1
  N  N29  1  0.45528445  0.13737094  0.65685762  1
