# generated using pymatgen
data_Ag10Te4Br3
_symmetry_space_group_name_H-M   'P 1'
_cell_length_a   11.18626628
_cell_length_b   11.18626624
_cell_length_c   13.95531255
_cell_angle_alpha   90.00000000
_cell_angle_beta   90.00000000
_cell_angle_gamma   91.31675692
_symmetry_Int_Tables_number   1
_chemical_formula_structural   Ag10Te4Br3
_chemical_formula_sum   'Ag40 Te16 Br12'
_cell_volume   1745.80275238
_cell_formula_units_Z   4
loop_
 _symmetry_equiv_pos_site_id
 _symmetry_equiv_pos_as_xyz
  1  'x, y, z'
loop_
 _atom_site_type_symbol
 _atom_site_label
 _atom_site_symmetry_multiplicity
 _atom_site_fract_x
 _atom_site_fract_y
 _atom_site_fract_z
 _atom_site_occupancy
  Ag  Ag0  1  0.83211147  0.36064782  0.60018190  1
  Ag  Ag1  1  0.37442053  0.62557947  0.75000000  1
  Ag  Ag2  1  0.84861510  0.37083396  0.13455121  1
  Ag  Ag3  1  0.84861510  0.37083396  0.36544879  1
  Ag  Ag4  1  0.39853044  0.32521697  0.14487965  1
  Ag  Ag5  1  0.32521697  0.39853044  0.64487965  1
  Ag  Ag6  1  0.93735350  0.87780040  0.25000000  1
  Ag  Ag7  1  0.16788853  0.63935218  0.39981810  1
  Ag  Ag8  1  0.63935218  0.16788853  0.89981810  1
  Ag  Ag9  1  0.85876839  0.14123161  0.25000000  1
  Ag  Ag10  1  0.36064782  0.83211147  0.10018190  1
  Ag  Ag11  1  0.17977732  0.01817484  0.57382868  1
  Ag  Ag12  1  0.98182516  0.82022268  0.92617132  1
  Ag  Ag13  1  0.39853044  0.32521697  0.35512035  1
  Ag  Ag14  1  0.36064782  0.83211147  0.39981810  1
  Ag  Ag15  1  0.15138490  0.62916604  0.63455121  1
  Ag  Ag16  1  0.62557947  0.37442053  0.25000000  1
  Ag  Ag17  1  0.82022268  0.98182516  0.07382868  1
  Ag  Ag18  1  0.12219960  0.06264650  0.25000000  1
  Ag  Ag19  1  0.14123161  0.85876839  0.75000000  1
  Ag  Ag20  1  0.37083396  0.84861510  0.86544879  1
  Ag  Ag21  1  0.01817484  0.17977732  0.07382868  1
  Ag  Ag22  1  0.62916604  0.15138490  0.36544879  1
  Ag  Ag23  1  0.98182516  0.82022268  0.57382868  1
  Ag  Ag24  1  0.87780040  0.93735350  0.75000000  1
  Ag  Ag25  1  0.37083396  0.84861510  0.63455121  1
  Ag  Ag26  1  0.60146956  0.67478303  0.85512035  1
  Ag  Ag27  1  0.15138490  0.62916604  0.86544879  1
  Ag  Ag28  1  0.32521697  0.39853044  0.85512035  1
  Ag  Ag29  1  0.16788853  0.63935218  0.10018190  1
  Ag  Ag30  1  0.17977732  0.01817484  0.92617132  1
  Ag  Ag31  1  0.62916604  0.15138490  0.13455121  1
  Ag  Ag32  1  0.82022268  0.98182516  0.42617132  1
  Ag  Ag33  1  0.67478303  0.60146956  0.14487965  1
  Ag  Ag34  1  0.63935218  0.16788853  0.60018190  1
  Ag  Ag35  1  0.06264650  0.12219960  0.75000000  1
  Ag  Ag36  1  0.67478303  0.60146956  0.35512035  1
  Ag  Ag37  1  0.01817484  0.17977732  0.42617132  1
  Ag  Ag38  1  0.83211147  0.36064782  0.89981810  1
  Ag  Ag39  1  0.60146956  0.67478303  0.64487965  1
  Te  Te40  1  0.69055586  0.95174641  0.25000000  1
  Te  Te41  1  0.29173114  0.52444173  0.25000000  1
  Te  Te42  1  0.37963020  0.62036980  0.95060465  1
  Te  Te43  1  0.88648249  0.11351751  0.90985492  1
  Te  Te44  1  0.95174641  0.69055586  0.75000000  1
  Te  Te45  1  0.04825359  0.30944414  0.25000000  1
  Te  Te46  1  0.47555827  0.70826886  0.25000000  1
  Te  Te47  1  0.30944414  0.04825359  0.75000000  1
  Te  Te48  1  0.62036980  0.37963020  0.04939535  1
  Te  Te49  1  0.52444173  0.29173114  0.75000000  1
  Te  Te50  1  0.88648249  0.11351751  0.59014508  1
  Te  Te51  1  0.37963020  0.62036980  0.54939535  1
  Te  Te52  1  0.11351751  0.88648249  0.40985492  1
  Te  Te53  1  0.11351751  0.88648249  0.09014508  1
  Te  Te54  1  0.62036980  0.37963020  0.45060465  1
  Te  Te55  1  0.70826886  0.47555827  0.75000000  1
  Br  Br56  1  0.24958349  0.24958349  0.00000000  1
  Br  Br57  1  0.89099784  0.63582826  0.25000000  1
  Br  Br58  1  0.24958349  0.24958349  0.50000000  1
  Br  Br59  1  0.75041651  0.75041651  0.00000000  1
  Br  Br60  1  0.10900216  0.36417174  0.75000000  1
  Br  Br61  1  0.00000000  0.50000000  0.00000000  1
  Br  Br62  1  0.75041651  0.75041651  0.50000000  1
  Br  Br63  1  0.36417174  0.10900216  0.25000000  1
  Br  Br64  1  0.00000000  0.50000000  0.50000000  1
  Br  Br65  1  0.63582826  0.89099784  0.75000000  1
  Br  Br66  1  0.50000000  0.00000000  0.00000000  1
  Br  Br67  1  0.50000000  0.00000000  0.50000000  1
