# generated using pymatgen
data_Ho2(Ni2B)5
_symmetry_space_group_name_H-M   'P 1'
_cell_length_a   8.96260609
_cell_length_b   9.46946597
_cell_length_c   17.56575452
_cell_angle_alpha   90.00000000
_cell_angle_beta   90.00000000
_cell_angle_gamma   90.00000000
_symmetry_Int_Tables_number   1
_chemical_formula_structural   Ho2(Ni2B)5
_chemical_formula_sum   'Ho16 Ni80 B40'
_cell_volume   1490.82479201
_cell_formula_units_Z   8
loop_
 _symmetry_equiv_pos_site_id
 _symmetry_equiv_pos_as_xyz
  1  'x, y, z'
loop_
 _atom_site_type_symbol
 _atom_site_label
 _atom_site_symmetry_multiplicity
 _atom_site_fract_x
 _atom_site_fract_y
 _atom_site_fract_z
 _atom_site_occupancy
  Ho  Ho0  1  0.78049606  0.38710996  0.02001396  1
  Ho  Ho1  1  0.71950394  0.61289004  0.52001396  1
  Ho  Ho2  1  0.62377210  0.85885034  0.22203821  1
  Ho  Ho3  1  0.21950394  0.88710996  0.47998604  1
  Ho  Ho4  1  0.21950394  0.61289004  0.97998604  1
  Ho  Ho5  1  0.78049606  0.11289004  0.52001396  1
  Ho  Ho6  1  0.37622790  0.14114966  0.77796179  1
  Ho  Ho7  1  0.37622790  0.35885034  0.27796179  1
  Ho  Ho8  1  0.87622790  0.35885034  0.22203821  1
  Ho  Ho9  1  0.12377210  0.64114966  0.77796179  1
  Ho  Ho10  1  0.28049606  0.11289004  0.97998604  1
  Ho  Ho11  1  0.87622790  0.14114966  0.72203821  1
  Ho  Ho12  1  0.71950394  0.88710996  0.02001396  1
  Ho  Ho13  1  0.12377210  0.85885034  0.27796179  1
  Ho  Ho14  1  0.28049606  0.38710996  0.47998604  1
  Ho  Ho15  1  0.62377210  0.64114966  0.72203821  1
  Ni  Ni16  1  0.83756263  0.28144428  0.87235590  1
  Ni  Ni17  1  0.37894487  0.46145846  0.72699192  1
  Ni  Ni18  1  0.04243170  0.02194345  0.59646798  1
  Ni  Ni19  1  0.09119941  0.14696196  0.84960177  1
  Ni  Ni20  1  0.41905366  0.66704417  0.46858143  1
  Ni  Ni21  1  0.23114528  0.89307488  0.86522768  1
  Ni  Ni22  1  0.62105513  0.96145846  0.77300808  1
  Ni  Ni23  1  0.37894487  0.03854154  0.22699192  1
  Ni  Ni24  1  0.04243170  0.47805655  0.09646798  1
  Ni  Ni25  1  0.07877789  0.61372026  0.51537544  1
  Ni  Ni26  1  0.62662369  0.17620135  0.26296307  1
  Ni  Ni27  1  0.26885472  0.10692512  0.36522768  1
  Ni  Ni28  1  0.32235491  0.49408705  0.13069968  1
  Ni  Ni29  1  0.67764509  0.50591295  0.86930032  1
  Ni  Ni30  1  0.40880059  0.85303804  0.34960177  1
  Ni  Ni31  1  0.59119941  0.14696196  0.65039823  1
  Ni  Ni32  1  0.08094634  0.33295583  0.96858143  1
  Ni  Ni33  1  0.16243737  0.78144428  0.62764410  1
  Ni  Ni34  1  0.66243737  0.71855572  0.37235590  1
  Ni  Ni35  1  0.76885472  0.39307488  0.63477232  1
  Ni  Ni36  1  0.12105513  0.53854154  0.22699192  1
  Ni  Ni37  1  0.17764509  0.50591295  0.63069968  1
  Ni  Ni38  1  0.66243737  0.78144428  0.87235590  1
  Ni  Ni39  1  0.91905366  0.83295583  0.53141857  1
  Ni  Ni40  1  0.57877789  0.88627974  0.48462456  1
  Ni  Ni41  1  0.95644299  0.71846855  0.40144130  1
  Ni  Ni42  1  0.04355701  0.21846855  0.09855870  1
  Ni  Ni43  1  0.37337631  0.82379865  0.73703693  1
  Ni  Ni44  1  0.23114528  0.60692512  0.36522768  1
  Ni  Ni45  1  0.54355701  0.21846855  0.40144130  1
  Ni  Ni46  1  0.45756830  0.97805655  0.09646798  1
  Ni  Ni47  1  0.45644299  0.71846855  0.09855870  1
  Ni  Ni48  1  0.45756830  0.52194345  0.59646798  1
  Ni  Ni49  1  0.33756263  0.28144428  0.62764410  1
  Ni  Ni50  1  0.40880059  0.64696196  0.84960177  1
  Ni  Ni51  1  0.82235491  0.00591295  0.86930032  1
  Ni  Ni52  1  0.07877789  0.88627974  0.01537544  1
  Ni  Ni53  1  0.87337631  0.67620135  0.26296307  1
  Ni  Ni54  1  0.54243170  0.02194345  0.90353202  1
  Ni  Ni55  1  0.16243737  0.71855572  0.12764410  1
  Ni  Ni56  1  0.12105513  0.96145846  0.72699192  1
  Ni  Ni57  1  0.32235491  0.00591295  0.63069968  1
  Ni  Ni58  1  0.87894487  0.03854154  0.27300808  1
  Ni  Ni59  1  0.91905366  0.66704417  0.03141857  1
  Ni  Ni60  1  0.58094634  0.16704417  0.03141857  1
  Ni  Ni61  1  0.54355701  0.28153145  0.90144130  1
  Ni  Ni62  1  0.12662369  0.32379865  0.73703693  1
  Ni  Ni63  1  0.62105513  0.53854154  0.27300808  1
  Ni  Ni64  1  0.08094634  0.16704417  0.46858143  1
  Ni  Ni65  1  0.76885472  0.10692512  0.13477232  1
  Ni  Ni66  1  0.67764509  0.99408705  0.36930032  1
  Ni  Ni67  1  0.37337631  0.67620135  0.23703693  1
  Ni  Ni68  1  0.95644299  0.78153145  0.90144130  1
  Ni  Ni69  1  0.17764509  0.99408705  0.13069968  1
  Ni  Ni70  1  0.33756263  0.21855572  0.12764410  1
  Ni  Ni71  1  0.92122211  0.11372026  0.98462456  1
  Ni  Ni72  1  0.54243170  0.47805655  0.40353202  1
  Ni  Ni73  1  0.58094634  0.33295583  0.53141857  1
  Ni  Ni74  1  0.90880059  0.85303804  0.15039823  1
  Ni  Ni75  1  0.62662369  0.32379865  0.76296307  1
  Ni  Ni76  1  0.42122211  0.38627974  0.01537544  1
  Ni  Ni77  1  0.73114528  0.89307488  0.63477232  1
  Ni  Ni78  1  0.45644299  0.78153145  0.59855870  1
  Ni  Ni79  1  0.92122211  0.38627974  0.48462456  1
  Ni  Ni80  1  0.87337631  0.82379865  0.76296307  1
  Ni  Ni81  1  0.90880059  0.64696196  0.65039823  1
  Ni  Ni82  1  0.57877789  0.61372026  0.98462456  1
  Ni  Ni83  1  0.09119941  0.35303804  0.34960177  1
  Ni  Ni84  1  0.95756830  0.97805655  0.40353202  1
  Ni  Ni85  1  0.87894487  0.46145846  0.77300808  1
  Ni  Ni86  1  0.82235491  0.49408705  0.36930032  1
  Ni  Ni87  1  0.73114528  0.60692512  0.13477232  1
  Ni  Ni88  1  0.95756830  0.52194345  0.90353202  1
  Ni  Ni89  1  0.42122211  0.11372026  0.51537544  1
  Ni  Ni90  1  0.83756263  0.21855572  0.37235590  1
  Ni  Ni91  1  0.59119941  0.35303804  0.15039823  1
  Ni  Ni92  1  0.04355701  0.28153145  0.59855870  1
  Ni  Ni93  1  0.41905366  0.83295583  0.96858143  1
  Ni  Ni94  1  0.12662369  0.17620135  0.23703693  1
  Ni  Ni95  1  0.26885472  0.39307488  0.86522768  1
  B  B96  1  0.66656173  0.35081879  0.33294235  1
  B  B97  1  0.52324074  0.56336187  0.17663591  1
  B  B98  1  0.04635433  0.35764594  0.84440711  1
  B  B99  1  0.78721724  0.85223168  0.43905039  1
  B  B100  1  0.03866503  0.98199861  0.91806645  1
  B  B101  1  0.97675926  0.06336187  0.17663591  1
  B  B102  1  0.16656173  0.35081879  0.16705765  1
  B  B103  1  0.03866503  0.51800139  0.41806645  1
  B  B104  1  0.54635433  0.35764594  0.65559289  1
  B  B105  1  0.21278276  0.35223168  0.06094961  1
  B  B106  1  0.16656173  0.14918121  0.66705765  1
  B  B107  1  0.78721724  0.64776832  0.93905039  1
  B  B108  1  0.53866503  0.98199861  0.58193355  1
  B  B109  1  0.21278276  0.14776832  0.56094961  1
  B  B110  1  0.66656173  0.14918121  0.83294235  1
  B  B111  1  0.95364567  0.85764594  0.65559289  1
  B  B112  1  0.02324074  0.93663813  0.82336409  1
  B  B113  1  0.83343827  0.85081879  0.33294235  1
  B  B114  1  0.45364567  0.85764594  0.84440711  1
  B  B115  1  0.46133497  0.01800139  0.41806645  1
  B  B116  1  0.71278276  0.35223168  0.43905039  1
  B  B117  1  0.96133497  0.48199861  0.58193355  1
  B  B118  1  0.33343827  0.85081879  0.16705765  1
  B  B119  1  0.95364567  0.64235406  0.15559289  1
  B  B120  1  0.47675926  0.06336187  0.32336409  1
  B  B121  1  0.46133497  0.48199861  0.91806645  1
  B  B122  1  0.28721724  0.85223168  0.06094961  1
  B  B123  1  0.83343827  0.64918121  0.83294235  1
  B  B124  1  0.04635433  0.14235406  0.34440711  1
  B  B125  1  0.54635433  0.14235406  0.15559289  1
  B  B126  1  0.47675926  0.43663813  0.82336409  1
  B  B127  1  0.53866503  0.51800139  0.08193355  1
  B  B128  1  0.52324074  0.93663813  0.67663591  1
  B  B129  1  0.96133497  0.01800139  0.08193355  1
  B  B130  1  0.97675926  0.43663813  0.67663591  1
  B  B131  1  0.45364567  0.64235406  0.34440711  1
  B  B132  1  0.28721724  0.64776832  0.56094961  1
  B  B133  1  0.33343827  0.64918121  0.66705765  1
  B  B134  1  0.02324074  0.56336187  0.32336409  1
  B  B135  1  0.71278276  0.14776832  0.93905039  1
