# generated using pymatgen
data_EuCu9Sn4
_symmetry_space_group_name_H-M   'P 1'
_cell_length_a   8.66980675
_cell_length_b   8.66980675
_cell_length_c   8.74233965
_cell_angle_alpha   119.72592539
_cell_angle_beta   119.72592547
_cell_angle_gamma   89.99999901
_symmetry_Int_Tables_number   1
_chemical_formula_structural   EuCu9Sn4
_chemical_formula_sum   'Eu2 Cu18 Sn8'
_cell_volume   468.47934328
_cell_formula_units_Z   2
loop_
 _symmetry_equiv_pos_site_id
 _symmetry_equiv_pos_as_xyz
  1  'x, y, z'
loop_
 _atom_site_type_symbol
 _atom_site_label
 _atom_site_symmetry_multiplicity
 _atom_site_fract_x
 _atom_site_fract_y
 _atom_site_fract_z
 _atom_site_occupancy
  Eu  Eu0  1  0.75000000  0.75000000  0.50000000  1
  Eu  Eu1  1  0.25000000  0.25000000  0.50000000  1
  Cu  Cu2  1  0.71789748  0.43438893  0.65228640  1
  Cu  Cu3  1  0.79874679  0.05491543  0.00000000  1
  Cu  Cu4  1  0.20125321  0.94508457  1.00000000  1
  Cu  Cu5  1  0.78210252  0.28210252  0.34771360  1
  Cu  Cu6  1  0.28210252  0.56561107  0.34771360  1
  Cu  Cu7  1  0.94508457  0.79874679  1.00000000  1
  Cu  Cu8  1  0.29874679  0.44508457  1.00000000  1
  Cu  Cu9  1  0.93438893  0.21789748  0.65228640  1
  Cu  Cu10  1  0.55491543  0.29874679  0.00000000  1
  Cu  Cu11  1  0.21789748  0.71789748  0.65228640  1
  Cu  Cu12  1  0.50000000  0.00000000  0.00000000  1
  Cu  Cu13  1  0.05491543  0.20125321  0.00000000  1
  Cu  Cu14  1  0.43438893  0.93438893  0.65228640  1
  Cu  Cu15  1  0.44508457  0.70125321  1.00000000  1
  Cu  Cu16  1  0.56561107  0.06561107  0.34771360  1
  Cu  Cu17  1  0.70125321  0.55491543  0.00000000  1
  Cu  Cu18  1  0.00000000  0.50000000  0.00000000  1
  Cu  Cu19  1  0.06561107  0.78210252  0.34771360  1
  Sn  Sn20  1  0.55904703  0.68795469  0.74700172  1
  Sn  Sn21  1  0.81204531  0.94095297  0.25299828  1
  Sn  Sn22  1  0.68795469  0.18795469  0.74700172  1
  Sn  Sn23  1  0.05904703  0.55904703  0.74700172  1
  Sn  Sn24  1  0.94095297  0.44095297  0.25299828  1
  Sn  Sn25  1  0.31204531  0.81204531  0.25299828  1
  Sn  Sn26  1  0.44095297  0.31204531  0.25299828  1
  Sn  Sn27  1  0.18795469  0.05904703  0.74700172  1
