# generated using pymatgen
data_BiPd2Pb
_symmetry_space_group_name_H-M   'P 1'
_cell_length_a   5.75428952
_cell_length_b   5.75428955
_cell_length_c   10.73242961
_cell_angle_alpha   90.00000000
_cell_angle_beta   90.00000000
_cell_angle_gamma   101.01700175
_symmetry_Int_Tables_number   1
_chemical_formula_structural   BiPd2Pb
_chemical_formula_sum   'Bi4 Pd8 Pb4'
_cell_volume   348.82128320
_cell_formula_units_Z   4
loop_
 _symmetry_equiv_pos_site_id
 _symmetry_equiv_pos_as_xyz
  1  'x, y, z'
loop_
 _atom_site_type_symbol
 _atom_site_label
 _atom_site_symmetry_multiplicity
 _atom_site_fract_x
 _atom_site_fract_y
 _atom_site_fract_z
 _atom_site_occupancy
  Bi  Bi0  1  0.84807278  0.39618271  0.28682491  1
  Bi  Bi1  1  0.15192722  0.60381729  0.78682491  1
  Bi  Bi2  1  0.39618271  0.84807278  0.28682491  1
  Bi  Bi3  1  0.60381729  0.15192722  0.78682491  1
  Pd  Pd4  1  0.86588993  0.37551616  0.56539669  1
  Pd  Pd5  1  0.91715169  0.91715169  0.23178489  1
  Pd  Pd6  1  0.13411007  0.62448384  0.06539669  1
  Pd  Pd7  1  0.67306441  0.67306441  0.73729257  1
  Pd  Pd8  1  0.32693559  0.32693559  0.23729257  1
  Pd  Pd9  1  0.62448384  0.13411007  0.06539669  1
  Pd  Pd10  1  0.08284831  0.08284831  0.73178489  1
  Pd  Pd11  1  0.37551616  0.86588993  0.56539669  1
  Pb  Pb12  1  0.12233224  0.12233224  1.00059892  1
  Pb  Pb13  1  0.36339569  0.36339569  0.50988041  1
  Pb  Pb14  1  0.63660431  0.63660431  0.00988041  1
  Pb  Pb15  1  0.87766776  0.87766776  0.50059892  1
