# generated using pymatgen
data_Ce3Si11Pt23
_symmetry_space_group_name_H-M   'P 1'
_cell_length_a   12.06293689
_cell_length_b   12.06293613
_cell_length_c   12.06293697
_cell_angle_alpha   60.00000058
_cell_angle_beta   60.00000264
_cell_angle_gamma   60.00000137
_symmetry_Int_Tables_number   1
_chemical_formula_structural   Ce3Si11Pt23
_chemical_formula_sum   'Ce6 Si22 Pt46'
_cell_volume   1241.20683877
_cell_formula_units_Z   2
loop_
 _symmetry_equiv_pos_site_id
 _symmetry_equiv_pos_as_xyz
  1  'x, y, z'
loop_
 _atom_site_type_symbol
 _atom_site_label
 _atom_site_symmetry_multiplicity
 _atom_site_fract_x
 _atom_site_fract_y
 _atom_site_fract_z
 _atom_site_occupancy
  Ce  Ce0  1  0.50000000  0.00000000  0.00000000  1
  Ce  Ce1  1  0.50000000  0.00000000  0.50000000  1
  Ce  Ce2  1  0.00000000  0.00000000  0.50000000  1
  Ce  Ce3  1  0.00000000  0.50000000  0.00000000  1
  Ce  Ce4  1  0.50000000  0.50000000  0.00000000  1
  Ce  Ce5  1  0.00000000  0.50000000  0.50000000  1
  Si  Si6  1  0.83436295  0.49691115  0.83436295  1
  Si  Si7  1  0.50308885  0.16563705  0.16563705  1
  Si  Si8  1  0.17054762  0.82945238  0.82945238  1
  Si  Si9  1  0.83436295  0.83436295  0.83436295  1
  Si  Si10  1  0.60631606  0.18105183  0.60631606  1
  Si  Si11  1  0.83436295  0.83436295  0.49691115  1
  Si  Si12  1  0.17054762  0.82945238  0.17054762  1
  Si  Si13  1  0.39368394  0.39368394  0.81894817  1
  Si  Si14  1  0.18105183  0.60631606  0.60631606  1
  Si  Si15  1  0.82945238  0.17054762  0.17054762  1
  Si  Si16  1  0.17054762  0.17054762  0.82945238  1
  Si  Si17  1  0.60631606  0.60631606  0.60631606  1
  Si  Si18  1  0.82945238  0.82945238  0.17054762  1
  Si  Si19  1  0.16563705  0.50308885  0.16563705  1
  Si  Si20  1  0.82945238  0.17054762  0.82945238  1
  Si  Si21  1  0.49691115  0.83436295  0.83436295  1
  Si  Si22  1  0.39368394  0.81894817  0.39368394  1
  Si  Si23  1  0.81894817  0.39368394  0.39368394  1
  Si  Si24  1  0.60631606  0.60631606  0.18105183  1
  Si  Si25  1  0.16563705  0.16563705  0.16563705  1
  Si  Si26  1  0.16563705  0.16563705  0.50308885  1
  Si  Si27  1  0.39368394  0.39368394  0.39368394  1
  Pt  Pt28  1  0.62573289  0.37426711  0.37426711  1
  Pt  Pt29  1  0.08313304  0.74806458  0.42073779  1
  Pt  Pt30  1  0.57926221  0.25193542  0.91686696  1
  Pt  Pt31  1  0.25193542  0.91686696  0.25193542  1
  Pt  Pt32  1  0.24922799  0.91692400  0.91692400  1
  Pt  Pt33  1  0.08313304  0.42073779  0.74806458  1
  Pt  Pt34  1  0.37426711  0.62573289  0.37426711  1
  Pt  Pt35  1  0.74806458  0.08313304  0.74806458  1
  Pt  Pt36  1  0.91686696  0.25193542  0.57926221  1
  Pt  Pt37  1  0.57926221  0.25193542  0.25193542  1
  Pt  Pt38  1  0.74806458  0.42073779  0.08313304  1
  Pt  Pt39  1  0.08313304  0.74806458  0.74806458  1
  Pt  Pt40  1  0.25193542  0.91686696  0.57926221  1
  Pt  Pt41  1  0.57926221  0.91686696  0.25193542  1
  Pt  Pt42  1  0.75077201  0.08307600  0.08307600  1
  Pt  Pt43  1  0.91692400  0.91692400  0.91692400  1
  Pt  Pt44  1  0.62573289  0.62573289  0.37426711  1
  Pt  Pt45  1  0.07421979  0.30859340  0.30859340  1
  Pt  Pt46  1  0.30859340  0.30859340  0.30859340  1
  Pt  Pt47  1  0.91686696  0.25193542  0.25193542  1
  Pt  Pt48  1  0.91692400  0.24922799  0.91692400  1
  Pt  Pt49  1  0.25193542  0.25193542  0.57926221  1
  Pt  Pt50  1  0.08307600  0.75077201  0.08307600  1
  Pt  Pt51  1  0.91686696  0.57926221  0.25193542  1
  Pt  Pt52  1  0.69140660  0.69140660  0.69140660  1
  Pt  Pt53  1  0.30859340  0.07421979  0.30859340  1
  Pt  Pt54  1  0.74806458  0.42073779  0.74806458  1
  Pt  Pt55  1  0.25193542  0.57926221  0.25193542  1
  Pt  Pt56  1  0.92578021  0.69140660  0.69140660  1
  Pt  Pt57  1  0.91692400  0.91692400  0.24922799  1
  Pt  Pt58  1  0.25193542  0.57926221  0.91686696  1
  Pt  Pt59  1  0.74806458  0.08313304  0.42073779  1
  Pt  Pt60  1  0.08307600  0.08307600  0.08307600  1
  Pt  Pt61  1  0.08307600  0.08307600  0.75077201  1
  Pt  Pt62  1  0.74806458  0.74806458  0.42073779  1
  Pt  Pt63  1  0.37426711  0.37426711  0.62573289  1
  Pt  Pt64  1  0.42073779  0.74806458  0.74806458  1
  Pt  Pt65  1  0.42073779  0.08313304  0.74806458  1
  Pt  Pt66  1  0.37426711  0.62573289  0.62573289  1
  Pt  Pt67  1  0.30859340  0.30859340  0.07421979  1
  Pt  Pt68  1  0.69140660  0.69140660  0.92578021  1
  Pt  Pt69  1  0.25193542  0.25193542  0.91686696  1
  Pt  Pt70  1  0.69140660  0.92578021  0.69140660  1
  Pt  Pt71  1  0.62573289  0.37426711  0.62573289  1
  Pt  Pt72  1  0.42073779  0.74806458  0.08313304  1
  Pt  Pt73  1  0.74806458  0.74806458  0.08313304  1
