# generated using pymatgen
data_Sm2(CN2)3
_symmetry_space_group_name_H-M   'P 1'
_cell_length_a   3.92772891
_cell_length_b   5.31056730
_cell_length_c   7.61573618
_cell_angle_alpha   96.10816199
_cell_angle_beta   104.94367661
_cell_angle_gamma   90.00000073
_symmetry_Int_Tables_number   1
_chemical_formula_structural   Sm2(CN2)3
_chemical_formula_sum   'Sm2 C3 N6'
_cell_volume   152.54656958
_cell_formula_units_Z   1
loop_
 _symmetry_equiv_pos_site_id
 _symmetry_equiv_pos_as_xyz
  1  'x, y, z'
loop_
 _atom_site_type_symbol
 _atom_site_label
 _atom_site_symmetry_multiplicity
 _atom_site_fract_x
 _atom_site_fract_y
 _atom_site_fract_z
 _atom_site_occupancy
  Sm  Sm0  1  0.86547349  0.92885808  0.73094697  1
  Sm  Sm1  1  0.13452651  0.07114192  0.26905303  1
  C  C2  1  0.32794562  0.40613476  0.65589125  1
  C  C3  1  0.67205438  0.59386524  0.34410875  1
  C  C4  1  0.00000000  0.50000000  0.00000000  1
  N  N5  1  0.98908663  0.26649487  0.97817326  1
  N  N6  1  0.68952752  0.82951268  0.37905504  1
  N  N7  1  0.65756536  0.36326926  0.31513072  1
  N  N8  1  0.01091337  0.73350513  0.02182674  1
  N  N9  1  0.31047248  0.17048732  0.62094496  1
  N  N10  1  0.34243464  0.63673074  0.68486928  1
