# generated using pymatgen
data_Tb2(GePt3)3
_symmetry_space_group_name_H-M   'P 1'
_cell_length_a   7.84562284
_cell_length_b   7.84562351
_cell_length_c   10.09923503
_cell_angle_alpha   90.36256837
_cell_angle_beta   112.54098506
_cell_angle_gamma   119.89397733
_symmetry_Int_Tables_number   1
_chemical_formula_structural   Tb2(GePt3)3
_chemical_formula_sum   'Tb4 Ge6 Pt18'
_cell_volume   482.40314682
_cell_formula_units_Z   2
loop_
 _symmetry_equiv_pos_site_id
 _symmetry_equiv_pos_as_xyz
  1  'x, y, z'
loop_
 _atom_site_type_symbol
 _atom_site_label
 _atom_site_symmetry_multiplicity
 _atom_site_fract_x
 _atom_site_fract_y
 _atom_site_fract_z
 _atom_site_occupancy
  Tb  Tb0  1  0.49637708  0.58450427  0.25090268  1
  Tb  Tb1  1  0.50362292  0.41549573  0.74909732  1
  Tb  Tb2  1  0.16639841  0.75452561  0.75090268  1
  Tb  Tb3  1  0.83360159  0.24547439  0.24909732  1
  Ge  Ge4  1  0.67913133  0.36114206  0.49734693  1
  Ge  Ge5  1  0.63620487  0.81821560  0.99734693  1
  Ge  Ge6  1  0.00000000  0.50000000  0.00000000  1
  Ge  Ge7  1  0.32086867  0.63885794  0.50265307  1
  Ge  Ge8  1  0.36379513  0.18178440  0.00265307  1
  Ge  Ge9  1  0.00000000  0.00000000  0.50000000  1
  Pt  Pt10  1  0.38297441  0.13297441  0.25000000  1
  Pt  Pt11  1  0.28113270  0.47747690  0.92216689  1
  Pt  Pt12  1  0.61546128  0.14054622  0.91998538  1
  Pt  Pt13  1  0.94560557  0.91361353  0.24184146  1
  Pt  Pt14  1  0.27943916  0.30452410  0.41998538  1
  Pt  Pt15  1  0.05402705  0.20190950  0.07676301  1
  Pt  Pt16  1  0.38453872  0.85945378  0.08001462  1
  Pt  Pt17  1  0.71886730  0.52252310  0.07783311  1
  Pt  Pt18  1  0.17177207  0.70376411  0.25815854  1
  Pt  Pt19  1  0.82822793  0.29623589  0.74184146  1
  Pt  Pt20  1  0.37485350  0.02273595  0.57676301  1
  Pt  Pt21  1  0.94468999  0.64103420  0.42216689  1
  Pt  Pt22  1  0.72056084  0.69547590  0.58001462  1
  Pt  Pt23  1  0.05439443  0.08638647  0.75815854  1
  Pt  Pt24  1  0.94597295  0.79809050  0.92323699  1
  Pt  Pt25  1  0.61702559  0.86702559  0.75000000  1
  Pt  Pt26  1  0.05531001  0.35896580  0.57783311  1
  Pt  Pt27  1  0.62514650  0.97726405  0.42323699  1
