# generated using pymatgen
data_Yb5(AlSb3)2
_symmetry_space_group_name_H-M   'P 1'
_cell_length_a   4.44039385
_cell_length_b   7.37470171
_cell_length_c   23.10434672
_cell_angle_alpha   90.00000000
_cell_angle_beta   90.00000000
_cell_angle_gamma   90.00000000
_symmetry_Int_Tables_number   1
_chemical_formula_structural   Yb5(AlSb3)2
_chemical_formula_sum   'Yb10 Al4 Sb12'
_cell_volume   756.58834096
_cell_formula_units_Z   2
loop_
 _symmetry_equiv_pos_site_id
 _symmetry_equiv_pos_as_xyz
  1  'x, y, z'
loop_
 _atom_site_type_symbol
 _atom_site_label
 _atom_site_symmetry_multiplicity
 _atom_site_fract_x
 _atom_site_fract_y
 _atom_site_fract_z
 _atom_site_occupancy
  Yb  Yb0  1  0.00000000  0.45168709  0.90985832  1
  Yb  Yb1  1  0.00000000  0.26708506  0.74687189  1
  Yb  Yb2  1  0.00000000  0.76708506  0.75312811  1
  Yb  Yb3  1  0.00000000  0.54831291  0.09014168  1
  Yb  Yb4  1  0.00000000  0.95168709  0.59014168  1
  Yb  Yb5  1  0.00000000  0.00000000  0.00000000  1
  Yb  Yb6  1  0.00000000  0.73291494  0.25312811  1
  Yb  Yb7  1  0.00000000  0.04831291  0.40985832  1
  Yb  Yb8  1  0.00000000  0.50000000  0.50000000  1
  Yb  Yb9  1  0.00000000  0.23291494  0.24687189  1
  Al  Al10  1  0.50000000  0.81384526  0.87821365  1
  Al  Al11  1  0.50000000  0.18615474  0.12178635  1
  Al  Al12  1  0.50000000  0.68615474  0.37821365  1
  Al  Al13  1  0.50000000  0.31384526  0.62178635  1
  Sb  Sb14  1  0.50000000  0.80370711  0.49473775  1
  Sb  Sb15  1  0.00000000  0.47377223  0.36445482  1
  Sb  Sb16  1  0.00000000  0.97377223  0.13554518  1
  Sb  Sb17  1  0.50000000  0.51212835  0.81173869  1
  Sb  Sb18  1  0.50000000  0.48787165  0.18826131  1
  Sb  Sb19  1  0.00000000  0.02622777  0.86445482  1
  Sb  Sb20  1  0.00000000  0.52622777  0.63554518  1
  Sb  Sb21  1  0.50000000  0.98787165  0.31173869  1
  Sb  Sb22  1  0.50000000  0.19629289  0.50526225  1
  Sb  Sb23  1  0.50000000  0.01212835  0.68826131  1
  Sb  Sb24  1  0.50000000  0.30370711  0.00526225  1
  Sb  Sb25  1  0.50000000  0.69629289  0.99473775  1
