# generated using pymatgen
data_Ag5Hg4P8Cl5
_symmetry_space_group_name_H-M   'P 1'
_cell_length_a   6.36098080
_cell_length_b   9.20537731
_cell_length_c   9.20537692
_cell_angle_alpha   74.55610864
_cell_angle_beta   79.22837412
_cell_angle_gamma   79.22837181
_symmetry_Int_Tables_number   1
_chemical_formula_structural   Ag5Hg4P8Cl5
_chemical_formula_sum   'Ag5 Hg4 P8 Cl5'
_cell_volume   505.02480438
_cell_formula_units_Z   1
loop_
 _symmetry_equiv_pos_site_id
 _symmetry_equiv_pos_as_xyz
  1  'x, y, z'
loop_
 _atom_site_type_symbol
 _atom_site_label
 _atom_site_symmetry_multiplicity
 _atom_site_fract_x
 _atom_site_fract_y
 _atom_site_fract_z
 _atom_site_occupancy
  Ag  Ag0  1  0.00000000  0.85347749  0.14652251  1
  Ag  Ag1  1  0.05466126  0.20449556  0.20449556  1
  Ag  Ag2  1  0.94533874  0.79550444  0.79550444  1
  Ag  Ag3  1  1.00000000  0.14652251  0.85347749  1
  Ag  Ag4  1  0.00000000  0.50000000  0.50000000  1
  Hg  Hg5  1  0.53297633  0.51786390  0.17491576  1
  Hg  Hg6  1  0.46702367  0.48213610  0.82508424  1
  Hg  Hg7  1  0.53297633  0.17491576  0.51786390  1
  Hg  Hg8  1  0.46702367  0.82508424  0.48213610  1
  P  P9  1  0.59968649  0.90151503  0.20384469  1
  P  P10  1  0.40031351  0.79615531  0.09848497  1
  P  P11  1  0.44574522  0.14175851  0.14175851  1
  P  P12  1  0.59968649  0.20384469  0.90151503  1
  P  P13  1  0.65883879  0.24036409  0.24036409  1
  P  P14  1  0.55425478  0.85824149  0.85824149  1
  P  P15  1  0.40031351  0.09848497  0.79615531  1
  P  P16  1  0.34116121  0.75963591  0.75963591  1
  Cl  Cl17  1  0.97696332  0.80357041  0.47370760  1
  Cl  Cl18  1  0.02303668  0.19642959  0.52629240  1
  Cl  Cl19  1  0.02303668  0.52629240  0.19642959  1
  Cl  Cl20  1  0.97696332  0.47370760  0.80357041  1
  Cl  Cl21  1  0.50000000  0.50000000  0.50000000  1
