# generated using pymatgen
data_SrHg2
_symmetry_space_group_name_H-M   'P 1'
_cell_length_a   5.16126069
_cell_length_b   6.43806061
_cell_length_c   6.43806108
_cell_angle_alpha   76.26010600
_cell_angle_beta   66.36931822
_cell_angle_gamma   66.36931647
_symmetry_Int_Tables_number   1
_chemical_formula_structural   SrHg2
_chemical_formula_sum   'Sr2 Hg4'
_cell_volume   178.80088863
_cell_formula_units_Z   2
loop_
 _symmetry_equiv_pos_site_id
 _symmetry_equiv_pos_as_xyz
  1  'x, y, z'
loop_
 _atom_site_type_symbol
 _atom_site_label
 _atom_site_symmetry_multiplicity
 _atom_site_fract_x
 _atom_site_fract_y
 _atom_site_fract_z
 _atom_site_occupancy
  Sr  Sr0  1  0.45995148  0.29004852  0.79004852  1
  Sr  Sr1  1  0.54004852  0.70995148  0.20995148  1
  Hg  Hg2  1  0.83405824  0.71183881  0.62004471  1
  Hg  Hg3  1  0.16594176  0.87995529  0.78816119  1
  Hg  Hg4  1  0.83405824  0.12004471  0.21183881  1
  Hg  Hg5  1  0.16594176  0.28816119  0.37995529  1
