# generated using pymatgen
data_Pr2Ni2I
_symmetry_space_group_name_H-M   'P 1'
_cell_length_a   4.08974189
_cell_length_b   4.08974213
_cell_length_c   17.53737831
_cell_angle_alpha   90.00000000
_cell_angle_beta   90.00000000
_cell_angle_gamma   119.99999799
_symmetry_Int_Tables_number   1
_chemical_formula_structural   Pr2Ni2I
_chemical_formula_sum   'Pr4 Ni4 I2'
_cell_volume   254.03124465
_cell_formula_units_Z   2
loop_
 _symmetry_equiv_pos_site_id
 _symmetry_equiv_pos_as_xyz
  1  'x, y, z'
loop_
 _atom_site_type_symbol
 _atom_site_label
 _atom_site_symmetry_multiplicity
 _atom_site_fract_x
 _atom_site_fract_y
 _atom_site_fract_z
 _atom_site_occupancy
  Pr  Pr0  1  0.00000000  0.00000000  0.60572966  1
  Pr  Pr1  1  0.00000000  0.00000000  0.39427034  1
  Pr  Pr2  1  0.00000000  0.00000000  0.10572966  1
  Pr  Pr3  1  0.00000000  0.00000000  0.89427034  1
  Ni  Ni4  1  0.66666700  0.33333300  0.50073673  1
  Ni  Ni5  1  0.33333300  0.66666700  0.00073673  1
  Ni  Ni6  1  0.66666700  0.33333300  0.99926327  1
  Ni  Ni7  1  0.33333300  0.66666700  0.49926327  1
  I  I8  1  0.66666700  0.33333300  0.25000000  1
  I  I9  1  0.33333300  0.66666700  0.75000000  1
