# generated using pymatgen
data_Sr2SnSe5
_symmetry_space_group_name_H-M   'P 1'
_cell_length_a   8.74402387
_cell_length_b   12.25456058
_cell_length_c   16.78449890
_cell_angle_alpha   90.00000000
_cell_angle_beta   90.00000000
_cell_angle_gamma   90.00000000
_symmetry_Int_Tables_number   1
_chemical_formula_structural   Sr2SnSe5
_chemical_formula_sum   'Sr16 Sn8 Se40'
_cell_volume   1798.52905232
_cell_formula_units_Z   8
loop_
 _symmetry_equiv_pos_site_id
 _symmetry_equiv_pos_as_xyz
  1  'x, y, z'
loop_
 _atom_site_type_symbol
 _atom_site_label
 _atom_site_symmetry_multiplicity
 _atom_site_fract_x
 _atom_site_fract_y
 _atom_site_fract_z
 _atom_site_occupancy
  Sr  Sr0  1  0.24176089  0.25452942  0.43020257  1
  Sr  Sr1  1  0.25592229  0.61505363  0.82142698  1
  Sr  Sr2  1  0.75881367  0.38251997  0.17935999  1
  Sr  Sr3  1  0.74407771  0.11505363  0.67857302  1
  Sr  Sr4  1  0.24118633  0.11748003  0.67935999  1
  Sr  Sr5  1  0.75881367  0.61748003  0.82064001  1
  Sr  Sr6  1  0.74407771  0.88494637  0.32142698  1
  Sr  Sr7  1  0.73957563  0.74674083  0.57041895  1
  Sr  Sr8  1  0.75823911  0.75452942  0.06979743  1
  Sr  Sr9  1  0.24176089  0.74547058  0.56979743  1
  Sr  Sr10  1  0.75823911  0.24547058  0.93020257  1
  Sr  Sr11  1  0.26042437  0.75325917  0.07041895  1
  Sr  Sr12  1  0.73957563  0.25325917  0.42958105  1
  Sr  Sr13  1  0.25592229  0.38494637  0.17857302  1
  Sr  Sr14  1  0.26042437  0.24674083  0.92958105  1
  Sr  Sr15  1  0.24118633  0.88251997  0.32064001  1
  Sn  Sn16  1  0.01576643  0.09190736  0.17416307  1
  Sn  Sn17  1  0.98423357  0.40809264  0.67416307  1
  Sn  Sn18  1  0.49577260  0.05325212  0.10417076  1
  Sn  Sn19  1  0.50422740  0.55325212  0.39582924  1
  Sn  Sn20  1  0.98423357  0.59190736  0.32583693  1
  Sn  Sn21  1  0.49577260  0.94674788  0.89582924  1
  Sn  Sn22  1  0.50422740  0.44674788  0.60417076  1
  Sn  Sn23  1  0.01576643  0.90809264  0.82583693  1
  Se  Se24  1  0.28269822  0.87128843  0.76247068  1
  Se  Se25  1  0.98598257  0.93765490  0.60844297  1
  Se  Se26  1  0.01401743  0.56234510  0.10844297  1
  Se  Se27  1  0.51441831  0.74067687  0.92724534  1
  Se  Se28  1  0.49442129  0.36938035  0.31844585  1
  Se  Se29  1  0.01287357  0.24685878  0.07040400  1
  Se  Se30  1  0.98712643  0.25314122  0.57040400  1
  Se  Se31  1  0.28269822  0.12871157  0.23752932  1
  Se  Se32  1  0.23088574  0.63251981  0.24886678  1
  Se  Se33  1  0.48558169  0.75932313  0.42724534  1
  Se  Se34  1  0.65248909  0.00000000  0.50000000  1
  Se  Se35  1  0.48684707  0.05806976  0.39022538  1
  Se  Se36  1  0.15711749  0.00000000  0.50000000  1
  Se  Se37  1  0.98598257  0.06234510  0.39155703  1
  Se  Se38  1  0.99445390  0.61930923  0.67496909  1
  Se  Se39  1  0.84288251  0.50000000  0.00000000  1
  Se  Se40  1  0.27789684  0.50000000  0.50000000  1
  Se  Se41  1  0.00554610  0.11930923  0.82503091  1
  Se  Se42  1  0.51315293  0.44193024  0.89022538  1
  Se  Se43  1  0.99445390  0.38069077  0.32503091  1
  Se  Se44  1  0.49442129  0.63061965  0.68155415  1
  Se  Se45  1  0.72378652  0.50000000  0.50000000  1
  Se  Se46  1  0.51315293  0.55806976  0.10977462  1
  Se  Se47  1  0.50557871  0.86938035  0.18155415  1
  Se  Se48  1  0.50557871  0.13061965  0.81844585  1
  Se  Se49  1  0.48558169  0.24067687  0.57275466  1
  Se  Se50  1  0.48684707  0.94193024  0.60977462  1
  Se  Se51  1  0.01401743  0.43765490  0.89155703  1
  Se  Se52  1  0.01287357  0.75314122  0.92959600  1
  Se  Se53  1  0.00554610  0.88069077  0.17496909  1
  Se  Se54  1  0.34751091  0.50000000  0.00000000  1
  Se  Se55  1  0.76911426  0.13251981  0.25113322  1
  Se  Se56  1  0.51441831  0.25932313  0.07275466  1
  Se  Se57  1  0.72210316  0.00000000  0.00000000  1
  Se  Se58  1  0.71730178  0.37128843  0.73752932  1
  Se  Se59  1  0.76911426  0.86748019  0.74886678  1
  Se  Se60  1  0.71730178  0.62871157  0.26247068  1
  Se  Se61  1  0.98712643  0.74685878  0.42959600  1
  Se  Se62  1  0.23088574  0.36748019  0.75113322  1
  Se  Se63  1  0.27621348  0.00000000  0.00000000  1
