# generated using pymatgen
data_PrMg2Ni9
_symmetry_space_group_name_H-M   'P 1'
_cell_length_a   8.36100254
_cell_length_b   8.36100227
_cell_length_c   8.36100317
_cell_angle_alpha   34.05279938
_cell_angle_beta   34.05280220
_cell_angle_gamma   34.05280196
_symmetry_Int_Tables_number   1
_chemical_formula_structural   PrMg2Ni9
_chemical_formula_sum   'Pr1 Mg2 Ni9'
_cell_volume   163.37406639
_cell_formula_units_Z   1
loop_
 _symmetry_equiv_pos_site_id
 _symmetry_equiv_pos_as_xyz
  1  'x, y, z'
loop_
 _atom_site_type_symbol
 _atom_site_label
 _atom_site_symmetry_multiplicity
 _atom_site_fract_x
 _atom_site_fract_y
 _atom_site_fract_z
 _atom_site_occupancy
  Pr  Pr0  1  0.00000000  0.00000000  0.00000000  1
  Mg  Mg1  1  0.85539424  0.85539424  0.85539424  1
  Mg  Mg2  1  0.14460576  0.14460576  0.14460576  1
  Ni  Ni3  1  0.58647393  0.08259726  0.58647393  1
  Ni  Ni4  1  0.41352607  0.91740274  0.41352607  1
  Ni  Ni5  1  0.66632146  0.66632146  0.66632146  1
  Ni  Ni6  1  0.58647393  0.58647393  0.08259726  1
  Ni  Ni7  1  0.91740274  0.41352607  0.41352607  1
  Ni  Ni8  1  0.33367854  0.33367854  0.33367854  1
  Ni  Ni9  1  0.50000000  0.50000000  0.50000000  1
  Ni  Ni10  1  0.41352607  0.41352607  0.91740274  1
  Ni  Ni11  1  0.08259726  0.58647393  0.58647393  1
