# generated using pymatgen
data_Ca7(B7Rh10)2
_symmetry_space_group_name_H-M   'P 1'
_cell_length_a   5.59369443
_cell_length_b   5.62374233
_cell_length_c   20.49006471
_cell_angle_alpha   86.10752497
_cell_angle_beta   82.15475896
_cell_angle_gamma   60.17658960
_symmetry_Int_Tables_number   1
_chemical_formula_structural   Ca7(B7Rh10)2
_chemical_formula_sum   'Ca7 B14 Rh20'
_cell_volume   553.96737352
_cell_formula_units_Z   1
loop_
 _symmetry_equiv_pos_site_id
 _symmetry_equiv_pos_as_xyz
  1  'x, y, z'
loop_
 _atom_site_type_symbol
 _atom_site_label
 _atom_site_symmetry_multiplicity
 _atom_site_fract_x
 _atom_site_fract_y
 _atom_site_fract_z
 _atom_site_occupancy
  Ca  Ca0  1  0.35346469  0.00000000  0.29307062  1
  Ca  Ca1  1  0.72219942  0.00000000  0.55560117  1
  Ca  Ca2  1  0.27780058  0.00000000  0.44439883  1
  Ca  Ca3  1  0.50000000  0.00000000  0.00000000  1
  Ca  Ca4  1  0.64653531  0.00000000  0.70692938  1
  Ca  Ca5  1  0.42706078  0.00000000  0.14587843  1
  Ca  Ca6  1  0.57293922  0.00000000  0.85412157  1
  B  B7  1  0.23864188  0.66711124  0.85560500  1
  B  B8  1  0.97767410  0.33320144  0.71145036  1
  B  B9  1  0.68912446  0.33320144  0.28854964  1
  B  B10  1  0.02232590  0.66679856  0.28854964  1
  B  B11  1  0.62218469  0.32265779  0.43297284  1
  B  B12  1  0.76135812  0.33288876  0.14439500  1
  B  B13  1  0.83367322  0.33265355  0.00000000  1
  B  B14  1  0.94484247  0.67734221  0.43297284  1
  B  B15  1  0.09424688  0.66711124  0.14439500  1
  B  B16  1  0.90575312  0.33288876  0.85560500  1
  B  B17  1  0.16632678  0.66734645  0.00000000  1
  B  B18  1  0.05515753  0.32265779  0.56702716  1
  B  B19  1  0.31087554  0.66679856  0.71145036  1
  B  B20  1  0.37781531  0.67734221  0.56702716  1
  Rh  Rh21  1  0.68026859  0.50000000  0.63946283  1
  Rh  Rh22  1  0.89196712  0.00000000  0.21606576  1
  Rh  Rh23  1  0.03603129  0.50000000  0.92793742  1
  Rh  Rh24  1  0.18071415  0.00000000  0.63857170  1
  Rh  Rh25  1  0.39170848  0.50000000  0.21658305  1
  Rh  Rh26  1  0.10803288  0.00000000  0.78393424  1
  Rh  Rh27  1  0.96402405  0.00000000  0.07195191  1
  Rh  Rh28  1  0.89170848  0.50000000  0.21658305  1
  Rh  Rh29  1  0.81973141  0.50000000  0.36053717  1
  Rh  Rh30  1  0.46396871  0.50000000  0.07206258  1
  Rh  Rh31  1  0.96396871  0.50000000  0.07206258  1
  Rh  Rh32  1  0.31973141  0.50000000  0.36053717  1
  Rh  Rh33  1  0.60829152  0.50000000  0.78341695  1
  Rh  Rh34  1  0.75000000  0.50000000  0.50000000  1
  Rh  Rh35  1  0.53603129  0.50000000  0.92793742  1
  Rh  Rh36  1  0.81928585  0.00000000  0.36142830  1
  Rh  Rh37  1  0.03597595  0.00000000  0.92804809  1
  Rh  Rh38  1  0.10829152  0.50000000  0.78341695  1
  Rh  Rh39  1  0.25000000  0.50000000  0.50000000  1
  Rh  Rh40  1  0.18026859  0.50000000  0.63946283  1
