# generated using pymatgen
data_Na2PrO3
_symmetry_space_group_name_H-M   'P 1'
_cell_length_a   6.20879443
_cell_length_b   6.20879443
_cell_length_c   11.47525169
_cell_angle_alpha   95.11764225
_cell_angle_beta   95.11764225
_cell_angle_gamma   120.23855675
_symmetry_Int_Tables_number   1
_chemical_formula_structural   Na2PrO3
_chemical_formula_sum   'Na8 Pr4 O12'
_cell_volume   375.99583287
_cell_formula_units_Z   4
loop_
 _symmetry_equiv_pos_site_id
 _symmetry_equiv_pos_as_xyz
  1  'x, y, z'
loop_
 _atom_site_type_symbol
 _atom_site_label
 _atom_site_symmetry_multiplicity
 _atom_site_fract_x
 _atom_site_fract_y
 _atom_site_fract_z
 _atom_site_occupancy
  Na  Na0  1  0.18313816  0.83530907  0.50092958  1
  Na  Na1  1  0.66469093  0.31686184  0.99907042  1
  Na  Na2  1  0.81686184  0.16469093  0.49907042  1
  Na  Na3  1  0.33530907  0.68313816  0.00092958  1
  Na  Na4  1  0.50000000  0.50000000  0.50000000  1
  Na  Na5  1  0.00000000  0.00000000  -0.00000000  1
  Na  Na6  1  0.41766147  0.08233853  0.25000000  1
  Na  Na7  1  0.58233853  0.91766147  0.75000000  1
  Pr  Pr8  1  0.75172206  0.74827794  0.25000000  1
  Pr  Pr9  1  0.24827794  0.25172206  0.75000000  1
  Pr  Pr10  1  0.08504091  0.41495909  0.25000000  1
  Pr  Pr11  1  0.91495909  0.58504091  0.75000000  1
  O  O12  1  0.45393764  0.76060223  0.36716276  1
  O  O13  1  0.73939777  0.04606236  0.13283724  1
  O  O14  1  0.54606236  0.23939777  0.63283724  1
  O  O15  1  0.26060223  0.95393764  0.86716276  1
  O  O16  1  0.81228955  0.47222576  0.36431419  1
  O  O17  1  0.02777424  0.68771045  0.13568581  1
  O  O18  1  0.18771045  0.52777424  0.63568581  1
  O  O19  1  0.97222576  0.31228955  0.86431419  1
  O  O20  1  0.09849326  0.12204528  0.36663908  1
  O  O21  1  0.37795472  0.40150674  0.13336092  1
  O  O22  1  0.90150674  0.87795472  0.63336092  1
  O  O23  1  0.62204528  0.59849326  0.86663908  1
