# generated using pymatgen
data_In3SnI5
_symmetry_space_group_name_H-M   'P 1'
_cell_length_a   9.13032105
_cell_length_b   9.04269524
_cell_length_c   17.58453127
_cell_angle_alpha   95.00753137
_cell_angle_beta   90.00000000
_cell_angle_gamma   90.00000000
_symmetry_Int_Tables_number   1
_chemical_formula_structural   In3SnI5
_chemical_formula_sum   'In12 Sn4 I20'
_cell_volume   1446.28528448
_cell_formula_units_Z   4
loop_
 _symmetry_equiv_pos_site_id
 _symmetry_equiv_pos_as_xyz
  1  'x, y, z'
loop_
 _atom_site_type_symbol
 _atom_site_label
 _atom_site_symmetry_multiplicity
 _atom_site_fract_x
 _atom_site_fract_y
 _atom_site_fract_z
 _atom_site_occupancy
  In  In0  1  0.78631508  0.95832046  0.02786511  1
  In  In1  1  0.21368492  0.04167954  0.97213489  1
  In  In2  1  0.68902701  0.35922479  0.25080175  1
  In  In3  1  0.18902701  0.14077521  0.24919825  1
  In  In4  1  0.28631508  0.54167954  0.47213489  1
  In  In5  1  0.53292912  0.13955553  0.75059181  1
  In  In6  1  0.31097299  0.64077521  0.74919825  1
  In  In7  1  0.96707088  0.63955553  0.25059181  1
  In  In8  1  0.81097299  0.85922479  0.75080175  1
  In  In9  1  0.46707088  0.86044447  0.24940819  1
  In  In10  1  0.03292912  0.36044447  0.74940819  1
  In  In11  1  0.71368492  0.45832046  0.52786511  1
  Sn  Sn12  1  0.32242475  0.47698545  0.08579727  1
  Sn  Sn13  1  0.67757525  0.52301455  0.91420273  1
  Sn  Sn14  1  0.17757525  0.97698545  0.58579727  1
  Sn  Sn15  1  0.82242475  0.02301455  0.41420273  1
  I  I16  1  0.33282836  0.50108067  0.26125455  1
  I  I17  1  0.96976673  0.69393370  0.89449824  1
  I  I18  1  0.33171779  0.29532095  0.61320101  1
  I  I19  1  0.35120430  0.36169311  0.89546409  1
  I  I20  1  0.14879570  0.86169311  0.39546409  1
  I  I21  1  0.01380136  0.66405564  0.60310018  1
  I  I22  1  0.66717164  0.49891933  0.73874545  1
  I  I23  1  0.83171779  0.20467905  0.88679899  1
  I  I24  1  0.64879570  0.63830689  0.10453591  1
  I  I25  1  0.83282836  -0.00108067  0.23874545  1
  I  I26  1  0.48619864  0.16405564  0.10310018  1
  I  I27  1  0.85120430  0.13830689  0.60453591  1
  I  I28  1  0.51380136  0.83594436  0.89689982  1
  I  I29  1  0.16717164  1.00108067  0.76125455  1
  I  I30  1  0.53023327  0.19393370  0.39449824  1
  I  I31  1  0.03023327  0.30606630  0.10550176  1
  I  I32  1  0.66828221  0.70467905  0.38679899  1
  I  I33  1  0.98619864  0.33594436  0.39689982  1
  I  I34  1  0.46976673  0.80606630  0.60550176  1
  I  I35  1  0.16828221  0.79532095  0.11320101  1
