# generated using pymatgen
data_Tm3(CuGe)4
_symmetry_space_group_name_H-M   'P 1'
_cell_length_a   4.15007793
_cell_length_b   6.62552657
_cell_length_c   7.91883303
_cell_angle_alpha   114.73352327
_cell_angle_beta   105.19460152
_cell_angle_gamma   89.99717553
_symmetry_Int_Tables_number   1
_chemical_formula_structural   Tm3(CuGe)4
_chemical_formula_sum   'Tm3 Cu4 Ge4'
_cell_volume   189.35327303
_cell_formula_units_Z   1
loop_
 _symmetry_equiv_pos_site_id
 _symmetry_equiv_pos_as_xyz
  1  'x, y, z'
loop_
 _atom_site_type_symbol
 _atom_site_label
 _atom_site_symmetry_multiplicity
 _atom_site_fract_x
 _atom_site_fract_y
 _atom_site_fract_z
 _atom_site_occupancy
  Tm  Tm0  1  0.12935625  0.12935590  0.25871111  1
  Tm  Tm1  1  0.87064375  0.87064410  0.74128889  1
  Tm  Tm2  1  0.00000000  0.50000000  0.00000000  1
  Cu  Cu3  1  0.66993236  0.47857249  0.33974761  1
  Cu  Cu4  1  0.66992040  0.86116174  0.33978418  1
  Cu  Cu5  1  0.33007960  0.13883826  0.66021582  1
  Cu  Cu6  1  0.33006764  0.52142751  0.66025239  1
  Ge  Ge7  1  0.78342414  0.28346471  0.56689580  1
  Ge  Ge8  1  0.21657586  0.71653529  0.43310420  1
  Ge  Ge9  1  0.49999567  0.19264009  0.00000016  1
  Ge  Ge10  1  0.50000433  0.80735991  0.99999984  1
