# generated using pymatgen
data_Na10(Ga2Sn)3
_symmetry_space_group_name_H-M   'P 1'
_cell_length_a   9.04263763
_cell_length_b   14.64147607
_cell_length_c   14.64147607
_cell_angle_alpha   90.00000000
_cell_angle_beta   90.00000000
_cell_angle_gamma   90.00000000
_symmetry_Int_Tables_number   1
_chemical_formula_structural   Na10(Ga2Sn)3
_chemical_formula_sum   'Na40 Ga24 Sn12'
_cell_volume   1938.49574262
_cell_formula_units_Z   4
loop_
 _symmetry_equiv_pos_site_id
 _symmetry_equiv_pos_as_xyz
  1  'x, y, z'
loop_
 _atom_site_type_symbol
 _atom_site_label
 _atom_site_symmetry_multiplicity
 _atom_site_fract_x
 _atom_site_fract_y
 _atom_site_fract_z
 _atom_site_occupancy
  Na  Na0  1  0.30735900  0.77627356  0.50669266  1
  Na  Na1  1  0.50000000  0.58986087  0.58986087  1
  Na  Na2  1  0.00000000  0.81504933  0.63347903  1
  Na  Na3  1  0.00000000  0.36652097  0.18495067  1
  Na  Na4  1  0.69264100  0.77627356  0.50669266  1
  Na  Na5  1  0.69264100  0.22372644  0.49330734  1
  Na  Na6  1  0.00000000  0.63347903  0.81504933  1
  Na  Na7  1  0.18416999  0.73584710  0.26415290  1
  Na  Na8  1  0.69264100  0.49330734  0.22372644  1
  Na  Na9  1  0.50000000  0.31504933  0.86652097  1
  Na  Na10  1  0.00000000  0.91013913  0.08986087  1
  Na  Na11  1  0.81583001  0.26415290  0.73584710  1
  Na  Na12  1  0.68416999  0.76415290  0.76415290  1
  Na  Na13  1  0.80735900  0.99330734  0.27627356  1
  Na  Na14  1  0.19264100  0.27627356  0.99330734  1
  Na  Na15  1  0.50000000  0.68495067  0.13347903  1
  Na  Na16  1  0.81583001  0.73584710  0.26415290  1
  Na  Na17  1  0.69264100  0.50669266  0.77627356  1
  Na  Na18  1  0.30735900  0.49330734  0.22372644  1
  Na  Na19  1  0.80735900  0.72372644  0.00669266  1
  Na  Na20  1  0.50000000  0.41013913  0.41013913  1
  Na  Na21  1  0.31583001  0.23584710  0.23584710  1
  Na  Na22  1  0.00000000  0.18495067  0.36652097  1
  Na  Na23  1  0.25000000  0.00000000  0.50000000  1
  Na  Na24  1  0.80735900  0.27627356  0.99330734  1
  Na  Na25  1  0.30735900  0.50669266  0.77627356  1
  Na  Na26  1  0.19264100  0.99330734  0.27627356  1
  Na  Na27  1  0.19264100  0.00669266  0.72372644  1
  Na  Na28  1  0.18416999  0.26415290  0.73584710  1
  Na  Na29  1  0.30735900  0.22372644  0.49330734  1
  Na  Na30  1  0.80735900  0.00669266  0.72372644  1
  Na  Na31  1  0.50000000  0.13347903  0.68495067  1
  Na  Na32  1  0.50000000  0.86652097  0.31504933  1
  Na  Na33  1  0.31583001  0.76415290  0.76415290  1
  Na  Na34  1  0.00000000  0.08986087  0.91013913  1
  Na  Na35  1  0.75000000  0.00000000  0.50000000  1
  Na  Na36  1  0.68416999  0.23584710  0.23584710  1
  Na  Na37  1  0.19264100  0.72372644  0.00669266  1
  Na  Na38  1  0.75000000  0.50000000  0.00000000  1
  Na  Na39  1  0.25000000  0.50000000  0.00000000  1
  Ga  Ga40  1  0.25958578  0.06538969  0.06538969  1
  Ga  Ga41  1  0.15093462  0.61048416  0.61048416  1
  Ga  Ga42  1  0.65093462  0.88951584  0.11048416  1
  Ga  Ga43  1  0.75958578  0.56538969  0.43461031  1
  Ga  Ga44  1  0.84906538  0.38951584  0.38951584  1
  Ga  Ga45  1  0.34906538  0.88951584  0.11048416  1
  Ga  Ga46  1  0.50000000  0.95821831  0.82473077  1
  Ga  Ga47  1  0.50000000  0.17526923  0.04178169  1
  Ga  Ga48  1  0.00000000  0.32473077  0.54178169  1
  Ga  Ga49  1  0.24041422  0.56538969  0.43461031  1
  Ga  Ga50  1  0.15093462  0.38951584  0.38951584  1
  Ga  Ga51  1  0.65093462  0.11048416  0.88951584  1
  Ga  Ga52  1  0.00000000  0.54178169  0.32473077  1
  Ga  Ga53  1  0.50000000  0.04178169  0.17526923  1
  Ga  Ga54  1  0.00000000  0.45821831  0.67526923  1
  Ga  Ga55  1  0.74041422  0.93461031  0.93461031  1
  Ga  Ga56  1  0.25958578  0.93461031  0.93461031  1
  Ga  Ga57  1  0.75958578  0.43461031  0.56538969  1
  Ga  Ga58  1  0.34906538  0.11048416  0.88951584  1
  Ga  Ga59  1  0.00000000  0.67526923  0.45821831  1
  Ga  Ga60  1  0.50000000  0.82473077  0.95821831  1
  Ga  Ga61  1  0.24041422  0.43461031  0.56538969  1
  Ga  Ga62  1  0.74041422  0.06538969  0.06538969  1
  Ga  Ga63  1  0.84906538  0.61048416  0.61048416  1
  Sn  Sn64  1  0.50000000  0.35921975  0.08507408  1
  Sn  Sn65  1  0.00000000  0.85921975  0.41492592  1
  Sn  Sn66  1  0.00000000  0.14209550  0.14209550  1
  Sn  Sn67  1  0.50000000  0.08507408  0.35921975  1
  Sn  Sn68  1  0.00000000  0.14078025  0.58507408  1
  Sn  Sn69  1  0.00000000  0.85790450  0.85790450  1
  Sn  Sn70  1  0.00000000  0.41492592  0.85921975  1
  Sn  Sn71  1  0.50000000  0.64078025  0.91492592  1
  Sn  Sn72  1  0.50000000  0.35790450  0.64209550  1
  Sn  Sn73  1  0.50000000  0.64209550  0.35790450  1
  Sn  Sn74  1  0.00000000  0.58507408  0.14078025  1
  Sn  Sn75  1  0.50000000  0.91492592  0.64078025  1
