# generated using pymatgen
data_Cd4P2I3
_symmetry_space_group_name_H-M   'P 1'
_cell_length_a   12.82355623
_cell_length_b   12.92772220
_cell_length_c   13.21954798
_cell_angle_alpha   90.00000000
_cell_angle_beta   90.00000000
_cell_angle_gamma   90.00000000
_symmetry_Int_Tables_number   1
_chemical_formula_structural   Cd4P2I3
_chemical_formula_sum   'Cd32 P16 I24'
_cell_volume   2191.52836962
_cell_formula_units_Z   8
loop_
 _symmetry_equiv_pos_site_id
 _symmetry_equiv_pos_as_xyz
  1  'x, y, z'
loop_
 _atom_site_type_symbol
 _atom_site_label
 _atom_site_symmetry_multiplicity
 _atom_site_fract_x
 _atom_site_fract_y
 _atom_site_fract_z
 _atom_site_occupancy
  Cd  Cd0  1  0.79747514  0.42374019  0.09108359  1
  Cd  Cd1  1  0.79747514  0.92374019  0.40891641  1
  Cd  Cd2  1  0.58706421  0.20842594  0.06080668  1
  Cd  Cd3  1  0.59461081  0.56881216  0.98266615  1
  Cd  Cd4  1  0.09461081  0.93118784  0.98266615  1
  Cd  Cd5  1  0.91293579  0.70842594  0.93919332  1
  Cd  Cd6  1  0.95752214  0.42906069  0.78601363  1
  Cd  Cd7  1  0.95752214  0.92906069  0.71398637  1
  Cd  Cd8  1  0.45752214  0.07093931  0.78601363  1
  Cd  Cd9  1  0.04247786  0.57093931  0.21398637  1
  Cd  Cd10  1  0.08706421  0.29157406  0.06080668  1
  Cd  Cd11  1  0.04247786  0.07093931  0.28601363  1
  Cd  Cd12  1  0.70252486  0.92374019  0.90891641  1
  Cd  Cd13  1  0.54247786  0.42906069  0.28601363  1
  Cd  Cd14  1  0.59461081  0.06881216  0.51733385  1
  Cd  Cd15  1  0.45752214  0.57093931  0.71398637  1
  Cd  Cd16  1  0.40538919  0.43118784  0.01733385  1
  Cd  Cd17  1  0.91293579  0.20842594  0.56080668  1
  Cd  Cd18  1  0.58706421  0.70842594  0.43919332  1
  Cd  Cd19  1  0.90538919  0.56881216  0.48266615  1
  Cd  Cd20  1  0.20252486  0.57625981  0.90891641  1
  Cd  Cd21  1  0.09461081  0.43118784  0.51733385  1
  Cd  Cd22  1  0.41293579  0.79157406  0.93919332  1
  Cd  Cd23  1  0.70252486  0.42374019  0.59108359  1
  Cd  Cd24  1  0.40538919  0.93118784  0.48266615  1
  Cd  Cd25  1  0.41293579  0.29157406  0.56080668  1
  Cd  Cd26  1  0.54247786  0.92906069  0.21398637  1
  Cd  Cd27  1  0.90538919  0.06881216  0.01733385  1
  Cd  Cd28  1  0.29747514  0.07625981  0.09108359  1
  Cd  Cd29  1  0.20252486  0.07625981  0.59108359  1
  Cd  Cd30  1  0.08706421  0.79157406  0.43919332  1
  Cd  Cd31  1  0.29747514  0.57625981  0.40891641  1
  P  P32  1  0.55221638  0.54766538  0.54655212  1
  P  P33  1  0.09585697  0.09787542  0.10318496  1
  P  P34  1  0.55221638  0.04766538  0.95344788  1
  P  P35  1  0.90414303  0.40212458  0.60318496  1
  P  P36  1  0.44778362  0.45233462  0.45344788  1
  P  P37  1  0.59585697  0.40212458  0.10318496  1
  P  P38  1  0.09585697  0.59787542  0.39681504  1
  P  P39  1  0.59585697  0.90212458  0.39681504  1
  P  P40  1  0.94778362  0.04766538  0.45344788  1
  P  P41  1  0.40414303  0.59787542  0.89681504  1
  P  P42  1  0.44778362  0.95233462  0.04655212  1
  P  P43  1  0.40414303  0.09787542  0.60318496  1
  P  P44  1  0.94778362  0.54766538  0.04655212  1
  P  P45  1  0.05221638  0.95233462  0.54655212  1
  P  P46  1  0.05221638  0.45233462  0.95344788  1
  P  P47  1  0.90414303  0.90212458  0.89681504  1
  I  I48  1  0.68239271  0.25287585  0.42655279  1
  I  I49  1  0.24797697  0.43042215  0.67882903  1
  I  I50  1  0.18239271  0.24712415  0.42655279  1
  I  I51  1  0.25202303  0.93042215  0.32117097  1
  I  I52  1  0.81760729  0.75287585  0.57344721  1
  I  I53  1  0.06174163  0.17508507  0.74314161  1
  I  I54  1  0.31760729  0.24712415  0.92655279  1
  I  I55  1  0.74797697  0.06957785  0.67882903  1
  I  I56  1  0.06174163  0.67508507  0.75685839  1
  I  I57  1  0.56174163  0.32491493  0.74314161  1
  I  I58  1  0.18239271  0.74712415  0.07344721  1
  I  I59  1  0.93825837  0.82491493  0.25685839  1
  I  I60  1  0.31760729  0.74712415  0.57344721  1
  I  I61  1  0.93825837  0.32491493  0.24314161  1
  I  I62  1  0.25202303  0.43042215  0.17882903  1
  I  I63  1  0.75202303  0.06957785  0.17882903  1
  I  I64  1  0.43825837  0.17508507  0.24314161  1
  I  I65  1  0.81760729  0.25287585  0.92655279  1
  I  I66  1  0.75202303  0.56957785  0.32117097  1
  I  I67  1  0.43825837  0.67508507  0.25685839  1
  I  I68  1  0.24797697  0.93042215  0.82117097  1
  I  I69  1  0.68239271  0.75287585  0.07344721  1
  I  I70  1  0.56174163  0.82491493  0.75685839  1
  I  I71  1  0.74797697  0.56957785  0.82117097  1
