# generated using pymatgen
data_La3CI5
_symmetry_space_group_name_H-M   'P 1'
_cell_length_a   8.10431734
_cell_length_b   9.84199261
_cell_length_c   9.93477641
_cell_angle_alpha   107.52487442
_cell_angle_beta   97.36418141
_cell_angle_gamma   105.22936145
_symmetry_Int_Tables_number   1
_chemical_formula_structural   La3CI5
_chemical_formula_sum   'La6 C2 I10'
_cell_volume   710.36636081
_cell_formula_units_Z   2
loop_
 _symmetry_equiv_pos_site_id
 _symmetry_equiv_pos_as_xyz
  1  'x, y, z'
loop_
 _atom_site_type_symbol
 _atom_site_label
 _atom_site_symmetry_multiplicity
 _atom_site_fract_x
 _atom_site_fract_y
 _atom_site_fract_z
 _atom_site_occupancy
  La  La0  1  0.62194577  0.86113321  0.81579076  1
  La  La1  1  0.02751213  0.72933706  0.92171101  1
  La  La2  1  0.10618292  0.03927692  0.77397614  1
  La  La3  1  0.97248787  0.27066294  0.07828899  1
  La  La4  1  0.89381708  0.96072308  0.22602386  1
  La  La5  1  0.37805423  0.13886679  0.18420924  1
  C  C6  1  0.08706598  0.03081965  0.04155502  1
  C  C7  1  0.91293402  0.96918035  0.95844498  1
  I  I8  1  0.18175375  0.72777937  0.63914724  1
  I  I9  1  0.90999219  0.62856096  0.18198450  1
  I  I10  1  0.09000781  0.37143904  0.81801550  1
  I  I11  1  0.74048827  0.91341137  0.53371213  1
  I  I12  1  0.25951173  0.08658863  0.46628787  1
  I  I13  1  0.64687123  0.53400617  0.72319973  1
  I  I14  1  0.45501310  0.80967137  0.09214890  1
  I  I15  1  0.81824625  0.27222063  0.36085276  1
  I  I16  1  0.35312877  0.46599383  0.27680027  1
  I  I17  1  0.54498690  0.19032863  0.90785110  1
