# generated using pymatgen
data_CsErTa6Cl18
_symmetry_space_group_name_H-M   'P 1'
_cell_length_a   9.40802468
_cell_length_b   9.40802495
_cell_length_c   17.47716462
_cell_angle_alpha   90.00000000
_cell_angle_beta   90.00000000
_cell_angle_gamma   119.99999906
_symmetry_Int_Tables_number   1
_chemical_formula_structural   CsErTa6Cl18
_chemical_formula_sum   'Cs2 Er2 Ta12 Cl36'
_cell_volume   1339.67212533
_cell_formula_units_Z   2
loop_
 _symmetry_equiv_pos_site_id
 _symmetry_equiv_pos_as_xyz
  1  'x, y, z'
loop_
 _atom_site_type_symbol
 _atom_site_label
 _atom_site_symmetry_multiplicity
 _atom_site_fract_x
 _atom_site_fract_y
 _atom_site_fract_z
 _atom_site_occupancy
  Cs  Cs0  1  0.33333300  0.66666700  0.75000000  1
  Cs  Cs1  1  0.66666700  0.33333300  0.25000000  1
  Er  Er2  1  0.66666700  0.33333300  0.75000000  1
  Er  Er3  1  0.33333300  0.66666700  0.25000000  1
  Ta  Ta4  1  0.04086317  0.19402257  0.06727688  1
  Ta  Ta5  1  0.15315941  0.95913683  0.06727688  1
  Ta  Ta6  1  0.80597743  0.95913683  0.43272312  1
  Ta  Ta7  1  0.84684059  0.04086317  0.93272312  1
  Ta  Ta8  1  0.84684059  0.80597743  0.56727688  1
  Ta  Ta9  1  0.19402257  0.04086317  0.56727688  1
  Ta  Ta10  1  0.95913683  0.15315941  0.56727688  1
  Ta  Ta11  1  0.04086317  0.84684059  0.43272312  1
  Ta  Ta12  1  0.15315941  0.19402257  0.43272312  1
  Ta  Ta13  1  0.19402257  0.15315941  0.93272312  1
  Ta  Ta14  1  0.80597743  0.84684059  0.06727688  1
  Ta  Ta15  1  0.95913683  0.80597743  0.93272312  1
  Cl  Cl16  1  0.18494523  0.95161174  0.84010675  1
  Cl  Cl17  1  0.86186868  0.58490666  0.49863249  1
  Cl  Cl18  1  0.23333349  0.18494523  0.15989325  1
  Cl  Cl19  1  0.72303797  0.58490666  0.00136751  1
  Cl  Cl20  1  0.18494523  0.23333349  0.65989325  1
  Cl  Cl21  1  0.27696203  0.86186868  0.50136751  1
  Cl  Cl22  1  0.72303797  0.13813132  0.49863249  1
  Cl  Cl23  1  0.35580799  0.90808317  0.16183390  1
  Cl  Cl24  1  0.13813132  0.41509334  0.50136751  1
  Cl  Cl25  1  0.64419201  0.09191683  0.83816610  1
  Cl  Cl26  1  0.44772482  0.35580799  0.83816610  1
  Cl  Cl27  1  0.81505477  0.04838826  0.15989325  1
  Cl  Cl28  1  0.58490666  0.86186868  0.99863249  1
  Cl  Cl29  1  0.09191683  0.64419201  0.33816610  1
  Cl  Cl30  1  0.13813132  0.72303797  0.99863249  1
  Cl  Cl31  1  0.41509334  0.27696203  0.49863249  1
  Cl  Cl32  1  0.04838826  0.23333349  0.84010675  1
  Cl  Cl33  1  0.27696203  0.41509334  0.99863249  1
  Cl  Cl34  1  0.81505477  0.76666651  0.34010675  1
  Cl  Cl35  1  0.95161174  0.18494523  0.34010675  1
  Cl  Cl36  1  0.35580799  0.44772482  0.33816610  1
  Cl  Cl37  1  0.76666651  0.95161174  0.65989325  1
  Cl  Cl38  1  0.55227518  0.90808317  0.33816610  1
  Cl  Cl39  1  0.95161174  0.76666651  0.15989325  1
  Cl  Cl40  1  0.41509334  0.13813132  0.00136751  1
  Cl  Cl41  1  0.04838826  0.81505477  0.65989325  1
  Cl  Cl42  1  0.55227518  0.64419201  0.16183390  1
  Cl  Cl43  1  0.90808317  0.35580799  0.66183390  1
  Cl  Cl44  1  0.64419201  0.55227518  0.66183390  1
  Cl  Cl45  1  0.44772482  0.09191683  0.66183390  1
  Cl  Cl46  1  0.23333349  0.04838826  0.34010675  1
  Cl  Cl47  1  0.90808317  0.55227518  0.83816610  1
  Cl  Cl48  1  0.58490666  0.72303797  0.50136751  1
  Cl  Cl49  1  0.86186868  0.27696203  0.00136751  1
  Cl  Cl50  1  0.76666651  0.81505477  0.84010675  1
  Cl  Cl51  1  0.09191683  0.44772482  0.16183390  1
