# generated using pymatgen
data_Re4Si7
_symmetry_space_group_name_H-M   'P 1'
_cell_length_a   3.14191534
_cell_length_b   8.37227009
_cell_length_c   11.80895749
_cell_angle_alpha   92.58218171
_cell_angle_beta   97.64477887
_cell_angle_gamma   89.99999786
_symmetry_Int_Tables_number   1
_chemical_formula_structural   Re4Si7
_chemical_formula_sum   'Re8 Si14'
_cell_volume   307.55500344
_cell_formula_units_Z   2
loop_
 _symmetry_equiv_pos_site_id
 _symmetry_equiv_pos_as_xyz
  1  'x, y, z'
loop_
 _atom_site_type_symbol
 _atom_site_label
 _atom_site_symmetry_multiplicity
 _atom_site_fract_x
 _atom_site_fract_y
 _atom_site_fract_z
 _atom_site_occupancy
  Re  Re0  1  0.74851653  0.25609216  0.49703305  1
  Re  Re1  1  0.12801869  0.89311698  0.25603739  1
  Si  Si2  1  0.95886634  0.72502476  0.91773267  1
  Si  Si3  1  0.57947705  0.07928679  0.15895411  1
  Si  Si4  1  0.82956547  0.82919301  0.65913094  1
  Si  Si5  1  0.04217304  0.31005374  0.08434609  1
  Re  Re6  1  0.87455531  0.12516803  0.74911061  1
  Si  Si7  1  0.30450529  0.43671611  0.60901057  1
  Re  Re8  1  0.49713039  0.50402433  0.99426079  1
  Si  Si9  1  0.45658539  0.21891693  0.91317078  1
  Si  Si10  1  0.20427869  0.47704648  0.40855739  1
  Si  Si11  1  0.70921480  0.96331971  0.41842961  1
  Si  Si12  1  0.16471757  0.18036556  0.32943513  1
  Si  Si13  1  0.90656741  0.42358771  0.81313482  1
  Re  Re14  1  0.62481554  0.37860980  0.24963107  1
  Re  Re15  1  0.37914406  0.64464248  0.75828812  1
  Si  Si16  1  0.29401557  0.06014478  0.58803115  1
  Re  Re17  1  0.24808606  0.76245425  0.49617211  1
  Re  Re18  1  -0.00139558  0.02001592  -0.00279116  1
  Si  Si19  1  0.05846396  0.66982301  0.11692793  1
  Si  Si20  1  0.41651006  0.93086835  0.83302012  1
  Si  Si21  1  0.65978835  0.67662910  0.31957670  1
