# generated using pymatgen
data_Na3Fe2P2O10F
_symmetry_space_group_name_H-M   'P 1'
_cell_length_a   9.18521861
_cell_length_b   9.17999318
_cell_length_c   10.53311146
_cell_angle_alpha   90.00000000
_cell_angle_beta   90.00000000
_cell_angle_gamma   90.00000000
_symmetry_Int_Tables_number   1
_chemical_formula_structural   Na3Fe2P2O10F
_chemical_formula_sum   'Na12 Fe8 P8 O40 F4'
_cell_volume   888.15453046
_cell_formula_units_Z   4
loop_
 _symmetry_equiv_pos_site_id
 _symmetry_equiv_pos_as_xyz
  1  'x, y, z'
loop_
 _atom_site_type_symbol
 _atom_site_label
 _atom_site_symmetry_multiplicity
 _atom_site_fract_x
 _atom_site_fract_y
 _atom_site_fract_z
 _atom_site_occupancy
  Na  Na0  1  0.23076169  0.52228918  0.00000000  1
  Na  Na1  1  0.76923831  0.47771082  -0.00000000  1
  Na  Na2  1  0.26923831  0.02228918  0.50000000  1
  Na  Na3  1  0.73076169  0.97771082  0.50000000  1
  Na  Na4  1  0.51446106  0.24034938  0.00000000  1
  Na  Na5  1  0.48553894  0.75965062  0.00000000  1
  Na  Na6  1  0.01446106  0.25965062  0.50000000  1
  Na  Na7  1  0.98553894  0.74034938  0.50000000  1
  Na  Na8  1  0.18467903  0.94172100  -0.00000000  1
  Na  Na9  1  0.81532097  0.05827900  0.00000000  1
  Na  Na10  1  0.31532097  0.44172100  0.50000000  1
  Na  Na11  1  0.68467903  0.55827900  0.50000000  1
  Fe  Fe12  1  0.25647793  0.74761804  0.30686070  1
  Fe  Fe13  1  0.74352207  0.25238196  0.30686070  1
  Fe  Fe14  1  0.24352207  0.24761804  0.80686070  1
  Fe  Fe15  1  0.75647793  0.75238196  0.80686070  1
  Fe  Fe16  1  0.74352207  0.25238196  0.69313930  1
  Fe  Fe17  1  0.25647793  0.74761804  0.69313930  1
  Fe  Fe18  1  0.75647793  0.75238196  0.19313930  1
  Fe  Fe19  1  0.24352207  0.24761804  0.19313930  1
  P  P20  1  0.50000000  0.50000000  0.24225389  1
  P  P21  1  0.00000000  -0.00000000  0.74225389  1
  P  P22  1  0.50000000  0.50000000  0.75774611  1
  P  P23  1  0.00000000  -0.00000000  0.25774611  1
  P  P24  1  0.00000000  0.50000000  0.25192590  1
  P  P25  1  0.50000000  -0.00000000  0.75192590  1
  P  P26  1  0.00000000  0.50000000  0.74807410  1
  P  P27  1  0.50000000  -0.00000000  0.24807410  1
  O  O28  1  0.26095281  0.74635624  0.14252502  1
  O  O29  1  0.73904719  0.25364376  0.14252502  1
  O  O30  1  0.23904719  0.24635624  0.64252502  1
  O  O31  1  0.76095281  0.75364376  0.64252502  1
  O  O32  1  0.73904719  0.25364376  0.85747498  1
  O  O33  1  0.26095281  0.74635624  0.85747498  1
  O  O34  1  0.76095281  0.75364376  0.35747498  1
  O  O35  1  0.23904719  0.24635624  0.35747498  1
  O  O36  1  0.09437419  0.59658256  0.34013650  1
  O  O37  1  0.90562581  0.40341744  0.34013650  1
  O  O38  1  0.40562581  0.09658256  0.84013650  1
  O  O39  1  0.59437419  0.90341744  0.84013650  1
  O  O40  1  0.90562581  0.40341744  0.65986350  1
  O  O41  1  0.09437419  0.59658256  0.65986350  1
  O  O42  1  0.59437419  0.90341744  0.15986350  1
  O  O43  1  0.40562581  0.09658256  0.15986350  1
  O  O44  1  0.59755966  0.09224682  0.33724068  1
  O  O45  1  0.40244034  0.90775318  0.33724068  1
  O  O46  1  0.09755966  0.40775318  0.83724068  1
  O  O47  1  0.90244034  0.59224682  0.83724068  1
  O  O48  1  0.40244034  0.90775318  0.66275932  1
  O  O49  1  0.59755966  0.09224682  0.66275932  1
  O  O50  1  0.90244034  0.59224682  0.16275932  1
  O  O51  1  0.09755966  0.40775318  0.16275932  1
  O  O52  1  0.40587631  0.59222542  0.33494228  1
  O  O53  1  0.59412369  0.40777458  0.33494228  1
  O  O54  1  0.09412369  0.09222542  0.83494228  1
  O  O55  1  0.90587631  0.90777458  0.83494228  1
  O  O56  1  0.59412369  0.40777458  0.66505772  1
  O  O57  1  0.40587631  0.59222542  0.66505772  1
  O  O58  1  0.90587631  0.90777458  0.16505772  1
  O  O59  1  0.09412369  0.09222542  0.16505772  1
  O  O60  1  0.09550654  0.90399493  0.34474605  1
  O  O61  1  0.90449346  0.09600507  0.34474605  1
  O  O62  1  0.40449346  0.40399493  0.84474605  1
  O  O63  1  0.59550654  0.59600507  0.84474605  1
  O  O64  1  0.90449346  0.09600507  0.65525395  1
  O  O65  1  0.09550654  0.90399493  0.65525395  1
  O  O66  1  0.59550654  0.59600507  0.15525395  1
  O  O67  1  0.40449346  0.40399493  0.15525395  1
  F  F68  1  0.25119971  0.74690637  0.50000000  1
  F  F69  1  0.74880029  0.25309363  0.50000000  1
  F  F70  1  0.24880029  0.24690637  0.00000000  1
  F  F71  1  0.75119971  0.75309363  0.00000000  1
