# generated using pymatgen
data_Ba2BN2Cl
_symmetry_space_group_name_H-M   'P 1'
_cell_length_a   12.88779598
_cell_length_b   12.88779664
_cell_length_c   12.88779564
_cell_angle_alpha   109.47122073
_cell_angle_beta   109.47122180
_cell_angle_gamma   109.47122081
_symmetry_Int_Tables_number   1
_chemical_formula_structural   Ba2BN2Cl
_chemical_formula_sum   'Ba24 B12 N24 Cl12'
_cell_volume   1647.83631397
_cell_formula_units_Z   12
loop_
 _symmetry_equiv_pos_site_id
 _symmetry_equiv_pos_as_xyz
  1  'x, y, z'
loop_
 _atom_site_type_symbol
 _atom_site_label
 _atom_site_symmetry_multiplicity
 _atom_site_fract_x
 _atom_site_fract_y
 _atom_site_fract_z
 _atom_site_occupancy
  Ba  Ba0  1  0.40912018  0.65912018  0.75000000  1
  Ba  Ba1  1  0.43742713  0.43742713  0.43742713  1
  Ba  Ba2  1  0.84087982  0.09087982  0.75000000  1
  Ba  Ba3  1  0.40912018  0.25000000  0.65912018  1
  Ba  Ba4  1  0.06257287  0.50000000  1.00000000  1
  Ba  Ba5  1  0.50000000  0.00000000  0.43742713  1
  Ba  Ba6  1  0.65912018  0.40912018  0.25000000  1
  Ba  Ba7  1  0.09087982  0.84087982  0.25000000  1
  Ba  Ba8  1  0.25000000  0.65912018  0.40912018  1
  Ba  Ba9  1  0.00000000  0.06257287  0.50000000  1
  Ba  Ba10  1  0.25000000  0.09087982  0.84087982  1
  Ba  Ba11  1  0.75000000  0.84087982  0.09087982  1
  Ba  Ba12  1  0.06257287  0.06257287  0.06257287  1
  Ba  Ba13  1  0.75000000  0.50000000  0.00000000  1
  Ba  Ba14  1  0.65912018  0.75000000  0.40912018  1
  Ba  Ba15  1  0.50000000  1.00000000  0.06257287  1
  Ba  Ba16  1  0.84087982  0.25000000  0.09087982  1
  Ba  Ba17  1  1.00000000  0.43742713  0.50000000  1
  Ba  Ba18  1  0.09087982  0.75000000  0.84087982  1
  Ba  Ba19  1  0.75000000  0.40912018  0.65912018  1
  Ba  Ba20  1  0.43742713  0.50000000  0.00000000  1
  Ba  Ba21  1  0.75000000  0.75000000  0.75000000  1
  Ba  Ba22  1  0.00000000  0.75000000  0.50000000  1
  Ba  Ba23  1  0.50000000  0.00000000  0.75000000  1
  B  B24  1  0.92188603  0.71094301  0.96094301  1
  B  B25  1  0.25000000  0.96094301  0.53905699  1
  B  B26  1  0.96094301  0.92188603  0.71094301  1
  B  B27  1  0.78905699  0.57811397  0.53905699  1
  B  B28  1  0.71094301  0.25000000  0.78905699  1
  B  B29  1  0.25000000  0.78905699  0.71094301  1
  B  B30  1  0.71094301  0.96094301  0.92188603  1
  B  B31  1  0.53905699  0.78905699  0.57811397  1
  B  B32  1  0.57811397  0.53905699  0.78905699  1
  B  B33  1  0.96094301  0.53905699  0.25000000  1
  B  B34  1  0.53905699  0.25000000  0.96094301  1
  B  B35  1  0.78905699  0.71094301  0.25000000  1
  N  N36  1  0.57616007  0.48203145  0.67916303  1
  N  N37  1  0.57616007  0.59412862  0.89699704  1
  N  N38  1  0.90587138  0.92383993  0.60300296  1
  N  N39  1  0.19713158  0.01796855  0.59412862  1
  N  N40  1  0.82083697  0.01796855  0.92383993  1
  N  N41  1  0.67916303  0.57616007  0.48203145  1
  N  N42  1  0.19713158  0.67916303  0.60300296  1
  N  N43  1  0.01796855  0.92383993  0.82083697  1
  N  N44  1  0.82083697  0.30286842  0.89699704  1
  N  N45  1  0.92383993  0.82083697  0.01796855  1
  N  N46  1  0.30286842  0.90587138  0.48203145  1
  N  N47  1  0.48203145  0.67916303  0.57616007  1
  N  N48  1  0.30286842  0.89699704  0.82083697  1
  N  N49  1  0.48203145  0.30286842  0.90587138  1
  N  N50  1  0.60300296  0.90587138  0.92383993  1
  N  N51  1  0.90587138  0.48203145  0.30286842  1
  N  N52  1  0.59412862  0.89699704  0.57616007  1
  N  N53  1  0.89699704  0.82083697  0.30286842  1
  N  N54  1  0.89699704  0.57616007  0.59412862  1
  N  N55  1  0.60300296  0.19713158  0.67916303  1
  N  N56  1  0.67916303  0.60300296  0.19713158  1
  N  N57  1  0.01796855  0.59412862  0.19713158  1
  N  N58  1  0.92383993  0.60300296  0.90587138  1
  N  N59  1  0.59412862  0.19713158  0.01796855  1
  Cl  Cl60  1  0.14084833  0.35915167  0.25000000  1
  Cl  Cl61  1  0.89084833  0.14084833  0.28169667  1
  Cl  Cl62  1  0.25000000  0.14084833  0.35915167  1
  Cl  Cl63  1  0.89084833  0.25000000  0.60915167  1
  Cl  Cl64  1  0.60915167  0.89084833  0.25000000  1
  Cl  Cl65  1  0.28169667  0.89084833  0.14084833  1
  Cl  Cl66  1  0.35915167  0.60915167  0.21830333  1
  Cl  Cl67  1  0.60915167  0.21830333  0.35915167  1
  Cl  Cl68  1  0.21830333  0.35915167  0.60915167  1
  Cl  Cl69  1  0.14084833  0.28169667  0.89084833  1
  Cl  Cl70  1  0.25000000  0.60915167  0.89084833  1
  Cl  Cl71  1  0.35915167  0.25000000  0.14084833  1
