# generated using pymatgen
data_Cs2Nb6PbCl18
_symmetry_space_group_name_H-M   'P 1'
_cell_length_a   10.54475631
_cell_length_b   10.54475662
_cell_length_c   10.54475677
_cell_angle_alpha   54.77681178
_cell_angle_beta   54.77681060
_cell_angle_gamma   54.77681316
_symmetry_Int_Tables_number   1
_chemical_formula_structural   Cs2Nb6PbCl18
_chemical_formula_sum   'Cs2 Nb6 Pb1 Cl18'
_cell_volume   728.22969090
_cell_formula_units_Z   1
loop_
 _symmetry_equiv_pos_site_id
 _symmetry_equiv_pos_as_xyz
  1  'x, y, z'
loop_
 _atom_site_type_symbol
 _atom_site_label
 _atom_site_symmetry_multiplicity
 _atom_site_fract_x
 _atom_site_fract_y
 _atom_site_fract_z
 _atom_site_occupancy
  Cs  Cs0  1  0.72300479  0.72300479  0.72300479  1
  Cs  Cs1  1  0.27699521  0.27699521  0.27699521  1
  Nb  Nb2  1  0.35417512  0.57978504  0.70037859  1
  Nb  Nb3  1  0.70037859  0.35417512  0.57978504  1
  Nb  Nb4  1  0.57978504  0.70037859  0.35417512  1
  Nb  Nb5  1  0.29962141  0.64582488  0.42021496  1
  Nb  Nb6  1  0.64582488  0.42021496  0.29962141  1
  Nb  Nb7  1  0.42021496  0.29962141  0.64582488  1
  Pb  Pb8  1  0.00000000  0.00000000  0.00000000  1
  Cl  Cl9  1  0.35924616  0.90569723  0.23374312  1
  Cl  Cl10  1  0.42216417  0.82999009  0.56493562  1
  Cl  Cl11  1  0.09430277  0.76625688  0.64075384  1
  Cl  Cl12  1  0.64075384  0.09430277  0.76625688  1
  Cl  Cl13  1  0.17312163  0.67619192  0.95884858  1
  Cl  Cl14  1  0.90569723  0.23374312  0.35924616  1
  Cl  Cl15  1  0.17000991  0.43506438  0.57783583  1
  Cl  Cl16  1  0.76625688  0.64075384  0.09430277  1
  Cl  Cl17  1  0.43506438  0.57783583  0.17000991  1
  Cl  Cl18  1  0.32380808  0.04115142  0.82687837  1
  Cl  Cl19  1  0.82999009  0.56493562  0.42216417  1
  Cl  Cl20  1  0.23374312  0.35924616  0.90569723  1
  Cl  Cl21  1  0.67619192  0.95884858  0.17312163  1
  Cl  Cl22  1  0.57783583  0.17000991  0.43506438  1
  Cl  Cl23  1  0.04115142  0.82687837  0.32380808  1
  Cl  Cl24  1  0.56493562  0.42216417  0.82999009  1
  Cl  Cl25  1  0.95884858  0.17312163  0.67619192  1
  Cl  Cl26  1  0.82687837  0.32380808  0.04115142  1
