# generated using pymatgen
data_Yb2Ag7
_symmetry_space_group_name_H-M   'P 1'
_cell_length_a   5.51268574
_cell_length_b   5.51268605
_cell_length_c   14.17867341
_cell_angle_alpha   90.00000000
_cell_angle_beta   90.00000000
_cell_angle_gamma   119.66941410
_symmetry_Int_Tables_number   1
_chemical_formula_structural   Yb2Ag7
_chemical_formula_sum   'Yb4 Ag14'
_cell_volume   374.39482004
_cell_formula_units_Z   2
loop_
 _symmetry_equiv_pos_site_id
 _symmetry_equiv_pos_as_xyz
  1  'x, y, z'
loop_
 _atom_site_type_symbol
 _atom_site_label
 _atom_site_symmetry_multiplicity
 _atom_site_fract_x
 _atom_site_fract_y
 _atom_site_fract_z
 _atom_site_occupancy
  Yb  Yb0  1  0.82093431  0.82093431  0.11551554  1
  Yb  Yb1  1  0.17906569  0.17906569  0.88448446  1
  Yb  Yb2  1  0.82093431  0.82093431  0.38448446  1
  Yb  Yb3  1  0.17906569  0.17906569  0.61551554  1
  Ag  Ag4  1  0.49071770  0.16396257  0.07579469  1
  Ag  Ag5  1  0.83603743  0.50928230  0.92420531  1
  Ag  Ag6  1  0.67281507  0.17033845  0.75000000  1
  Ag  Ag7  1  0.16396257  0.49071770  0.07579469  1
  Ag  Ag8  1  0.50928230  0.83603743  0.57579469  1
  Ag  Ag9  1  0.16396257  0.49071770  0.42420531  1
  Ag  Ag10  1  0.50928230  0.83603743  0.92420531  1
  Ag  Ag11  1  0.17033845  0.67281507  0.75000000  1
  Ag  Ag12  1  0.67043890  0.67043890  0.75000000  1
  Ag  Ag13  1  0.82966155  0.32718493  0.25000000  1
  Ag  Ag14  1  0.32718493  0.82966155  0.25000000  1
  Ag  Ag15  1  0.83603743  0.50928230  0.57579469  1
  Ag  Ag16  1  0.49071770  0.16396257  0.42420531  1
  Ag  Ag17  1  0.32956110  0.32956110  0.25000000  1
