# generated using pymatgen
data_NaLa(GaSe2)4
_symmetry_space_group_name_H-M   'P 1'
_cell_length_a   12.52617621
_cell_length_b   12.52617603
_cell_length_c   12.56546817
_cell_angle_alpha   105.27265871
_cell_angle_beta   105.27265849
_cell_angle_gamma   118.13313918
_symmetry_Int_Tables_number   1
_chemical_formula_structural   NaLa(GaSe2)4
_chemical_formula_sum   'Na4 La4 Ga16 Se32'
_cell_volume   1493.02583148
_cell_formula_units_Z   4
loop_
 _symmetry_equiv_pos_site_id
 _symmetry_equiv_pos_as_xyz
  1  'x, y, z'
loop_
 _atom_site_type_symbol
 _atom_site_label
 _atom_site_symmetry_multiplicity
 _atom_site_fract_x
 _atom_site_fract_y
 _atom_site_fract_z
 _atom_site_occupancy
  Na  Na0  1  0.87191480  0.62191480  0.24382961  1
  Na  Na1  1  0.12808520  0.37808520  0.75617039  1
  Na  Na2  1  0.37808520  0.12808520  0.25617039  1
  Na  Na3  1  0.62191480  0.87191480  0.74382961  1
  La  La4  1  0.12500000  0.87500000  0.75000000  1
  La  La5  1  0.87500000  0.12500000  0.25000000  1
  La  La6  1  0.62500000  0.37500000  0.75000000  1
  La  La7  1  0.37500000  0.62500000  0.25000000  1
  Ga  Ga8  1  0.86790598  0.38847619  0.50441790  1
  Ga  Ga9  1  0.13651192  0.11594170  0.50441790  1
  Ga  Ga10  1  0.63852830  0.02843861  0.49910572  1
  Ga  Ga11  1  0.61152381  0.13209402  0.99558210  1
  Ga  Ga12  1  0.36147170  0.97156139  0.50089428  1
  Ga  Ga13  1  0.88405830  0.86348808  0.99558210  1
  Ga  Ga14  1  0.47066711  0.36057742  0.99910572  1
  Ga  Ga15  1  0.52933289  0.63942258  0.00089428  1
  Ga  Ga16  1  0.97156139  0.36147170  0.00089428  1
  Ga  Ga17  1  0.13209402  0.61152381  0.49558210  1
  Ga  Ga18  1  0.02843861  0.63852830  0.99910572  1
  Ga  Ga19  1  0.11594170  0.13651192  0.00441790  1
  Ga  Ga20  1  0.36057742  0.47066711  0.49910572  1
  Ga  Ga21  1  0.38847619  0.86790598  0.00441790  1
  Ga  Ga22  1  0.86348808  0.88405830  0.49558210  1
  Ga  Ga23  1  0.63942258  0.52933289  0.50089428  1
  Se  Se24  1  0.85103234  0.18381581  0.50292234  1
  Se  Se25  1  0.91713527  0.92049339  0.32779434  1
  Se  Se26  1  0.90949297  0.41295661  0.82702030  1
  Se  Se27  1  0.91065907  0.40730095  0.32779434  1
  Se  Se28  1  0.58247266  0.58593631  0.17297970  1
  Se  Se29  1  0.65717462  0.34250792  0.50383399  1
  Se  Se30  1  0.68089347  0.84811000  0.99707766  1
  Se  Se31  1  0.09050703  0.58704339  0.17297970  1
  Se  Se32  1  0.34665937  0.16132608  0.50383399  1
  Se  Se33  1  0.40730095  0.91065907  0.82779434  1
  Se  Se34  1  0.08934093  0.59269905  0.67220566  1
  Se  Se35  1  0.84811000  0.68089347  0.49707766  1
  Se  Se36  1  0.34250792  0.65717462  0.00383399  1
  Se  Se37  1  0.65749208  0.34282538  0.99616601  1
  Se  Se38  1  0.58593631  0.58247266  0.67297970  1
  Se  Se39  1  0.59269905  0.08934093  0.17220566  1
  Se  Se40  1  0.31910653  0.15189000  0.00292234  1
  Se  Se41  1  0.65334063  0.83867392  0.49616601  1
  Se  Se42  1  0.14896766  0.81618419  0.49707766  1
  Se  Se43  1  0.15189000  0.31910653  0.50292234  1
  Se  Se44  1  0.07950661  0.08286473  0.17220566  1
  Se  Se45  1  0.08286473  0.07950661  0.67220566  1
  Se  Se46  1  0.81618419  0.14896766  0.99707766  1
  Se  Se47  1  0.16132608  0.34665937  0.00383399  1
  Se  Se48  1  0.34282538  0.65749208  0.49616601  1
  Se  Se49  1  0.41406369  0.41752734  0.32702030  1
  Se  Se50  1  0.92049339  0.91713527  0.82779434  1
  Se  Se51  1  0.58704339  0.09050703  0.67297970  1
  Se  Se52  1  0.18381581  0.85103234  0.00292234  1
  Se  Se53  1  0.41752734  0.41406369  0.82702030  1
  Se  Se54  1  0.83867392  0.65334063  0.99616601  1
  Se  Se55  1  0.41295661  0.90949297  0.32702030  1
