# generated using pymatgen
data_Cs3Ti2Cl9
_symmetry_space_group_name_H-M   'P 1'
_cell_length_a   7.52509836
_cell_length_b   7.52509872
_cell_length_c   18.12192944
_cell_angle_alpha   90.00000000
_cell_angle_beta   90.00000000
_cell_angle_gamma   119.99999842
_symmetry_Int_Tables_number   1
_chemical_formula_structural   Cs3Ti2Cl9
_chemical_formula_sum   'Cs6 Ti4 Cl18'
_cell_volume   888.70875025
_cell_formula_units_Z   2
loop_
 _symmetry_equiv_pos_site_id
 _symmetry_equiv_pos_as_xyz
  1  'x, y, z'
loop_
 _atom_site_type_symbol
 _atom_site_label
 _atom_site_symmetry_multiplicity
 _atom_site_fract_x
 _atom_site_fract_y
 _atom_site_fract_z
 _atom_site_occupancy
  Cs  Cs0  1  0.66666700  0.33333300  0.92411615  1
  Cs  Cs1  1  0.33333300  0.66666700  0.42411615  1
  Cs  Cs2  1  0.00000000  0.00000000  0.25000000  1
  Cs  Cs3  1  0.33333300  0.66666700  0.07588385  1
  Cs  Cs4  1  0.00000000  0.00000000  0.75000000  1
  Cs  Cs5  1  0.66666700  0.33333300  0.57588385  1
  Ti  Ti6  1  0.33333300  0.66666700  0.66567087  1
  Ti  Ti7  1  0.66666700  0.33333300  0.16567087  1
  Ti  Ti8  1  0.33333300  0.66666700  0.83432913  1
  Ti  Ti9  1  0.66666700  0.33333300  0.33432913  1
  Cl  Cl10  1  0.48699831  0.51300169  0.75000000  1
  Cl  Cl11  1  0.51300169  0.48699831  0.25000000  1
  Cl  Cl12  1  0.18091759  0.36183518  0.90514798  1
  Cl  Cl13  1  0.36183518  0.18091759  0.40514798  1
  Cl  Cl14  1  0.63816482  0.81908241  0.90514798  1
  Cl  Cl15  1  0.97399662  0.48699831  0.25000000  1
  Cl  Cl16  1  0.48699831  0.97399662  0.75000000  1
  Cl  Cl17  1  0.02600338  0.51300169  0.75000000  1
  Cl  Cl18  1  0.81908241  0.18091759  0.40514798  1
  Cl  Cl19  1  0.81908241  0.63816482  0.40514798  1
  Cl  Cl20  1  0.18091759  0.36183518  0.59485202  1
  Cl  Cl21  1  0.18091759  0.81908241  0.59485202  1
  Cl  Cl22  1  0.36183518  0.18091759  0.09485202  1
  Cl  Cl23  1  0.63816482  0.81908241  0.59485202  1
  Cl  Cl24  1  0.51300169  0.02600338  0.25000000  1
  Cl  Cl25  1  0.18091759  0.81908241  0.90514798  1
  Cl  Cl26  1  0.81908241  0.63816482  0.09485202  1
  Cl  Cl27  1  0.81908241  0.18091759  0.09485202  1
