# generated using pymatgen
data_SmMg2Ni9
_symmetry_space_group_name_H-M   'P 1'
_cell_length_a   8.33931808
_cell_length_b   8.33931815
_cell_length_c   8.33931823
_cell_angle_alpha   33.99260636
_cell_angle_beta   33.99260567
_cell_angle_gamma   33.99260341
_symmetry_Int_Tables_number   1
_chemical_formula_structural   SmMg2Ni9
_chemical_formula_sum   'Sm1 Mg2 Ni9'
_cell_volume   161.58623544
_cell_formula_units_Z   1
loop_
 _symmetry_equiv_pos_site_id
 _symmetry_equiv_pos_as_xyz
  1  'x, y, z'
loop_
 _atom_site_type_symbol
 _atom_site_label
 _atom_site_symmetry_multiplicity
 _atom_site_fract_x
 _atom_site_fract_y
 _atom_site_fract_z
 _atom_site_occupancy
  Sm  Sm0  1  0.00000000  0.00000000  0.00000000  1
  Mg  Mg1  1  0.14411042  0.14411042  0.14411042  1
  Mg  Mg2  1  0.85588958  0.85588958  0.85588958  1
  Ni  Ni3  1  0.33348484  0.33348484  0.33348484  1
  Ni  Ni4  1  0.91752369  0.41388280  0.41388280  1
  Ni  Ni5  1  0.58611720  0.58611720  0.08247631  1
  Ni  Ni6  1  0.41388280  0.91752369  0.41388280  1
  Ni  Ni7  1  0.08247631  0.58611720  0.58611720  1
  Ni  Ni8  1  0.66651516  0.66651516  0.66651516  1
  Ni  Ni9  1  0.50000000  0.50000000  0.50000000  1
  Ni  Ni10  1  0.58611720  0.08247631  0.58611720  1
  Ni  Ni11  1  0.41388280  0.41388280  0.91752369  1
