# generated using pymatgen
data_CdHgAsBr
_symmetry_space_group_name_H-M   'P 1'
_cell_length_a   4.80486289
_cell_length_b   11.06423658
_cell_length_c   10.21266215
_cell_angle_alpha   90.00000000
_cell_angle_beta   90.00000000
_cell_angle_gamma   90.00000000
_symmetry_Int_Tables_number   1
_chemical_formula_structural   CdHgAsBr
_chemical_formula_sum   'Cd4 Hg4 As4 Br4'
_cell_volume   542.92697243
_cell_formula_units_Z   4
loop_
 _symmetry_equiv_pos_site_id
 _symmetry_equiv_pos_as_xyz
  1  'x, y, z'
loop_
 _atom_site_type_symbol
 _atom_site_label
 _atom_site_symmetry_multiplicity
 _atom_site_fract_x
 _atom_site_fract_y
 _atom_site_fract_z
 _atom_site_occupancy
  Cd  Cd0  1  0.00000000  0.92267095  0.71944139  1
  Cd  Cd1  1  0.00000000  0.57732905  0.71944139  1
  Cd  Cd2  1  0.00000000  0.07732905  0.28055861  1
  Cd  Cd3  1  0.00000000  0.42267095  0.28055861  1
  Hg  Hg4  1  0.50000000  0.25000000  0.74038938  1
  Hg  Hg5  1  0.50000000  0.75000000  0.25961062  1
  Hg  Hg6  1  0.50000000  0.50000000  0.00000000  1
  Hg  Hg7  1  0.50000000  0.00000000  0.00000000  1
  As  As8  1  0.50000000  0.01996179  0.75026706  1
  As  As9  1  0.50000000  0.98003821  0.24973294  1
  As  As10  1  0.50000000  0.48003821  0.75026706  1
  As  As11  1  0.50000000  0.51996179  0.24973294  1
  Br  Br12  1  0.00000000  0.25000000  0.47482817  1
  Br  Br13  1  0.00000000  0.75000000  0.52517183  1
  Br  Br14  1  0.00000000  0.75000000  0.92483658  1
  Br  Br15  1  0.00000000  0.25000000  0.07516342  1
