# generated using pymatgen
data_Pr6Cd4Pd13
_symmetry_space_group_name_H-M   'P 1'
_cell_length_a   8.59268691
_cell_length_b   8.59268661
_cell_length_c   8.59268659
_cell_angle_alpha   109.47122306
_cell_angle_beta   109.47122239
_cell_angle_gamma   109.47121617
_symmetry_Int_Tables_number   1
_chemical_formula_structural   Pr6Cd4Pd13
_chemical_formula_sum   'Pr6 Cd4 Pd13'
_cell_volume   488.38806586
_cell_formula_units_Z   1
loop_
 _symmetry_equiv_pos_site_id
 _symmetry_equiv_pos_as_xyz
  1  'x, y, z'
loop_
 _atom_site_type_symbol
 _atom_site_label
 _atom_site_symmetry_multiplicity
 _atom_site_fract_x
 _atom_site_fract_y
 _atom_site_fract_z
 _atom_site_occupancy
  Pr  Pr0  1  0.30216881  1.00000000  0.30216881  1
  Pr  Pr1  1  0.69783119  0.00000000  0.69783119  1
  Pr  Pr2  1  0.30216881  0.30216881  1.00000000  1
  Pr  Pr3  1  1.00000000  0.69783119  0.69783119  1
  Pr  Pr4  1  0.69783119  0.69783119  0.00000000  1
  Pr  Pr5  1  0.00000000  0.30216881  0.30216881  1
  Cd  Cd6  1  0.50000000  0.00000000  0.00000000  1
  Cd  Cd7  1  0.00000000  0.50000000  0.00000000  1
  Cd  Cd8  1  0.00000000  0.00000000  0.50000000  1
  Cd  Cd9  1  0.50000000  0.50000000  0.50000000  1
  Pd  Pd10  1  0.00000000  0.34079944  0.65920056  1
  Pd  Pd11  1  0.65920056  1.00000000  0.34079944  1
  Pd  Pd12  1  0.34079944  0.65920056  0.00000000  1
  Pd  Pd13  1  0.65920056  0.31840111  0.65920056  1
  Pd  Pd14  1  0.65920056  0.65920056  0.31840111  1
  Pd  Pd15  1  0.34079944  0.68159889  0.34079944  1
  Pd  Pd16  1  0.34079944  0.34079944  0.68159889  1
  Pd  Pd17  1  0.68159889  0.34079944  0.34079944  1
  Pd  Pd18  1  0.34079944  0.00000000  0.65920056  1
  Pd  Pd19  1  0.31840111  0.65920056  0.65920056  1
  Pd  Pd20  1  0.65920056  0.34079944  1.00000000  1
  Pd  Pd21  1  0.00000000  0.00000000  0.00000000  1
  Pd  Pd22  1  1.00000000  0.65920056  0.34079944  1
