# generated using pymatgen
data_Ce2Ni12P7
_symmetry_space_group_name_H-M   'P 1'
_cell_length_a   9.06819955
_cell_length_b   9.06819955
_cell_length_c   3.72566187
_cell_angle_alpha   90.00000000
_cell_angle_beta   90.00000000
_cell_angle_gamma   119.99999998
_symmetry_Int_Tables_number   1
_chemical_formula_structural   Ce2Ni12P7
_chemical_formula_sum   'Ce2 Ni12 P7'
_cell_volume   265.32379805
_cell_formula_units_Z   1
loop_
 _symmetry_equiv_pos_site_id
 _symmetry_equiv_pos_as_xyz
  1  'x, y, z'
loop_
 _atom_site_type_symbol
 _atom_site_label
 _atom_site_symmetry_multiplicity
 _atom_site_fract_x
 _atom_site_fract_y
 _atom_site_fract_z
 _atom_site_occupancy
  Ce  Ce0  1  0.66666700  0.33333300  0.50000000  1
  Ce  Ce1  1  0.33333300  0.66666700  0.00000000  1
  Ni  Ni2  1  0.38119991  0.42934880  0.50000000  1
  Ni  Ni3  1  0.14827493  0.27352515  0.00000000  1
  Ni  Ni4  1  0.12525022  0.85172507  0.00000000  1
  Ni  Ni5  1  0.72647485  0.87474978  0.00000000  1
  Ni  Ni6  1  0.88160510  0.78559770  0.50000000  1
  Ni  Ni7  1  0.90399260  0.11839490  0.50000000  1
  Ni  Ni8  1  0.04814889  0.61880009  0.50000000  1
  Ni  Ni9  1  0.94060642  0.37646525  0.00000000  1
  Ni  Ni10  1  0.21440230  0.09600740  0.50000000  1
  Ni  Ni11  1  0.57065120  0.95185111  0.50000000  1
  Ni  Ni12  1  0.62353475  0.56414117  0.00000000  1
  Ni  Ni13  1  0.43585883  0.05939358  0.00000000  1
  P  P14  1  0.59955772  0.70472317  0.50000000  1
  P  P15  1  0.10516546  0.40044228  0.50000000  1
  P  P16  1  0.89083636  0.59865999  0.00000000  1
  P  P17  1  0.29527683  0.89483454  0.50000000  1
  P  P18  1  0.00000000  0.00000000  0.00000000  1
  P  P19  1  0.70782363  0.10916364  0.00000000  1
  P  P20  1  0.40134001  0.29217637  0.00000000  1
