# generated using pymatgen
data_SbICl8
_symmetry_space_group_name_H-M   'P 1'
_cell_length_a   7.42379554
_cell_length_b   7.42379554
_cell_length_c   24.94347755
_cell_angle_alpha   90.00000000
_cell_angle_beta   90.00000000
_cell_angle_gamma   90.00000000
_symmetry_Int_Tables_number   1
_chemical_formula_structural   SbICl8
_chemical_formula_sum   'Sb4 I4 Cl32'
_cell_volume   1374.70339839
_cell_formula_units_Z   4
loop_
 _symmetry_equiv_pos_site_id
 _symmetry_equiv_pos_as_xyz
  1  'x, y, z'
loop_
 _atom_site_type_symbol
 _atom_site_label
 _atom_site_symmetry_multiplicity
 _atom_site_fract_x
 _atom_site_fract_y
 _atom_site_fract_z
 _atom_site_occupancy
  Sb  Sb0  1  0.77079133  0.00531661  0.50117333  1
  Sb  Sb1  1  0.00531661  0.22920867  0.25117333  1
  Sb  Sb2  1  0.22920867  0.99468339  0.00117333  1
  Sb  Sb3  1  0.99468339  0.77079133  0.75117333  1
  I  I4  1  0.13767662  0.76484955  0.37253269  1
  I  I5  1  0.23515045  0.13767662  0.62253269  1
  I  I6  1  0.86232338  0.23515045  0.87253269  1
  I  I7  1  0.76484955  0.86232338  0.12253269  1
  Cl  Cl8  1  0.23572416  0.26885006  0.31543184  1
  Cl  Cl9  1  0.90995220  0.93713347  0.29625036  1
  Cl  Cl10  1  0.61009951  0.22059941  0.81434104  1
  Cl  Cl11  1  0.07294634  0.49615885  0.20351247  1
  Cl  Cl12  1  0.77940059  0.61009951  0.06434104  1
  Cl  Cl13  1  0.83464407  0.74060397  0.43727490  1
  Cl  Cl14  1  0.09004780  0.06286653  0.79625036  1
  Cl  Cl15  1  0.81190738  0.94772992  0.69383569  1
  Cl  Cl16  1  0.74060397  0.16535593  0.18727490  1
  Cl  Cl17  1  0.49615885  0.92705366  0.95351247  1
  Cl  Cl18  1  0.41432456  0.29185430  0.68629451  1
  Cl  Cl19  1  0.58567544  0.70814570  0.18629451  1
  Cl  Cl20  1  0.16535593  0.25939603  0.93727490  1
  Cl  Cl21  1  0.38990049  0.77940059  0.31434104  1
  Cl  Cl22  1  0.94772992  0.18809262  0.44383569  1
  Cl  Cl23  1  0.76427584  0.73114994  0.81543184  1
  Cl  Cl24  1  0.06286653  0.90995220  0.54625036  1
  Cl  Cl25  1  0.93713347  0.09004780  0.04625036  1
  Cl  Cl26  1  0.21725619  0.62413036  0.80385317  1
  Cl  Cl27  1  0.22059941  0.38990049  0.56434104  1
  Cl  Cl28  1  0.25939603  0.83464407  0.68727490  1
  Cl  Cl29  1  0.18809262  0.05227008  0.19383569  1
  Cl  Cl30  1  0.62413036  0.78274381  0.55385317  1
  Cl  Cl31  1  0.73114994  0.23572416  0.56543184  1
  Cl  Cl32  1  0.92705366  0.50384115  0.70351247  1
  Cl  Cl33  1  0.37586964  0.21725619  0.05385317  1
  Cl  Cl34  1  0.29185430  0.58567544  0.43629451  1
  Cl  Cl35  1  0.26885006  0.76427584  0.06543184  1
  Cl  Cl36  1  0.70814570  0.41432456  0.93629451  1
  Cl  Cl37  1  0.78274381  0.37586964  0.30385317  1
  Cl  Cl38  1  0.50384115  0.07294634  0.45351247  1
  Cl  Cl39  1  0.05227008  0.81190738  0.94383569  1
