# generated using pymatgen
data_TeCl4
_symmetry_space_group_name_H-M   'P 1'
_cell_length_a   10.53886221
_cell_length_b   10.54314505
_cell_length_c   15.55763108
_cell_angle_alpha   95.32134186
_cell_angle_beta   105.94494856
_cell_angle_gamma   117.26627674
_symmetry_Int_Tables_number   1
_chemical_formula_structural   TeCl4
_chemical_formula_sum   'Te8 Cl32'
_cell_volume   1428.31778353
_cell_formula_units_Z   8
loop_
 _symmetry_equiv_pos_site_id
 _symmetry_equiv_pos_as_xyz
  1  'x, y, z'
loop_
 _atom_site_type_symbol
 _atom_site_label
 _atom_site_symmetry_multiplicity
 _atom_site_fract_x
 _atom_site_fract_y
 _atom_site_fract_z
 _atom_site_occupancy
  Te  Te0  1  0.79772055  0.84077898  0.68379718  1
  Te  Te1  1  0.87775417  0.26000476  0.61339973  1
  Te  Te2  1  0.14640127  0.26418904  0.88670831  1
  Te  Te3  1  0.85359873  0.73581096  0.11329169  1
  Te  Te4  1  0.34309555  0.88587279  0.18381670  1
  Te  Te5  1  0.12224583  0.73999524  0.38660027  1
  Te  Te6  1  0.65690445  0.11412721  0.81618330  1
  Te  Te7  1  0.20227945  0.15922102  0.31620282  1
  Cl  Cl8  1  0.86373326  0.99613894  0.87030592  1
  Cl  Cl9  1  0.17025131  0.85824526  0.53800400  1
  Cl  Cl10  1  0.41916331  0.36566211  0.30795338  1
  Cl  Cl11  1  0.51338426  0.22592184  0.75662965  1
  Cl  Cl12  1  0.17981107  0.36773995  0.03814522  1
  Cl  Cl13  1  0.62587503  0.99370654  0.62970572  1
  Cl  Cl14  1  0.10482452  0.47583569  0.62617010  1
  Cl  Cl15  1  0.37412497  0.00629346  0.37029428  1
  Cl  Cl16  1  0.28132317  0.78151718  0.02619232  1
  Cl  Cl17  1  0.05559284  0.12129437  0.68998528  1
  Cl  Cl18  1  0.65042975  0.52162722  0.12602756  1
  Cl  Cl19  1  0.74454122  0.74490754  0.52619014  1
  Cl  Cl20  1  0.93150871  0.36584567  0.81016269  1
  Cl  Cl21  1  0.13626674  0.00386106  0.12969408  1
  Cl  Cl22  1  0.06849129  0.63415433  0.18983731  1
  Cl  Cl23  1  0.44225819  0.88898114  0.80791090  1
  Cl  Cl24  1  0.94440716  0.87870563  0.31001472  1
  Cl  Cl25  1  0.71618035  0.35840895  0.56626111  1
  Cl  Cl26  1  0.70789578  0.85009653  0.06620097  1
  Cl  Cl27  1  0.03074174  0.24300363  0.25665149  1
  Cl  Cl28  1  0.25545878  0.25509246  0.47380986  1
  Cl  Cl29  1  0.29210422  0.14990347  0.93379903  1
  Cl  Cl30  1  0.82018893  0.63226005  0.96185478  1
  Cl  Cl31  1  0.55774181  0.11101886  0.19208910  1
  Cl  Cl32  1  0.58083669  0.63433789  0.69204662  1
  Cl  Cl33  1  0.82974869  0.14175474  0.46199600  1
  Cl  Cl34  1  0.89517548  0.52416431  0.37382990  1
  Cl  Cl35  1  0.96925826  0.75699637  0.74334851  1
  Cl  Cl36  1  0.34957025  0.47837278  0.87397244  1
  Cl  Cl37  1  0.48661574  0.77407816  0.24337035  1
  Cl  Cl38  1  0.71867683  0.21848282  0.97380768  1
  Cl  Cl39  1  0.28381965  0.64159105  0.43373889  1
