# generated using pymatgen
data_Ba3Zr6BeCl18
_symmetry_space_group_name_H-M   'P 1'
_cell_length_a   18.72374916
_cell_length_b   18.72374923
_cell_length_c   18.72374913
_cell_angle_alpha   30.52020651
_cell_angle_beta   30.52020614
_cell_angle_gamma   30.52020658
_symmetry_Int_Tables_number   1
_chemical_formula_structural   Ba3Zr6BeCl18
_chemical_formula_sum   'Ba6 Zr12 Be2 Cl36'
_cell_volume   1500.72279823
_cell_formula_units_Z   2
loop_
 _symmetry_equiv_pos_site_id
 _symmetry_equiv_pos_as_xyz
  1  'x, y, z'
loop_
 _atom_site_type_symbol
 _atom_site_label
 _atom_site_symmetry_multiplicity
 _atom_site_fract_x
 _atom_site_fract_y
 _atom_site_fract_z
 _atom_site_occupancy
  Ba  Ba0  1  0.11139294  0.11139294  0.11139294  1
  Ba  Ba1  1  0.61139294  0.61139294  0.61139294  1
  Ba  Ba2  1  0.88860706  0.88860706  0.88860706  1
  Ba  Ba3  1  0.25000000  0.25000000  0.25000000  1
  Ba  Ba4  1  0.38860706  0.38860706  0.38860706  1
  Ba  Ba5  1  0.75000000  0.75000000  0.75000000  1
  Zr  Zr6  1  0.77142952  0.16177766  0.99156753  1
  Zr  Zr7  1  0.99156753  0.77142952  0.16177766  1
  Zr  Zr8  1  0.49156753  0.66177766  0.27142952  1
  Zr  Zr9  1  0.22857048  0.83822234  0.00843247  1
  Zr  Zr10  1  0.27142952  0.49156753  0.66177766  1
  Zr  Zr11  1  0.16177766  0.99156753  0.77142952  1
  Zr  Zr12  1  0.00843247  0.22857048  0.83822234  1
  Zr  Zr13  1  0.33822234  0.72857048  0.50843247  1
  Zr  Zr14  1  0.83822234  0.00843247  0.22857048  1
  Zr  Zr15  1  0.66177766  0.27142952  0.49156753  1
  Zr  Zr16  1  0.72857048  0.50843247  0.33822234  1
  Zr  Zr17  1  0.50843247  0.33822234  0.72857048  1
  Be  Be18  1  0.50000000  0.50000000  0.50000000  1
  Be  Be19  1  0.00000000  0.00000000  0.00000000  1
  Cl  Cl20  1  0.42537464  0.24559493  0.65850372  1
  Cl  Cl21  1  0.47213909  0.86423887  0.00594654  1
  Cl  Cl22  1  0.65850372  0.42537464  0.24559493  1
  Cl  Cl23  1  0.36423887  0.97213909  0.50594654  1
  Cl  Cl24  1  0.73570430  0.69260224  0.07480162  1
  Cl  Cl25  1  0.00594654  0.47213909  0.86423887  1
  Cl  Cl26  1  0.19260224  0.23570430  0.57480162  1
  Cl  Cl27  1  0.74559493  0.92537464  0.15850372  1
  Cl  Cl28  1  0.30739776  0.92519838  0.26429570  1
  Cl  Cl29  1  0.99405346  0.52786091  0.13576113  1
  Cl  Cl30  1  0.86423887  0.00594654  0.47213909  1
  Cl  Cl31  1  0.49405346  0.63576113  0.02786091  1
  Cl  Cl32  1  0.57480162  0.19260224  0.23570430  1
  Cl  Cl33  1  0.07480162  0.73570430  0.69260224  1
  Cl  Cl34  1  0.84149628  0.25440507  0.07462536  1
  Cl  Cl35  1  0.15850372  0.74559493  0.92537464  1
  Cl  Cl36  1  0.26429570  0.30739776  0.92519838  1
  Cl  Cl37  1  0.34149628  0.57462536  0.75440507  1
  Cl  Cl38  1  0.25440507  0.07462536  0.84149628  1
  Cl  Cl39  1  0.57462536  0.75440507  0.34149628  1
  Cl  Cl40  1  0.07462536  0.84149628  0.25440507  1
  Cl  Cl41  1  0.80739776  0.76429570  0.42519838  1
  Cl  Cl42  1  0.92537464  0.15850372  0.74559493  1
  Cl  Cl43  1  0.76429570  0.42519838  0.80739776  1
  Cl  Cl44  1  0.02786091  0.49405346  0.63576113  1
  Cl  Cl45  1  0.42519838  0.80739776  0.76429570  1
  Cl  Cl46  1  0.52786091  0.13576113  0.99405346  1
  Cl  Cl47  1  0.97213909  0.50594654  0.36423887  1
  Cl  Cl48  1  0.75440507  0.34149628  0.57462536  1
  Cl  Cl49  1  0.92519838  0.26429570  0.30739776  1
  Cl  Cl50  1  0.69260224  0.07480162  0.73570430  1
  Cl  Cl51  1  0.23570430  0.57480162  0.19260224  1
  Cl  Cl52  1  0.63576113  0.02786091  0.49405346  1
  Cl  Cl53  1  0.24559493  0.65850372  0.42537464  1
  Cl  Cl54  1  0.13576113  0.99405346  0.52786091  1
  Cl  Cl55  1  0.50594654  0.36423887  0.97213909  1
