# generated using pymatgen
data_Dy3CuSiSe7
_symmetry_space_group_name_H-M   'P 1'
_cell_length_a   10.34267327
_cell_length_b   10.34267365
_cell_length_c   6.01709163
_cell_angle_alpha   90.00000000
_cell_angle_beta   90.00000000
_cell_angle_gamma   119.99999875
_symmetry_Int_Tables_number   1
_chemical_formula_structural   Dy3CuSiSe7
_chemical_formula_sum   'Dy6 Si2 Cu2 Se14'
_cell_volume   557.42043906
_cell_formula_units_Z   2
loop_
 _symmetry_equiv_pos_site_id
 _symmetry_equiv_pos_as_xyz
  1  'x, y, z'
loop_
 _atom_site_type_symbol
 _atom_site_label
 _atom_site_symmetry_multiplicity
 _atom_site_fract_x
 _atom_site_fract_y
 _atom_site_fract_z
 _atom_site_occupancy
  Dy  Dy0  1  0.35560096  0.22381217  0.24039153  1
  Dy  Dy1  1  0.13178934  0.35560094  0.74039153  1
  Dy  Dy2  1  0.22381160  0.86821066  0.74039153  1
  Dy  Dy3  1  0.86821121  0.64439904  0.24039153  1
  Dy  Dy4  1  0.64439906  0.77618840  0.74039153  1
  Dy  Dy5  1  0.77618783  0.13178879  0.24039153  1
  Si  Si6  1  0.33333300  0.66666700  0.32910779  1
  Cu  Cu7  1  0.00000000  0.00000000  0.68962286  1
  Cu  Cu8  1  0.00000000  0.00000000  0.18964987  1
  Si  Si9  1  0.66666700  0.33333300  0.82910742  1
  Se  Se10  1  0.66666700  0.33333300  0.45128538  1
  Se  Se11  1  0.89956993  0.42044307  0.98463431  1
  Se  Se12  1  0.33333300  0.66666700  0.95128546  1
  Se  Se13  1  0.90133413  0.73846254  0.71073040  1
  Se  Se14  1  0.26153746  0.16287159  0.71073040  1
  Se  Se15  1  0.16287206  0.90133468  0.21073139  1
  Se  Se16  1  0.09866532  0.26153738  0.21073139  1
  Se  Se17  1  0.10043014  0.57955685  0.48463458  1
  Se  Se18  1  0.57955693  0.47912686  0.98463431  1
  Se  Se19  1  0.42044315  0.52087329  0.48463458  1
  Se  Se20  1  0.83712841  0.09866587  0.71073040  1
  Se  Se21  1  0.73846262  0.83712794  0.21073139  1
  Se  Se22  1  0.52087314  0.10043007  0.98463431  1
  Se  Se23  1  0.47912671  0.89956986  0.48463458  1
