# generated using pymatgen
data_LaNiSb3
_symmetry_space_group_name_H-M   'P 1'
_cell_length_a   6.32523182
_cell_length_b   12.25604871
_cell_length_c   12.95708173
_cell_angle_alpha   90.00000000
_cell_angle_beta   90.00000000
_cell_angle_gamma   90.00000000
_symmetry_Int_Tables_number   1
_chemical_formula_structural   LaNiSb3
_chemical_formula_sum   'La8 Ni8 Sb24'
_cell_volume   1004.46341563
_cell_formula_units_Z   8
loop_
 _symmetry_equiv_pos_site_id
 _symmetry_equiv_pos_as_xyz
  1  'x, y, z'
loop_
 _atom_site_type_symbol
 _atom_site_label
 _atom_site_symmetry_multiplicity
 _atom_site_fract_x
 _atom_site_fract_y
 _atom_site_fract_z
 _atom_site_occupancy
  La  La0  1  0.22518349  0.25000000  0.30297316  1
  La  La1  1  0.75000000  0.00000000  0.29869899  1
  La  La2  1  0.25000000  0.00000000  0.70130101  1
  La  La3  1  0.25000000  0.50000000  0.70130101  1
  La  La4  1  0.75000000  0.50000000  0.29869899  1
  La  La5  1  0.27481651  0.75000000  0.30297316  1
  La  La6  1  0.72518349  0.25000000  0.69702684  1
  La  La7  1  0.77481651  0.75000000  0.69702684  1
  Ni  Ni8  1  0.45659846  0.13577463  0.09702427  1
  Ni  Ni9  1  0.04340154  0.63577463  0.09702427  1
  Ni  Ni10  1  0.45659846  0.36422537  0.09702427  1
  Ni  Ni11  1  0.54340154  0.63577463  0.90297573  1
  Ni  Ni12  1  0.54340154  0.86422537  0.90297573  1
  Ni  Ni13  1  0.95659846  0.13577463  0.90297573  1
  Ni  Ni14  1  0.04340154  0.86422537  0.09702427  1
  Ni  Ni15  1  0.95659846  0.36422537  0.90297573  1
  Sb  Sb16  1  0.27375992  0.75000000  0.78688444  1
  Sb  Sb17  1  0.98821119  0.37622742  0.50271763  1
  Sb  Sb18  1  0.75000000  0.50000000  0.02686280  1
  Sb  Sb19  1  0.25000000  0.00000000  0.21948248  1
  Sb  Sb20  1  0.25000000  0.50000000  0.97313720  1
  Sb  Sb21  1  0.09995231  0.25000000  0.05544483  1
  Sb  Sb22  1  0.59995231  0.25000000  0.94455517  1
  Sb  Sb23  1  0.75000000  0.50000000  0.78051752  1
  Sb  Sb24  1  0.51178881  0.62377258  0.50271763  1
  Sb  Sb25  1  0.48821119  0.37622742  0.49728237  1
  Sb  Sb26  1  0.75000000  0.00000000  0.78051752  1
  Sb  Sb27  1  0.72624008  0.25000000  0.21311556  1
  Sb  Sb28  1  0.51178881  0.87622742  0.50271763  1
  Sb  Sb29  1  0.25000000  0.50000000  0.21948248  1
  Sb  Sb30  1  0.22624008  0.25000000  0.78688444  1
  Sb  Sb31  1  0.90004769  0.75000000  0.94455517  1
  Sb  Sb32  1  0.48821119  0.12377258  0.49728237  1
  Sb  Sb33  1  0.98821119  0.12377258  0.50271763  1
  Sb  Sb34  1  0.01178881  0.62377258  0.49728237  1
  Sb  Sb35  1  0.01178881  0.87622742  0.49728237  1
  Sb  Sb36  1  0.75000000  0.00000000  0.02686280  1
  Sb  Sb37  1  0.40004769  0.75000000  0.05544483  1
  Sb  Sb38  1  0.77375992  0.75000000  0.21311556  1
  Sb  Sb39  1  0.25000000  0.00000000  0.97313720  1
