# generated using pymatgen
data_K8Tl11
_symmetry_space_group_name_H-M   'P 1'
_cell_length_a   18.34230821
_cell_length_b   18.34230825
_cell_length_c   18.34230890
_cell_angle_alpha   32.57254907
_cell_angle_beta   32.57254884
_cell_angle_gamma   32.57254842
_symmetry_Int_Tables_number   1
_chemical_formula_structural   K8Tl11
_chemical_formula_sum   'K16 Tl22'
_cell_volume   1590.62598789
_cell_formula_units_Z   2
loop_
 _symmetry_equiv_pos_site_id
 _symmetry_equiv_pos_as_xyz
  1  'x, y, z'
loop_
 _atom_site_type_symbol
 _atom_site_label
 _atom_site_symmetry_multiplicity
 _atom_site_fract_x
 _atom_site_fract_y
 _atom_site_fract_z
 _atom_site_occupancy
  K  K0  1  0.58966188  0.82595752  0.14979860  1
  K  K1  1  0.57881830  0.57881830  0.57881830  1
  K  K2  1  0.42118170  0.42118170  0.42118170  1
  K  K3  1  0.85020140  0.41033812  0.17404248  1
  K  K4  1  0.17404248  0.85020140  0.41033812  1
  K  K5  1  0.35020140  0.67404248  0.91033812  1
  K  K6  1  0.32595752  0.08966188  0.64979860  1
  K  K7  1  0.14979860  0.58966188  0.82595752  1
  K  K8  1  0.91033812  0.35020140  0.67404248  1
  K  K9  1  0.08966188  0.64979860  0.32595752  1
  K  K10  1  0.64979860  0.32595752  0.08966188  1
  K  K11  1  0.82595752  0.14979860  0.58966188  1
  K  K12  1  0.67404248  0.91033812  0.35020140  1
  K  K13  1  0.92118170  0.92118170  0.92118170  1
  K  K14  1  0.41033812  0.17404248  0.85020140  1
  K  K15  1  0.07881830  0.07881830  0.07881830  1
  Tl  Tl16  1  0.41634028  0.72803082  0.01089509  1
  Tl  Tl17  1  0.77196918  0.08365972  0.48910491  1
  Tl  Tl18  1  0.53243355  0.96756645  0.75000000  1
  Tl  Tl19  1  0.69796138  0.69796138  0.69796138  1
  Tl  Tl20  1  0.98910491  0.58365972  0.27196918  1
  Tl  Tl21  1  0.58365972  0.27196918  0.98910491  1
  Tl  Tl22  1  0.25000000  0.46756645  0.03243355  1
  Tl  Tl23  1  0.46756645  0.03243355  0.25000000  1
  Tl  Tl24  1  0.48910491  0.77196918  0.08365972  1
  Tl  Tl25  1  0.22803082  0.91634028  0.51089509  1
  Tl  Tl26  1  0.80203862  0.80203862  0.80203862  1
  Tl  Tl27  1  0.75000000  0.53243355  0.96756645  1
  Tl  Tl28  1  0.03243355  0.25000000  0.46756645  1
  Tl  Tl29  1  0.19796138  0.19796138  0.19796138  1
  Tl  Tl30  1  0.27196918  0.98910491  0.58365972  1
  Tl  Tl31  1  0.72803082  0.01089509  0.41634028  1
  Tl  Tl32  1  0.96756645  0.75000000  0.53243355  1
  Tl  Tl33  1  0.01089509  0.41634028  0.72803082  1
  Tl  Tl34  1  0.30203862  0.30203862  0.30203862  1
  Tl  Tl35  1  0.91634028  0.51089509  0.22803082  1
  Tl  Tl36  1  0.51089509  0.22803082  0.91634028  1
  Tl  Tl37  1  0.08365972  0.48910491  0.77196918  1
