# generated using pymatgen
data_Th2Al2C3
_symmetry_space_group_name_H-M   'P 1'
_cell_length_a   3.51338814
_cell_length_b   5.43262018
_cell_length_c   11.59014172
_cell_angle_alpha   90.00000000
_cell_angle_beta   90.00000000
_cell_angle_gamma   90.00000000
_symmetry_Int_Tables_number   1
_chemical_formula_structural   Th2Al2C3
_chemical_formula_sum   'Th4 Al4 C6'
_cell_volume   221.21991435
_cell_formula_units_Z   2
loop_
 _symmetry_equiv_pos_site_id
 _symmetry_equiv_pos_as_xyz
  1  'x, y, z'
loop_
 _atom_site_type_symbol
 _atom_site_label
 _atom_site_symmetry_multiplicity
 _atom_site_fract_x
 _atom_site_fract_y
 _atom_site_fract_z
 _atom_site_occupancy
  Th  Th0  1  0.50000000  0.82117712  0.14887258  1
  Th  Th1  1  0.00000000  0.32117712  0.35112742  1
  Th  Th2  1  0.00000000  0.67882288  0.64887258  1
  Th  Th3  1  0.50000000  0.17882288  0.85112742  1
  Al  Al4  1  0.50000000  0.81350863  0.41373401  1
  Al  Al5  1  0.00000000  0.31350863  0.08626599  1
  Al  Al6  1  0.50000000  0.18649137  0.58626599  1
  Al  Al7  1  0.00000000  0.68649137  0.91373401  1
  C  C8  1  0.00000000  0.17186557  0.68921158  1
  C  C9  1  0.50000000  0.67186557  0.81078842  1
  C  C10  1  0.00000000  0.82813443  0.31078842  1
  C  C11  1  0.00000000  0.00000000  0.00000000  1
  C  C12  1  0.50000000  0.32813443  0.18921158  1
  C  C13  1  0.50000000  0.50000000  0.50000000  1
