# generated using pymatgen
data_La4MgCo
_symmetry_space_group_name_H-M   'P 1'
_cell_length_a   10.04521070
_cell_length_b   10.04521109
_cell_length_c   10.04521116
_cell_angle_alpha   59.99999977
_cell_angle_beta   59.99999849
_cell_angle_gamma   60.00000214
_symmetry_Int_Tables_number   1
_chemical_formula_structural   La4MgCo
_chemical_formula_sum   'La16 Mg4 Co4'
_cell_volume   716.74090710
_cell_formula_units_Z   4
loop_
 _symmetry_equiv_pos_site_id
 _symmetry_equiv_pos_as_xyz
  1  'x, y, z'
loop_
 _atom_site_type_symbol
 _atom_site_label
 _atom_site_symmetry_multiplicity
 _atom_site_fract_x
 _atom_site_fract_y
 _atom_site_fract_z
 _atom_site_occupancy
  La  La0  1  0.93976538  0.56023462  0.56023462  1
  La  La1  1  0.18810226  0.81189774  0.18810226  1
  La  La2  1  0.56023462  0.93976538  0.56023462  1
  La  La3  1  0.34388052  0.34388052  0.96835843  1
  La  La4  1  0.18810226  0.81189774  0.81189774  1
  La  La5  1  0.81189774  0.18810226  0.18810226  1
  La  La6  1  0.34388052  0.96835843  0.34388052  1
  La  La7  1  0.96835843  0.34388052  0.34388052  1
  La  La8  1  0.93976538  0.56023462  0.93976538  1
  La  La9  1  0.56023462  0.56023462  0.93976538  1
  La  La10  1  0.34388052  0.34388052  0.34388052  1
  La  La11  1  0.81189774  0.18810226  0.81189774  1
  La  La12  1  0.18810226  0.18810226  0.81189774  1
  La  La13  1  0.93976538  0.93976538  0.56023462  1
  La  La14  1  0.56023462  0.93976538  0.93976538  1
  La  La15  1  0.81189774  0.81189774  0.18810226  1
  Mg  Mg16  1  0.57819283  0.57819283  0.57819283  1
  Mg  Mg17  1  0.26542151  0.57819283  0.57819283  1
  Mg  Mg18  1  0.57819283  0.26542151  0.57819283  1
  Mg  Mg19  1  0.57819283  0.57819283  0.26542151  1
  Co  Co20  1  0.57925413  0.14024862  0.14024862  1
  Co  Co21  1  0.14024862  0.14024862  0.57925413  1
  Co  Co22  1  0.14024862  0.57925413  0.14024862  1
  Co  Co23  1  0.14024862  0.14024862  0.14024862  1
