# generated using pymatgen
data_NbI5
_symmetry_space_group_name_H-M   'P 1'
_cell_length_a   7.49416110
_cell_length_b   8.05949073
_cell_length_c   10.80893979
_cell_angle_alpha   109.95908095
_cell_angle_beta   91.28564177
_cell_angle_gamma   115.90041370
_symmetry_Int_Tables_number   1
_chemical_formula_structural   NbI5
_chemical_formula_sum   'Nb2 I10'
_cell_volume   540.52122730
_cell_formula_units_Z   2
loop_
 _symmetry_equiv_pos_site_id
 _symmetry_equiv_pos_as_xyz
  1  'x, y, z'
loop_
 _atom_site_type_symbol
 _atom_site_label
 _atom_site_symmetry_multiplicity
 _atom_site_fract_x
 _atom_site_fract_y
 _atom_site_fract_z
 _atom_site_occupancy
  Nb  Nb0  1  0.10553398  0.21978885  0.22074123  1
  Nb  Nb1  1  0.89446602  0.78021115  0.77925877  1
  I  I2  1  0.88477232  0.38003632  0.15171493  1
  I  I3  1  0.77188809  0.82491185  0.04252792  1
  I  I4  1  0.30372554  0.01371825  0.24904672  1
  I  I5  1  0.69627446  0.98628175  0.75095328  1
  I  I6  1  0.22811191  0.17508815  0.95747208  1
  I  I7  1  0.11522768  0.61996368  0.84828507  1
  I  I8  1  0.44223390  0.57260656  0.32767148  1
  I  I9  1  0.92917282  0.18383300  0.42903311  1
  I  I10  1  0.55776610  0.42739344  0.67232852  1
  I  I11  1  0.07082718  0.81616700  0.57096689  1
