# generated using pymatgen
data_La3(CrN3)2
_symmetry_space_group_name_H-M   'P 1'
_cell_length_a   3.85540995
_cell_length_b   3.85540943
_cell_length_c   10.37847739
_cell_angle_alpha   100.70431910
_cell_angle_beta   100.70431788
_cell_angle_gamma   89.99999564
_symmetry_Int_Tables_number   1
_chemical_formula_structural   La3(CrN3)2
_chemical_formula_sum   'La3 Cr2 N6'
_cell_volume   148.85030924
_cell_formula_units_Z   1
loop_
 _symmetry_equiv_pos_site_id
 _symmetry_equiv_pos_as_xyz
  1  'x, y, z'
loop_
 _atom_site_type_symbol
 _atom_site_label
 _atom_site_symmetry_multiplicity
 _atom_site_fract_x
 _atom_site_fract_y
 _atom_site_fract_z
 _atom_site_occupancy
  La  La0  1  0.17897597  0.17897597  0.35795195  1
  La  La1  1  0.82102403  0.82102403  0.64204805  1
  La  La2  1  0.00000000  0.00000000  0.00000000  1
  Cr  Cr3  1  0.60225709  0.60225709  0.20451418  1
  Cr  Cr4  1  0.39774291  0.39774291  0.79548582  1
  N  N5  1  0.69351152  0.69351152  0.38702304  1
  N  N6  1  0.08682521  0.58682521  0.17365043  1
  N  N7  1  0.91317479  0.41317479  0.82634957  1
  N  N8  1  0.58682521  0.08682521  0.17365043  1
  N  N9  1  0.41317479  0.91317479  0.82634957  1
  N  N10  1  0.30648848  0.30648848  0.61297696  1
