# generated using pymatgen
data_La5(SiN3)3
_symmetry_space_group_name_H-M   'P 1'
_cell_length_a   7.84741772
_cell_length_b   7.84741752
_cell_length_c   16.08170047
_cell_angle_alpha   90.00000000
_cell_angle_beta   90.00000000
_cell_angle_gamma   93.78859706
_symmetry_Int_Tables_number   1
_chemical_formula_structural   La5(SiN3)3
_chemical_formula_sum   'La20 Si12 N36'
_cell_volume   988.17843061
_cell_formula_units_Z   4
loop_
 _symmetry_equiv_pos_site_id
 _symmetry_equiv_pos_as_xyz
  1  'x, y, z'
loop_
 _atom_site_type_symbol
 _atom_site_label
 _atom_site_symmetry_multiplicity
 _atom_site_fract_x
 _atom_site_fract_y
 _atom_site_fract_z
 _atom_site_occupancy
  La  La0  1  0.03480866  0.54633801  0.86930988  1
  La  La1  1  0.01924006  0.98075994  0.66213870  1
  La  La2  1  0.00315896  0.99684104  0.11372075  1
  La  La3  1  0.29223391  0.29223391  0.00000000  1
  La  La4  1  0.46519134  0.95366199  0.36930988  1
  La  La5  1  0.99684104  0.00315896  0.88627925  1
  La  La6  1  0.50315896  0.49684104  0.38627925  1
  La  La7  1  0.54633801  0.03480866  0.13069012  1
  La  La8  1  0.45366199  0.96519134  0.86930988  1
  La  La9  1  0.51924006  0.48075994  0.83786130  1
  La  La10  1  0.95366199  0.46519134  0.63069012  1
  La  La11  1  0.98075994  0.01924006  0.33786130  1
  La  La12  1  0.04633801  0.53480866  0.36930988  1
  La  La13  1  0.20776609  0.20776609  0.50000000  1
  La  La14  1  0.79223391  0.79223391  0.50000000  1
  La  La15  1  0.48075994  0.51924006  0.16213870  1
  La  La16  1  0.96519134  0.45366199  0.13069012  1
  La  La17  1  0.70776609  0.70776609  0.00000000  1
  La  La18  1  0.53480866  0.04633801  0.63069012  1
  La  La19  1  0.49684104  0.50315896  0.61372075  1
  Si  Si20  1  0.23802590  0.76197410  0.01705871  1
  Si  Si21  1  0.26197410  0.73802590  0.51705871  1
  Si  Si22  1  0.77877269  0.22122731  0.77380874  1
  Si  Si23  1  0.76197410  0.23802590  0.98294129  1
  Si  Si24  1  0.27877269  0.72122731  0.72619126  1
  Si  Si25  1  0.21618721  0.28381279  0.75000000  1
  Si  Si26  1  0.73802590  0.26197410  0.48294129  1
  Si  Si27  1  0.22122731  0.77877269  0.22619126  1
  Si  Si28  1  0.72122731  0.27877269  0.27380874  1
  Si  Si29  1  0.28381279  0.21618721  0.25000000  1
  Si  Si30  1  0.71618721  0.78381279  0.75000000  1
  Si  Si31  1  0.78381279  0.71618721  0.25000000  1
  N  N32  1  0.00434556  0.74642290  0.24258325  1
  N  N33  1  0.76939720  0.23060280  0.37593791  1
  N  N34  1  0.49565444  0.75357710  0.74258325  1
  N  N35  1  0.73060280  0.26939720  0.87593791  1
  N  N36  1  0.74642290  0.00434556  0.75741675  1
  N  N37  1  0.26939720  0.73060280  0.12406209  1
  N  N38  1  0.16296815  0.83703185  0.79470630  1
  N  N39  1  0.27509320  0.20028124  0.65428709  1
  N  N40  1  0.01519308  0.72206262  0.99966400  1
  N  N41  1  0.13576462  0.86423538  0.45488522  1
  N  N42  1  0.70028124  0.77509320  0.15428709  1
  N  N43  1  0.79971876  0.72490680  0.65428709  1
  N  N44  1  0.63576462  0.36423538  0.04511478  1
  N  N45  1  0.29971876  0.22490680  0.84571291  1
  N  N46  1  0.72490680  0.79971876  0.34571291  1
  N  N47  1  0.99565444  0.25357710  0.75741675  1
  N  N48  1  0.33703185  0.66296815  0.29470630  1
  N  N49  1  0.20028124  0.27509320  0.34571291  1
  N  N50  1  0.66296815  0.33703185  0.70529370  1
  N  N51  1  0.98480692  0.27793738  0.00033600  1
  N  N52  1  0.25357710  0.99565444  0.24258325  1
  N  N53  1  0.50434556  0.24642290  0.25741675  1
  N  N54  1  0.77509320  0.70028124  0.84571291  1
  N  N55  1  0.27793738  0.98480692  0.99966400  1
  N  N56  1  0.51519308  0.22206262  0.50033600  1
  N  N57  1  0.24642290  0.50434556  0.74258325  1
  N  N58  1  0.22206262  0.51519308  0.49966400  1
  N  N59  1  0.75357710  0.49565444  0.25741675  1
  N  N60  1  0.77793738  0.48480692  0.50033600  1
  N  N61  1  0.86423538  0.13576462  0.54511478  1
  N  N62  1  0.22490680  0.29971876  0.15428709  1
  N  N63  1  0.72206262  0.01519308  0.00033600  1
  N  N64  1  0.23060280  0.76939720  0.62406209  1
  N  N65  1  0.48480692  0.77793738  0.49966400  1
  N  N66  1  0.83703185  0.16296815  0.20529370  1
  N  N67  1  0.36423538  0.63576462  0.95488522  1
