# generated using pymatgen
data_NaLa4I7N2
_symmetry_space_group_name_H-M   'P 1'
_cell_length_a   11.33630627
_cell_length_b   12.15869856
_cell_length_c   14.46636500
_cell_angle_alpha   90.00000000
_cell_angle_beta   90.00000000
_cell_angle_gamma   90.00000000
_symmetry_Int_Tables_number   1
_chemical_formula_structural   NaLa4I7N2
_chemical_formula_sum   'Na4 La16 I28 N8'
_cell_volume   1993.96752428
_cell_formula_units_Z   4
loop_
 _symmetry_equiv_pos_site_id
 _symmetry_equiv_pos_as_xyz
  1  'x, y, z'
loop_
 _atom_site_type_symbol
 _atom_site_label
 _atom_site_symmetry_multiplicity
 _atom_site_fract_x
 _atom_site_fract_y
 _atom_site_fract_z
 _atom_site_occupancy
  Na  Na0  1  0.54776782  0.75203776  0.59233114  1
  Na  Na1  1  0.95223218  0.75203776  0.09233114  1
  Na  Na2  1  0.04776782  0.25203776  0.90766886  1
  Na  Na3  1  0.45223218  0.25203776  0.40766886  1
  La  La4  1  0.08623385  0.81703262  0.60265469  1
  La  La5  1  0.62354813  0.07547907  0.08385866  1
  La  La6  1  0.10688909  0.05322619  0.41207980  1
  La  La7  1  0.39311091  0.05322619  0.91207980  1
  La  La8  1  0.62163237  0.81064569  0.91358470  1
  La  La9  1  0.37836763  0.31064569  0.08641530  1
  La  La10  1  0.12354813  0.57547907  0.41614134  1
  La  La11  1  0.91376615  0.31703262  0.39734531  1
  La  La12  1  0.60688909  0.55322619  0.08792020  1
  La  La13  1  0.41376615  0.81703262  0.10265469  1
  La  La14  1  0.12163237  0.31064569  0.58641530  1
  La  La15  1  0.89311091  0.55322619  0.58792020  1
  La  La16  1  0.58623385  0.31703262  0.89734531  1
  La  La17  1  0.37645187  0.57547907  0.91614134  1
  La  La18  1  0.87836763  0.81064569  0.41358470  1
  La  La19  1  0.87645187  0.07547907  0.58385866  1
  I  I20  1  0.57417004  0.53651101  0.75213410  1
  I  I21  1  0.68917947  0.28739400  0.52782819  1
  I  I22  1  0.65189402  0.95654275  0.48155449  1
  I  I23  1  0.92582996  0.53651101  0.25213410  1
  I  I24  1  0.82032546  0.61046890  0.94947431  1
  I  I25  1  0.40209290  0.82569790  0.76503746  1
  I  I26  1  0.62809948  0.08398791  0.77547270  1
  I  I27  1  0.07417004  0.03651101  0.74786590  1
  I  I28  1  0.81443976  0.79654209  0.70021158  1
  I  I29  1  0.84810598  0.95654275  0.98155449  1
  I  I30  1  0.15189402  0.45654275  0.01844551  1
  I  I31  1  0.59790710  0.32569790  0.23496254  1
  I  I32  1  0.09790710  0.82569790  0.26503746  1
  I  I33  1  0.68556024  0.79654209  0.20021158  1
  I  I34  1  0.17967454  0.11046890  0.05052569  1
  I  I35  1  0.31082053  0.78739400  0.47217181  1
  I  I36  1  0.31443976  0.29654209  0.79978842  1
  I  I37  1  0.90209290  0.32569790  0.73496254  1
  I  I38  1  0.18917947  0.78739400  0.97217181  1
  I  I39  1  0.81082053  0.28739400  0.02782819  1
  I  I40  1  0.42582996  0.03651101  0.24786590  1
  I  I41  1  0.37190052  0.58398791  0.22452730  1
  I  I42  1  0.32032546  0.11046890  0.55052569  1
  I  I43  1  0.87190052  0.08398791  0.27547270  1
  I  I44  1  0.12809948  0.58398791  0.72452730  1
  I  I45  1  0.67967454  0.61046890  0.44947431  1
  I  I46  1  0.18556024  0.29654209  0.29978842  1
  I  I47  1  0.34810598  0.45654275  0.51844551  1
  N  N48  1  0.99545453  0.68857260  0.50324818  1
  N  N49  1  0.01233456  0.43950150  0.49693115  1
  N  N50  1  0.98766544  0.93950150  0.50306885  1
  N  N51  1  0.51233456  0.93950150  0.00306885  1
  N  N52  1  0.48766544  0.43950150  0.99693115  1
  N  N53  1  0.00454547  0.18857260  0.49675182  1
  N  N54  1  0.50454547  0.68857260  0.00324818  1
  N  N55  1  0.49545453  0.18857260  0.99675182  1
