# generated using pymatgen
data_Pr(GeRu)2
_symmetry_space_group_name_H-M   'P 1'
_cell_length_a   4.31255712
_cell_length_b   4.31255699
_cell_length_c   5.90626680
_cell_angle_alpha   111.41270261
_cell_angle_beta   111.41270205
_cell_angle_gamma   89.99999776
_symmetry_Int_Tables_number   1
_chemical_formula_structural   Pr(GeRu)2
_chemical_formula_sum   'Pr1 Ge2 Ru2'
_cell_volume   94.07228051
_cell_formula_units_Z   1
loop_
 _symmetry_equiv_pos_site_id
 _symmetry_equiv_pos_as_xyz
  1  'x, y, z'
loop_
 _atom_site_type_symbol
 _atom_site_label
 _atom_site_symmetry_multiplicity
 _atom_site_fract_x
 _atom_site_fract_y
 _atom_site_fract_z
 _atom_site_occupancy
  Pr  Pr0  1  0.00000000  0.00000000  0.00000000  1
  Ge  Ge1  1  0.36612395  0.36612395  0.73224789  1
  Ge  Ge2  1  0.63387605  0.63387605  0.26775211  1
  Ru  Ru3  1  0.75000000  0.25000000  0.50000000  1
  Ru  Ru4  1  0.25000000  0.75000000  0.50000000  1
