# generated using pymatgen
data_SnPCl9
_symmetry_space_group_name_H-M   'P 1'
_cell_length_a   6.74393872
_cell_length_b   10.57774815
_cell_length_c   10.57774768
_cell_angle_alpha   107.34723261
_cell_angle_beta   90.00000000
_cell_angle_gamma   90.00000000
_symmetry_Int_Tables_number   1
_chemical_formula_structural   SnPCl9
_chemical_formula_sum   'Sn2 P2 Cl18'
_cell_volume   720.24947244
_cell_formula_units_Z   2
loop_
 _symmetry_equiv_pos_site_id
 _symmetry_equiv_pos_as_xyz
  1  'x, y, z'
loop_
 _atom_site_type_symbol
 _atom_site_label
 _atom_site_symmetry_multiplicity
 _atom_site_fract_x
 _atom_site_fract_y
 _atom_site_fract_z
 _atom_site_occupancy
  Sn  Sn0  1  0.89258207  0.25000000  0.75000000  1
  Sn  Sn1  1  0.10741793  0.75000000  0.25000000  1
  P  P2  1  0.50000000  0.75000000  0.75000000  1
  P  P3  1  0.50000000  0.25000000  0.25000000  1
  Cl  Cl4  1  0.72573610  0.08343439  0.58343439  1
  Cl  Cl5  1  0.33125161  0.22609521  0.09391471  1
  Cl  Cl6  1  0.66874839  0.77390479  0.90608529  1
  Cl  Cl7  1  0.66874839  0.72609521  0.59391471  1
  Cl  Cl8  1  0.66874839  0.40608529  0.27390479  1
  Cl  Cl9  1  0.10342718  0.89467130  0.10532870  1
  Cl  Cl10  1  0.33125161  0.27390479  0.40608529  1
  Cl  Cl11  1  0.66874839  0.09391471  0.22609521  1
  Cl  Cl12  1  0.33125161  0.90608529  0.77390479  1
  Cl  Cl13  1  0.27426390  0.58343439  0.08343439  1
  Cl  Cl14  1  0.27426390  0.91656561  0.41656561  1
  Cl  Cl15  1  0.33125161  0.59391471  0.72609521  1
  Cl  Cl16  1  0.75386429  0.75000000  0.25000000  1
  Cl  Cl17  1  0.10342718  0.60532870  0.39467130  1
  Cl  Cl18  1  0.72573610  0.41656561  0.91656561  1
  Cl  Cl19  1  0.89657282  0.39467130  0.60532870  1
  Cl  Cl20  1  0.24613571  0.25000000  0.75000000  1
  Cl  Cl21  1  0.89657282  0.10532870  0.89467130  1
