# generated using pymatgen
data_La4C2Cl5
_symmetry_space_group_name_H-M   'P 1'
_cell_length_a   3.97973367
_cell_length_b   7.97669202
_cell_length_c   9.84069206
_cell_angle_alpha   113.91925470
_cell_angle_beta   101.66579061
_cell_angle_gamma   90.00175374
_symmetry_Int_Tables_number   1
_chemical_formula_structural   La4C2Cl5
_chemical_formula_sum   'La4 C2 Cl5'
_cell_volume   278.49002461
_cell_formula_units_Z   1
loop_
 _symmetry_equiv_pos_site_id
 _symmetry_equiv_pos_as_xyz
  1  'x, y, z'
loop_
 _atom_site_type_symbol
 _atom_site_label
 _atom_site_symmetry_multiplicity
 _atom_site_fract_x
 _atom_site_fract_y
 _atom_site_fract_z
 _atom_site_occupancy
  La  La0  1  0.32836131  0.32835102  0.65674348  1
  La  La1  1  0.00001224  0.71302893  0.00000099  1
  La  La2  1  0.67163869  0.67164898  0.34325652  1
  La  La3  1  0.99998776  0.28697107  0.99999901  1
  C  C4  1  0.45938053  0.45939776  0.91892668  1
  C  C5  1  0.54061947  0.54060224  0.08107332  1
  Cl  Cl6  1  0.83248162  0.60469143  0.66497193  1
  Cl  Cl7  1  0.16751838  0.39530857  0.33502807  1
  Cl  Cl8  1  0.83245963  0.06024657  0.66496061  1
  Cl  Cl9  1  0.50000000  0.00000000  0.00000000  1
  Cl  Cl10  1  0.16754037  0.93975343  0.33503939  1
