# generated using pymatgen
data_Yb2Tl
_symmetry_space_group_name_H-M   'P 1'
_cell_length_a   5.32923535
_cell_length_b   7.21827476
_cell_length_c   9.86100701
_cell_angle_alpha   90.00000000
_cell_angle_beta   90.00000000
_cell_angle_gamma   90.00000000
_symmetry_Int_Tables_number   1
_chemical_formula_structural   Yb2Tl
_chemical_formula_sum   'Yb8 Tl4'
_cell_volume   379.33208381
_cell_formula_units_Z   4
loop_
 _symmetry_equiv_pos_site_id
 _symmetry_equiv_pos_as_xyz
  1  'x, y, z'
loop_
 _atom_site_type_symbol
 _atom_site_label
 _atom_site_symmetry_multiplicity
 _atom_site_fract_x
 _atom_site_fract_y
 _atom_site_fract_z
 _atom_site_occupancy
  Yb  Yb0  1  0.25000000  0.66858866  0.43294197  1
  Yb  Yb1  1  0.75000000  0.33141134  0.56705803  1
  Yb  Yb2  1  0.75000000  0.96837147  0.30125689  1
  Yb  Yb3  1  0.25000000  0.03162853  0.69874311  1
  Yb  Yb4  1  0.25000000  0.16858866  0.06705803  1
  Yb  Yb5  1  0.75000000  0.83141134  0.93294197  1
  Yb  Yb6  1  0.75000000  0.46837147  0.19874311  1
  Yb  Yb7  1  0.25000000  0.53162853  0.80125689  1
  Tl  Tl8  1  0.25000000  0.22778190  0.38786835  1
  Tl  Tl9  1  0.75000000  0.27221810  0.88786835  1
  Tl  Tl10  1  0.25000000  0.72778190  0.11213165  1
  Tl  Tl11  1  0.75000000  0.77221810  0.61213165  1
