# generated using pymatgen
data_Ba6Zn(InCl10)2
_symmetry_space_group_name_H-M   'P 1'
_cell_length_a   10.32866768
_cell_length_b   18.17542656
_cell_length_c   19.97289037
_cell_angle_alpha   111.08793908
_cell_angle_beta   90.00000000
_cell_angle_gamma   90.00000000
_symmetry_Int_Tables_number   1
_chemical_formula_structural   Ba6Zn(InCl10)2
_chemical_formula_sum   'Ba24 Zn4 In8 Cl80'
_cell_volume   3498.36495966
_cell_formula_units_Z   4
loop_
 _symmetry_equiv_pos_site_id
 _symmetry_equiv_pos_as_xyz
  1  'x, y, z'
loop_
 _atom_site_type_symbol
 _atom_site_label
 _atom_site_symmetry_multiplicity
 _atom_site_fract_x
 _atom_site_fract_y
 _atom_site_fract_z
 _atom_site_occupancy
  Ba  Ba0  1  0.20787569  0.26494440  0.95991390  1
  Ba  Ba1  1  0.26173232  0.00995495  0.52555941  1
  Ba  Ba2  1  0.25343555  0.06006310  0.26930846  1
  Ba  Ba3  1  0.74656445  0.93993690  0.73069154  1
  Ba  Ba4  1  0.79212431  0.73505560  0.04008610  1
  Ba  Ba5  1  0.29212431  0.76494440  0.95991390  1
  Ba  Ba6  1  0.24656445  0.56006310  0.26930846  1
  Ba  Ba7  1  0.76173232  0.49004505  0.47444059  1
  Ba  Ba8  1  0.50810435  0.75067920  0.49566192  1
  Ba  Ba9  1  0.99189565  0.25067920  0.49566192  1
  Ba  Ba10  1  0.51343926  0.17895948  0.73462071  1
  Ba  Ba11  1  0.73826768  0.99004505  0.47444059  1
  Ba  Ba12  1  0.75343555  0.43993690  0.73069154  1
  Ba  Ba13  1  0.01343926  0.32104052  0.26537929  1
  Ba  Ba14  1  0.00810435  0.74932080  0.50433808  1
  Ba  Ba15  1  0.25929231  0.91196270  0.73049074  1
  Ba  Ba16  1  0.70787569  0.23505560  0.04008610  1
  Ba  Ba17  1  0.23826768  0.50995495  0.52555941  1
  Ba  Ba18  1  0.75929231  0.58803730  0.26950926  1
  Ba  Ba19  1  0.49189565  0.24932080  0.50433808  1
  Ba  Ba20  1  0.98656074  0.67895948  0.73462071  1
  Ba  Ba21  1  0.48656074  0.82104052  0.26537929  1
  Ba  Ba22  1  0.24070769  0.41196270  0.73049074  1
  Ba  Ba23  1  0.74070769  0.08803730  0.26950926  1
  Zn  Zn24  1  0.97656361  0.42392411  0.10733860  1
  Zn  Zn25  1  0.47656361  0.07607589  0.89266140  1
  Zn  Zn26  1  0.52343639  0.92392411  0.10733860  1
  Zn  Zn27  1  0.02343639  0.57607589  0.89266140  1
  In  In28  1  0.00797837  0.15783636  0.68825624  1
  In  In29  1  0.51752657  0.41430332  0.91178013  1
  In  In30  1  0.98247343  0.91430332  0.91178013  1
  In  In31  1  0.48247343  0.58569668  0.08821987  1
  In  In32  1  0.50797837  0.34216364  0.31174376  1
  In  In33  1  0.01752657  0.08569668  0.08821987  1
  In  In34  1  0.49202163  0.65783636  0.68825624  1
  In  In35  1  0.99202163  0.84216364  0.31174376  1
  Cl  Cl36  1  0.51437081  0.31968701  0.67339492  1
  Cl  Cl37  1  0.49701599  0.49732051  0.83641034  1
  Cl  Cl38  1  0.33029970  0.87674772  0.13566566  1
  Cl  Cl39  1  0.50298401  0.50267949  0.16358966  1
  Cl  Cl40  1  0.68969010  0.33063617  0.83349210  1
  Cl  Cl41  1  0.31361004  0.11509395  0.83178966  1
  Cl  Cl42  1  0.68638996  0.88490605  0.16821034  1
  Cl  Cl43  1  0.26111394  0.69178623  0.66193076  1
  Cl  Cl44  1  0.83132139  0.17598617  0.16108346  1
  Cl  Cl45  1  0.23888606  0.19178623  0.66193076  1
  Cl  Cl46  1  0.98706906  0.78689619  0.18077425  1
  Cl  Cl47  1  0.55709234  0.78801584  0.67251979  1
  Cl  Cl48  1  0.48706906  0.71310381  0.81922575  1
  Cl  Cl49  1  0.49774544  0.67390870  0.01336081  1
  Cl  Cl50  1  0.16867861  0.82401383  0.83891654  1
  Cl  Cl51  1  0.28305498  0.40311626  0.31826699  1
  Cl  Cl52  1  0.49093604  0.94365497  0.84490349  1
  Cl  Cl53  1  0.25057544  0.63185105  0.44202713  1
  Cl  Cl54  1  0.99701599  0.00267949  0.16358966  1
  Cl  Cl55  1  0.52109752  0.10761884  0.56072614  1
  Cl  Cl56  1  0.71694502  0.59688374  0.68173301  1
  Cl  Cl57  1  0.76111394  0.80821377  0.33806924  1
  Cl  Cl58  1  0.90590047  0.98156953  0.33408400  1
  Cl  Cl59  1  0.59409953  0.48156953  0.33408400  1
  Cl  Cl60  1  0.76141970  0.65296052  0.43774871  1
  Cl  Cl61  1  0.74942456  0.36814895  0.55797287  1
  Cl  Cl62  1  0.44290766  0.21198416  0.32748021  1
  Cl  Cl63  1  0.66970030  0.12325228  0.86433434  1
  Cl  Cl64  1  0.33132139  0.32401383  0.83891654  1
  Cl  Cl65  1  0.00225456  0.17390870  0.01336081  1
  Cl  Cl66  1  0.31030990  0.66936383  0.16650790  1
  Cl  Cl67  1  0.78305498  0.09688374  0.68173301  1
  Cl  Cl68  1  0.51293094  0.28689619  0.18077425  1
  Cl  Cl69  1  0.82890453  0.00697327  0.00414849  1
  Cl  Cl70  1  0.23858030  0.34703948  0.56225129  1
  Cl  Cl71  1  0.43341379  0.14613593  0.00913157  1
  Cl  Cl72  1  0.21694502  0.90311626  0.31826699  1
  Cl  Cl73  1  0.98562919  0.81968701  0.67339492  1
  Cl  Cl74  1  0.56658621  0.85386407  0.99086843  1
  Cl  Cl75  1  0.81361004  0.38490605  0.16821034  1
  Cl  Cl76  1  0.17109547  0.99302673  0.99585151  1
  Cl  Cl77  1  0.99093604  0.55634503  0.15509651  1
  Cl  Cl78  1  0.26141970  0.84703948  0.56225129  1
  Cl  Cl79  1  0.01293094  0.21310381  0.81922575  1
  Cl  Cl80  1  0.94290766  0.28801584  0.67251979  1
  Cl  Cl81  1  0.01554572  0.89790843  0.45369477  1
  Cl  Cl82  1  0.73858030  0.15296052  0.43774871  1
  Cl  Cl83  1  0.99774544  0.82609130  0.98663919  1
  Cl  Cl84  1  0.51672272  0.00609927  0.32394380  1
  Cl  Cl85  1  0.16970030  0.37674772  0.13566566  1
  Cl  Cl86  1  0.50906396  0.05634503  0.15509651  1
  Cl  Cl87  1  0.05709234  0.71198416  0.32748021  1
  Cl  Cl88  1  0.66867861  0.67598617  0.16108346  1
  Cl  Cl89  1  0.48445428  0.39790843  0.45369477  1
  Cl  Cl90  1  0.97890248  0.60761884  0.56072614  1
  Cl  Cl91  1  0.00906396  0.44365497  0.84490349  1
  Cl  Cl92  1  0.98327728  0.50609927  0.32394380  1
  Cl  Cl93  1  0.50225456  0.32609130  0.98663919  1
  Cl  Cl94  1  0.40590047  0.51843047  0.66591600  1
  Cl  Cl95  1  0.18638996  0.61509395  0.83178966  1
  Cl  Cl96  1  0.24942456  0.13185105  0.44202713  1
  Cl  Cl97  1  0.06658621  0.64613593  0.00913157  1
  Cl  Cl98  1  0.73888606  0.30821377  0.33806924  1
  Cl  Cl99  1  0.48327728  0.99390073  0.67605620  1
  Cl  Cl100  1  0.67109547  0.50697327  0.00414849  1
  Cl  Cl101  1  0.32890453  0.49302673  0.99585151  1
  Cl  Cl102  1  0.83029970  0.62325228  0.86433434  1
  Cl  Cl103  1  0.81030990  0.83063617  0.83349210  1
  Cl  Cl104  1  0.98445428  0.10209157  0.54630523  1
  Cl  Cl105  1  0.09409953  0.01843047  0.66591600  1
  Cl  Cl106  1  0.18969010  0.16936383  0.16650790  1
  Cl  Cl107  1  0.47890248  0.89238116  0.43927386  1
  Cl  Cl108  1  0.01672272  0.49390073  0.67605620  1
  Cl  Cl109  1  0.51554572  0.60209157  0.54630523  1
  Cl  Cl110  1  0.75057544  0.86814895  0.55797287  1
  Cl  Cl111  1  0.01437081  0.18031299  0.32660508  1
  Cl  Cl112  1  0.00298401  0.99732051  0.83641034  1
  Cl  Cl113  1  0.02109752  0.39238116  0.43927386  1
  Cl  Cl114  1  0.48562919  0.68031299  0.32660508  1
  Cl  Cl115  1  0.93341379  0.35386407  0.99086843  1
