# generated using pymatgen
data_Sm(AlZn)2
_symmetry_space_group_name_H-M   'P 1'
_cell_length_a   4.16704009
_cell_length_b   4.16703598
_cell_length_c   6.23900743
_cell_angle_alpha   109.50646474
_cell_angle_beta   109.50655880
_cell_angle_gamma   90.00126003
_symmetry_Int_Tables_number   1
_chemical_formula_structural   Sm(AlZn)2
_chemical_formula_sum   'Sm1 Al2 Zn2'
_cell_volume   95.49494438
_cell_formula_units_Z   1
loop_
 _symmetry_equiv_pos_site_id
 _symmetry_equiv_pos_as_xyz
  1  'x, y, z'
loop_
 _atom_site_type_symbol
 _atom_site_label
 _atom_site_symmetry_multiplicity
 _atom_site_fract_x
 _atom_site_fract_y
 _atom_site_fract_z
 _atom_site_occupancy
  Sm  Sm0  1  0.00000000  0.00000000  0.00000000  1
  Al  Al1  1  0.24996304  0.75003679  0.49999983  1
  Al  Al2  1  0.75003696  0.24996321  0.50000017  1
  Zn  Zn3  1  0.61040469  0.61040446  0.22077794  1
  Zn  Zn4  1  0.38959531  0.38959554  0.77922206  1
