# generated using pymatgen
data_NaCe(PSe3)2
_symmetry_space_group_name_H-M   'P 1'
_cell_length_a   7.79007883
_cell_length_b   11.81840368
_cell_length_c   12.28925636
_cell_angle_alpha   111.55991345
_cell_angle_beta   90.00000000
_cell_angle_gamma   90.00000000
_symmetry_Int_Tables_number   1
_chemical_formula_structural   NaCe(PSe3)2
_chemical_formula_sum   'Na4 Ce4 P8 Se24'
_cell_volume   1052.26473320
_cell_formula_units_Z   4
loop_
 _symmetry_equiv_pos_site_id
 _symmetry_equiv_pos_as_xyz
  1  'x, y, z'
loop_
 _atom_site_type_symbol
 _atom_site_label
 _atom_site_symmetry_multiplicity
 _atom_site_fract_x
 _atom_site_fract_y
 _atom_site_fract_z
 _atom_site_occupancy
  Na  Na0  1  0.39249286  0.62331707  0.85892373  1
  Na  Na1  1  0.10750714  0.12331707  0.85892373  1
  Na  Na2  1  0.89249286  0.87668293  0.14107627  1
  Na  Na3  1  0.60750714  0.37668293  0.14107627  1
  Ce  Ce4  1  0.89301535  0.41121461  0.65650691  1
  Ce  Ce5  1  0.10698465  0.58878539  0.34349309  1
  Ce  Ce6  1  0.39301535  0.08878539  0.34349309  1
  Ce  Ce7  1  0.60698465  0.91121461  0.65650691  1
  P  P8  1  0.38712771  0.74904338  0.19504425  1
  P  P9  1  0.40124593  0.25216690  0.68013519  1
  P  P10  1  0.11287229  0.24904338  0.19504425  1
  P  P11  1  0.90124593  0.24783310  0.31986481  1
  P  P12  1  0.61287229  0.25095662  0.80495575  1
  P  P13  1  0.59875407  0.74783310  0.31986481  1
  P  P14  1  0.09875407  0.75216690  0.68013519  1
  P  P15  1  0.88712771  0.75095662  0.80495575  1
  Se  Se16  1  0.29577983  0.55910245  0.11592302  1
  Se  Se17  1  0.18049895  0.85483955  0.31105655  1
  Se  Se18  1  0.70422017  0.44089755  0.88407698  1
  Se  Se19  1  0.31950105  0.35483955  0.31105655  1
  Se  Se20  1  0.99557192  0.65481898  0.91102048  1
  Se  Se21  1  0.47158875  0.68319207  0.44934515  1
  Se  Se22  1  0.81950105  0.14516045  0.68894345  1
  Se  Se23  1  0.00442808  0.34518102  0.08897952  1
  Se  Se24  1  0.79381830  0.62649546  0.20656645  1
  Se  Se25  1  0.80653541  0.43662504  0.40794131  1
  Se  Se26  1  0.02841125  0.18319207  0.44934515  1
  Se  Se27  1  0.20422017  0.05910245  0.11592302  1
  Se  Se28  1  0.68049895  0.64516045  0.68894345  1
  Se  Se29  1  0.50442808  0.15481898  0.91102048  1
  Se  Se30  1  0.79577983  0.94089755  0.88407698  1
  Se  Se31  1  0.70618170  0.12649546  0.20656645  1
  Se  Se32  1  0.19346459  0.56337496  0.59205869  1
  Se  Se33  1  0.30653541  0.06337496  0.59205869  1
  Se  Se34  1  0.29381830  0.87350454  0.79343355  1
  Se  Se35  1  0.49557192  0.84518102  0.08897952  1
  Se  Se36  1  0.97158875  0.81680793  0.55065485  1
  Se  Se37  1  0.20618170  0.37350454  0.79343355  1
  Se  Se38  1  0.52841125  0.31680793  0.55065485  1
  Se  Se39  1  0.69346459  0.93662504  0.40794131  1
