# generated using pymatgen
data_ThFe2SiC
_symmetry_space_group_name_H-M   'P 1'
_cell_length_a   3.89455142
_cell_length_b   5.69018280
_cell_length_c   6.79010108
_cell_angle_alpha   90.00000000
_cell_angle_beta   90.00000000
_cell_angle_gamma   110.01198647
_symmetry_Int_Tables_number   1
_chemical_formula_structural   ThFe2SiC
_chemical_formula_sum   'Th2 Fe4 Si2 C2'
_cell_volume   141.38802798
_cell_formula_units_Z   2
loop_
 _symmetry_equiv_pos_site_id
 _symmetry_equiv_pos_as_xyz
  1  'x, y, z'
loop_
 _atom_site_type_symbol
 _atom_site_label
 _atom_site_symmetry_multiplicity
 _atom_site_fract_x
 _atom_site_fract_y
 _atom_site_fract_z
 _atom_site_occupancy
  Th  Th0  1  0.94146239  0.88292478  0.25000000  1
  Th  Th1  1  0.05853761  0.11707522  0.75000000  1
  Fe  Fe2  1  0.66376478  0.32752955  0.06056932  1
  Fe  Fe3  1  0.66376478  0.32752955  0.43943068  1
  Fe  Fe4  1  0.33623522  0.67247045  0.93943068  1
  Fe  Fe5  1  0.33623522  0.67247045  0.56056932  1
  Si  Si6  1  0.22465107  0.44930215  0.25000000  1
  Si  Si7  1  0.77534893  0.55069785  0.75000000  1
  C  C8  1  0.50000000  0.00000000  0.50000000  1
  C  C9  1  0.50000000  0.00000000  0.00000000  1
