# generated using pymatgen
data_Mo3As2O15
_symmetry_space_group_name_H-M   'P 1'
_cell_length_a   7.78645414
_cell_length_b   7.59668906
_cell_length_c   12.13392597
_cell_angle_alpha   98.77444083
_cell_angle_beta   71.28537914
_cell_angle_gamma   120.82982927
_symmetry_Int_Tables_number   1
_chemical_formula_structural   Mo3As2O15
_chemical_formula_sum   'Mo6 As4 O30'
_cell_volume   583.66802862
_cell_formula_units_Z   2
loop_
 _symmetry_equiv_pos_site_id
 _symmetry_equiv_pos_as_xyz
  1  'x, y, z'
loop_
 _atom_site_type_symbol
 _atom_site_label
 _atom_site_symmetry_multiplicity
 _atom_site_fract_x
 _atom_site_fract_y
 _atom_site_fract_z
 _atom_site_occupancy
  Mo  Mo0  1  0.87366442  0.00891359  0.84875395  1
  Mo  Mo1  1  0.70991006  0.53882042  0.66673344  1
  Mo  Mo2  1  0.16217692  0.03882042  0.16673344  1
  Mo  Mo3  1  0.28649523  0.50891359  0.34875395  1
  Mo  Mo4  1  0.51403846  0.00014051  0.52598934  1
  Mo  Mo5  1  0.96011271  0.50014051  0.02598934  1
  As  As6  1  0.55352078  0.24135446  0.90372264  1
  As  As7  1  0.22486125  0.25224877  0.58635079  1
  As  As8  1  0.44103674  0.75224877  0.08635079  1
  As  As9  1  0.78411104  0.74135446  0.40372264  1
  O  O10  1  0.26608306  0.04632319  0.53245826  1
  O  O11  1  0.75356216  0.45467561  0.95007034  1
  O  O12  1  0.75104311  0.95467561  0.45007034  1
  O  O13  1  0.24778187  0.54632319  0.03245826  1
  O  O14  1  0.71276442  0.75579703  0.75309059  1
  O  O15  1  0.28994202  0.25579703  0.25309059  1
  O  O16  1  0.39896978  0.86744361  0.65458929  1
  O  O17  1  0.22336814  0.59720864  0.86274978  1
  O  O18  1  0.51109072  0.09720864  0.36274978  1
  O  O19  1  0.81388454  0.36744361  0.15458929  1
  O  O20  1  0.35086768  0.74422774  0.43321289  1
  O  O21  1  0.03955073  0.76234377  0.06294752  1
  O  O22  1  0.65984552  0.26234377  0.56294752  1
  O  O23  1  0.96014716  0.24422774  0.93321289  1
  O  O24  1  0.06623826  0.95356772  0.83262175  1
  O  O25  1  0.93131248  0.55314907  0.67509565  1
  O  O26  1  0.94674093  0.05314907  0.17509565  1
  O  O27  1  0.05470772  0.45356772  0.33262175  1
  O  O28  1  0.84233857  0.68316775  0.51397914  1
  O  O29  1  0.67904269  0.82060265  0.98503541  1
  O  O30  1  0.15652455  0.32060265  0.48503541  1
  O  O31  1  0.32685003  0.18316775  0.01397914  1
  O  O32  1  0.99234284  0.15563830  0.69654225  1
  O  O33  1  0.51537788  0.33006647  0.79597255  1
  O  O34  1  0.01871604  0.83006647  0.29597255  1
  O  O35  1  0.46675322  0.65563830  0.19654225  1
  O  O36  1  0.42226674  0.45201389  0.63128202  1
  O  O37  1  0.59800768  0.04249682  0.86380242  1
  O  O38  1  0.58068672  0.54249682  0.36380242  1
  O  O39  1  0.39846513  0.95201389  0.13128202  1
