# generated using pymatgen
data_Rh4Pb5
_symmetry_space_group_name_H-M   'P 1'
_cell_length_a   5.78615359
_cell_length_b   5.78625875
_cell_length_c   13.85220802
_cell_angle_alpha   96.09512493
_cell_angle_beta   96.08551129
_cell_angle_gamma   119.46803953
_symmetry_Int_Tables_number   1
_chemical_formula_structural   Rh4Pb5
_chemical_formula_sum   'Rh8 Pb10'
_cell_volume   394.72883331
_cell_formula_units_Z   2
loop_
 _symmetry_equiv_pos_site_id
 _symmetry_equiv_pos_as_xyz
  1  'x, y, z'
loop_
 _atom_site_type_symbol
 _atom_site_label
 _atom_site_symmetry_multiplicity
 _atom_site_fract_x
 _atom_site_fract_y
 _atom_site_fract_z
 _atom_site_occupancy
  Rh  Rh0  1  0.91606138  0.91606972  0.83210296  1
  Rh  Rh1  1  0.08393862  0.08393028  0.16789704  1
  Rh  Rh2  1  0.75000942  0.24999740  0.49999799  1
  Rh  Rh3  1  0.91825083  0.41825915  0.83651136  1
  Rh  Rh4  1  0.08174917  0.58174085  0.16348864  1
  Rh  Rh5  1  0.41825282  0.91824174  0.83651121  1
  Rh  Rh6  1  0.58174718  0.08175826  0.16348879  1
  Rh  Rh7  1  0.24999058  0.75000260  0.50000201  1
  Pb  Pb8  1  0.83594169  0.16406306  0.99999867  1
  Pb  Pb9  1  0.99925179  0.33320780  0.33243456  1
  Pb  Pb10  1  0.41203918  0.41203852  0.82404701  1
  Pb  Pb11  1  0.16405831  0.83593694  0.00000133  1
  Pb  Pb12  1  0.58796082  0.58796148  0.17595299  1
  Pb  Pb13  1  0.66679493  0.00074584  0.66756105  1
  Pb  Pb14  1  0.33320507  0.99925416  0.33243895  1
  Pb  Pb15  1  0.00074821  0.66679220  0.66756544  1
  Pb  Pb16  1  0.28666525  0.28666692  0.57334929  1
  Pb  Pb17  1  0.71333475  0.71333308  0.42665071  1
