# generated using pymatgen
data_Zr(TeCl6)2
_symmetry_space_group_name_H-M   'P 1'
_cell_length_a   26.17692714
_cell_length_b   26.17692710
_cell_length_c   26.17692709
_cell_angle_alpha   25.96475807
_cell_angle_beta   25.96475825
_cell_angle_gamma   25.96475872
_symmetry_Int_Tables_number   1
_chemical_formula_structural   Zr(TeCl6)2
_chemical_formula_sum   'Zr6 Te12 Cl72'
_cell_volume   3028.57196911
_cell_formula_units_Z   6
loop_
 _symmetry_equiv_pos_site_id
 _symmetry_equiv_pos_as_xyz
  1  'x, y, z'
loop_
 _atom_site_type_symbol
 _atom_site_label
 _atom_site_symmetry_multiplicity
 _atom_site_fract_x
 _atom_site_fract_y
 _atom_site_fract_z
 _atom_site_occupancy
  Zr  Zr0  1  0.37377771  0.37377771  0.37377771  1
  Zr  Zr1  1  0.12622229  0.12622229  0.12622229  1
  Zr  Zr2  1  0.62622229  0.62622229  0.62622229  1
  Zr  Zr3  1  0.75000000  0.75000000  0.75000000  1
  Zr  Zr4  1  0.87377771  0.87377771  0.87377771  1
  Zr  Zr5  1  0.25000000  0.25000000  0.25000000  1
  Te  Te6  1  0.52315192  0.23079606  0.86992594  1
  Te  Te7  1  0.13007406  0.47684808  0.76920394  1
  Te  Te8  1  0.36992594  0.73079606  0.02315192  1
  Te  Te9  1  0.97684808  0.63007406  0.26920394  1
  Te  Te10  1  0.47684808  0.76920394  0.13007406  1
  Te  Te11  1  0.63007406  0.26920394  0.97684808  1
  Te  Te12  1  0.02315192  0.36992594  0.73079606  1
  Te  Te13  1  0.76920394  0.13007406  0.47684808  1
  Te  Te14  1  0.73079606  0.02315192  0.36992594  1
  Te  Te15  1  0.23079606  0.86992594  0.52315192  1
  Te  Te16  1  0.26920394  0.97684808  0.63007406  1
  Te  Te17  1  0.86992594  0.52315192  0.23079606  1
  Cl  Cl18  1  0.16409584  0.79427939  0.11129218  1
  Cl  Cl19  1  0.53409282  0.57310234  0.20899717  1
  Cl  Cl20  1  0.56778781  0.86978799  0.86915649  1
  Cl  Cl21  1  0.45361307  0.79991587  0.81629423  1
  Cl  Cl22  1  0.15389200  0.44827033  0.46308854  1
  Cl  Cl23  1  0.79764485  0.78872039  0.09284217  1
  Cl  Cl24  1  0.83590416  0.20572061  0.88870782  1
  Cl  Cl25  1  0.84610800  0.55172967  0.53691146  1
  Cl  Cl26  1  0.05172967  0.34610800  0.03691146  1
  Cl  Cl27  1  0.53691146  0.84610800  0.55172967  1
  Cl  Cl28  1  0.55172967  0.53691146  0.84610800  1
  Cl  Cl29  1  0.06778781  0.36915649  0.36978799  1
  Cl  Cl30  1  0.93221219  0.63084351  0.63021201  1
  Cl  Cl31  1  0.66409584  0.61129218  0.29427939  1
  Cl  Cl32  1  0.21127961  0.90715783  0.20235515  1
  Cl  Cl33  1  0.78872039  0.09284217  0.79764485  1
  Cl  Cl34  1  0.34610800  0.03691146  0.05172967  1
  Cl  Cl35  1  0.29427939  0.66409584  0.61129218  1
  Cl  Cl36  1  0.86915649  0.56778781  0.86978799  1
  Cl  Cl37  1  0.57310234  0.20899717  0.53409282  1
  Cl  Cl38  1  0.04638693  0.68370577  0.70008413  1
  Cl  Cl39  1  0.95361307  0.31629423  0.29991587  1
  Cl  Cl40  1  0.96590718  0.29100283  0.92689766  1
  Cl  Cl41  1  0.92689766  0.96590718  0.29100283  1
  Cl  Cl42  1  0.61129218  0.29427939  0.66409584  1
  Cl  Cl43  1  0.79991587  0.81629423  0.45361307  1
  Cl  Cl44  1  0.70572061  0.33590416  0.38870782  1
  Cl  Cl45  1  0.20899717  0.53409282  0.57310234  1
  Cl  Cl46  1  0.20008413  0.18370577  0.54638693  1
  Cl  Cl47  1  0.29764485  0.59284217  0.28872039  1
  Cl  Cl48  1  0.33590416  0.38870782  0.70572061  1
  Cl  Cl49  1  0.13021201  0.13084351  0.43221219  1
  Cl  Cl50  1  0.03409282  0.70899717  0.07310234  1
  Cl  Cl51  1  0.40715783  0.71127961  0.70235515  1
  Cl  Cl52  1  0.68370577  0.70008413  0.04638693  1
  Cl  Cl53  1  0.44827033  0.46308854  0.15389200  1
  Cl  Cl54  1  0.63084351  0.63021201  0.93221219  1
  Cl  Cl55  1  0.18370577  0.54638693  0.20008413  1
  Cl  Cl56  1  0.38870782  0.70572061  0.33590416  1
  Cl  Cl57  1  0.03691146  0.05172967  0.34610800  1
  Cl  Cl58  1  0.94827033  0.65389200  0.96308854  1
  Cl  Cl59  1  0.46590718  0.42689766  0.79100283  1
  Cl  Cl60  1  0.79427939  0.11129218  0.16409584  1
  Cl  Cl61  1  0.07310234  0.03409282  0.70899717  1
  Cl  Cl62  1  0.70235515  0.40715783  0.71127961  1
  Cl  Cl63  1  0.59284217  0.28872039  0.29764485  1
  Cl  Cl64  1  0.70008413  0.04638693  0.68370577  1
  Cl  Cl65  1  0.36915649  0.36978799  0.06778781  1
  Cl  Cl66  1  0.90715783  0.20235515  0.21127961  1
  Cl  Cl67  1  0.79100283  0.46590718  0.42689766  1
  Cl  Cl68  1  0.20572061  0.88870782  0.83590416  1
  Cl  Cl69  1  0.42689766  0.79100283  0.46590718  1
  Cl  Cl70  1  0.54638693  0.20008413  0.18370577  1
  Cl  Cl71  1  0.29100283  0.92689766  0.96590718  1
  Cl  Cl72  1  0.86978799  0.86915649  0.56778781  1
  Cl  Cl73  1  0.81629423  0.45361307  0.79991587  1
  Cl  Cl74  1  0.70899717  0.07310234  0.03409282  1
  Cl  Cl75  1  0.11129218  0.16409584  0.79427939  1
  Cl  Cl76  1  0.43221219  0.13021201  0.13084351  1
  Cl  Cl77  1  0.20235515  0.21127961  0.90715783  1
  Cl  Cl78  1  0.09284217  0.79764485  0.78872039  1
  Cl  Cl79  1  0.29991587  0.95361307  0.31629423  1
  Cl  Cl80  1  0.13084351  0.43221219  0.13021201  1
  Cl  Cl81  1  0.46308854  0.15389200  0.44827033  1
  Cl  Cl82  1  0.71127961  0.70235515  0.40715783  1
  Cl  Cl83  1  0.88870782  0.83590416  0.20572061  1
  Cl  Cl84  1  0.31629423  0.29991587  0.95361307  1
  Cl  Cl85  1  0.96308854  0.94827033  0.65389200  1
  Cl  Cl86  1  0.36978799  0.06778781  0.36915649  1
  Cl  Cl87  1  0.28872039  0.29764485  0.59284217  1
  Cl  Cl88  1  0.65389200  0.96308854  0.94827033  1
  Cl  Cl89  1  0.63021201  0.93221219  0.63084351  1
