# generated using pymatgen
data_La3C2I3
_symmetry_space_group_name_H-M   'P 1'
_cell_length_a   10.82548586
_cell_length_b   10.82548601
_cell_length_c   17.88202728
_cell_angle_alpha   90.00000000
_cell_angle_beta   90.00000000
_cell_angle_gamma   111.69778527
_symmetry_Int_Tables_number   1
_chemical_formula_structural   La3C2I3
_chemical_formula_sum   'La24 C16 I24'
_cell_volume   1947.13435000
_cell_formula_units_Z   8
loop_
 _symmetry_equiv_pos_site_id
 _symmetry_equiv_pos_as_xyz
  1  'x, y, z'
loop_
 _atom_site_type_symbol
 _atom_site_label
 _atom_site_symmetry_multiplicity
 _atom_site_fract_x
 _atom_site_fract_y
 _atom_site_fract_z
 _atom_site_occupancy
  La  La0  1  0.15679705  0.89425247  1.00036946  1
  La  La1  1  0.74087448  0.76926545  0.40058018  1
  La  La2  1  0.61567603  0.32341912  0.97929659  1
  La  La3  1  0.63112171  0.36887829  0.75000000  1
  La  La4  1  0.55213370  0.00995767  0.60330869  1
  La  La5  1  0.38432397  0.67658088  0.47929659  1
  La  La6  1  0.76926545  0.74087448  0.59941982  1
  La  La7  1  0.47064963  0.97383126  0.38123055  1
  La  La8  1  0.97383126  0.47064963  0.61876945  1
  La  La9  1  0.52935037  0.02616874  0.88123055  1
  La  La10  1  0.44786630  0.99004233  0.10330869  1
  La  La11  1  0.10574753  0.84320295  0.49963054  1
  La  La12  1  0.32341912  0.61567603  0.02070341  1
  La  La13  1  0.00995767  0.55213370  0.39669131  1
  La  La14  1  0.83124798  0.16875202  0.75000000  1
  La  La15  1  0.23073455  0.25912552  0.09941982  1
  La  La16  1  0.25912552  0.23073455  0.90058018  1
  La  La17  1  0.99004233  0.44786630  0.89669131  1
  La  La18  1  0.67658088  0.38432397  0.52070341  1
  La  La19  1  0.16875202  0.83124798  0.25000000  1
  La  La20  1  0.84320295  0.10574753  0.50036946  1
  La  La21  1  0.02616874  0.52935037  0.11876945  1
  La  La22  1  0.36887829  0.63112171  0.25000000  1
  La  La23  1  0.89425247  0.15679705  -0.00036946  1
  C  C24  1  0.28042080  0.72490167  0.34988759  1
  C  C25  1  0.90262471  0.59090037  0.52868317  1
  C  C26  1  0.65668671  0.85304921  0.52352956  1
  C  C27  1  0.59090037  0.90262471  0.47131683  1
  C  C28  1  0.71957920  0.27509833  0.84988759  1
  C  C29  1  0.78131972  0.22506024  0.90414321  1
  C  C30  1  0.21868028  0.77493976  0.40414321  1
  C  C31  1  0.27509833  0.71957920  0.15011241  1
  C  C32  1  0.72490167  0.28042080  0.65011241  1
  C  C33  1  0.34331329  0.14695079  0.02352956  1
  C  C34  1  0.85304921  0.65668671  0.47647044  1
  C  C35  1  0.14695079  0.34331329  0.97647044  1
  C  C36  1  0.22506024  0.78131972  0.09585679  1
  C  C37  1  0.09737529  0.40909963  0.02868317  1
  C  C38  1  0.40909963  0.09737529  0.97131683  1
  C  C39  1  0.77493976  0.21868028  0.59585679  1
  I  I40  1  0.36296808  0.09886733  0.74315056  1
  I  I41  1  0.86320702  0.62986096  0.99392103  1
  I  I42  1  0.90113267  0.63703192  0.75684944  1
  I  I43  1  0.50122465  0.51767130  0.88088791  1
  I  I44  1  0.14174726  0.37047970  0.75434909  1
  I  I45  1  0.37013904  0.13679298  0.50607897  1
  I  I46  1  0.48232870  0.49877535  0.61911209  1
  I  I47  1  0.98674068  0.97953807  0.13264539  1
  I  I48  1  0.49877535  0.48232870  0.38088791  1
  I  I49  1  0.13679298  0.37013904  0.49392103  1
  I  I50  1  0.74601890  0.25973261  0.36725351  1
  I  I51  1  0.97953807  0.98674068  0.86735461  1
  I  I52  1  0.02046193  0.01325932  0.36735461  1
  I  I53  1  0.25973261  0.74601890  0.63274649  1
  I  I54  1  0.74026739  0.25398110  0.13274649  1
  I  I55  1  0.25398110  0.74026739  0.86725351  1
  I  I56  1  0.62986096  0.86320702  0.00607897  1
  I  I57  1  0.09886733  0.36296808  0.25684944  1
  I  I58  1  0.01325932  0.02046193  0.63264539  1
  I  I59  1  0.37047970  0.14174726  0.24565091  1
  I  I60  1  0.63703192  0.90113267  0.24315056  1
  I  I61  1  0.62952030  0.85825274  0.74565091  1
  I  I62  1  0.51767130  0.50122465  0.11911209  1
  I  I63  1  0.85825274  0.62952030  0.25434909  1
