# generated using pymatgen
data_La(AlZn)2
_symmetry_space_group_name_H-M   'P 1'
_cell_length_a   4.26112833
_cell_length_b   4.26112833
_cell_length_c   6.29850934
_cell_angle_alpha   109.77119909
_cell_angle_beta   109.77119905
_cell_angle_gamma   89.99999828
_symmetry_Int_Tables_number   1
_chemical_formula_structural   La(AlZn)2
_chemical_formula_sum   'La1 Al2 Zn2'
_cell_volume   100.42861555
_cell_formula_units_Z   1
loop_
 _symmetry_equiv_pos_site_id
 _symmetry_equiv_pos_as_xyz
  1  'x, y, z'
loop_
 _atom_site_type_symbol
 _atom_site_label
 _atom_site_symmetry_multiplicity
 _atom_site_fract_x
 _atom_site_fract_y
 _atom_site_fract_z
 _atom_site_occupancy
  La  La0  1  0.00000000  0.00000000  0.00000000  1
  Al  Al1  1  0.75000000  0.25000000  0.50000000  1
  Al  Al2  1  0.25000000  0.75000000  0.50000000  1
  Zn  Zn3  1  0.61321563  0.61321563  0.22643126  1
  Zn  Zn4  1  0.38678437  0.38678437  0.77356874  1
