# generated using pymatgen
data_KPSe3
_symmetry_space_group_name_H-M   'P 1'
_cell_length_a   14.95111111
_cell_length_b   14.95111136
_cell_length_c   19.27501320
_cell_angle_alpha   90.00000000
_cell_angle_beta   90.00000000
_cell_angle_gamma   119.99999947
_symmetry_Int_Tables_number   1
_chemical_formula_structural   KPSe3
_chemical_formula_sum   'K24 P24 Se72'
_cell_volume   3731.40391897
_cell_formula_units_Z   24
loop_
 _symmetry_equiv_pos_site_id
 _symmetry_equiv_pos_as_xyz
  1  'x, y, z'
loop_
 _atom_site_type_symbol
 _atom_site_label
 _atom_site_symmetry_multiplicity
 _atom_site_fract_x
 _atom_site_fract_y
 _atom_site_fract_z
 _atom_site_occupancy
  K  K0  1  0.74306992  0.88484112  0.54300564  1
  K  K1  1  0.64173934  0.29243331  0.20581194  1
  K  K2  1  0.85954984  0.15039838  0.69953616  1
  K  K3  1  0.35823152  0.61485548  0.69671111  1
  K  K4  1  0.76035383  0.14467833  0.36244798  1
  K  K5  1  0.14177121  0.25693008  0.20967264  1
  K  K6  1  0.11515888  0.85822879  0.87633964  1
  K  K7  1  0.85532167  0.61567550  0.69578198  1
  K  K8  1  0.36288404  0.15152888  0.70223614  1
  K  K9  1  0.70756669  0.34930603  0.53914494  1
  K  K10  1  0.25662396  0.64176848  0.36337711  1
  K  K11  1  0.38432450  0.23964617  0.02911498  1
  K  K12  1  0.64839521  0.86218765  0.87201530  1
  K  K13  1  0.24107207  0.88544986  0.54631606  1
  K  K14  1  0.29084855  0.14045016  0.36620216  1
  K  K15  1  0.13781235  0.78620756  0.20534830  1
  K  K16  1  0.64437779  0.75892793  0.21298306  1
  K  K17  1  0.11455014  0.35562221  0.87965006  1
  K  K18  1  0.84847112  0.21135517  0.03557014  1
  K  K19  1  0.78864483  0.63711596  0.36890314  1
  K  K20  1  0.65069397  0.35826066  0.87247894  1
  K  K21  1  0.84960162  0.70915145  0.03286916  1
  K  K22  1  0.21379244  0.35160479  0.53868130  1
  K  K23  1  0.38514452  0.74337604  0.03004411  1
  P  P24  1  0.43659824  0.96715701  0.34072415  1
  P  P25  1  0.53303032  0.46698266  0.67329944  1
  P  P26  1  0.96444761  0.42499985  0.23261960  1
  P  P27  1  0.46252179  0.53513679  0.89895835  1
  P  P28  1  0.53055876  0.56340176  0.00739115  1
  P  P29  1  0.53301734  0.06604766  0.00663244  1
  P  P30  1  0.03284299  0.46944124  0.67405815  1
  P  P31  1  0.03995867  0.57548854  0.00683546  1
  P  P32  1  0.46647988  0.43645472  0.23227169  1
  P  P33  1  0.57500015  0.53944775  0.56595260  1
  P  P34  1  0.03773058  0.96568071  0.67594209  1
  P  P35  1  0.06783728  0.03578067  0.56796727  1
  P  P36  1  0.03431929  0.07204988  0.00927509  1
  P  P37  1  0.53552986  0.96004133  0.67350246  1
  P  P38  1  0.96421933  0.03205661  0.90130127  1
  P  P39  1  0.46486321  0.92738500  0.23229135  1
  P  P40  1  0.42451146  0.46447014  0.34016846  1
  P  P41  1  0.96997484  0.53352012  0.89893869  1
  P  P42  1  0.46055225  0.03555239  0.89928660  1
  P  P43  1  0.93395234  0.46696968  0.33996544  1
  P  P44  1  0.07261500  0.53747821  0.56562435  1
  P  P45  1  0.56354528  0.03002516  0.56560469  1
  P  P46  1  0.92795012  0.96226942  0.34260809  1
  P  P47  1  0.96794339  0.93216272  0.23463427  1
  Se  Se48  1  0.37243893  0.84858436  0.67765557  1
  Se  Se49  1  0.09085899  0.73444358  0.03248503  1
  Se  Se50  1  0.48722296  0.12086984  0.56286423  1
  Se  Se51  1  0.09409338  0.63176625  0.72942177  1
  Se  Se52  1  0.42187072  0.04450279  0.17795923  1
  Se  Se53  1  0.60637445  0.72434154  0.03675644  1
  Se  Se54  1  0.88776203  0.11744352  0.87391572  1
  Se  Se55  1  0.08051854  0.12446411  0.73161983  1
  Se  Se56  1  0.35031053  0.87236515  0.89537917  1
  Se  Se57  1  0.36823375  0.46232713  0.06275477  1
  Se  Se58  1  0.62822064  0.97853611  0.22988482  1
  Se  Se59  1  0.97077846  0.87409159  0.51122804  1
  Se  Se60  1  0.99135008  0.12619408  0.56263776  1
  Se  Se61  1  0.53767287  0.90590662  0.39608777  1
  Se  Se62  1  0.59794220  0.62696425  0.73206060  1
  Se  Se63  1  0.90331313  0.02922154  0.17789504  1
  Se  Se64  1  0.87553589  0.95605442  0.06495283  1
  Se  Se65  1  0.97907425  0.12548669  0.34383078  1
  Se  Se66  1  0.62263207  0.57812928  0.84462623  1
  Se  Se67  1  0.36618432  0.37685774  0.67776630  1
  Se  Se68  1  0.51205715  0.13445630  0.34336637  1
  Se  Se69  1  0.35031546  0.37177936  0.89655182  1
  Se  Se70  1  0.46319364  0.38060934  0.50889757  1
  Se  Se71  1  0.85751990  0.26545654  0.20728271  1
  Se  Se72  1  0.86554370  0.37760085  0.67670037  1
  Se  Se73  1  0.52205462  0.64968947  0.56204517  1
  Se  Se74  1  0.08656222  0.23064557  0.03708703  1
  Se  Se75  1  0.61723272  0.38878700  0.69974456  1
  Se  Se76  1  0.22968149  0.11223797  0.54058172  1
  Se  Se77  1  0.61939066  0.08258430  0.84223157  1
  Se  Se78  1  0.64358459  0.90914101  0.69915203  1
  Se  Se79  1  0.13175400  0.59600197  0.84279866  1
  Se  Se80  1  0.40793664  0.14248010  0.87394971  1
  Se  Se81  1  0.89275242  0.61779890  0.87044711  1
  Se  Se82  1  0.11796709  0.39362555  0.70342344  1
  Se  Se83  1  0.47614543  0.62756107  0.34432157  1
  Se  Se84  1  0.27565846  0.88203291  0.37008944  1
  Se  Se85  1  0.95549721  0.37736793  0.51129223  1
  Se  Se86  1  0.46424796  0.86824600  0.50946466  1
  Se  Se87  1  0.01067343  0.63381568  0.34443230  1
  Se  Se88  1  0.38220110  0.27495352  0.20378011  1
  Se  Se89  1  0.77155428  0.38276728  0.36641056  1
  Se  Se90  1  0.73454346  0.59206336  0.54061571  1
  Se  Se91  1  0.14641244  0.02092575  0.01049778  1
  Se  Se92  1  0.13484400  0.00864992  0.22930476  1
  Se  Se93  1  0.02902205  0.40205780  0.39872660  1
  Se  Se94  1  0.58091772  0.11898817  0.72990814  1
  Se  Se95  1  0.87913016  0.36635312  0.89619823  1
  Se  Se96  1  0.41148566  0.64223864  0.87097319  1
  Se  Se97  1  0.04394558  0.91948146  0.39828583  1
  Se  Se98  1  0.87380592  0.86515600  0.89597176  1
  Se  Se99  1  0.88255648  0.77031851  0.20724872  1
  Se  Se100  1  0.88101183  0.46192955  0.06324114  1
  Se  Se101  1  0.62239915  0.48794285  0.01003337  1
  Se  Se102  1  0.61121300  0.22844572  0.03307756  1
  Se  Se103  1  0.15141564  0.52385457  0.01098857  1
  Se  Se104  1  0.72504648  0.10724758  0.53711311  1
  Se  Se105  1  0.76935443  0.85591665  0.37042003  1
  Se  Se106  1  0.12590841  0.09668687  0.84456204  1
  Se  Se107  1  0.26555642  0.35641541  0.36581803  1
  Se  Se108  1  0.40399803  0.53575204  0.17613166  1
  Se  Se109  1  0.12763485  0.47794538  0.22871217  1
  Se  Se110  1  0.87451331  0.85358756  0.67716378  1
  Se  Se111  1  0.91741570  0.53680636  0.17556457  1
  Se  Se112  1  0.02146389  0.64968454  0.56321782  1
  Se  Se113  1  0.35776136  0.76924703  0.20430619  1
  Se  Se114  1  0.23075297  0.58851434  0.53763919  1
  Se  Se115  1  0.62314226  0.98932657  0.01109930  1
  Se  Se116  1  0.63364688  0.51277704  0.22953123  1
  Se  Se117  1  0.53807045  0.41908228  0.39657414  1
  Se  Se118  1  0.14408335  0.91343778  0.70375403  1
  Se  Se119  1  0.37303575  0.97097795  0.06539360  1
