# generated using pymatgen
data_K5Na(Ti2Se9)3
_symmetry_space_group_name_H-M   'P 1'
_cell_length_a   13.62490550
_cell_length_b   13.62490519
_cell_length_c   14.06020387
_cell_angle_alpha   90.00000000
_cell_angle_beta   90.00000000
_cell_angle_gamma   120.00000075
_symmetry_Int_Tables_number   1
_chemical_formula_structural   K5Na(Ti2Se9)3
_chemical_formula_sum   'K10 Na2 Ti12 Se54'
_cell_volume   2260.42048275
_cell_formula_units_Z   2
loop_
 _symmetry_equiv_pos_site_id
 _symmetry_equiv_pos_as_xyz
  1  'x, y, z'
loop_
 _atom_site_type_symbol
 _atom_site_label
 _atom_site_symmetry_multiplicity
 _atom_site_fract_x
 _atom_site_fract_y
 _atom_site_fract_z
 _atom_site_occupancy
  K  K0  1  0.62756722  0.95763601  0.52980565  1
  K  K1  1  0.95763601  0.62756722  0.02980565  1
  K  K2  1  0.66666700  0.33333300  0.20383603  1
  K  K3  1  0.33333300  0.66666700  0.34596333  1
  K  K4  1  0.04236399  0.66993121  0.52980565  1
  K  K5  1  0.37243278  0.33006879  0.02980565  1
  K  K6  1  0.33006879  0.37243278  0.52980565  1
  K  K7  1  0.33333300  0.66666700  0.70383603  1
  K  K8  1  0.66666700  0.33333300  0.84596333  1
  K  K9  1  0.66993121  0.04236399  0.02980565  1
  Na  Na10  1  0.00000000  0.00000000  0.27641576  1
  Na  Na11  1  0.00000000  0.00000000  0.77641576  1
  Ti  Ti12  1  0.98506804  0.33934508  0.15625430  1
  Ti  Ti13  1  0.01403259  0.34487935  0.39842042  1
  Ti  Ti14  1  0.34487935  0.01403259  0.89842042  1
  Ti  Ti15  1  0.35427704  0.01493196  0.15625430  1
  Ti  Ti16  1  0.33084676  0.98596741  0.39842042  1
  Ti  Ti17  1  0.64572296  0.66065492  0.65625430  1
  Ti  Ti18  1  0.66915324  0.65512065  0.89842042  1
  Ti  Ti19  1  0.65512065  0.66915324  0.39842042  1
  Ti  Ti20  1  0.66065492  0.64572296  0.15625430  1
  Ti  Ti21  1  0.33934508  0.98506804  0.65625430  1
  Ti  Ti22  1  0.01493196  0.35427704  0.65625430  1
  Ti  Ti23  1  0.98596741  0.33084676  0.89842042  1
  Se  Se24  1  0.49649816  0.68173016  0.93849734  1
  Se  Se25  1  0.55109754  0.13047422  0.66342101  1
  Se  Se26  1  0.49740494  0.01478723  0.28258144  1
  Se  Se27  1  0.18523200  0.50350184  0.93849734  1
  Se  Se28  1  0.07653384  0.20466299  0.64955159  1
  Se  Se29  1  0.50350184  0.18523200  0.43849734  1
  Se  Se30  1  0.79533701  0.87187085  0.64955159  1
  Se  Se31  1  0.83909341  0.21070510  0.77414996  1
  Se  Se32  1  0.37161169  0.16090659  0.77414996  1
  Se  Se33  1  0.89611793  0.11810934  0.88744992  1
  Se  Se34  1  0.57937668  0.44890246  0.66342101  1
  Se  Se35  1  0.48261771  0.98521277  0.78258144  1
  Se  Se36  1  0.81476800  0.31826984  0.43849734  1
  Se  Se37  1  0.66997537  0.78853434  0.02722281  1
  Se  Se38  1  0.21070510  0.83909341  0.27414996  1
  Se  Se39  1  0.34770740  0.15329300  0.27284022  1
  Se  Se40  1  0.48603352  0.13873152  0.02433365  1
  Se  Se41  1  0.77800858  0.88189066  0.38744992  1
  Se  Se42  1  0.19441440  0.84670700  0.77284022  1
  Se  Se43  1  0.62838831  0.78929490  0.27414996  1
  Se  Se44  1  0.44890246  0.57937668  0.16342101  1
  Se  Se45  1  0.86952578  0.42062332  0.66342101  1
  Se  Se46  1  0.51738229  0.50259506  0.28258144  1
  Se  Se47  1  0.33002463  0.11855897  0.52722281  1
  Se  Se48  1  0.88144103  0.21146566  0.52722281  1
  Se  Se49  1  0.51396648  0.65269800  0.52433365  1
  Se  Se50  1  0.34730200  0.86126848  0.52433365  1
  Se  Se51  1  0.22199142  0.10388207  0.88744992  1
  Se  Se52  1  0.11855897  0.33002463  0.02722281  1
  Se  Se53  1  0.13873152  0.48603352  0.52433365  1
  Se  Se54  1  0.16090659  0.37161169  0.27414996  1
  Se  Se55  1  0.10388207  0.22199142  0.38744992  1
  Se  Se56  1  0.80558560  0.65229260  0.27284022  1
  Se  Se57  1  0.20466299  0.07653384  0.14955159  1
  Se  Se58  1  0.68173016  0.49649816  0.43849734  1
  Se  Se59  1  0.12812915  0.92346616  0.64955159  1
  Se  Se60  1  0.31826984  0.81476800  0.93849734  1
  Se  Se61  1  0.50259506  0.51738229  0.78258144  1
  Se  Se62  1  0.65229260  0.80558560  0.77284022  1
  Se  Se63  1  0.87187085  0.79533701  0.14955159  1
  Se  Se64  1  0.84670700  0.19441440  0.27284022  1
  Se  Se65  1  0.01478723  0.49740494  0.78258144  1
  Se  Se66  1  0.78853434  0.66997537  0.52722281  1
  Se  Se67  1  0.92346616  0.12812915  0.14955159  1
  Se  Se68  1  0.13047422  0.55109754  0.16342101  1
  Se  Se69  1  0.65269800  0.51396648  0.02433365  1
  Se  Se70  1  0.86126848  0.34730200  0.02433365  1
  Se  Se71  1  0.78929490  0.62838831  0.77414996  1
  Se  Se72  1  0.98521277  0.48261771  0.28258144  1
  Se  Se73  1  0.15329300  0.34770740  0.77284022  1
  Se  Se74  1  0.42062332  0.86952578  0.16342101  1
  Se  Se75  1  0.21146566  0.88144103  0.02722281  1
  Se  Se76  1  0.88189066  0.77800858  0.88744992  1
  Se  Se77  1  0.11810934  0.89611793  0.38744992  1
