# generated using pymatgen
data_AlPH8(CCl2)2
_symmetry_space_group_name_H-M   'P 1'
_cell_length_a   11.67634076
_cell_length_b   12.79528535
_cell_length_c   14.87062786
_cell_angle_alpha   89.96208620
_cell_angle_beta   90.00000000
_cell_angle_gamma   90.00000000
_symmetry_Int_Tables_number   1
_chemical_formula_structural   AlPH8(CCl2)2
_chemical_formula_sum   'Al8 P8 H64 C16 Cl32'
_cell_volume   2221.70272008
_cell_formula_units_Z   8
loop_
 _symmetry_equiv_pos_site_id
 _symmetry_equiv_pos_as_xyz
  1  'x, y, z'
loop_
 _atom_site_type_symbol
 _atom_site_label
 _atom_site_symmetry_multiplicity
 _atom_site_fract_x
 _atom_site_fract_y
 _atom_site_fract_z
 _atom_site_occupancy
  Al  Al0  1  0.21454817  0.96668238  0.87229875  1
  Al  Al1  1  0.28545183  0.46668238  0.87229875  1
  Al  Al2  1  0.26069665  0.91714409  0.37503449  1
  Al  Al3  1  0.23930335  0.41714409  0.37503449  1
  Al  Al4  1  0.78545183  0.03331762  0.12770125  1
  Al  Al5  1  0.73930335  0.08285591  0.62496551  1
  Al  Al6  1  0.71454817  0.53331762  0.12770125  1
  Al  Al7  1  0.76069665  0.58285591  0.62496551  1
  P  P8  1  0.63909217  0.35176428  0.39206662  1
  P  P9  1  0.36090783  0.64823572  0.60793338  1
  P  P10  1  0.35479615  0.65729101  0.14095107  1
  P  P11  1  0.86090783  0.85176428  0.39206662  1
  P  P12  1  0.85479615  0.84270899  0.85904893  1
  P  P13  1  0.64520385  0.34270899  0.85904893  1
  P  P14  1  0.13909217  0.14823572  0.60793338  1
  P  P15  1  0.14520385  0.15729101  0.14095107  1
  H  H16  1  0.15659069  0.70418918  0.14366473  1
  H  H17  1  0.67727128  0.93468787  0.86142420  1
  H  H18  1  0.19739644  0.63185729  0.70344864  1
  H  H19  1  0.31097037  0.04735408  0.60704852  1
  H  H20  1  0.83900053  0.31567510  0.40486556  1
  H  H21  1  0.99519688  0.28204235  0.12286031  1
  H  H22  1  0.82272872  0.43468787  0.86142420  1
  H  H23  1  0.34340931  0.20418918  0.14366473  1
  H  H24  1  0.13306374  0.15058294  0.23490315  1
  H  H25  1  0.08258048  0.07349557  0.10444120  1
  H  H26  1  0.18902963  0.54735408  0.60704852  1
  H  H27  1  0.90731853  0.71670863  0.97080240  1
  H  H28  1  0.17727128  0.56531213  0.13857580  1
  H  H29  1  0.80307414  0.35632122  0.96067958  1
  H  H30  1  0.32272872  0.06531213  0.13857580  1
  H  H31  1  0.19692586  0.64367878  0.03932042  1
  H  H32  1  0.64261719  0.16601277  0.39076584  1
  H  H33  1  0.00480312  0.71795765  0.87713969  1
  H  H34  1  0.14261719  0.33398723  0.60923416  1
  H  H35  1  0.57297283  0.42994877  0.35033761  1
  H  H36  1  0.89661318  0.71829521  0.28305363  1
  H  H37  1  0.63306374  0.34941706  0.76509685  1
  H  H38  1  0.13329370  0.34310738  0.13350703  1
  H  H39  1  0.37983331  0.63807180  0.51494038  1
  H  H40  1  0.09268147  0.28329137  0.02919760  1
  H  H41  1  0.39661318  0.78170479  0.71694637  1
  H  H42  1  0.36693626  0.65058294  0.23490315  1
  H  H43  1  0.69692586  0.85632122  0.96067958  1
  H  H44  1  0.85738281  0.66601277  0.39076584  1
  H  H45  1  0.91741952  0.92650443  0.89555880  1
  H  H46  1  0.65659069  0.79581082  0.85633527  1
  H  H47  1  0.66099947  0.81567510  0.40486556  1
  H  H48  1  0.60338682  0.21829521  0.28305363  1
  H  H49  1  0.16099947  0.68432490  0.59513444  1
  H  H50  1  0.07297283  0.07005123  0.64966239  1
  H  H51  1  0.35738281  0.83398723  0.60923416  1
  H  H52  1  0.30307414  0.14367878  0.03932042  1
  H  H53  1  0.81097037  0.45264592  0.39295148  1
  H  H54  1  0.40731853  0.78329137  0.02919760  1
  H  H55  1  0.92702717  0.92994877  0.35033761  1
  H  H56  1  0.63329370  0.15689262  0.86649297  1
  H  H57  1  0.68902963  0.95264592  0.39295148  1
  H  H58  1  1.00058626  0.28412100  0.62695589  1
  H  H59  1  0.10338682  0.28170479  0.71694637  1
  H  H60  1  0.84340931  0.29581082  0.85633527  1
  H  H61  1  0.80260356  0.36814271  0.29655136  1
  H  H62  1  0.50058626  0.21587900  0.37304411  1
  H  H63  1  0.86670630  0.65689262  0.86649297  1
  H  H64  1  -0.00058626  0.71587900  0.37304411  1
  H  H65  1  0.87983331  0.86192820  0.48505962  1
  H  H66  1  0.36670630  0.84310738  0.13350703  1
  H  H67  1  0.30260356  0.13185729  0.70344864  1
  H  H68  1  0.49519688  0.21795765  0.87713969  1
  H  H69  1  0.86693626  0.84941706  0.76509685  1
  H  H70  1  0.33900053  0.18432490  0.59513444  1
  H  H71  1  0.62016669  0.36192820  0.48505962  1
  H  H72  1  0.50480312  0.78204235  0.12286031  1
  H  H73  1  0.12016669  0.13807180  0.51494038  1
  H  H74  1  0.58258048  0.42650443  0.89555880  1
  H  H75  1  0.69739644  0.86814271  0.29655136  1
  H  H76  1  0.49941374  0.78412100  0.62695589  1
  H  H77  1  0.42702717  0.57005123  0.64966239  1
  H  H78  1  0.59268147  0.21670863  0.97080240  1
  H  H79  1  0.41741952  0.57349557  0.10444120  1
  C  C80  1  0.79357166  0.35893252  0.88729784  1
  C  C81  1  0.91448728  0.72140982  0.89731803  1
  C  C82  1  0.08551272  0.27859018  0.10268197  1
  C  C83  1  0.78772527  0.37437345  0.36920785  1
  C  C84  1  0.20642834  0.64106748  0.11270216  1
  C  C85  1  0.21227473  0.62562655  0.63079215  1
  C  C86  1  0.90861260  0.72550323  0.35598705  1
  C  C87  1  0.59138740  0.22550323  0.35598705  1
  C  C88  1  0.70642834  0.85893252  0.88729784  1
  C  C89  1  0.29357166  0.14106748  0.11270216  1
  C  C90  1  0.71227473  0.87437345  0.36920785  1
  C  C91  1  0.58551272  0.22140982  0.89731803  1
  C  C92  1  0.41448728  0.77859018  0.10268197  1
  C  C93  1  0.40861260  0.77449677  0.64401295  1
  C  C94  1  0.28772527  0.12562655  0.63079215  1
  C  C95  1  0.09138740  0.27449677  0.64401295  1
  Cl  Cl96  1  0.31108999  0.07896465  0.37835934  1
  Cl  Cl97  1  0.66447050  0.37036983  0.12986072  1
  Cl  Cl98  1  0.60173916  0.04386475  0.13389882  1
  Cl  Cl99  1  0.65384154  0.61403131  0.50836096  1
  Cl  Cl100  1  0.35033177  0.39629644  0.99394727  1
  Cl  Cl101  1  0.63765268  0.61132824  0.24206501  1
  Cl  Cl102  1  0.83869969  0.10914962  0.74561535  1
  Cl  Cl103  1  0.10173916  0.45613525  0.86610118  1
  Cl  Cl104  1  0.15384154  0.88596869  0.49163904  1
  Cl  Cl105  1  0.86234732  0.11132824  0.24206501  1
  Cl  Cl106  1  0.83552950  0.87036983  0.12986072  1
  Cl  Cl107  1  0.33869969  0.39085038  0.25438465  1
  Cl  Cl108  1  0.90742099  0.68447802  0.62281005  1
  Cl  Cl109  1  0.68891001  0.92103535  0.62164066  1
  Cl  Cl110  1  0.09257901  0.31552198  0.37718995  1
  Cl  Cl111  1  0.66130031  0.60914962  0.74561535  1
  Cl  Cl112  1  0.34615846  0.38596869  0.49163904  1
  Cl  Cl113  1  0.13765268  0.88867176  0.75793499  1
  Cl  Cl114  1  0.16447050  0.12963017  0.87013928  1
  Cl  Cl115  1  0.64966823  0.60370356  0.00605273  1
  Cl  Cl116  1  0.16130031  0.89085038  0.25438465  1
  Cl  Cl117  1  0.14966823  0.89629644  0.99394727  1
  Cl  Cl118  1  0.85033177  0.10370356  0.00605273  1
  Cl  Cl119  1  0.39826084  0.95613525  0.86610118  1
  Cl  Cl120  1  0.36234732  0.38867176  0.75793499  1
  Cl  Cl121  1  0.59257901  0.18447802  0.62281005  1
  Cl  Cl122  1  0.89826084  0.54386475  0.13389882  1
  Cl  Cl123  1  0.40742099  0.81552198  0.37718995  1
  Cl  Cl124  1  0.84615846  0.11403131  0.50836096  1
  Cl  Cl125  1  0.33552950  0.62963017  0.87013928  1
  Cl  Cl126  1  0.18891001  0.57896465  0.37835934  1
  Cl  Cl127  1  0.81108999  0.42103535  0.62164066  1
