# generated using pymatgen
data_Ba7Sn3Se13
_symmetry_space_group_name_H-M   'P 1'
_cell_length_a   9.42361861
_cell_length_b   12.91534519
_cell_length_c   25.41887950
_cell_angle_alpha   90.00000000
_cell_angle_beta   90.00000000
_cell_angle_gamma   90.00000000
_symmetry_Int_Tables_number   1
_chemical_formula_structural   Ba7Sn3Se13
_chemical_formula_sum   'Ba28 Sn12 Se52'
_cell_volume   3093.71370758
_cell_formula_units_Z   4
loop_
 _symmetry_equiv_pos_site_id
 _symmetry_equiv_pos_as_xyz
  1  'x, y, z'
loop_
 _atom_site_type_symbol
 _atom_site_label
 _atom_site_symmetry_multiplicity
 _atom_site_fract_x
 _atom_site_fract_y
 _atom_site_fract_z
 _atom_site_occupancy
  Ba  Ba0  1  0.89663521  0.34344675  0.84340575  1
  Ba  Ba1  1  0.91344772  0.02430632  0.15866146  1
  Ba  Ba2  1  0.60336479  0.84344675  0.65659425  1
  Ba  Ba3  1  0.88002148  0.31256812  0.03029019  1
  Ba  Ba4  1  0.10336479  0.65655325  0.15659425  1
  Ba  Ba5  1  0.91344772  0.02430632  0.34133854  1
  Ba  Ba6  1  0.39663521  0.15655325  0.34340575  1
  Ba  Ba7  1  0.58655228  0.52430632  0.34133854  1
  Ba  Ba8  1  0.11997852  0.68743188  0.53029019  1
  Ba  Ba9  1  0.60212240  0.14616850  0.75000000  1
  Ba  Ba10  1  0.39787760  0.85383150  0.25000000  1
  Ba  Ba11  1  0.89663521  0.34344675  0.65659425  1
  Ba  Ba12  1  0.39663521  0.15655325  0.15659425  1
  Ba  Ba13  1  0.10212240  0.35383150  0.25000000  1
  Ba  Ba14  1  0.38002148  0.18743188  0.53029019  1
  Ba  Ba15  1  0.88002148  0.31256812  0.46970981  1
  Ba  Ba16  1  0.08655228  0.97569368  0.84133854  1
  Ba  Ba17  1  0.41344772  0.47569368  0.65866146  1
  Ba  Ba18  1  0.61997852  0.81256812  0.03029019  1
  Ba  Ba19  1  0.61997852  0.81256812  0.46970981  1
  Ba  Ba20  1  0.60336479  0.84344675  0.84340575  1
  Ba  Ba21  1  0.41344772  0.47569368  0.84133854  1
  Ba  Ba22  1  0.11997852  0.68743188  0.96970981  1
  Ba  Ba23  1  0.10336479  0.65655325  0.34340575  1
  Ba  Ba24  1  0.08655228  0.97569368  0.65866146  1
  Ba  Ba25  1  0.89787760  0.64616850  0.75000000  1
  Ba  Ba26  1  0.58655228  0.52430632  0.15866146  1
  Ba  Ba27  1  0.38002148  0.18743188  0.96970981  1
  Sn  Sn28  1  0.80065108  0.04934380  0.94759198  1
  Sn  Sn29  1  0.80065108  0.04934380  0.55240802  1
  Sn  Sn30  1  0.80625091  0.74297945  0.25000000  1
  Sn  Sn31  1  0.19934892  0.95065620  0.44759198  1
  Sn  Sn32  1  0.30065108  0.45065620  0.44759198  1
  Sn  Sn33  1  0.69374909  0.24297945  0.25000000  1
  Sn  Sn34  1  0.19374909  0.25702055  0.75000000  1
  Sn  Sn35  1  0.69934892  0.54934380  0.55240802  1
  Sn  Sn36  1  0.19934892  0.95065620  0.05240802  1
  Sn  Sn37  1  0.69934892  0.54934380  0.94759198  1
  Sn  Sn38  1  0.30625091  0.75702055  0.75000000  1
  Sn  Sn39  1  0.30065108  0.45065620  0.05240802  1
  Se  Se40  1  0.33315292  0.21637030  0.83214803  1
  Se  Se41  1  0.16684708  0.71637030  0.83214803  1
  Se  Se42  1  0.83315292  0.28362970  0.33214803  1
  Se  Se43  1  0.01280298  0.16627709  0.57276169  1
  Se  Se44  1  0.68908343  0.07911546  0.46176012  1
  Se  Se45  1  0.63987567  0.35892041  0.92728079  1
  Se  Se46  1  0.36012433  0.64107959  0.42728079  1
  Se  Se47  1  0.53553686  0.64985126  0.75000000  1
  Se  Se48  1  0.18908343  0.42088454  0.53823988  1
  Se  Se49  1  0.51280298  0.33372291  0.42723831  1
  Se  Se50  1  0.35865052  0.95310124  0.75000000  1
  Se  Se51  1  0.51280298  0.33372291  0.07276169  1
  Se  Se52  1  0.98719702  0.83372291  0.42723831  1
  Se  Se53  1  0.83315292  0.28362970  0.16785197  1
  Se  Se54  1  0.36012433  0.64107959  0.07271921  1
  Se  Se55  1  0.64134948  0.04689876  0.25000000  1
  Se  Se56  1  0.66861552  0.39572936  0.75000000  1
  Se  Se57  1  0.16861552  0.10427064  0.25000000  1
  Se  Se58  1  0.66684708  0.78362970  0.16785197  1
  Se  Se59  1  0.83138448  0.89572936  0.75000000  1
  Se  Se60  1  0.18908343  0.42088454  0.96176012  1
  Se  Se61  1  0.10912030  0.40801608  0.12089211  1
  Se  Se62  1  0.63987567  0.35892041  0.57271921  1
  Se  Se63  1  0.39087970  0.90801608  0.12089211  1
  Se  Se64  1  0.16684708  0.71637030  0.66785197  1
  Se  Se65  1  0.33315292  0.21637030  0.66785197  1
  Se  Se66  1  0.60912030  0.09198392  0.87910789  1
  Se  Se67  1  0.85865052  0.54689876  0.25000000  1
  Se  Se68  1  0.33138448  0.60427064  0.25000000  1
  Se  Se69  1  0.66684708  0.78362970  0.33214803  1
  Se  Se70  1  0.89087970  0.59198392  0.62089211  1
  Se  Se71  1  0.86012433  0.85892041  0.92728079  1
  Se  Se72  1  0.31091657  0.92088454  0.53823988  1
  Se  Se73  1  0.48719702  0.66627709  0.57276169  1
  Se  Se74  1  0.96446314  0.14985126  0.75000000  1
  Se  Se75  1  0.48719702  0.66627709  0.92723831  1
  Se  Se76  1  0.68908343  0.07911546  0.03823988  1
  Se  Se77  1  0.14134948  0.45310124  0.75000000  1
  Se  Se78  1  0.86012433  0.85892041  0.57271921  1
  Se  Se79  1  0.89087970  0.59198392  0.87910789  1
  Se  Se80  1  0.81091657  0.57911546  0.46176012  1
  Se  Se81  1  0.31091657  0.92088454  0.96176012  1
  Se  Se82  1  0.60912030  0.09198392  0.62089211  1
  Se  Se83  1  0.81091657  0.57911546  0.03823988  1
  Se  Se84  1  0.03553686  0.85014874  0.25000000  1
  Se  Se85  1  0.98719702  0.83372291  0.07276169  1
  Se  Se86  1  0.46446314  0.35014874  0.25000000  1
  Se  Se87  1  0.13987567  0.14107959  0.07271921  1
  Se  Se88  1  0.39087970  0.90801608  0.37910789  1
  Se  Se89  1  0.01280298  0.16627709  0.92723831  1
  Se  Se90  1  0.10912030  0.40801608  0.37910789  1
  Se  Se91  1  0.13987567  0.14107959  0.42728079  1
