# generated using pymatgen
data_TeI
_symmetry_space_group_name_H-M   'P 1'
_cell_length_a   4.26133513
_cell_length_b   8.48161913
_cell_length_c   10.05480666
_cell_angle_alpha   89.57549418
_cell_angle_beta   77.74494789
_cell_angle_gamma   75.50704093
_symmetry_Int_Tables_number   1
_chemical_formula_structural   TeI
_chemical_formula_sum   'Te4 I4'
_cell_volume   343.42747106
_cell_formula_units_Z   4
loop_
 _symmetry_equiv_pos_site_id
 _symmetry_equiv_pos_as_xyz
  1  'x, y, z'
loop_
 _atom_site_type_symbol
 _atom_site_label
 _atom_site_symmetry_multiplicity
 _atom_site_fract_x
 _atom_site_fract_y
 _atom_site_fract_z
 _atom_site_occupancy
  Te  Te0  1  0.70120615  0.42046123  0.17635204  1
  Te  Te1  1  0.08376831  0.67033404  0.16301291  1
  Te  Te2  1  0.91623169  0.32966596  0.83698709  1
  Te  Te3  1  0.29879385  0.57953877  0.82364796  1
  I  I4  1  0.66577660  0.85708831  0.81227809  1
  I  I5  1  0.10396308  0.23085930  0.56075109  1
  I  I6  1  0.89603692  0.76914070  0.43924891  1
  I  I7  1  0.33422340  0.14291169  0.18772191  1
