# generated using pymatgen
data_ErFe3
_symmetry_space_group_name_H-M   'P 1'
_cell_length_a   8.56020251
_cell_length_b   8.56020233
_cell_length_c   8.56020250
_cell_angle_alpha   34.43100009
_cell_angle_beta   34.43100192
_cell_angle_gamma   34.43100197
_symmetry_Int_Tables_number   1
_chemical_formula_structural   ErFe3
_chemical_formula_sum   'Er3 Fe9'
_cell_volume   178.87867494
_cell_formula_units_Z   3
loop_
 _symmetry_equiv_pos_site_id
 _symmetry_equiv_pos_as_xyz
  1  'x, y, z'
loop_
 _atom_site_type_symbol
 _atom_site_label
 _atom_site_symmetry_multiplicity
 _atom_site_fract_x
 _atom_site_fract_y
 _atom_site_fract_z
 _atom_site_occupancy
  Er  Er0  1  0.14194304  0.14194304  0.14194304  1
  Er  Er1  1  0.00000000  0.00000000  0.00000000  1
  Er  Er2  1  0.85805696  0.85805696  0.85805696  1
  Fe  Fe3  1  0.41813214  0.41813214  0.91800389  1
  Fe  Fe4  1  0.91800389  0.41813214  0.41813214  1
  Fe  Fe5  1  0.58186786  0.08199611  0.58186786  1
  Fe  Fe6  1  0.58186786  0.58186786  0.08199611  1
  Fe  Fe7  1  0.41813214  0.91800389  0.41813214  1
  Fe  Fe8  1  0.08199611  0.58186786  0.58186786  1
  Fe  Fe9  1  0.33280979  0.33280979  0.33280979  1
  Fe  Fe10  1  0.66719021  0.66719021  0.66719021  1
  Fe  Fe11  1  0.50000000  0.50000000  0.50000000  1
