# generated using pymatgen
data_UPt
_symmetry_space_group_name_H-M   'P 1'
_cell_length_a   4.04522517
_cell_length_b   4.25476599
_cell_length_c   5.55037486
_cell_angle_alpha   90.00000000
_cell_angle_beta   111.37128755
_cell_angle_gamma   90.00000000
_symmetry_Int_Tables_number   1
_chemical_formula_structural   UPt
_chemical_formula_sum   'U2 Pt2'
_cell_volume   88.96140661
_cell_formula_units_Z   2
loop_
 _symmetry_equiv_pos_site_id
 _symmetry_equiv_pos_as_xyz
  1  'x, y, z'
loop_
 _atom_site_type_symbol
 _atom_site_label
 _atom_site_symmetry_multiplicity
 _atom_site_fract_x
 _atom_site_fract_y
 _atom_site_fract_z
 _atom_site_occupancy
  U  U0  1  0.12895888  0.75000000  0.25791776  1
  U  U1  1  0.87104112  0.25000000  0.74208224  1
  Pt  Pt2  1  0.60140559  0.25000000  0.20281119  1
  Pt  Pt3  1  0.39859441  0.75000000  0.79718881  1
