# generated using pymatgen
data_K3AgSn3Se8
_symmetry_space_group_name_H-M   'P 1'
_cell_length_a   8.31490101
_cell_length_b   8.31490101
_cell_length_c   13.68195909
_cell_angle_alpha   90.00000000
_cell_angle_beta   90.00000000
_cell_angle_gamma   90.00000000
_symmetry_Int_Tables_number   1
_chemical_formula_structural   K3AgSn3Se8
_chemical_formula_sum   'K6 Ag2 Sn6 Se16'
_cell_volume   945.93752481
_cell_formula_units_Z   2
loop_
 _symmetry_equiv_pos_site_id
 _symmetry_equiv_pos_as_xyz
  1  'x, y, z'
loop_
 _atom_site_type_symbol
 _atom_site_label
 _atom_site_symmetry_multiplicity
 _atom_site_fract_x
 _atom_site_fract_y
 _atom_site_fract_z
 _atom_site_occupancy
  K  K0  1  0.75000000  0.75000000  0.27397503  1
  K  K1  1  0.25000000  0.25000000  0.72602497  1
  K  K2  1  0.25000000  0.25000000  0.00000000  1
  K  K3  1  0.75000000  0.75000000  0.72602497  1
  K  K4  1  0.25000000  0.25000000  0.27397503  1
  K  K5  1  0.75000000  0.75000000  0.00000000  1
  Ag  Ag6  1  0.25000000  0.75000000  0.00000000  1
  Ag  Ag7  1  0.75000000  0.25000000  0.00000000  1
  Sn  Sn8  1  0.25000000  0.75000000  0.24076264  1
  Sn  Sn9  1  0.25000000  0.75000000  0.75923736  1
  Sn  Sn10  1  0.75000000  0.25000000  0.50000000  1
  Sn  Sn11  1  0.75000000  0.25000000  0.24076264  1
  Sn  Sn12  1  0.75000000  0.25000000  0.75923736  1
  Sn  Sn13  1  0.25000000  0.75000000  0.50000000  1
  Se  Se14  1  0.57166049  0.42833951  0.86189977  1
  Se  Se15  1  0.58545225  0.41454775  0.37435491  1
  Se  Se16  1  0.07166049  0.57166049  0.86189977  1
  Se  Se17  1  0.07166049  0.92833951  0.13810023  1
  Se  Se18  1  0.58545225  0.08545225  0.62564509  1
  Se  Se19  1  0.57166049  0.07166049  0.13810023  1
  Se  Se20  1  0.91454775  0.41454775  0.62564509  1
  Se  Se21  1  0.41454775  0.58545225  0.62564509  1
  Se  Se22  1  0.08545225  0.58545225  0.37435491  1
  Se  Se23  1  0.91454775  0.08545225  0.37435491  1
  Se  Se24  1  0.42833951  0.57166049  0.13810023  1
  Se  Se25  1  0.42833951  0.92833951  0.86189977  1
  Se  Se26  1  0.08545225  0.91454775  0.62564509  1
  Se  Se27  1  0.92833951  0.07166049  0.86189977  1
  Se  Se28  1  0.92833951  0.42833951  0.13810023  1
  Se  Se29  1  0.41454775  0.91454775  0.37435491  1
