# generated using pymatgen
data_Sr2BIN2
_symmetry_space_group_name_H-M   'P 1'
_cell_length_a   4.23943708
_cell_length_b   10.42051946
_cell_length_c   13.41209253
_cell_angle_alpha   91.41520065
_cell_angle_beta   90.00000000
_cell_angle_gamma   90.00000000
_symmetry_Int_Tables_number   1
_chemical_formula_structural   Sr2BIN2
_chemical_formula_sum   'Sr8 B4 I4 N8'
_cell_volume   592.32711247
_cell_formula_units_Z   4
loop_
 _symmetry_equiv_pos_site_id
 _symmetry_equiv_pos_as_xyz
  1  'x, y, z'
loop_
 _atom_site_type_symbol
 _atom_site_label
 _atom_site_symmetry_multiplicity
 _atom_site_fract_x
 _atom_site_fract_y
 _atom_site_fract_z
 _atom_site_occupancy
  Sr  Sr0  1  0.25000000  0.19547947  0.38339658  1
  Sr  Sr1  1  0.75000000  0.35156324  0.62941485  1
  Sr  Sr2  1  0.75000000  0.39558227  0.17469772  1
  Sr  Sr3  1  0.25000000  0.07558352  0.90437160  1
  Sr  Sr4  1  0.25000000  0.60441773  0.82530228  1
  Sr  Sr5  1  0.75000000  0.80452053  0.61660342  1
  Sr  Sr6  1  0.75000000  0.92441648  0.09562840  1
  Sr  Sr7  1  0.25000000  0.64843676  0.37058515  1
  B  B8  1  0.25000000  0.16096411  0.14728278  1
  B  B9  1  0.75000000  0.41666902  0.39553438  1
  B  B10  1  0.75000000  0.83903589  0.85271722  1
  B  B11  1  0.25000000  0.58333098  0.60446562  1
  I  I12  1  0.25000000  0.65257271  0.09617499  1
  I  I13  1  0.25000000  0.07889693  0.64202902  1
  I  I14  1  0.75000000  0.34742729  0.90382501  1
  I  I15  1  0.75000000  0.92110307  0.35797098  1
  N  N16  1  0.75000000  0.52235547  0.33964737  1
  N  N17  1  0.25000000  0.69470987  0.55519265  1
  N  N18  1  0.25000000  0.47764453  0.66035263  1
  N  N19  1  0.75000000  0.73105157  0.79475670  1
  N  N20  1  0.75000000  0.30529013  0.44480735  1
  N  N21  1  0.25000000  0.26894843  0.20524330  1
  N  N22  1  0.25000000  0.05282611  0.09053318  1
  N  N23  1  0.75000000  0.94717389  0.90946682  1
