# generated using pymatgen
data_Yb11GaSb9
_symmetry_space_group_name_H-M   'P 1'
_cell_length_a   11.81453357
_cell_length_b   11.98589695
_cell_length_c   11.98589692
_cell_angle_alpha   62.26487157
_cell_angle_beta   60.47182549
_cell_angle_gamma   60.47182675
_symmetry_Int_Tables_number   1
_chemical_formula_structural   Yb11GaSb9
_chemical_formula_sum   'Yb22 Ga2 Sb18'
_cell_volume   1228.28227548
_cell_formula_units_Z   2
loop_
 _symmetry_equiv_pos_site_id
 _symmetry_equiv_pos_as_xyz
  1  'x, y, z'
loop_
 _atom_site_type_symbol
 _atom_site_label
 _atom_site_symmetry_multiplicity
 _atom_site_fract_x
 _atom_site_fract_y
 _atom_site_fract_z
 _atom_site_occupancy
  Yb  Yb0  1  0.18641004  0.18922620  0.06885114  1
  Yb  Yb1  1  0.67710162  0.32289838  0.32289838  1
  Yb  Yb2  1  0.75208994  0.88726846  0.43056602  1
  Yb  Yb3  1  0.55551262  0.06885114  0.18922620  1
  Yb  Yb4  1  0.65938898  0.67263496  0.32998462  1
  Yb  Yb5  1  0.43007558  0.38726846  0.93056602  1
  Yb  Yb6  1  0.83799144  0.17263496  0.82998462  1
  Yb  Yb7  1  0.33799144  0.32998462  0.67263496  1
  Yb  Yb8  1  0.17710162  0.82289838  0.82289838  1
  Yb  Yb9  1  0.72837161  0.06406194  0.61779281  1
  Yb  Yb10  1  0.68641004  0.56885114  0.68922620  1
  Yb  Yb11  1  0.31177055  0.42505587  0.31844891  1
  Yb  Yb12  1  0.93007558  0.43056602  0.88726846  1
  Yb  Yb13  1  0.94472467  0.31844891  0.42505587  1
  Yb  Yb14  1  0.22837161  0.11779281  0.56406194  1
  Yb  Yb15  1  0.15938898  0.82998462  0.17263496  1
  Yb  Yb16  1  0.81177055  0.81844891  0.92505587  1
  Yb  Yb17  1  0.05551262  0.68922620  0.56885114  1
  Yb  Yb18  1  0.58977364  0.61779281  0.06406194  1
  Yb  Yb19  1  0.25208994  0.93056602  0.38726846  1
  Yb  Yb20  1  0.08977364  0.56406194  0.11779281  1
  Yb  Yb21  1  0.44472467  0.92505587  0.81844891  1
  Ga  Ga22  1  0.39221397  0.60778603  0.60778603  1
  Ga  Ga23  1  0.89221397  0.10778603  0.10778603  1
  Sb  Sb24  1  0.87437993  0.88238560  0.11052351  1
  Sb  Sb25  1  0.16166700  0.55143960  0.82894024  1
  Sb  Sb26  1  0.63271096  0.38238560  0.61052351  1
  Sb  Sb27  1  0.03282069  0.39234665  0.61325111  1
  Sb  Sb28  1  0.25161171  0.24838829  0.24838829  1
  Sb  Sb29  1  0.96158155  0.61325111  0.39234665  1
  Sb  Sb30  1  0.66166700  0.32894024  0.05143960  1
  Sb  Sb31  1  0.75161171  0.74838829  0.74838829  1
  Sb  Sb32  1  0.45795316  0.82894024  0.55143960  1
  Sb  Sb33  1  0.53282069  0.11325111  0.89234665  1
  Sb  Sb34  1  0.13271096  0.11052351  0.88238560  1
  Sb  Sb35  1  0.95795316  0.05143960  0.32894024  1
  Sb  Sb36  1  0.46158155  0.89234665  0.11325111  1
  Sb  Sb37  1  0.50305125  0.13943344  0.49580623  1
  Sb  Sb38  1  0.36170909  0.63943344  0.99580623  1
  Sb  Sb39  1  0.00305125  0.99580623  0.63943344  1
  Sb  Sb40  1  0.37437993  0.61052351  0.38238560  1
  Sb  Sb41  1  0.86170909  0.49580623  0.13943344  1
