# generated using pymatgen
data_LuFeCuO4
_symmetry_space_group_name_H-M   'P 1'
_cell_length_a   3.50615434
_cell_length_b   3.50615367
_cell_length_c   8.28512562
_cell_angle_alpha   77.78426158
_cell_angle_beta   102.21574128
_cell_angle_gamma   119.99999376
_symmetry_Int_Tables_number   1
_chemical_formula_structural   LuFeCuO4
_chemical_formula_sum   'Lu1 Fe1 Cu1 O4'
_cell_volume   85.53147455
_cell_formula_units_Z   1
loop_
 _symmetry_equiv_pos_site_id
 _symmetry_equiv_pos_as_xyz
  1  'x, y, z'
loop_
 _atom_site_type_symbol
 _atom_site_label
 _atom_site_symmetry_multiplicity
 _atom_site_fract_x
 _atom_site_fract_y
 _atom_site_fract_z
 _atom_site_occupancy
  Lu  Lu0  1  0.00463540  0.99536460  0.01390621  1
  Fe  Fe1  1  0.21239608  0.78760392  0.63718824  1
  Cu  Cu2  1  0.78827468  0.21172532  0.36482403  1
  O  O3  1  0.70755382  0.29244618  0.12266145  1
  O  O4  1  0.29276022  0.70723978  0.87828066  1
  O  O5  1  0.87441803  0.12558197  0.62325409  1
  O  O6  1  0.12937178  0.87062822  0.38811533  1
