# generated using pymatgen
data_Si2Ru
_symmetry_space_group_name_H-M   'P 1'
_cell_length_a   6.52010819
_cell_length_b   6.52010823
_cell_length_c   8.23268375
_cell_angle_alpha   90.00000000
_cell_angle_beta   90.00000000
_cell_angle_gamma   102.86205532
_symmetry_Int_Tables_number   1
_chemical_formula_structural   Si2Ru
_chemical_formula_sum   'Si16 Ru8'
_cell_volume   341.20473077
_cell_formula_units_Z   8
loop_
 _symmetry_equiv_pos_site_id
 _symmetry_equiv_pos_as_xyz
  1  'x, y, z'
loop_
 _atom_site_type_symbol
 _atom_site_label
 _atom_site_symmetry_multiplicity
 _atom_site_fract_x
 _atom_site_fract_y
 _atom_site_fract_z
 _atom_site_occupancy
  Si  Si0  1  0.09515877  0.35044408  0.55578826  1
  Si  Si1  1  0.59515877  0.85044408  0.94421174  1
  Si  Si2  1  0.64955592  0.90484123  0.44421174  1
  Si  Si3  1  0.17767690  0.92408933  0.27530491  1
  Si  Si4  1  0.42408933  0.67767690  0.22469509  1
  Si  Si5  1  0.67767690  0.42408933  0.22469509  1
  Si  Si6  1  0.35044408  0.09515877  0.55578826  1
  Si  Si7  1  0.82232310  0.07591067  0.72469509  1
  Si  Si8  1  0.92408933  0.17767690  0.27530491  1
  Si  Si9  1  0.07591067  0.82232310  0.72469509  1
  Si  Si10  1  0.40484123  0.14955592  0.05578826  1
  Si  Si11  1  0.57591067  0.32232310  0.77530491  1
  Si  Si12  1  0.32232310  0.57591067  0.77530491  1
  Si  Si13  1  0.14955592  0.40484123  0.05578826  1
  Si  Si14  1  0.85044408  0.59515877  0.94421174  1
  Si  Si15  1  0.90484123  0.64955592  0.44421174  1
  Ru  Ru16  1  0.28524771  0.71475229  0.50000000  1
  Ru  Ru17  1  0.21475229  0.78524771  0.00000000  1
  Ru  Ru18  1  0.31151412  0.31151412  0.31708223  1
  Ru  Ru19  1  0.71475229  0.28524771  0.50000000  1
  Ru  Ru20  1  0.81151412  0.81151412  0.18291777  1
  Ru  Ru21  1  0.68848588  0.68848588  0.68291777  1
  Ru  Ru22  1  0.78524771  0.21475229  0.00000000  1
  Ru  Ru23  1  0.18848588  0.18848588  0.81708223  1
