# generated using pymatgen
data_Yb3Ag2
_symmetry_space_group_name_H-M   'P 1'
_cell_length_a   4.15792987
_cell_length_b   8.20910153
_cell_length_c   8.20910153
_cell_angle_alpha   90.00000000
_cell_angle_beta   90.00000000
_cell_angle_gamma   90.00000000
_symmetry_Int_Tables_number   1
_chemical_formula_structural   Yb3Ag2
_chemical_formula_sum   'Yb6 Ag4'
_cell_volume   280.20018268
_cell_formula_units_Z   2
loop_
 _symmetry_equiv_pos_site_id
 _symmetry_equiv_pos_as_xyz
  1  'x, y, z'
loop_
 _atom_site_type_symbol
 _atom_site_label
 _atom_site_symmetry_multiplicity
 _atom_site_fract_x
 _atom_site_fract_y
 _atom_site_fract_z
 _atom_site_occupancy
  Yb  Yb0  1  0.50000000  0.83791574  0.33791574  1
  Yb  Yb1  1  0.50000000  0.66208426  0.83791574  1
  Yb  Yb2  1  0.00000000  0.00000000  0.00000000  1
  Yb  Yb3  1  0.50000000  0.16208426  0.66208426  1
  Yb  Yb4  1  0.50000000  0.33791574  0.16208426  1
  Yb  Yb5  1  0.00000000  0.50000000  0.50000000  1
  Ag  Ag6  1  0.00000000  0.37072566  0.87072566  1
  Ag  Ag7  1  0.00000000  0.62927434  0.12927434  1
  Ag  Ag8  1  0.00000000  0.12927434  0.37072566  1
  Ag  Ag9  1  0.00000000  0.87072566  0.62927434  1
