# generated using pymatgen
data_HfAlPt
_symmetry_space_group_name_H-M   'P 1'
_cell_length_a   7.06631027
_cell_length_b   7.07002257
_cell_length_c   7.33312163
_cell_angle_alpha   90.00000000
_cell_angle_beta   90.00000000
_cell_angle_gamma   119.98262945
_symmetry_Int_Tables_number   1
_chemical_formula_structural   HfAlPt
_chemical_formula_sum   'Hf6 Al6 Pt6'
_cell_volume   317.32845248
_cell_formula_units_Z   6
loop_
 _symmetry_equiv_pos_site_id
 _symmetry_equiv_pos_as_xyz
  1  'x, y, z'
loop_
 _atom_site_type_symbol
 _atom_site_label
 _atom_site_symmetry_multiplicity
 _atom_site_fract_x
 _atom_site_fract_y
 _atom_site_fract_z
 _atom_site_occupancy
  Hf  Hf0  1  0.41568448  0.39320510  0.25000000  1
  Hf  Hf1  1  0.97793876  0.58461020  0.25000000  1
  Hf  Hf2  1  0.60652454  0.02220209  0.25000000  1
  Hf  Hf3  1  0.02247938  0.60679490  0.75000000  1
  Hf  Hf4  1  0.39332855  0.41538980  0.75000000  1
  Hf  Hf5  1  0.58432245  0.97779791  0.75000000  1
  Al  Al6  1  0.25794103  0.00000000  0.00000000  1
  Al  Al7  1  0.74205066  0.74199163  0.00009968  1
  Al  Al8  1  0.00005903  0.25800837  0.99990032  1
  Al  Al9  1  0.25794103  0.00000000  0.50000000  1
  Al  Al10  1  0.74205066  0.74199163  0.49990032  1
  Al  Al11  1  0.00005903  0.25800837  0.50009968  1
  Pt  Pt12  1  0.00009774  0.00016772  0.25000000  1
  Pt  Pt13  1  0.99993001  0.99983228  0.75000000  1
  Pt  Pt14  1  0.33317383  0.66665134  0.02990550  1
  Pt  Pt15  1  0.33317383  0.66665134  0.47009450  1
  Pt  Pt16  1  0.66652249  0.33334866  0.52990550  1
  Pt  Pt17  1  0.66652249  0.33334866  0.97009450  1
