# generated using pymatgen
data_K2Cd2Te3
_symmetry_space_group_name_H-M   'P 1'
_cell_length_a   13.49792655
_cell_length_b   14.56759158
_cell_length_c   16.05139684
_cell_angle_alpha   90.00000000
_cell_angle_beta   90.00000000
_cell_angle_gamma   94.49697601
_symmetry_Int_Tables_number   1
_chemical_formula_structural   K2Cd2Te3
_chemical_formula_sum   'K24 Cd24 Te36'
_cell_volume   3146.50626186
_cell_formula_units_Z   12
loop_
 _symmetry_equiv_pos_site_id
 _symmetry_equiv_pos_as_xyz
  1  'x, y, z'
loop_
 _atom_site_type_symbol
 _atom_site_label
 _atom_site_symmetry_multiplicity
 _atom_site_fract_x
 _atom_site_fract_y
 _atom_site_fract_z
 _atom_site_occupancy
  K  K0  1  0.85748221  0.56064758  0.96134080  1
  K  K1  1  0.26621269  0.26799299  0.77028059  1
  K  K2  1  0.35716833  0.04645707  0.02457737  1
  K  K3  1  0.01936783  0.12258824  0.05491722  1
  K  K4  1  0.52517812  0.14523425  0.52649240  1
  K  K5  1  0.98063217  0.37741176  0.55491722  1
  K  K6  1  0.47482188  0.85476575  0.47350760  1
  K  K7  1  0.47482188  0.35476575  0.02649240  1
  K  K8  1  0.64283167  0.45354293  0.52457737  1
  K  K9  1  0.75231571  0.76683419  0.52961763  1
  K  K10  1  0.73378731  0.73200701  0.22971941  1
  K  K11  1  0.85748221  0.06064758  0.53865920  1
  K  K12  1  0.35716833  0.54645707  0.47542263  1
  K  K13  1  0.24768429  0.73316581  0.02961763  1
  K  K14  1  0.98063217  0.87741176  0.94508278  1
  K  K15  1  0.73378731  0.23200701  0.27028059  1
  K  K16  1  0.75231571  0.26683419  0.97038237  1
  K  K17  1  0.64283167  0.95354293  0.97542263  1
  K  K18  1  0.26621269  0.76799299  0.72971941  1
  K  K19  1  0.24768429  0.23316581  0.47038237  1
  K  K20  1  0.52517812  0.64523425  0.97350760  1
  K  K21  1  0.14251779  0.93935242  0.46134080  1
  K  K22  1  0.01936783  0.62258824  0.44508278  1
  K  K23  1  0.14251779  0.43935242  0.03865920  1
  Cd  Cd24  1  0.31882296  0.88652488  0.24627391  1
  Cd  Cd25  1  0.36862690  0.01933585  0.79130788  1
  Cd  Cd26  1  0.63137310  0.48066415  0.29130788  1
  Cd  Cd27  1  0.31882296  0.38652488  0.25372609  1
  Cd  Cd28  1  0.82244257  0.90453668  0.75022479  1
  Cd  Cd29  1  0.55722213  0.31868207  0.72984385  1
  Cd  Cd30  1  0.86234475  0.99087585  0.30944706  1
  Cd  Cd31  1  0.44277787  0.68131793  0.27015615  1
  Cd  Cd32  1  0.55722213  0.81868207  0.77015615  1
  Cd  Cd33  1  0.99160524  0.32283115  0.29070694  1
  Cd  Cd34  1  0.44277787  0.18131793  0.22984385  1
  Cd  Cd35  1  0.99160524  0.82283115  0.20929306  1
  Cd  Cd36  1  0.17755743  0.09546332  0.24977521  1
  Cd  Cd37  1  0.82244257  0.40453668  0.74977521  1
  Cd  Cd38  1  0.13765525  0.50912415  0.80944706  1
  Cd  Cd39  1  0.86234475  0.49087585  0.19055294  1
  Cd  Cd40  1  0.00839476  0.67716885  0.70929306  1
  Cd  Cd41  1  0.00839476  0.17716885  0.79070694  1
  Cd  Cd42  1  0.68117704  0.61347512  0.74627391  1
  Cd  Cd43  1  0.17755743  0.59546332  0.25022479  1
  Cd  Cd44  1  0.36862690  0.51933585  0.70869212  1
  Cd  Cd45  1  0.63137310  0.98066415  0.20869212  1
  Cd  Cd46  1  0.68117704  0.11347512  0.75372609  1
  Cd  Cd47  1  0.13765525  0.00912415  0.69055294  1
  Te  Te48  1  0.49005413  0.83249938  0.15508524  1
  Te  Te49  1  0.93250314  0.32530684  0.12262532  1
  Te  Te50  1  0.73775075  0.76150460  0.86153035  1
  Te  Te51  1  0.41527583  0.86232175  0.88896921  1
  Te  Te52  1  0.32972623  0.48306670  0.87946233  1
  Te  Te53  1  0.15608023  0.93290775  0.13988527  1
  Te  Te54  1  0.32972623  0.98306670  0.62053767  1
  Te  Te55  1  0.58472417  0.13767825  0.11103079  1
  Te  Te56  1  0.84391977  0.06709225  0.86011473  1
  Te  Te57  1  0.16456974  0.56005280  0.63439310  1
  Te  Te58  1  0.49005413  0.33249938  0.34491476  1
  Te  Te59  1  0.73775075  0.26150460  0.63846965  1
  Te  Te60  1  0.41527583  0.36232175  0.61103079  1
  Te  Te61  1  0.35186455  0.05044842  0.34761364  1
  Te  Te62  1  0.50994587  0.16750062  0.84491476  1
  Te  Te63  1  0.83543026  0.43994720  0.36560690  1
  Te  Te64  1  0.98642556  0.86265230  0.64877330  1
  Te  Te65  1  0.50994587  0.66750062  0.65508524  1
  Te  Te66  1  0.16456974  0.06005280  0.86560690  1
  Te  Te67  1  0.26224925  0.73849540  0.36153035  1
  Te  Te68  1  0.58472417  0.63767825  0.38896921  1
  Te  Te69  1  0.35186455  0.55044842  0.15238636  1
  Te  Te70  1  0.06749686  0.67469316  0.87737468  1
  Te  Te71  1  0.06749686  0.17469316  0.62262532  1
  Te  Te72  1  0.93250314  0.82530684  0.37737468  1
  Te  Te73  1  0.15608023  0.43290775  0.36011473  1
  Te  Te74  1  0.67027377  0.01693330  0.37946233  1
  Te  Te75  1  0.67027377  0.51693330  0.12053767  1
  Te  Te76  1  0.64813545  0.94955158  0.65238636  1
  Te  Te77  1  0.01357444  0.13734770  0.35122670  1
  Te  Te78  1  0.64813545  0.44955158  0.84761364  1
  Te  Te79  1  0.84391977  0.56709225  0.63988527  1
  Te  Te80  1  0.01357444  0.63734770  0.14877330  1
  Te  Te81  1  0.83543026  0.93994720  0.13439310  1
  Te  Te82  1  0.26224925  0.23849540  0.13846965  1
  Te  Te83  1  0.98642556  0.36265230  0.85122670  1
