# generated using pymatgen
data_Cs3P7Pb2O21
_symmetry_space_group_name_H-M   'P 1'
_cell_length_a   6.91082986
_cell_length_b   8.03324557
_cell_length_c   22.53471057
_cell_angle_alpha   86.50681688
_cell_angle_beta   83.04107025
_cell_angle_gamma   65.90064885
_symmetry_Int_Tables_number   1
_chemical_formula_structural   Cs3P7Pb2O21
_chemical_formula_sum   'Cs6 P14 Pb4 O42'
_cell_volume   1133.49970706
_cell_formula_units_Z   2
loop_
 _symmetry_equiv_pos_site_id
 _symmetry_equiv_pos_as_xyz
  1  'x, y, z'
loop_
 _atom_site_type_symbol
 _atom_site_label
 _atom_site_symmetry_multiplicity
 _atom_site_fract_x
 _atom_site_fract_y
 _atom_site_fract_z
 _atom_site_occupancy
  Cs  Cs0  1  0.30240437  0.79398884  0.42096354  1
  Cs  Cs1  1  0.87325087  0.68602947  0.76372423  1
  Cs  Cs2  1  0.24612077  0.79277459  0.88945949  1
  Cs  Cs3  1  0.69759563  0.20601116  0.57903646  1
  Cs  Cs4  1  0.12674913  0.31397053  0.23627577  1
  Cs  Cs5  1  0.75387923  0.20722541  0.11054051  1
  P  P6  1  0.95819648  0.12108661  0.73495742  1
  P  P7  1  0.19725121  0.25407573  0.51809843  1
  P  P8  1  0.04180352  0.87891339  0.26504258  1
  P  P9  1  0.01238315  0.33656597  0.93468510  1
  P  P10  1  0.36491593  0.15075379  0.74523364  1
  P  P11  1  0.80274879  0.74592427  0.48190157  1
  P  P12  1  0.98761685  0.66343403  0.06531490  1
  P  P13  1  0.72608105  0.72667302  0.96292331  1
  P  P14  1  0.96237114  0.40243997  0.41213266  1
  P  P15  1  0.63508407  0.84924621  0.25476636  1
  P  P16  1  0.53559626  0.43805935  0.75100324  1
  P  P17  1  0.03762886  0.59756003  0.58786734  1
  P  P18  1  0.27391895  0.27332698  0.03707669  1
  P  P19  1  0.46440374  0.56194065  0.24899676  1
  Pb  Pb20  1  0.41083748  0.81321238  0.62462165  1
  Pb  Pb21  1  0.58916252  0.18678762  0.37537835  1
  Pb  Pb22  1  0.60536186  0.16935553  0.88497882  1
  Pb  Pb23  1  0.39463814  0.83064447  0.11502118  1
  O  O24  1  0.47413572  0.05090285  0.68821818  1
  O  O25  1  0.75360096  0.29808093  0.71427545  1
  O  O26  1  0.53383959  0.38007012  0.28000031  1
  O  O27  1  0.79100091  0.51123666  0.95274901  1
  O  O28  1  0.20899909  0.48876334  0.04725099  1
  O  O29  1  0.95236080  0.99928331  0.31869081  1
  O  O30  1  0.09979713  0.95869488  0.20715001  1
  O  O31  1  0.74756601  0.81658592  0.90306578  1
  O  O32  1  0.00302209  0.29683642  0.47661986  1
  O  O33  1  0.48723505  0.20631129  0.00073288  1
  O  O34  1  0.84029695  0.67559528  0.63081183  1
  O  O35  1  0.08729466  0.26626950  0.00148744  1
  O  O36  1  0.51276495  0.79368871  0.99926712  1
  O  O37  1  0.75478378  0.93491602  0.45744539  1
  O  O38  1  0.17401866  0.39327115  0.89908753  1
  O  O39  1  0.63342848  0.69285918  0.51422649  1
  O  O40  1  0.46616041  0.61992988  0.71999969  1
  O  O41  1  0.04763920  0.00071669  0.68130919  1
  O  O42  1  0.15970305  0.32440472  0.36918817  1
  O  O43  1  0.24531024  0.59390085  0.60303729  1
  O  O44  1  0.56434563  0.93977293  0.19620396  1
  O  O45  1  0.75468976  0.40609915  0.39696271  1
  O  O46  1  0.91270534  0.73373050  0.99851256  1
  O  O47  1  0.93100188  0.60903004  0.42640825  1
  O  O48  1  0.90020287  0.04130512  0.79284999  1
  O  O49  1  0.43565437  0.06022707  0.80379604  1
  O  O50  1  0.06899812  0.39096996  0.57359175  1
  O  O51  1  0.10765339  0.22540376  0.74634942  1
  O  O52  1  0.89234661  0.77459624  0.25365058  1
  O  O53  1  0.05186465  0.80425747  0.08707382  1
  O  O54  1  0.63388931  0.64569158  0.25930652  1
  O  O55  1  0.99697791  0.70316358  0.52338014  1
  O  O56  1  0.82598134  0.60672885  0.10091247  1
  O  O57  1  0.56517121  0.43575580  0.81625209  1
  O  O58  1  0.36657152  0.30714082  0.48577351  1
  O  O59  1  0.94813535  0.19574253  0.91292618  1
  O  O60  1  0.52586428  0.94909715  0.31178182  1
  O  O61  1  0.24639904  0.70191907  0.28572455  1
  O  O62  1  0.24521622  0.06508398  0.54255461  1
  O  O63  1  0.25243399  0.18341408  0.09693422  1
  O  O64  1  0.36611069  0.35430842  0.74069348  1
  O  O65  1  0.43482879  0.56424420  0.18374791  1
