# generated using pymatgen
data_K3AgO2
_symmetry_space_group_name_H-M   'P 1'
_cell_length_a   12.51215864
_cell_length_b   12.54168234
_cell_length_c   13.92162461
_cell_angle_alpha   90.00000000
_cell_angle_beta   90.00000000
_cell_angle_gamma   90.00000000
_symmetry_Int_Tables_number   1
_chemical_formula_structural   K3AgO2
_chemical_formula_sum   'K48 Ag16 O32'
_cell_volume   2184.63032470
_cell_formula_units_Z   16
loop_
 _symmetry_equiv_pos_site_id
 _symmetry_equiv_pos_as_xyz
  1  'x, y, z'
loop_
 _atom_site_type_symbol
 _atom_site_label
 _atom_site_symmetry_multiplicity
 _atom_site_fract_x
 _atom_site_fract_y
 _atom_site_fract_z
 _atom_site_occupancy
  K  K0  1  0.48700748  0.50138853  0.92979103  1
  K  K1  1  0.98700748  0.99861147  0.07020897  1
  K  K2  1  0.69420716  0.69622766  0.86381598  1
  K  K3  1  0.49914398  0.21123496  0.27277102  1
  K  K4  1  0.50085602  0.71123496  0.22722898  1
  K  K5  1  0.28084894  0.47957806  0.50755653  1
  K  K6  1  0.21915106  0.52042194  0.00755653  1
  K  K7  1  0.19420716  0.80377234  0.13618402  1
  K  K8  1  0.78084894  0.02042194  0.49244347  1
  K  K9  1  0.29462936  0.29920437  0.85137209  1
  K  K10  1  0.54938049  0.24736497  0.75583847  1
  K  K11  1  0.26503802  0.46184873  0.24470551  1
  K  K12  1  0.52488161  0.27702716  0.50244758  1
  K  K13  1  0.97511839  0.72297284  0.00244758  1
  K  K14  1  0.01299252  0.49861147  0.42979103  1
  K  K15  1  0.02488161  0.22297284  0.49755242  1
  K  K16  1  0.98626945  0.79470651  0.49478142  1
  K  K17  1  0.73496198  0.96184873  0.25529449  1
  K  K18  1  0.75830262  0.53960766  0.26335152  1
  K  K19  1  0.30579284  0.19622766  0.63618402  1
  K  K20  1  0.25830262  0.96039234  0.73664848  1
  K  K21  1  0.76503802  0.03815127  0.75529449  1
  K  K22  1  0.20537064  0.70079563  0.35137209  1
  K  K23  1  0.06571595  0.07699535  0.86774318  1
  K  K24  1  0.51299252  0.00138853  0.57020897  1
  K  K25  1  0.48626945  0.70529349  0.50521858  1
  K  K26  1  0.93428405  0.57699535  0.63225682  1
  K  K27  1  0.79013724  0.48825081  0.01017093  1
  K  K28  1  0.70986276  0.51174919  0.51017093  1
  K  K29  1  0.95061951  0.75263503  0.25583847  1
  K  K30  1  0.99914398  0.28876504  0.72722898  1
  K  K31  1  0.47511839  0.77702716  0.99755242  1
  K  K32  1  0.04938049  0.25263503  0.24416153  1
  K  K33  1  0.45061951  0.74736497  0.74416153  1
  K  K34  1  0.79462936  0.20079563  0.14862791  1
  K  K35  1  0.24169738  0.03960766  0.23664848  1
  K  K36  1  0.51373055  0.20529349  0.99478142  1
  K  K37  1  0.29013724  0.01174919  0.98982907  1
  K  K38  1  0.71915106  0.97957806  0.99244347  1
  K  K39  1  0.23496198  0.53815127  0.74470551  1
  K  K40  1  0.80579284  0.30377234  0.36381598  1
  K  K41  1  0.74169738  0.46039234  0.76335152  1
  K  K42  1  0.01373055  0.29470651  0.00521858  1
  K  K43  1  0.43428405  0.92300465  0.36774318  1
  K  K44  1  0.20986276  0.98825081  0.48982907  1
  K  K45  1  0.70537064  0.79920437  0.64862791  1
  K  K46  1  0.00085602  0.78876504  0.77277102  1
  K  K47  1  0.56571595  0.42300465  0.13225682  1
  Ag  Ag48  1  1.00060213  0.01028339  0.64716944  1
  Ag  Ag49  1  0.99779310  0.00474212  0.32878191  1
  Ag  Ag50  1  0.49939787  0.98971661  0.14716944  1
  Ag  Ag51  1  0.27144726  0.23578396  0.40327544  1
  Ag  Ag52  1  0.22855274  0.76421604  0.90327544  1
  Ag  Ag53  1  0.49779310  0.49525788  0.67121809  1
  Ag  Ag54  1  0.77144726  0.26421604  0.59672456  1
  Ag  Ag55  1  0.76584912  0.24355643  0.91707268  1
  Ag  Ag56  1  0.00220690  0.50474212  0.17121809  1
  Ag  Ag57  1  -0.00060213  0.51028339  0.85283056  1
  Ag  Ag58  1  0.50220690  0.99525788  0.82878191  1
  Ag  Ag59  1  0.73415088  0.75644357  0.41707268  1
  Ag  Ag60  1  0.72855274  0.73578396  0.09672456  1
  Ag  Ag61  1  0.50060213  0.48971661  0.35283056  1
  Ag  Ag62  1  0.23415088  0.74355643  0.58292732  1
  Ag  Ag63  1  0.26584912  0.25644357  0.08292732  1
  O  O64  1  0.87937446  0.12745900  0.93698209  1
  O  O65  1  0.38057735  0.87938192  0.16253439  1
  O  O66  1  0.34382759  0.64995657  0.88921457  1
  O  O67  1  0.85189060  0.64146693  0.41325268  1
  O  O68  1  0.11942265  0.12061808  0.66253439  1
  O  O69  1  0.11610938  0.39748656  0.85949138  1
  O  O70  1  0.12062554  0.62745900  0.56301791  1
  O  O71  1  0.11400144  0.88850164  0.32768069  1
  O  O72  1  0.62062554  0.87254100  0.43698209  1
  O  O73  1  0.14810940  0.14146693  0.08674732  1
  O  O74  1  0.65617241  0.14995657  0.61078543  1
  O  O75  1  0.11616612  0.88125480  0.92958782  1
  O  O76  1  0.64810940  0.35853307  0.91325268  1
  O  O77  1  0.84382759  0.85004343  0.11078543  1
  O  O78  1  0.15617241  0.35004343  0.38921457  1
  O  O79  1  0.35189060  0.85853307  0.58674732  1
  O  O80  1  0.38342676  0.37907061  0.67377532  1
  O  O81  1  0.88057735  0.62061808  0.83746561  1
  O  O82  1  0.61610938  0.10251344  0.14050862  1
  O  O83  1  0.11657324  0.62092939  0.17377532  1
  O  O84  1  0.37937446  0.37254100  0.06301791  1
  O  O85  1  0.38389062  0.60251344  0.35949138  1
  O  O86  1  0.61400144  0.61149836  0.67231931  1
  O  O87  1  0.88599856  0.38850164  0.17231931  1
  O  O88  1  0.61616612  0.61874520  0.07041218  1
  O  O89  1  0.88383388  0.38125480  0.57041218  1
  O  O90  1  0.61942265  0.37938192  0.33746561  1
  O  O91  1  0.38599856  0.11149836  0.82768069  1
  O  O92  1  0.61657324  0.87907061  0.82622468  1
  O  O93  1  0.38383388  0.11874520  0.42958782  1
  O  O94  1  0.88389062  0.89748656  0.64050862  1
  O  O95  1  0.88342676  0.12092939  0.32622468  1
