# generated using pymatgen
data_SbBr(OF3)2
_symmetry_space_group_name_H-M   'P 1'
_cell_length_a   5.96119936
_cell_length_b   7.28053242
_cell_length_c   7.65430897
_cell_angle_alpha   92.99034563
_cell_angle_beta   90.00000000
_cell_angle_gamma   90.00000000
_symmetry_Int_Tables_number   1
_chemical_formula_structural   SbBr(OF3)2
_chemical_formula_sum   'Sb2 Br2 O4 F12'
_cell_volume   331.75006007
_cell_formula_units_Z   2
loop_
 _symmetry_equiv_pos_site_id
 _symmetry_equiv_pos_as_xyz
  1  'x, y, z'
loop_
 _atom_site_type_symbol
 _atom_site_label
 _atom_site_symmetry_multiplicity
 _atom_site_fract_x
 _atom_site_fract_y
 _atom_site_fract_z
 _atom_site_occupancy
  Sb  Sb0  1  0.46683988  0.25000000  0.25000000  1
  Sb  Sb1  1  0.53316012  0.75000000  0.75000000  1
  Br  Br2  1  0.14512816  0.25000000  0.75000000  1
  Br  Br3  1  0.85487184  0.75000000  0.25000000  1
  O  O4  1  0.99176817  0.28240808  0.92333123  1
  O  O5  1  0.00823183  0.71759192  0.07666877  1
  O  O6  1  0.99176817  0.21759192  0.57666877  1
  O  O7  1  0.00823183  0.78240808  0.42333123  1
  F  F8  1  0.47572420  0.28389986  1.00304814  1
  F  F9  1  0.70566215  0.06801544  0.21858358  1
  F  F10  1  0.70566215  0.43198456  0.28141642  1
  F  F11  1  0.52427580  0.71610014  -0.00304814  1
  F  F12  1  0.24685410  0.43733990  0.28515792  1
  F  F13  1  0.47572420  0.21610014  0.49695186  1
  F  F14  1  0.29433785  0.56801544  0.71858358  1
  F  F15  1  0.75314590  0.93733990  0.78515792  1
  F  F16  1  0.52427580  0.78389986  0.50304814  1
  F  F17  1  0.24685410  0.06266010  0.21484208  1
  F  F18  1  0.29433785  0.93198456  0.78141642  1
  F  F19  1  0.75314590  0.56266010  0.71484208  1
