# generated using pymatgen
data_Cs2Al(NO3)5
_symmetry_space_group_name_H-M   'P 1'
_cell_length_a   11.29777694
_cell_length_b   11.29777738
_cell_length_c   10.17580290
_cell_angle_alpha   90.00000000
_cell_angle_beta   90.00000000
_cell_angle_gamma   119.99999870
_symmetry_Int_Tables_number   1
_chemical_formula_structural   Cs2Al(NO3)5
_chemical_formula_sum   'Cs6 Al3 N15 O45'
_cell_volume   1124.82596440
_cell_formula_units_Z   3
loop_
 _symmetry_equiv_pos_site_id
 _symmetry_equiv_pos_as_xyz
  1  'x, y, z'
loop_
 _atom_site_type_symbol
 _atom_site_label
 _atom_site_symmetry_multiplicity
 _atom_site_fract_x
 _atom_site_fract_y
 _atom_site_fract_z
 _atom_site_occupancy
  Cs  Cs0  1  1.00000000  0.70500576  0.66666700  1
  Cs  Cs1  1  0.45799610  0.45799610  0.50000000  1
  Cs  Cs2  1  0.00000000  0.54200390  0.16666700  1
  Cs  Cs3  1  0.70500576  0.00000000  0.33333300  1
  Cs  Cs4  1  0.54200390  0.00000000  0.83333300  1
  Cs  Cs5  1  0.29499424  0.29499424  0.00000000  1
  Al  Al6  1  0.68609105  0.68609105  0.00000000  1
  Al  Al7  1  0.31390895  0.00000000  0.33333300  1
  Al  Al8  1  0.00000000  0.31390895  0.66666700  1
  N  N9  1  0.74737883  0.65467124  0.27315577  1
  N  N10  1  0.25262117  0.90729241  0.06017823  1
  N  N11  1  0.75732050  0.31638272  0.57881251  1
  N  N12  1  0.90030380  0.90030380  0.00000000  1
  N  N13  1  0.31638272  0.75732050  0.42118749  1
  N  N14  1  0.09969620  0.00000000  0.33333300  1
  N  N15  1  0.24267950  0.55906222  0.75452049  1
  N  N16  1  0.34532876  0.09270759  0.60648877  1
  N  N17  1  0.44093778  0.68361728  0.08785349  1
  N  N18  1  0.09270759  0.34532876  0.39351123  1
  N  N19  1  0.65467124  0.74737883  0.72684423  1
  N  N20  1  0.68361728  0.44093778  0.91214651  1
  N  N21  1  0.00000000  0.09969620  0.66666700  1
  N  N22  1  0.90729241  0.25262117  0.93982177  1
  N  N23  1  0.55906222  0.24267950  0.24547951  1
  O  O24  1  0.18883740  0.37724062  0.31623304  1
  O  O25  1  0.12401411  0.36207813  0.52076789  1
  O  O26  1  0.48962819  0.10780833  0.26369891  1
  O  O27  1  0.00809238  0.00809238  0.00000000  1
  O  O28  1  0.20797206  0.08848477  0.26977866  1
  O  O29  1  0.61074933  0.31582757  0.90107876  1
  O  O30  1  0.08848477  0.20797206  0.73022134  1
  O  O31  1  0.30061140  0.97190243  0.64083898  1
  O  O32  1  0.32870898  0.02809757  0.02582802  1
  O  O33  1  0.36207813  0.12401411  0.47923211  1
  O  O34  1  0.31582757  0.61074933  0.09892124  1
  O  O35  1  0.89219167  0.38181986  0.59703191  1
  O  O36  1  0.63792187  0.76193598  0.85410089  1
  O  O37  1  0.61818014  0.51037181  0.93036591  1
  O  O38  1  0.81159678  0.62275938  0.35043396  1
  O  O39  1  0.37724062  0.18883740  0.68376696  1
  O  O40  1  0.38181986  0.89219167  0.40296809  1
  O  O41  1  0.10780833  0.48962819  0.73630109  1
  O  O42  1  0.97190243  0.30061140  0.35916102  1
  O  O43  1  0.11948729  0.91151523  0.39688834  1
  O  O44  1  0.76193598  0.63792187  0.14589911  1
  O  O45  1  0.81070205  0.50473919  0.90614144  1
  O  O46  1  0.69403714  0.18929795  0.57280744  1
  O  O47  1  0.18929795  0.69403714  0.42719256  1
  O  O48  1  0.69938860  0.67129102  0.69249402  1
  O  O49  1  0.88051271  0.79202794  0.93644566  1
  O  O50  1  0.23806402  0.87598589  0.18743489  1
  O  O51  1  0.29492177  0.68417243  0.76558824  1
  O  O52  1  0.67129102  0.69938860  0.30750598  1
  O  O53  1  0.70507823  0.38925067  0.56774476  1
  O  O54  1  0.51037181  0.61818014  0.06963409  1
  O  O55  1  0.62275938  0.81159678  0.64956604  1
  O  O56  1  0.81116260  0.18840322  0.01709996  1
  O  O57  1  0.00000000  0.99190762  0.66666700  1
  O  O58  1  0.38925067  0.70507823  0.43225524  1
  O  O59  1  0.50473919  0.81070205  0.09385856  1
  O  O60  1  0.87598589  0.23806402  0.81256511  1
  O  O61  1  0.30596286  0.49526081  0.76052556  1
  O  O62  1  0.79202794  0.88051271  0.06355434  1
  O  O63  1  0.18840322  0.81116260  0.98290004  1
  O  O64  1  0.91151523  0.11948729  0.60311166  1
  O  O65  1  0.49526081  0.30596286  0.23947444  1
  O  O66  1  0.68417243  0.29492177  0.23441176  1
  O  O67  1  0.99190762  0.00000000  0.33333300  1
  O  O68  1  0.02809757  0.32870898  0.97417198  1
