# generated using pymatgen
data_CsRe(Cl2O)2
_symmetry_space_group_name_H-M   'P 1'
_cell_length_a   6.86098371
_cell_length_b   10.82445176
_cell_length_c   12.27787010
_cell_angle_alpha   90.00000000
_cell_angle_beta   90.89067706
_cell_angle_gamma   90.00000000
_symmetry_Int_Tables_number   1
_chemical_formula_structural   CsRe(Cl2O)2
_chemical_formula_sum   'Cs4 Re4 Cl16 O8'
_cell_volume   911.72288310
_cell_formula_units_Z   4
loop_
 _symmetry_equiv_pos_site_id
 _symmetry_equiv_pos_as_xyz
  1  'x, y, z'
loop_
 _atom_site_type_symbol
 _atom_site_label
 _atom_site_symmetry_multiplicity
 _atom_site_fract_x
 _atom_site_fract_y
 _atom_site_fract_z
 _atom_site_occupancy
  Cs  Cs0  1  0.18642537  0.88733396  0.64912874  1
  Cs  Cs1  1  0.81357463  0.38733396  0.85087126  1
  Cs  Cs2  1  0.81357463  0.11266604  0.35087126  1
  Cs  Cs3  1  0.18642537  0.61266604  0.14912874  1
  Re  Re4  1  0.67957515  0.80836319  0.94745549  1
  Re  Re5  1  0.67957515  0.69163681  0.44745549  1
  Re  Re6  1  0.32042485  0.30836319  0.55254451  1
  Re  Re7  1  0.32042485  0.19163681  0.05254451  1
  Cl  Cl8  1  0.46978228  0.18101640  0.68359478  1
  Cl  Cl9  1  0.87389876  0.89291099  0.08491229  1
  Cl  Cl10  1  0.31322312  0.11645590  0.43800119  1
  Cl  Cl11  1  0.12610124  0.10708901  0.91508771  1
  Cl  Cl12  1  0.53021772  0.68101640  0.81640522  1
  Cl  Cl13  1  0.99054582  0.78554495  0.38243872  1
  Cl  Cl14  1  0.31322312  0.38354410  0.93800119  1
  Cl  Cl15  1  0.68677688  0.61645590  0.06199881  1
  Cl  Cl16  1  0.12610124  0.39291099  0.41508771  1
  Cl  Cl17  1  0.46978228  0.31898360  0.18359478  1
  Cl  Cl18  1  0.68677688  0.88354410  0.56199881  1
  Cl  Cl19  1  0.87389876  0.60708901  0.58491229  1
  Cl  Cl20  1  0.99054582  0.71445505  0.88243872  1
  Cl  Cl21  1  0.00945418  0.21445505  0.61756128  1
  Cl  Cl22  1  0.53021772  0.81898360  0.31640522  1
  Cl  Cl23  1  0.00945418  0.28554495  0.11756128  1
  O  O24  1  0.46182634  0.65526476  0.50815242  1
  O  O25  1  0.53817366  0.15526476  0.99184758  1
  O  O26  1  0.46182634  0.84473524  0.00815242  1
  O  O27  1  0.71519868  0.57224427  0.35701826  1
  O  O28  1  0.71519868  0.92775573  0.85701826  1
  O  O29  1  0.28480132  0.42775573  0.64298174  1
  O  O30  1  0.53817366  0.34473524  0.49184758  1
  O  O31  1  0.28480132  0.07224427  0.14298174  1
