# generated using pymatgen
data_Cs3AuO2
_symmetry_space_group_name_H-M   'P 1'
_cell_length_a   10.35967342
_cell_length_b   10.63359652
_cell_length_c   20.10794926
_cell_angle_alpha   90.00000000
_cell_angle_beta   90.00000000
_cell_angle_gamma   93.47624817
_symmetry_Int_Tables_number   1
_chemical_formula_structural   Cs3AuO2
_chemical_formula_sum   'Cs36 Au12 O24'
_cell_volume   2211.02775284
_cell_formula_units_Z   12
loop_
 _symmetry_equiv_pos_site_id
 _symmetry_equiv_pos_as_xyz
  1  'x, y, z'
loop_
 _atom_site_type_symbol
 _atom_site_label
 _atom_site_symmetry_multiplicity
 _atom_site_fract_x
 _atom_site_fract_y
 _atom_site_fract_z
 _atom_site_occupancy
  Cs  Cs0  1  0.94342349  0.70652038  0.40446319  1
  Cs  Cs1  1  0.19971332  0.63402068  0.93646102  1
  Cs  Cs2  1  0.26434190  0.86279524  0.73249915  1
  Cs  Cs3  1  0.00481638  0.92532441  0.58914300  1
  Cs  Cs4  1  0.55657651  0.79347962  0.90446319  1
  Cs  Cs5  1  0.52762294  0.57388688  0.41069262  1
  Cs  Cs6  1  0.68172337  0.91287031  0.07128194  1
  Cs  Cs7  1  0.97237706  0.92611312  0.91069262  1
  Cs  Cs8  1  0.44342349  0.20652038  0.09553681  1
  Cs  Cs9  1  0.49518362  0.57467559  0.08914300  1
  Cs  Cs10  1  0.18172337  0.41287031  0.42871806  1
  Cs  Cs11  1  0.30028668  0.86597932  0.43646102  1
  Cs  Cs12  1  0.84082936  0.49418190  0.24396148  1
  Cs  Cs13  1  0.62734990  0.78107660  0.24853021  1
  Cs  Cs14  1  0.87265010  0.71892340  0.74853021  1
  Cs  Cs15  1  0.12734990  0.28107660  0.25146979  1
  Cs  Cs16  1  0.50481638  0.42532441  0.91085700  1
  Cs  Cs17  1  0.81827663  0.58712969  0.57128194  1
  Cs  Cs18  1  0.73565810  0.13720476  0.26750085  1
  Cs  Cs19  1  0.15917064  0.50581810  0.75603852  1
  Cs  Cs20  1  0.31827663  0.08712969  0.92871806  1
  Cs  Cs21  1  0.37265010  0.21892340  0.75146979  1
  Cs  Cs22  1  0.69971332  0.13402068  0.56353898  1
  Cs  Cs23  1  0.99518362  0.07467559  0.41085700  1
  Cs  Cs24  1  0.97349233  0.70392281  0.08684288  1
  Cs  Cs25  1  0.47237706  0.42611312  0.58930738  1
  Cs  Cs26  1  0.52650767  0.79607719  0.58684288  1
  Cs  Cs27  1  0.23565810  0.63720476  0.23249915  1
  Cs  Cs28  1  0.65917064  0.00581810  0.74396148  1
  Cs  Cs29  1  0.34082936  0.99418190  0.25603852  1
  Cs  Cs30  1  0.47349233  0.20392281  0.41315712  1
  Cs  Cs31  1  0.80028668  0.36597932  0.06353898  1
  Cs  Cs32  1  0.02762294  0.07388688  0.08930738  1
  Cs  Cs33  1  0.05657651  0.29347962  0.59553681  1
  Cs  Cs34  1  0.76434190  0.36279524  0.76750085  1
  Cs  Cs35  1  0.02650767  0.29607719  0.91315712  1
  Au  Au36  1  0.48710727  0.38471627  0.24824239  1
  Au  Au37  1  0.66885465  0.90696135  0.42148786  1
  Au  Au38  1  0.19349014  0.63803082  0.57927257  1
  Au  Au39  1  0.80650986  0.36196918  0.42072743  1
  Au  Au40  1  0.16885465  0.40696135  0.07851214  1
  Au  Au41  1  0.51289273  0.61528373  0.75175761  1
  Au  Au42  1  0.30650986  0.86196918  0.07927257  1
  Au  Au43  1  0.98710727  0.88471627  0.25175761  1
  Au  Au44  1  0.33114535  0.09303865  0.57851214  1
  Au  Au45  1  0.83114535  0.59303865  0.92148786  1
  Au  Au46  1  0.69349014  0.13803082  0.92072743  1
  Au  Au47  1  0.01289273  0.11528373  0.74824239  1
  O  O48  1  0.12204894  0.85808990  0.32396418  1
  O  O49  1  0.43807850  0.83257921  0.15253204  1
  O  O50  1  0.62204894  0.35808990  0.17603582  1
  O  O51  1  0.64743480  0.58878293  0.68036745  1
  O  O52  1  0.35256520  0.41121707  0.31963255  1
  O  O53  1  0.29805404  0.36553950  0.00607258  1
  O  O54  1  0.06192150  0.66742079  0.65253204  1
  O  O55  1  0.93807850  0.33257921  0.34746796  1
  O  O56  1  0.85256520  0.91121707  0.18036745  1
  O  O57  1  0.33101310  0.61521388  0.50835404  1
  O  O58  1  0.87795106  0.14191010  0.67603582  1
  O  O59  1  0.70194596  0.63446050  0.99392742  1
  O  O60  1  0.16898690  0.88478612  0.00835404  1
  O  O61  1  0.56192150  0.16742079  0.84746796  1
  O  O62  1  0.66898690  0.38478612  0.49164596  1
  O  O63  1  0.37795106  0.64191010  0.82396418  1
  O  O64  1  0.96027816  0.54706808  0.84973579  1
  O  O65  1  0.79805404  0.86553950  0.49392742  1
  O  O66  1  0.53972184  0.95293192  0.34973579  1
  O  O67  1  0.83101310  0.11521388  0.99164596  1
  O  O68  1  0.46027816  0.04706808  0.65026421  1
  O  O69  1  0.20194596  0.13446050  0.50607258  1
  O  O70  1  0.03972184  0.45293192  0.15026421  1
  O  O71  1  0.14743480  0.08878293  0.81963255  1
