# generated using pymatgen
data_CrCu(PS3)2
_symmetry_space_group_name_H-M   'P 1'
_cell_length_a   5.98536568
_cell_length_b   10.37801271
_cell_length_c   14.20309837
_cell_angle_alpha   90.00000000
_cell_angle_beta   98.93923607
_cell_angle_gamma   90.00000000
_symmetry_Int_Tables_number   1
_chemical_formula_structural   CrCu(PS3)2
_chemical_formula_sum   'Cr4 Cu4 P8 S24'
_cell_volume   871.52652208
_cell_formula_units_Z   4
loop_
 _symmetry_equiv_pos_site_id
 _symmetry_equiv_pos_as_xyz
  1  'x, y, z'
loop_
 _atom_site_type_symbol
 _atom_site_label
 _atom_site_symmetry_multiplicity
 _atom_site_fract_x
 _atom_site_fract_y
 _atom_site_fract_z
 _atom_site_occupancy
  Cr  Cr0  1  0.76439347  0.66910594  0.75486562  1
  Cr  Cr1  1  0.27092755  0.16906869  0.75738188  1
  Cr  Cr2  1  0.26439347  0.33089406  0.25486562  1
  Cr  Cr3  1  0.77092755  0.83093131  0.25738188  1
  Cu  Cu4  1  0.30266547  0.50241887  0.85644722  1
  Cu  Cu5  1  0.73116739  0.00228685  0.65320017  1
  Cu  Cu6  1  0.23116739  0.99771315  0.15320017  1
  Cu  Cu7  1  0.80266547  0.49758113  0.35644722  1
  P  P8  1  0.24490642  0.83325692  0.67621892  1
  P  P9  1  0.73144499  0.33893576  0.68031952  1
  P  P10  1  0.80363664  0.16087127  0.33189125  1
  P  P11  1  0.74490642  0.16674308  0.17621892  1
  P  P12  1  0.28999333  0.66678473  0.33595025  1
  P  P13  1  0.23144499  0.66106424  0.18031952  1
  P  P14  1  0.30363664  0.83912873  0.83189125  1
  P  P15  1  0.78999333  0.33321527  0.83595025  1
  S  S16  1  0.39274944  0.32102801  0.64445803  1
  S  S17  1  0.86806393  0.50652080  0.64417470  1
  S  S18  1  0.42001003  0.81621980  0.14091030  1
  S  S19  1  0.89274944  0.67897199  0.14445803  1
  S  S20  1  0.12033672  0.82243761  0.37262910  1
  S  S21  1  0.66726733  0.99333051  0.36823438  1
  S  S22  1  0.36806393  0.49347920  0.14417470  1
  S  S23  1  0.92001003  0.18378020  0.64091030  1
  S  S24  1  0.13876741  0.31390674  0.87560742  1
  S  S25  1  0.89626433  0.81356376  0.63629610  1
  S  S26  1  0.39626433  0.18643624  0.13629610  1
  S  S27  1  0.11512876  0.68378695  0.87111330  1
  S  S28  1  0.85625190  0.98690578  0.13647565  1
  S  S29  1  0.91460293  0.32253665  0.13978408  1
  S  S30  1  0.35625190  0.01309422  0.63647565  1
  S  S31  1  0.62033672  0.17756239  0.87262910  1
  S  S32  1  0.41460293  0.67746335  0.63978408  1
  S  S33  1  0.16726733  0.00666949  0.86823438  1
  S  S34  1  0.17805662  0.48691128  0.37537348  1
  S  S35  1  0.14236334  0.17881215  0.36766761  1
  S  S36  1  0.64236334  0.82118785  0.86766761  1
  S  S37  1  0.61512876  0.31621305  0.37111330  1
  S  S38  1  0.63876741  0.68609326  0.37560742  1
  S  S39  1  0.67805662  0.51308872  0.87537348  1
