# generated using pymatgen
data_Cs3Nd(PS4)2
_symmetry_space_group_name_H-M   'P 1'
_cell_length_a   7.04320393
_cell_length_b   15.69994392
_cell_length_c   15.84987916
_cell_angle_alpha   99.48106068
_cell_angle_beta   90.00000000
_cell_angle_gamma   90.00000000
_symmetry_Int_Tables_number   1
_chemical_formula_structural   Cs3Nd(PS4)2
_chemical_formula_sum   'Cs12 Nd4 P8 S32'
_cell_volume   1728.70549219
_cell_formula_units_Z   4
loop_
 _symmetry_equiv_pos_site_id
 _symmetry_equiv_pos_as_xyz
  1  'x, y, z'
loop_
 _atom_site_type_symbol
 _atom_site_label
 _atom_site_symmetry_multiplicity
 _atom_site_fract_x
 _atom_site_fract_y
 _atom_site_fract_z
 _atom_site_occupancy
  Cs  Cs0  1  0.75754428  0.77638716  0.12177836  1
  Cs  Cs1  1  0.75239217  0.95281496  0.38684248  1
  Cs  Cs2  1  0.74464883  0.10918296  0.02564076  1
  Cs  Cs3  1  0.25535117  0.89081704  0.97435924  1
  Cs  Cs4  1  0.24464883  0.39081704  0.47435924  1
  Cs  Cs5  1  0.25754428  0.72361284  0.37822164  1
  Cs  Cs6  1  0.74245572  0.27638716  0.62177836  1
  Cs  Cs7  1  0.75535117  0.60918296  0.52564076  1
  Cs  Cs8  1  0.74760783  0.45281496  0.88684248  1
  Cs  Cs9  1  0.25239217  0.54718504  0.11315752  1
  Cs  Cs10  1  0.24760783  0.04718504  0.61315752  1
  Cs  Cs11  1  0.24245572  0.22361284  0.87822164  1
  Nd  Nd12  1  0.23119282  0.12276011  0.27033459  1
  Nd  Nd13  1  0.73119282  0.37723989  0.22966541  1
  Nd  Nd14  1  0.76880718  0.87723989  0.72966541  1
  Nd  Nd15  1  0.26880718  0.62276011  0.77033459  1
  P  P16  1  0.25439427  0.91698711  0.22308230  1
  P  P17  1  0.22589915  0.78298029  0.62981353  1
  P  P18  1  0.24560573  0.41698711  0.72308230  1
  P  P19  1  0.77410085  0.21701971  0.37018647  1
  P  P20  1  0.72589915  0.71701971  0.87018647  1
  P  P21  1  0.75439427  0.58301289  0.27691770  1
  P  P22  1  0.74560573  0.08301289  0.77691770  1
  P  P23  1  0.27410085  0.28298029  0.12981353  1
  S  S24  1  0.26046242  0.78962803  0.17451517  1
  S  S25  1  0.25066282  0.65165766  0.59354124  1
  S  S26  1  0.03276810  0.34278552  0.09669238  1
  S  S27  1  0.96723190  0.65721448  0.90330762  1
  S  S28  1  0.01432626  0.97584177  0.18321956  1
  S  S29  1  0.48577733  0.98206858  0.18550794  1
  S  S30  1  0.50449526  0.33085990  0.07278691  1
  S  S31  1  0.16367169  0.80301179  0.75907973  1
  S  S32  1  0.75002107  0.04978352  0.64561660  1
  S  S33  1  0.24997893  0.95021648  0.35438340  1
  S  S34  1  0.00449526  0.16914010  0.42721309  1
  S  S35  1  0.25002107  0.45021648  0.85438340  1
  S  S36  1  0.74933718  0.34834234  0.40645876  1
  S  S37  1  0.24933718  0.15165766  0.09354124  1
  S  S38  1  0.99550474  0.83085990  0.57278691  1
  S  S39  1  0.98577733  0.51793142  0.31449206  1
  S  S40  1  0.23953758  0.28962803  0.67451517  1
  S  S41  1  0.53276810  0.15721448  0.40330762  1
  S  S42  1  0.75066282  0.84834234  0.90645876  1
  S  S43  1  0.48567374  0.47584177  0.68321956  1
  S  S44  1  0.74997893  0.54978352  0.14561660  1
  S  S45  1  0.01422267  0.48206858  0.68550794  1
  S  S46  1  0.46723190  0.84278552  0.59669238  1
  S  S47  1  0.76046242  0.71037197  0.32548483  1
  S  S48  1  0.51432626  0.52415823  0.31678044  1
  S  S49  1  0.33632831  0.30301179  0.25907973  1
  S  S50  1  0.83632831  0.19698821  0.24092027  1
  S  S51  1  0.98567374  0.02415823  0.81678044  1
  S  S52  1  0.73953758  0.21037197  0.82548483  1
  S  S53  1  0.66367169  0.69698821  0.74092027  1
  S  S54  1  0.49550474  0.66914010  0.92721309  1
  S  S55  1  0.51422267  0.01793142  0.81449206  1
