# generated using pymatgen
data_LiV3O4
_symmetry_space_group_name_H-M   'P 1'
_cell_length_a   4.28727194
_cell_length_b   4.28727194
_cell_length_c   5.35324508
_cell_angle_alpha   66.39451642
_cell_angle_beta   66.39451642
_cell_angle_gamma   90.00000000
_symmetry_Int_Tables_number   1
_chemical_formula_structural   LiV3O4
_chemical_formula_sum   'Li1 V3 O4'
_cell_volume   81.09802310
_cell_formula_units_Z   1
loop_
 _symmetry_equiv_pos_site_id
 _symmetry_equiv_pos_as_xyz
  1  'x, y, z'
loop_
 _atom_site_type_symbol
 _atom_site_label
 _atom_site_symmetry_multiplicity
 _atom_site_fract_x
 _atom_site_fract_y
 _atom_site_fract_z
 _atom_site_occupancy
  Li  Li0  1  0.00000000  0.00000000  -0.00000000  1
  V  V1  1  0.25000000  0.75000000  0.50000000  1
  V  V2  1  0.50000000  0.50000000  -0.00000000  1
  V  V3  1  0.75000000  0.25000000  0.50000000  1
  O  O4  1  0.50000000  0.00000000  -0.00000000  1
  O  O5  1  0.73914157  0.73914157  0.52171686  1
  O  O6  1  0.00000000  0.50000000  -0.00000000  1
  O  O7  1  0.26085843  0.26085843  0.47828314  1
