# generated using pymatgen
data_KLa(PSe3)2
_symmetry_space_group_name_H-M   'P 1'
_cell_length_a   7.94587086
_cell_length_b   12.01401076
_cell_length_c   12.64140323
_cell_angle_alpha   109.39428465
_cell_angle_beta   90.00000000
_cell_angle_gamma   90.00000000
_symmetry_Int_Tables_number   1
_chemical_formula_structural   KLa(PSe3)2
_chemical_formula_sum   'K4 La4 P8 Se24'
_cell_volume   1138.29356752
_cell_formula_units_Z   4
loop_
 _symmetry_equiv_pos_site_id
 _symmetry_equiv_pos_as_xyz
  1  'x, y, z'
loop_
 _atom_site_type_symbol
 _atom_site_label
 _atom_site_symmetry_multiplicity
 _atom_site_fract_x
 _atom_site_fract_y
 _atom_site_fract_z
 _atom_site_occupancy
  K  K0  1  0.41202636  0.12621283  0.87162738  1
  K  K1  1  0.91202636  0.37378717  0.12837262  1
  K  K2  1  0.58797364  0.87378717  0.12837262  1
  K  K3  1  0.08797364  0.62621283  0.87162738  1
  La  La4  1  0.39670846  0.59643607  0.35109969  1
  La  La5  1  0.60329154  0.40356393  0.64890031  1
  La  La6  1  0.10329154  0.09643607  0.35109969  1
  La  La7  1  0.89670846  0.90356393  0.64890031  1
  P  P8  1  0.59682303  0.25324241  0.32469391  1
  P  P9  1  0.11629858  0.76762353  0.21103919  1
  P  P10  1  0.40317697  0.74675759  0.67530609  1
  P  P11  1  0.90317697  0.75324241  0.32469391  1
  P  P12  1  0.88370142  0.23237647  0.78896081  1
  P  P13  1  0.61629858  0.73237647  0.78896081  1
  P  P14  1  0.09682303  0.24675759  0.67530609  1
  P  P15  1  0.38370142  0.26762353  0.21103919  1
  Se  Se16  1  0.28822029  0.36073198  0.78433272  1
  Se  Se17  1  0.02714273  0.68234319  0.44761579  1
  Se  Se18  1  0.71247062  0.91358384  0.86988964  1
  Se  Se19  1  0.18925925  0.36606595  0.32946580  1
  Se  Se20  1  0.78822029  0.13926802  0.21566728  1
  Se  Se21  1  0.21247062  0.58641616  0.13011036  1
  Se  Se22  1  0.31041811  0.56508014  0.58834048  1
  Se  Se23  1  0.51939196  0.62772775  0.88803246  1
  Se  Se24  1  0.81041811  0.93491986  0.41165952  1
  Se  Se25  1  0.18958189  0.06508014  0.58834048  1
  Se  Se26  1  0.47285727  0.18234319  0.44761579  1
  Se  Se27  1  0.68958189  0.43491986  0.41165952  1
  Se  Se28  1  0.97285727  0.31765681  0.55238421  1
  Se  Se29  1  0.52714273  0.81765681  0.55238421  1
  Se  Se30  1  0.48060804  0.37227225  0.11196754  1
  Se  Se31  1  0.31074075  0.86606595  0.32946580  1
  Se  Se32  1  0.78752938  0.41358384  0.86988964  1
  Se  Se33  1  0.71177971  0.63926802  0.21566728  1
  Se  Se34  1  0.68925925  0.13393405  0.67053420  1
  Se  Se35  1  0.28752938  0.08641616  0.13011036  1
  Se  Se36  1  0.98060804  0.12772775  0.88803246  1
  Se  Se37  1  0.81074075  0.63393405  0.67053420  1
  Se  Se38  1  0.21177971  0.86073198  0.78433272  1
  Se  Se39  1  0.01939196  0.87227225  0.11196754  1
