# generated using pymatgen
data_ReS2
_symmetry_space_group_name_H-M   'P 1'
_cell_length_a   6.41909998
_cell_length_b   6.52305928
_cell_length_c   13.87388947
_cell_angle_alpha   77.55646681
_cell_angle_beta   89.46546571
_cell_angle_gamma   61.16336308
_symmetry_Int_Tables_number   1
_chemical_formula_structural   ReS2
_chemical_formula_sum   'Re8 S16'
_cell_volume   493.89114064
_cell_formula_units_Z   8
loop_
 _symmetry_equiv_pos_site_id
 _symmetry_equiv_pos_as_xyz
  1  'x, y, z'
loop_
 _atom_site_type_symbol
 _atom_site_label
 _atom_site_symmetry_multiplicity
 _atom_site_fract_x
 _atom_site_fract_y
 _atom_site_fract_z
 _atom_site_occupancy
  Re  Re0  1  0.18858000  0.06709120  0.24504534  1
  Re  Re1  1  0.31312453  0.43797079  0.25311963  1
  Re  Re2  1  0.76231035  0.03915775  0.24804690  1
  Re  Re3  1  0.68687547  0.56202921  0.74688037  1
  Re  Re4  1  0.81142000  0.93290880  0.75495466  1
  Re  Re5  1  0.26060665  0.53409867  0.74986175  1
  Re  Re6  1  0.73939335  0.46590133  0.25013825  1
  Re  Re7  1  0.23768965  0.96084225  0.75195310  1
  S  S8  1  0.91088730  0.70793449  0.16114999  1
  S  S9  1  0.59699576  0.78308377  0.86751551  1
  S  S10  1  0.37026670  0.74514735  0.14860331  1
  S  S11  1  0.13830041  0.73061927  0.88084541  1
  S  S12  1  0.36001861  0.76430773  0.62096840  1
  S  S13  1  0.13144647  0.75986643  0.34957140  1
  S  S14  1  0.62973330  0.25485265  0.85139669  1
  S  S15  1  0.86855353  0.24013357  0.65042860  1
  S  S16  1  0.09875317  0.28809219  0.36568804  1
  S  S17  1  0.59079896  0.79714651  0.33703371  1
  S  S18  1  0.08911270  0.29206551  0.83885001  1
  S  S19  1  0.40920104  0.20285349  0.66296629  1
  S  S20  1  0.86169959  0.26938073  0.11915459  1
  S  S21  1  0.63998139  0.23569227  0.37903160  1
  S  S22  1  0.40300424  0.21691623  0.13248449  1
  S  S23  1  0.90124683  0.71190781  0.63431196  1
