# generated using pymatgen
data_TlIn3S5
_symmetry_space_group_name_H-M   'P 1'
_cell_length_a   3.89306218
_cell_length_b   10.49629826
_cell_length_c   11.85912489
_cell_angle_alpha   71.05519241
_cell_angle_beta   80.55106035
_cell_angle_gamma   79.29699337
_symmetry_Int_Tables_number   1
_chemical_formula_structural   TlIn3S5
_chemical_formula_sum   'Tl2 In6 S10'
_cell_volume   447.55094498
_cell_formula_units_Z   2
loop_
 _symmetry_equiv_pos_site_id
 _symmetry_equiv_pos_as_xyz
  1  'x, y, z'
loop_
 _atom_site_type_symbol
 _atom_site_label
 _atom_site_symmetry_multiplicity
 _atom_site_fract_x
 _atom_site_fract_y
 _atom_site_fract_z
 _atom_site_occupancy
  Tl  Tl0  1  0.76098807  0.67339966  0.80446220  1
  Tl  Tl1  1  0.23901193  0.32660034  0.19553780  1
  In  In2  1  0.66278301  0.07575596  0.59833630  1
  In  In3  1  0.45248974  0.28882006  0.80550699  1
  In  In4  1  0.54751026  0.71117994  0.19449301  1
  In  In5  1  0.33721699  0.92424404  0.40166370  1
  In  In6  1  0.00000000  0.50000000  0.50000000  1
  In  In7  1  0.00000000  0.00000000  0.00000000  1
  S  S8  1  0.43627635  0.97161009  0.15580394  1
  S  S9  1  0.92888251  0.75598888  0.38638478  1
  S  S10  1  0.23953158  0.89186215  0.62914529  1
  S  S11  1  0.41152514  0.52095810  0.65572124  1
  S  S12  1  0.76046842  0.10813785  0.37085471  1
  S  S13  1  0.58847486  0.47904190  0.34427876  1
  S  S14  1  0.07111749  0.24401112  0.61361522  1
  S  S15  1  0.11485183  0.72037956  0.05033246  1
  S  S16  1  0.56372365  0.02838991  0.84419606  1
  S  S17  1  0.88514817  0.27962044  0.94966754  1
