# generated using pymatgen
data_CsUP3O11
_symmetry_space_group_name_H-M   'P 1'
_cell_length_a   7.12839784
_cell_length_b   11.13989942
_cell_length_c   13.53738312
_cell_angle_alpha   90.00000000
_cell_angle_beta   104.23525200
_cell_angle_gamma   90.00000000
_symmetry_Int_Tables_number   1
_chemical_formula_structural   CsUP3O11
_chemical_formula_sum   'Cs4 U4 P12 O44'
_cell_volume   1041.98999897
_cell_formula_units_Z   4
loop_
 _symmetry_equiv_pos_site_id
 _symmetry_equiv_pos_as_xyz
  1  'x, y, z'
loop_
 _atom_site_type_symbol
 _atom_site_label
 _atom_site_symmetry_multiplicity
 _atom_site_fract_x
 _atom_site_fract_y
 _atom_site_fract_z
 _atom_site_occupancy
  Cs  Cs0  1  0.77520729  0.49474512  0.11083958  1
  Cs  Cs1  1  0.72479271  0.99474512  0.38916042  1
  Cs  Cs2  1  0.22479271  0.50525488  0.88916042  1
  Cs  Cs3  1  0.27520729  0.00525488  0.61083958  1
  U  U4  1  0.17082448  0.73106339  0.32672288  1
  U  U5  1  0.32917552  0.23106339  0.17327712  1
  U  U6  1  0.67082448  0.76893661  0.82672288  1
  U  U7  1  0.82917552  0.26893661  0.67327712  1
  P  P8  1  0.39764279  0.79959785  0.11370507  1
  P  P9  1  0.60235721  0.20040215  0.88629493  1
  P  P10  1  0.21122794  0.12812712  0.89155428  1
  P  P11  1  0.89764279  0.70040215  0.61370507  1
  P  P12  1  0.78877206  0.87187288  0.10844572  1
  P  P13  1  0.71122794  0.37187288  0.39155428  1
  P  P14  1  0.28877206  0.62812712  0.60844572  1
  P  P15  1  0.80479836  0.13886637  0.09543472  1
  P  P16  1  0.10235721  0.29959785  0.38629493  1
  P  P17  1  0.19520164  0.86113363  0.90456528  1
  P  P18  1  0.30479836  0.36113363  0.59543472  1
  P  P19  1  0.69520164  0.63886637  0.40456528  1
  O  O20  1  0.43818708  0.68051485  0.07412177  1
  O  O21  1  0.51921819  0.71826661  0.38246233  1
  O  O22  1  0.41852818  0.71366475  0.67954649  1
  O  O23  1  0.23566170  0.38305580  0.47500280  1
  O  O24  1  0.76433830  0.61694420  0.52499720  1
  O  O25  1  0.80951306  0.68825026  0.70329102  1
  O  O26  1  0.73566170  0.11694420  0.97500280  1
  O  O27  1  0.90954220  0.38421366  0.35548847  1
  O  O28  1  0.62458212  0.50525560  0.36541008  1
  O  O29  1  0.26433830  0.88305580  0.02499720  1
  O  O30  1  0.33213863  0.37834590  0.11641042  1
  O  O31  1  0.93818708  0.81948515  0.57412177  1
  O  O32  1  0.48078181  0.28173339  0.61753767  1
  O  O33  1  0.40954220  0.11578634  0.85548847  1
  O  O34  1  0.58147182  0.28633525  0.32045351  1
  O  O35  1  0.01921819  0.78173339  0.88246233  1
  O  O36  1  0.91852818  0.78633525  0.17954649  1
  O  O37  1  0.06181292  0.18051485  0.42587823  1
  O  O38  1  0.25199596  0.15190348  0.00378964  1
  O  O39  1  0.30951306  0.81174974  0.20329102  1
  O  O40  1  0.59045780  0.88421366  0.14451153  1
  O  O41  1  0.56181292  0.31948515  0.92587823  1
  O  O42  1  0.66680435  0.91487441  0.76924244  1
  O  O43  1  0.66786137  0.62165410  0.88358958  1
  O  O44  1  0.83319565  0.41487441  0.73075756  1
  O  O45  1  0.13998561  0.32229279  0.63917506  1
  O  O46  1  0.36001439  0.82229279  0.86082494  1
  O  O47  1  0.12458212  0.99474440  0.86541008  1
  O  O48  1  0.74800404  0.84809652  0.99621036  1
  O  O49  1  0.63998561  0.17770721  0.13917506  1
  O  O50  1  0.69048694  0.18825026  0.79670898  1
  O  O51  1  0.33319565  0.08512559  0.23075756  1
  O  O52  1  0.86001439  0.67770721  0.36082494  1
  O  O53  1  0.16786137  0.87834590  0.38358958  1
  O  O54  1  0.83213863  0.12165410  0.61641042  1
  O  O55  1  0.16680435  0.58512559  0.26924244  1
  O  O56  1  0.87541788  0.00525560  0.13458992  1
  O  O57  1  0.08147182  0.21366475  0.82045351  1
  O  O58  1  0.24800404  0.65190348  0.49621036  1
  O  O59  1  0.98078181  0.21826661  0.11753767  1
  O  O60  1  0.75199596  0.34809652  0.50378964  1
  O  O61  1  0.09045780  0.61578634  0.64451153  1
  O  O62  1  0.37541788  0.49474440  0.63458992  1
  O  O63  1  0.19048694  0.31174974  0.29670898  1
