# generated using pymatgen
data_CsAuF4
_symmetry_space_group_name_H-M   'P 1'
_cell_length_a   5.67883991
_cell_length_b   6.90442072
_cell_length_c   7.76235508
_cell_angle_alpha   116.40893674
_cell_angle_beta   111.45724002
_cell_angle_gamma   89.98796396
_symmetry_Int_Tables_number   1
_chemical_formula_structural   CsAuF4
_chemical_formula_sum   'Cs2 Au2 F8'
_cell_volume   248.83303248
_cell_formula_units_Z   2
loop_
 _symmetry_equiv_pos_site_id
 _symmetry_equiv_pos_as_xyz
  1  'x, y, z'
loop_
 _atom_site_type_symbol
 _atom_site_label
 _atom_site_symmetry_multiplicity
 _atom_site_fract_x
 _atom_site_fract_y
 _atom_site_fract_z
 _atom_site_occupancy
  Cs  Cs0  1  0.22128594  0.22118561  0.44239190  1
  Cs  Cs1  1  0.77871406  0.77881439  0.55760810  1
  Au  Au2  1  0.00000000  0.50000000  0.00000000  1
  Au  Au3  1  0.50000000  0.00000000  0.00000000  1
  F  F4  1  0.00005656  0.21524148  0.00010262  1
  F  F5  1  0.84503318  0.34481293  0.68970728  1
  F  F6  1  0.38728885  0.69162784  0.77452079  1
  F  F7  1  0.61262490  0.91722348  0.22557508  1
  F  F8  1  0.99994344  0.78475852  0.99989738  1
  F  F9  1  0.38737510  0.08277652  0.77442492  1
  F  F10  1  0.15496682  0.65518707  0.31029272  1
  F  F11  1  0.61271115  0.30837216  0.22547921  1
