# generated using pymatgen
data_CsAlF4
_symmetry_space_group_name_H-M   'P 1'
_cell_length_a   6.85267420
_cell_length_b   10.78666642
_cell_length_c   17.86152912
_cell_angle_alpha   90.00000000
_cell_angle_beta   90.00000000
_cell_angle_gamma   90.00000000
_symmetry_Int_Tables_number   1
_chemical_formula_structural   CsAlF4
_chemical_formula_sum   'Cs12 Al12 F48'
_cell_volume   1320.27976949
_cell_formula_units_Z   12
loop_
 _symmetry_equiv_pos_site_id
 _symmetry_equiv_pos_as_xyz
  1  'x, y, z'
loop_
 _atom_site_type_symbol
 _atom_site_label
 _atom_site_symmetry_multiplicity
 _atom_site_fract_x
 _atom_site_fract_y
 _atom_site_fract_z
 _atom_site_occupancy
  Cs  Cs0  1  0.25000000  0.88105617  0.45695932  1
  Cs  Cs1  1  0.25000000  0.19122129  0.81637541  1
  Cs  Cs2  1  0.75000000  0.11894383  0.54304068  1
  Cs  Cs3  1  0.75000000  0.42968264  0.72768241  1
  Cs  Cs4  1  0.75000000  0.92968264  0.77231759  1
  Cs  Cs5  1  0.75000000  0.30877871  0.31637541  1
  Cs  Cs6  1  0.25000000  0.57031736  0.27231759  1
  Cs  Cs7  1  0.25000000  0.38105617  0.04304068  1
  Cs  Cs8  1  0.25000000  0.69122129  0.68362459  1
  Cs  Cs9  1  0.75000000  0.61894383  0.95695932  1
  Cs  Cs10  1  0.25000000  0.07031736  0.22768241  1
  Cs  Cs11  1  0.75000000  0.80877871  0.18362459  1
  Al  Al12  1  0.25000000  0.74056077  0.07539475  1
  Al  Al13  1  0.75000000  0.19954111  0.12598811  1
  Al  Al14  1  0.75000000  0.75943923  0.57539475  1
  Al  Al15  1  0.25000000  0.30045889  0.62598811  1
  Al  Al16  1  0.25000000  0.24056077  0.42460525  1
  Al  Al17  1  0.75000000  0.25943923  0.92460525  1
  Al  Al18  1  0.25000000  0.80045889  0.87401189  1
  Al  Al19  1  0.00000000  0.50000000  0.50000000  1
  Al  Al20  1  0.75000000  0.69954111  0.37401189  1
  Al  Al21  1  0.00000000  0.00000000  0.00000000  1
  Al  Al22  1  0.50000000  0.00000000  0.00000000  1
  Al  Al23  1  0.50000000  0.50000000  0.50000000  1
  F  F24  1  0.43884799  0.91288290  0.91678047  1
  F  F25  1  0.93884799  0.58711710  0.41678047  1
  F  F26  1  0.93876030  0.13162622  0.94182789  1
  F  F27  1  0.55392144  0.79217372  0.34175377  1
  F  F28  1  0.44253475  0.63206724  0.08516523  1
  F  F29  1  0.75000000  0.21174042  0.82849600  1
  F  F30  1  0.05392144  0.20782628  0.65824623  1
  F  F31  1  0.43876030  0.86837378  0.05817211  1
  F  F32  1  0.25000000  0.90043185  0.79346521  1
  F  F33  1  0.75000000  0.77697536  0.46939337  1
  F  F34  1  0.25000000  0.78825958  0.17150400  1
  F  F35  1  0.06115201  0.91288290  0.91678047  1
  F  F36  1  0.44607856  0.20782628  0.65824623  1
  F  F37  1  0.25000000  0.72302464  0.96939337  1
  F  F38  1  0.56123970  0.63162622  0.55817211  1
  F  F39  1  0.25000000  0.06009680  0.00670977  1
  F  F40  1  0.25000000  0.28825958  0.32849600  1
  F  F41  1  0.94253475  0.86793276  0.58516523  1
  F  F42  1  0.06123970  0.36837378  0.44182789  1
  F  F43  1  0.94253475  0.36793276  0.91483477  1
  F  F44  1  0.44253475  0.13206724  0.41483477  1
  F  F45  1  0.06115201  0.41288290  0.58321953  1
  F  F46  1  0.93876030  0.63162622  0.55817211  1
  F  F47  1  0.55392144  0.29217372  0.15824623  1
  F  F48  1  0.75000000  0.27697536  0.03060663  1
  F  F49  1  0.56115201  0.58711710  0.41678047  1
  F  F50  1  0.05746525  0.13206724  0.41483477  1
  F  F51  1  0.06123970  0.86837378  0.05817211  1
  F  F52  1  0.93884799  0.08711710  0.08321953  1
  F  F53  1  0.55746525  0.86793276  0.58516523  1
  F  F54  1  0.55746525  0.36793276  0.91483477  1
  F  F55  1  0.25000000  0.40043185  0.70653479  1
  F  F56  1  0.75000000  0.93990320  0.99329023  1
  F  F57  1  0.43884799  0.41288290  0.58321953  1
  F  F58  1  0.56115201  0.08711710  0.08321953  1
  F  F59  1  0.43876030  0.36837378  0.44182789  1
  F  F60  1  0.75000000  0.09956815  0.20653479  1
  F  F61  1  0.05392144  0.70782628  0.84175377  1
  F  F62  1  0.25000000  0.22302464  0.53060663  1
  F  F63  1  0.05746525  0.63206724  0.08516523  1
  F  F64  1  0.75000000  0.59956815  0.29346521  1
  F  F65  1  0.75000000  0.71174042  0.67150400  1
  F  F66  1  0.25000000  0.56009680  0.49329023  1
  F  F67  1  0.56123970  0.13162622  0.94182789  1
  F  F68  1  0.44607856  0.70782628  0.84175377  1
  F  F69  1  0.94607856  0.79217372  0.34175377  1
  F  F70  1  0.75000000  0.43990320  0.50670977  1
  F  F71  1  0.94607856  0.29217372  0.15824623  1
