# generated using pymatgen
data_Cs2Ge2S5
_symmetry_space_group_name_H-M   'P 1'
_cell_length_a   9.67154272
_cell_length_b   11.46048540
_cell_length_c   11.46048539
_cell_angle_alpha   90.40520988
_cell_angle_beta   100.75544041
_cell_angle_gamma   100.75544195
_symmetry_Int_Tables_number   1
_chemical_formula_structural   Cs2Ge2S5
_chemical_formula_sum   'Cs8 Ge8 S20'
_cell_volume   1224.89198972
_cell_formula_units_Z   4
loop_
 _symmetry_equiv_pos_site_id
 _symmetry_equiv_pos_as_xyz
  1  'x, y, z'
loop_
 _atom_site_type_symbol
 _atom_site_label
 _atom_site_symmetry_multiplicity
 _atom_site_fract_x
 _atom_site_fract_y
 _atom_site_fract_z
 _atom_site_occupancy
  Cs  Cs0  1  0.86057320  0.93905120  0.79284617  1
  Cs  Cs1  1  0.13942680  0.06094880  0.20715383  1
  Cs  Cs2  1  0.12984851  0.47968867  0.21145732  1
  Cs  Cs3  1  0.37015149  0.78854268  0.52031133  1
  Cs  Cs4  1  0.63942680  0.20715383  0.06094880  1
  Cs  Cs5  1  0.36057320  0.79284617  0.93905120  1
  Cs  Cs6  1  0.62984851  0.21145732  0.47968867  1
  Cs  Cs7  1  0.87015149  0.52031133  0.78854268  1
  Ge  Ge8  1  0.38023710  0.14170281  0.73072851  1
  Ge  Ge9  1  0.60553305  0.53053308  0.26538907  1
  Ge  Ge10  1  0.61976290  0.85829719  0.26927149  1
  Ge  Ge11  1  0.11976290  0.26927149  0.85829719  1
  Ge  Ge12  1  0.39446695  0.46946692  0.73461093  1
  Ge  Ge13  1  0.10553305  0.26538907  0.53053308  1
  Ge  Ge14  1  0.89446695  0.73461093  0.46946692  1
  Ge  Ge15  1  0.88023710  0.73072851  0.14170281  1
  S  S16  1  0.73958754  0.54836792  0.11958109  1
  S  S17  1  0.46421521  0.36133583  0.24217115  1
  S  S18  1  0.75000000  0.87805930  0.12194070  1
  S  S19  1  0.03578479  0.75782885  0.63866417  1
  S  S20  1  0.48246634  0.98666142  0.24667276  1
  S  S21  1  0.97266822  0.24316354  0.67669871  1
  S  S22  1  0.75000000  0.55239304  0.44760696  1
  S  S23  1  0.25000000  0.44760696  0.55239304  1
  S  S24  1  0.23958754  0.11958109  0.54836792  1
  S  S25  1  0.52733178  0.32330129  0.75683646  1
  S  S26  1  0.51753366  0.01333858  0.75332724  1
  S  S27  1  0.76041246  0.88041891  0.45163208  1
  S  S28  1  0.98246634  0.24667276  0.98666142  1
  S  S29  1  0.25000000  0.12194070  0.87805930  1
  S  S30  1  0.96421521  0.24217115  0.36133583  1
  S  S31  1  0.01753366  0.75332724  0.01333858  1
  S  S32  1  0.26041246  0.45163208  0.88041891  1
  S  S33  1  0.53578479  0.63866417  0.75782885  1
  S  S34  1  0.02733178  0.75683646  0.32330129  1
  S  S35  1  0.47266822  0.67669871  0.24316354  1
