# generated using pymatgen
data_SbSeCl7O
_symmetry_space_group_name_H-M   'P 1'
_cell_length_a   12.86604083
_cell_length_b   13.69049818
_cell_length_c   15.21154280
_cell_angle_alpha   90.00000000
_cell_angle_beta   90.00000000
_cell_angle_gamma   105.98528948
_symmetry_Int_Tables_number   1
_chemical_formula_structural   SbSeCl7O
_chemical_formula_sum   'Sb8 Se8 Cl56 O8'
_cell_volume   2575.79345700
_cell_formula_units_Z   8
loop_
 _symmetry_equiv_pos_site_id
 _symmetry_equiv_pos_as_xyz
  1  'x, y, z'
loop_
 _atom_site_type_symbol
 _atom_site_label
 _atom_site_symmetry_multiplicity
 _atom_site_fract_x
 _atom_site_fract_y
 _atom_site_fract_z
 _atom_site_occupancy
  Sb  Sb0  1  0.74395267  0.23741352  0.35717462  1
  Sb  Sb1  1  0.75314597  0.74320967  0.39262941  1
  Sb  Sb2  1  0.25604733  0.76258648  0.64282538  1
  Sb  Sb3  1  0.24685403  0.25679033  0.60737059  1
  Sb  Sb4  1  0.24395267  0.23741352  0.14282538  1
  Sb  Sb5  1  0.75604733  0.76258648  0.85717462  1
  Sb  Sb6  1  0.74685403  0.25679033  0.89262941  1
  Sb  Sb7  1  0.25314597  0.74320967  0.10737059  1
  Se  Se8  1  0.76208085  0.94880077  0.00203753  1
  Se  Se9  1  0.73116835  0.55190751  0.25098344  1
  Se  Se10  1  0.76883165  0.44809249  0.75098344  1
  Se  Se11  1  0.23791915  0.05119923  0.99796247  1
  Se  Se12  1  0.23116835  0.55190751  0.24901656  1
  Se  Se13  1  0.73791915  0.05119923  0.50203753  1
  Se  Se14  1  0.26208085  0.94880077  0.49796247  1
  Se  Se15  1  0.26883165  0.44809249  0.74901656  1
  Cl  Cl16  1  0.11363433  0.35351130  0.60882012  1
  Cl  Cl17  1  0.86792450  0.86560595  0.29953472  1
  Cl  Cl18  1  0.88833081  0.15415881  0.36093520  1
  Cl  Cl19  1  0.15155012  0.63382090  0.54877319  1
  Cl  Cl20  1  0.86130311  0.11593019  0.59996789  1
  Cl  Cl21  1  0.34844988  0.36617910  0.04877319  1
  Cl  Cl22  1  0.09442433  0.48144959  0.33393594  1
  Cl  Cl23  1  0.64503220  0.39576059  0.65083500  1
  Cl  Cl24  1  0.36508942  0.39370140  0.52869260  1
  Cl  Cl25  1  0.19026812  0.66815766  0.77233280  1
  Cl  Cl26  1  0.36792450  0.86560595  0.20046528  1
  Cl  Cl27  1  0.63491058  0.60629860  0.47130740  1
  Cl  Cl28  1  0.40557567  0.51855041  0.83393594  1
  Cl  Cl29  1  0.63819462  0.09556710  0.27594935  1
  Cl  Cl30  1  0.88636567  0.64648870  0.39117988  1
  Cl  Cl31  1  0.39280562  0.02352815  0.40922611  1
  Cl  Cl32  1  0.85496780  0.60423941  0.15083500  1
  Cl  Cl33  1  0.89280562  0.02352815  0.09077389  1
  Cl  Cl34  1  0.36180538  0.90443290  0.72405065  1
  Cl  Cl35  1  0.38893092  0.17886102  0.62734636  1
  Cl  Cl36  1  0.13869689  0.88406981  0.40003211  1
  Cl  Cl37  1  0.84844988  0.36617910  0.45122681  1
  Cl  Cl38  1  0.88893092  0.17886102  0.87265364  1
  Cl  Cl39  1  0.61363433  0.35351130  0.89117988  1
  Cl  Cl40  1  0.38833081  0.15415881  0.13906480  1
  Cl  Cl41  1  0.11106908  0.82113898  0.12734636  1
  Cl  Cl42  1  0.35496780  0.60423941  0.34916500  1
  Cl  Cl43  1  0.63207550  0.13439405  0.79953472  1
  Cl  Cl44  1  0.59442433  0.48144959  0.16606406  1
  Cl  Cl45  1  0.80973188  0.33184234  0.22766720  1
  Cl  Cl46  1  0.65155012  0.63382090  0.95122681  1
  Cl  Cl47  1  0.61106908  0.82113898  0.37265364  1
  Cl  Cl48  1  0.60719438  0.97647185  0.59077389  1
  Cl  Cl49  1  0.13819462  0.09556710  0.22405065  1
  Cl  Cl50  1  0.69026812  0.66815766  0.72766720  1
  Cl  Cl51  1  0.59157093  0.30100733  0.37518572  1
  Cl  Cl52  1  0.36130311  0.11593019  0.90003211  1
  Cl  Cl53  1  0.13207550  0.13439405  0.70046528  1
  Cl  Cl54  1  0.10719438  0.97647185  0.90922611  1
  Cl  Cl55  1  0.11166919  0.84584119  0.63906480  1
  Cl  Cl56  1  0.61166919  0.84584119  0.86093520  1
  Cl  Cl57  1  0.86508942  0.39370140  0.97130740  1
  Cl  Cl58  1  0.82308387  0.83346929  0.52290190  1
  Cl  Cl59  1  0.13491058  0.60629860  0.02869260  1
  Cl  Cl60  1  0.90557567  0.51855041  0.66606406  1
  Cl  Cl61  1  0.30973188  0.33184234  0.27233280  1
  Cl  Cl62  1  0.86180538  0.90443290  0.77594935  1
  Cl  Cl63  1  0.09157093  0.30100733  0.12481428  1
  Cl  Cl64  1  0.17691613  0.16653071  0.47709810  1
  Cl  Cl65  1  0.32308387  0.83346929  0.97709810  1
  Cl  Cl66  1  0.40842907  0.69899267  0.62481428  1
  Cl  Cl67  1  0.67691613  0.16653071  0.02290190  1
  Cl  Cl68  1  0.38636567  0.64648870  0.10882012  1
  Cl  Cl69  1  0.90842907  0.69899267  0.87518572  1
  Cl  Cl70  1  0.14503220  0.39576059  0.84916500  1
  Cl  Cl71  1  0.63869689  0.88406981  0.09996789  1
  O  O72  1  0.69215682  0.65926231  0.27432930  1
  O  O73  1  0.19215682  0.65926231  0.22567070  1
  O  O74  1  0.31301373  0.84922235  0.52500216  1
  O  O75  1  0.80784318  0.34073769  0.77432930  1
  O  O76  1  0.68698627  0.15077765  0.47499784  1
  O  O77  1  0.30784318  0.34073769  0.72567070  1
  O  O78  1  0.18698627  0.15077765  0.02500216  1
  O  O79  1  0.81301373  0.84922235  0.97499784  1
