# generated using pymatgen
data_Al2AgCl5O
_symmetry_space_group_name_H-M   'P 1'
_cell_length_a   11.54482675
_cell_length_b   12.58842799
_cell_length_c   13.31928361
_cell_angle_alpha   90.00000000
_cell_angle_beta   90.00000000
_cell_angle_gamma   90.00000000
_symmetry_Int_Tables_number   1
_chemical_formula_structural   Al2AgCl5O
_chemical_formula_sum   'Al16 Ag8 Cl40 O8'
_cell_volume   1935.70773922
_cell_formula_units_Z   8
loop_
 _symmetry_equiv_pos_site_id
 _symmetry_equiv_pos_as_xyz
  1  'x, y, z'
loop_
 _atom_site_type_symbol
 _atom_site_label
 _atom_site_symmetry_multiplicity
 _atom_site_fract_x
 _atom_site_fract_y
 _atom_site_fract_z
 _atom_site_occupancy
  Al  Al0  1  0.79427002  0.54097328  0.86453382  1
  Al  Al1  1  0.51467758  0.89519801  0.99754856  1
  Al  Al2  1  0.01467758  0.60480199  0.00245144  1
  Al  Al3  1  0.70572998  0.04097328  0.86453382  1
  Al  Al4  1  0.98532242  0.39519801  0.99754856  1
  Al  Al5  1  0.20572998  0.45902672  0.13546618  1
  Al  Al6  1  0.51467758  0.60480199  0.49754856  1
  Al  Al7  1  0.98532242  0.10480199  0.49754856  1
  Al  Al8  1  0.48532242  0.39519801  0.50245144  1
  Al  Al9  1  0.29427002  0.54097328  0.63546618  1
  Al  Al10  1  0.20572998  0.04097328  0.63546618  1
  Al  Al11  1  0.70572998  0.45902672  0.36453382  1
  Al  Al12  1  0.01467758  0.89519801  0.50245144  1
  Al  Al13  1  0.29427002  0.95902672  0.13546618  1
  Al  Al14  1  0.48532242  0.10480199  0.00245144  1
  Al  Al15  1  0.79427002  0.95902672  0.36453382  1
  Ag  Ag16  1  0.01793241  0.34876011  0.69170017  1
  Ag  Ag17  1  0.98206759  0.65123989  0.30829983  1
  Ag  Ag18  1  0.51793241  0.34876011  0.80829983  1
  Ag  Ag19  1  0.51793241  0.15123989  0.30829983  1
  Ag  Ag20  1  0.48206759  0.65123989  0.19170017  1
  Ag  Ag21  1  0.98206759  0.84876011  0.80829983  1
  Ag  Ag22  1  0.01793241  0.15123989  0.19170017  1
  Ag  Ag23  1  0.48206759  0.84876011  0.69170017  1
  Cl  Cl24  1  0.21235265  0.28848468  0.14318052  1
  Cl  Cl25  1  0.63250776  0.01666146  0.42574858  1
  Cl  Cl26  1  0.61385006  0.68996180  0.60651032  1
  Cl  Cl27  1  0.28764735  0.71151532  0.64318052  1
  Cl  Cl28  1  0.11385006  0.68996180  0.89348968  1
  Cl  Cl29  1  0.13250776  0.01666146  0.07425142  1
  Cl  Cl30  1  0.88614994  0.18996180  0.60651032  1
  Cl  Cl31  1  0.71235265  0.28848468  0.35681948  1
  Cl  Cl32  1  0.71235265  0.21151532  0.85681948  1
  Cl  Cl33  1  0.78764735  0.78848468  0.35681948  1
  Cl  Cl34  1  0.67539866  0.97047188  0.71936501  1
  Cl  Cl35  1  0.28764735  0.78848468  0.14318052  1
  Cl  Cl36  1  0.11385006  0.81003820  0.39348968  1
  Cl  Cl37  1  0.44581211  0.79319102  0.88392272  1
  Cl  Cl38  1  0.88614994  0.31003820  0.10651032  1
  Cl  Cl39  1  0.36749224  0.98333854  0.57425142  1
  Cl  Cl40  1  0.36749224  0.51666146  0.07425142  1
  Cl  Cl41  1  0.82460134  0.47047188  0.71936501  1
  Cl  Cl42  1  0.78764735  0.71151532  0.85681948  1
  Cl  Cl43  1  0.05418789  0.29319102  0.88392272  1
  Cl  Cl44  1  0.55418789  0.20680898  0.11607728  1
  Cl  Cl45  1  0.94581211  0.79319102  0.61607728  1
  Cl  Cl46  1  0.21235265  0.21151532  0.64318052  1
  Cl  Cl47  1  0.61385006  0.81003820  0.10651032  1
  Cl  Cl48  1  0.44581211  0.70680898  0.38392272  1
  Cl  Cl49  1  0.94581211  0.70680898  0.11607728  1
  Cl  Cl50  1  0.13250776  0.48333854  0.57425142  1
  Cl  Cl51  1  0.32460134  0.47047188  0.78063499  1
  Cl  Cl52  1  0.17539866  0.52952812  0.28063499  1
  Cl  Cl53  1  0.38614994  0.31003820  0.39348968  1
  Cl  Cl54  1  0.55418789  0.29319102  0.61607728  1
  Cl  Cl55  1  0.38614994  0.18996180  0.89348968  1
  Cl  Cl56  1  0.86749224  0.98333854  0.92574858  1
  Cl  Cl57  1  0.32460134  0.02952812  0.28063499  1
  Cl  Cl58  1  0.05418789  0.20680898  0.38392272  1
  Cl  Cl59  1  0.17539866  0.97047188  0.78063499  1
  Cl  Cl60  1  0.63250776  0.48333854  0.92574858  1
  Cl  Cl61  1  0.82460134  0.02952812  0.21936501  1
  Cl  Cl62  1  0.86749224  0.51666146  0.42574858  1
  Cl  Cl63  1  0.67539866  0.52952812  0.21936501  1
  O  O64  1  0.41200025  0.98864275  0.05266753  1
  O  O65  1  0.91200025  0.98864275  0.44733247  1
  O  O66  1  0.91200025  0.51135725  0.94733247  1
  O  O67  1  0.08799975  0.48864275  0.05266753  1
  O  O68  1  0.58799975  0.01135725  0.94733247  1
  O  O69  1  0.41200025  0.51135725  0.55266753  1
  O  O70  1  0.08799975  0.01135725  0.55266753  1
  O  O71  1  0.58799975  0.48864275  0.44733247  1
