# generated using pymatgen
data_SbPS4
_symmetry_space_group_name_H-M   'P 1'
_cell_length_a   6.38748051
_cell_length_b   13.83159399
_cell_length_c   23.78762512
_cell_angle_alpha   89.85191814
_cell_angle_beta   90.03905196
_cell_angle_gamma   91.60017099
_symmetry_Int_Tables_number   1
_chemical_formula_structural   SbPS4
_chemical_formula_sum   'Sb12 P12 S48'
_cell_volume   2100.78680137
_cell_formula_units_Z   12
loop_
 _symmetry_equiv_pos_site_id
 _symmetry_equiv_pos_as_xyz
  1  'x, y, z'
loop_
 _atom_site_type_symbol
 _atom_site_label
 _atom_site_symmetry_multiplicity
 _atom_site_fract_x
 _atom_site_fract_y
 _atom_site_fract_z
 _atom_site_occupancy
  Sb  Sb0  1  0.11991092  0.49674953  0.31751527  1
  Sb  Sb1  1  0.86038705  0.22308347  0.91014674  1
  Sb  Sb2  1  0.34893256  0.99709210  0.81707390  1
  Sb  Sb3  1  0.63700004  0.72340341  0.41043675  1
  Sb  Sb4  1  0.84816828  0.02296584  0.65652469  1
  Sb  Sb5  1  0.65106744  0.00290790  0.18292610  1
  Sb  Sb6  1  0.13961295  0.77691653  0.08985326  1
  Sb  Sb7  1  0.88008908  0.50325047  0.68248473  1
  Sb  Sb8  1  0.36299996  0.27659659  0.58956325  1
  Sb  Sb9  1  0.62368589  0.52339520  0.15691722  1
  Sb  Sb10  1  0.15183172  0.97703416  0.34347531  1
  Sb  Sb11  1  0.37631411  0.47660480  0.84308278  1
  P  P12  1  0.62125097  0.70539724  0.05793056  1
  P  P13  1  0.10449107  0.43945552  0.17695076  1
  P  P14  1  0.37874903  0.29460276  0.94206944  1
  P  P15  1  0.39410938  0.51499684  0.63078077  1
  P  P16  1  0.86163678  0.98488263  0.86883364  1
  P  P17  1  0.64233045  0.06051718  0.32349723  1
  P  P18  1  0.87205738  0.20501789  0.55753595  1
  P  P19  1  0.13836322  0.01511737  0.13116636  1
  P  P20  1  0.35766955  0.93948282  0.67650277  1
  P  P21  1  0.12794262  0.79498211  0.44246405  1
  P  P22  1  0.89550893  0.56054448  0.82304924  1
  P  P23  1  0.60589062  0.48500316  0.36921923  1
  S  S24  1  0.62356200  0.86817608  0.65156827  1
  S  S25  1  0.33117207  0.41314586  0.39361931  1
  S  S26  1  0.43907011  0.07782171  0.69825746  1
  S  S27  1  0.44937511  0.25875565  0.86148077  1
  S  S28  1  0.75050753  0.56852245  0.05947813  1
  S  S29  1  0.65266846  0.87914652  0.84291291  1
  S  S30  1  0.32647125  0.70389537  0.48286200  1
  S  S31  1  0.04044804  0.57778253  0.19877626  1
  S  S32  1  0.69254022  0.57494149  0.88894919  1
  S  S33  1  0.66882793  0.58685414  0.60638069  1
  S  S34  1  0.24949247  0.43147755  0.94052187  1
  S  S35  1  0.27332265  0.93193134  0.44093808  1
  S  S36  1  0.75165315  0.55587136  0.43664580  1
  S  S37  1  0.80171610  0.37904968  0.34346261  1
  S  S38  1  0.35122948  0.70729370  0.00940218  1
  S  S39  1  0.23721424  0.37325482  0.24684557  1
  S  S40  1  0.87210542  0.08719966  0.10709940  1
  S  S41  1  0.95955196  0.42221747  0.80122374  1
  S  S42  1  0.85746662  0.79291517  0.49084037  1
  S  S43  1  0.17046161  0.63140744  0.84820707  1
  S  S44  1  0.76278576  0.62674518  0.75315443  1
  S  S45  1  0.15271872  0.92482828  0.61060443  1
  S  S46  1  0.30745978  0.42505851  0.11105081  1
  S  S47  1  0.83032225  0.79674772  0.01764324  1
  S  S48  1  0.53786151  0.58688426  0.31053343  1
  S  S49  1  0.27462940  0.94440176  0.06361706  1
  S  S50  1  0.67352875  0.29610463  0.51713800  1
  S  S51  1  0.55062489  0.74124435  0.13851923  1
  S  S52  1  0.72537060  0.05559824  0.93638294  1
  S  S53  1  0.34733154  0.12085348  0.15708709  1
  S  S54  1  0.82953839  0.36859256  0.15179293  1
  S  S55  1  0.16967775  0.20325228  0.98235676  1
  S  S56  1  0.14253338  0.20708483  0.50915963  1
  S  S57  1  0.24834685  0.44412864  0.56335420  1
  S  S58  1  0.12789458  0.91280034  0.89290060  1
  S  S59  1  0.37643800  0.13182392  0.34843173  1
  S  S60  1  0.46213849  0.41311574  0.68946657  1
  S  S61  1  0.56092989  0.92217829  0.30174254  1
  S  S62  1  0.05310306  0.75889432  0.36189398  1
  S  S63  1  0.21626246  0.87383272  0.74639010  1
  S  S64  1  0.72667735  0.06806866  0.55906192  1
  S  S65  1  0.05850863  0.91296265  0.18972181  1
  S  S66  1  0.19828390  0.62095032  0.65653739  1
  S  S67  1  0.94149137  0.08703735  0.81027819  1
  S  S68  1  0.64877052  0.29270630  0.99059782  1
  S  S69  1  0.78373754  0.12616728  0.25360990  1
  S  S70  1  0.84728128  0.07517172  0.38939557  1
  S  S71  1  0.94689694  0.24110568  0.63810602  1
