# generated using pymatgen
data_ReP(Cl2O)3
_symmetry_space_group_name_H-M   'P 1'
_cell_length_a   6.57914577
_cell_length_b   12.92678173
_cell_length_c   14.20479785
_cell_angle_alpha   90.00000000
_cell_angle_beta   99.82832712
_cell_angle_gamma   90.00000000
_symmetry_Int_Tables_number   1
_chemical_formula_structural   ReP(Cl2O)3
_chemical_formula_sum   'Re4 P4 Cl24 O12'
_cell_volume   1190.34781429
_cell_formula_units_Z   4
loop_
 _symmetry_equiv_pos_site_id
 _symmetry_equiv_pos_as_xyz
  1  'x, y, z'
loop_
 _atom_site_type_symbol
 _atom_site_label
 _atom_site_symmetry_multiplicity
 _atom_site_fract_x
 _atom_site_fract_y
 _atom_site_fract_z
 _atom_site_occupancy
  Re  Re0  1  0.61578829  0.29246241  0.00233764  1
  Re  Re1  1  0.38421171  0.70753759  0.99766236  1
  Re  Re2  1  0.61578829  0.20753759  0.50233764  1
  Re  Re3  1  0.38421171  0.79246241  0.49766236  1
  P  P4  1  0.90655160  0.09903023  0.17316399  1
  P  P5  1  0.09344840  0.90096977  0.82683601  1
  P  P6  1  0.90655160  0.40096977  0.67316399  1
  P  P7  1  0.09344840  0.59903023  0.32683601  1
  Cl  Cl8  1  0.90863365  0.01756068  0.84762281  1
  Cl  Cl9  1  0.35729844  0.33119510  0.49055401  1
  Cl  Cl10  1  0.92375587  0.69141338  0.23244575  1
  Cl  Cl11  1  0.30314328  0.96330265  0.75770404  1
  Cl  Cl12  1  0.07624413  0.30858662  0.76755425  1
  Cl  Cl13  1  0.07624413  0.19141338  0.26755425  1
  Cl  Cl14  1  0.45476415  0.81439743  0.33956694  1
  Cl  Cl15  1  0.69685672  0.03669735  0.24229596  1
  Cl  Cl16  1  0.09136635  0.51756068  0.65237719  1
  Cl  Cl17  1  0.92375587  0.80858662  0.73244575  1
  Cl  Cl18  1  0.09136635  0.98243932  0.15237719  1
  Cl  Cl19  1  0.64270156  0.83119510  0.00944599  1
  Cl  Cl20  1  0.08477380  0.61861340  0.94220233  1
  Cl  Cl21  1  0.35729844  0.16880490  0.99055401  1
  Cl  Cl22  1  0.30314328  0.53669735  0.25770404  1
  Cl  Cl23  1  0.54523585  0.31439743  0.16043306  1
  Cl  Cl24  1  0.91522620  0.38138660  0.05779767  1
  Cl  Cl25  1  0.69685672  0.46330265  0.74229596  1
  Cl  Cl26  1  0.45476415  0.68560257  0.83956694  1
  Cl  Cl27  1  0.54523585  0.18560257  0.66043306  1
  Cl  Cl28  1  0.90863365  0.48243932  0.34762281  1
  Cl  Cl29  1  0.91522620  0.11861340  0.55779767  1
  Cl  Cl30  1  0.08477380  0.88138660  0.44220233  1
  Cl  Cl31  1  0.64270156  0.66880490  0.50944599  1
  O  O32  1  0.71496570  0.26286885  0.40923458  1
  O  O33  1  0.28503430  0.73713115  0.59076542  1
  O  O34  1  0.18237260  0.84978578  0.91808281  1
  O  O35  1  0.18237260  0.65021422  0.41808281  1
  O  O36  1  0.81762740  0.15021422  0.08191719  1
  O  O37  1  0.52918541  0.89285306  0.55071565  1
  O  O38  1  0.47081459  0.39285306  0.94928435  1
  O  O39  1  0.52918541  0.60714694  0.05071565  1
  O  O40  1  0.81762740  0.34978578  0.58191719  1
  O  O41  1  0.71496570  0.23713115  0.90923458  1
  O  O42  1  0.47081459  0.10714694  0.44928435  1
  O  O43  1  0.28503430  0.76286885  0.09076542  1
