# generated using pymatgen
data_Co3P4PbO14
_symmetry_space_group_name_H-M   'P 1'
_cell_length_a   7.58671461
_cell_length_b   7.86420308
_cell_length_c   9.60662968
_cell_angle_alpha   90.00000000
_cell_angle_beta   111.93939402
_cell_angle_gamma   90.00000000
_symmetry_Int_Tables_number   1
_chemical_formula_structural   Co3P4PbO14
_chemical_formula_sum   'Co6 P8 Pb2 O28'
_cell_volume   531.65597518
_cell_formula_units_Z   2
loop_
 _symmetry_equiv_pos_site_id
 _symmetry_equiv_pos_as_xyz
  1  'x, y, z'
loop_
 _atom_site_type_symbol
 _atom_site_label
 _atom_site_symmetry_multiplicity
 _atom_site_fract_x
 _atom_site_fract_y
 _atom_site_fract_z
 _atom_site_occupancy
  Co  Co0  1  0.31404372  0.37477413  0.47257364  1
  Co  Co1  1  0.31404372  0.12522587  0.97257364  1
  Co  Co2  1  0.68595628  0.62522587  0.52742636  1
  Co  Co3  1  0.68595628  0.87477413  0.02742636  1
  Co  Co4  1  0.50000000  0.50000000  0.00000000  1
  Co  Co5  1  0.50000000  0.00000000  0.50000000  1
  P  P6  1  0.89456001  0.94459414  0.79896053  1
  P  P7  1  0.39019210  0.70307637  0.69379585  1
  P  P8  1  0.60980790  0.20307637  0.80620415  1
  P  P9  1  0.89456001  0.55540586  0.29896053  1
  P  P10  1  0.60980790  0.29692363  0.30620415  1
  P  P11  1  0.10543999  0.05540586  0.20103947  1
  P  P12  1  0.10543999  0.44459414  0.70103947  1
  P  P13  1  0.39019210  0.79692363  0.19379585  1
  Pb  Pb14  1  0.00000000  0.00000000  0.50000000  1
  Pb  Pb15  1  0.00000000  0.50000000  0.00000000  1
  O  O16  1  0.18503309  0.62913145  0.67791131  1
  O  O17  1  0.77052059  0.88564931  0.63648523  1
  O  O18  1  0.47466012  0.92233790  0.11260010  1
  O  O19  1  0.22947941  0.38564931  0.86351477  1
  O  O20  1  0.47466012  0.57766210  0.61260010  1
  O  O21  1  0.22947941  0.11435069  0.36351477  1
  O  O22  1  0.12622383  0.32431770  0.58338587  1
  O  O23  1  0.34723185  0.62542738  0.11309578  1
  O  O24  1  0.49991210  0.71006000  0.86433960  1
  O  O25  1  0.49991210  0.78994000  0.36433960  1
  O  O26  1  0.81496691  0.12913145  0.82208869  1
  O  O27  1  0.52533988  0.07766210  0.88739990  1
  O  O28  1  0.52533988  0.42233790  0.38739990  1
  O  O29  1  0.12622383  0.17568230  0.08338587  1
  O  O30  1  0.81496691  0.37086855  0.32208869  1
  O  O31  1  0.87377617  0.67568230  0.41661413  1
  O  O32  1  0.87377617  0.82431770  0.91661413  1
  O  O33  1  0.50008790  0.21006000  0.63566040  1
  O  O34  1  0.90298593  0.48205022  0.69063030  1
  O  O35  1  0.34723185  0.87457262  0.61309578  1
  O  O36  1  0.77052059  0.61435069  0.13648523  1
  O  O37  1  0.09701407  0.98205022  0.80936970  1
  O  O38  1  0.65276815  0.37457262  0.88690422  1
  O  O39  1  0.65276815  0.12542738  0.38690422  1
  O  O40  1  0.18503309  0.87086855  0.17791131  1
  O  O41  1  0.90298593  0.01794978  0.19063030  1
  O  O42  1  0.09701407  0.51794978  0.30936970  1
  O  O43  1  0.50008790  0.28994000  0.13566040  1
