# generated using pymatgen
data_Rb5Th(PS4)3
_symmetry_space_group_name_H-M   'P 1'
_cell_length_a   10.18507846
_cell_length_b   13.57520863
_cell_length_c   18.65016751
_cell_angle_alpha   101.60549719
_cell_angle_beta   90.00000000
_cell_angle_gamma   90.00000000
_symmetry_Int_Tables_number   1
_chemical_formula_structural   Rb5Th(PS4)3
_chemical_formula_sum   'Rb20 Th4 P12 S48'
_cell_volume   2525.93910591
_cell_formula_units_Z   4
loop_
 _symmetry_equiv_pos_site_id
 _symmetry_equiv_pos_as_xyz
  1  'x, y, z'
loop_
 _atom_site_type_symbol
 _atom_site_label
 _atom_site_symmetry_multiplicity
 _atom_site_fract_x
 _atom_site_fract_y
 _atom_site_fract_z
 _atom_site_occupancy
  Rb  Rb0  1  0.66396479  0.80389223  0.71694297  1
  Rb  Rb1  1  0.18180433  0.51926610  0.12928581  1
  Rb  Rb2  1  0.81819567  0.48073390  0.87071419  1
  Rb  Rb3  1  0.38422632  0.84623406  0.19255728  1
  Rb  Rb4  1  0.16396479  0.19610777  0.78305703  1
  Rb  Rb5  1  0.11577368  0.84623406  0.69255728  1
  Rb  Rb6  1  0.14475976  0.85223889  0.45070544  1
  Rb  Rb7  1  0.61577368  0.15376594  0.80744272  1
  Rb  Rb8  1  0.11880119  0.51480417  0.37449791  1
  Rb  Rb9  1  0.88422632  0.15376594  0.30744272  1
  Rb  Rb10  1  0.61880119  0.48519583  0.12550209  1
  Rb  Rb11  1  0.64475976  0.14776111  0.04929456  1
  Rb  Rb12  1  0.88119881  0.48519583  0.62550209  1
  Rb  Rb13  1  0.35524024  0.85223889  0.95070544  1
  Rb  Rb14  1  0.85524024  0.14776111  0.54929456  1
  Rb  Rb15  1  0.33603521  0.19610777  0.28305703  1
  Rb  Rb16  1  0.83603521  0.80389223  0.21694297  1
  Rb  Rb17  1  0.68180433  0.48073390  0.37071419  1
  Rb  Rb18  1  0.31819567  0.51926610  0.62928581  1
  Rb  Rb19  1  0.38119881  0.51480417  0.87449791  1
  Th  Th20  1  0.60041133  0.81738580  0.46383437  1
  Th  Th21  1  0.89958867  0.81738580  0.96383437  1
  Th  Th22  1  0.10041133  0.18261420  0.03616563  1
  Th  Th23  1  0.39958867  0.18261420  0.53616563  1
  P  P24  1  0.08882097  0.96997762  0.13132427  1
  P  P25  1  0.09988653  0.64654955  0.82057531  1
  P  P26  1  0.40011347  0.64654955  0.32057531  1
  P  P27  1  0.63594021  0.71657274  0.01836079  1
  P  P28  1  0.59988653  0.35345045  0.67942469  1
  P  P29  1  0.13594021  0.28342726  0.48163921  1
  P  P30  1  0.91117903  0.03002238  0.86867573  1
  P  P31  1  0.36405979  0.28342726  0.98163921  1
  P  P32  1  0.86405979  0.71657274  0.51836079  1
  P  P33  1  0.90011347  0.35345045  0.17942469  1
  P  P34  1  0.41117903  0.96997762  0.63132427  1
  P  P35  1  0.58882097  0.03002238  0.36867573  1
  S  S36  1  0.30526013  0.35331565  0.45799898  1
  S  S37  1  0.03595625  0.66173342  0.54692169  1
  S  S38  1  0.08868265  0.97708187  0.23968619  1
  S  S39  1  0.69473987  0.64668435  0.54200102  1
  S  S40  1  0.90055202  0.33887605  0.06619647  1
  S  S41  1  0.96404375  0.33826658  0.45307831  1
  S  S42  1  0.66885553  0.86580524  0.06584600  1
  S  S43  1  0.40421103  0.82175573  0.57719816  1
  S  S44  1  0.59944798  0.33887605  0.56619647  1
  S  S45  1  0.41488079  0.50009084  0.26987804  1
  S  S46  1  0.19473987  0.35331565  0.95799898  1
  S  S47  1  0.53595625  0.33826658  0.95307831  1
  S  S48  1  0.46404375  0.66173342  0.04692169  1
  S  S49  1  0.85013832  0.71131360  0.40715610  1
  S  S50  1  0.93251049  0.72933107  0.80698109  1
  S  S51  1  0.25163026  0.04458446  0.10228557  1
  S  S52  1  0.16885553  0.13419476  0.43415400  1
  S  S53  1  0.91488079  0.49990916  0.23012196  1
  S  S54  1  0.35013832  0.28868640  0.09284390  1
  S  S55  1  0.83114447  0.86580524  0.56584600  1
  S  S56  1  0.09944798  0.66112395  0.93380353  1
  S  S57  1  0.24836974  0.04458446  0.60228557  1
  S  S58  1  0.73214774  0.29386913  0.21136624  1
  S  S59  1  0.57210489  0.02989298  0.58650769  1
  S  S60  1  0.64986168  0.71131360  0.90715610  1
  S  S61  1  0.90421103  0.17824427  0.92280184  1
  S  S62  1  0.41131735  0.97708187  0.73968619  1
  S  S63  1  0.06748951  0.27066893  0.19301891  1
  S  S64  1  0.42789511  0.97010702  0.41349231  1
  S  S65  1  0.09578897  0.82175573  0.07719816  1
  S  S66  1  0.91131735  0.02291813  0.76031381  1
  S  S67  1  0.08511921  0.50009084  0.76987804  1
  S  S68  1  0.33114447  0.13419476  0.93415400  1
  S  S69  1  0.92789511  0.02989298  0.08650769  1
  S  S70  1  0.58868265  0.02291813  0.26031381  1
  S  S71  1  0.75163026  0.95541554  0.39771443  1
  S  S72  1  0.59578897  0.17824427  0.42280184  1
  S  S73  1  0.07210489  0.97010702  0.91349231  1
  S  S74  1  0.40055202  0.66112395  0.43380353  1
  S  S75  1  0.74836974  0.95541554  0.89771443  1
  S  S76  1  0.43251049  0.27066893  0.69301891  1
  S  S77  1  0.23214774  0.70613087  0.28863376  1
  S  S78  1  0.76785226  0.29386913  0.71136624  1
  S  S79  1  0.14986168  0.28868640  0.59284390  1
  S  S80  1  0.56748951  0.72933107  0.30698109  1
  S  S81  1  0.80526013  0.64668435  0.04200102  1
  S  S82  1  0.58511921  0.49990916  0.73012196  1
  S  S83  1  0.26785226  0.70613087  0.78863376  1
