# generated using pymatgen
data_GeS2
_symmetry_space_group_name_H-M   'P 1'
_cell_length_a   6.85609986
_cell_length_b   12.56647694
_cell_length_c   16.42733155
_cell_angle_alpha   90.00000000
_cell_angle_beta   90.00000000
_cell_angle_gamma   91.08418402
_symmetry_Int_Tables_number   1
_chemical_formula_structural   GeS2
_chemical_formula_sum   'Ge16 S32'
_cell_volume   1415.07656300
_cell_formula_units_Z   16
loop_
 _symmetry_equiv_pos_site_id
 _symmetry_equiv_pos_as_xyz
  1  'x, y, z'
loop_
 _atom_site_type_symbol
 _atom_site_label
 _atom_site_symmetry_multiplicity
 _atom_site_fract_x
 _atom_site_fract_y
 _atom_site_fract_z
 _atom_site_occupancy
  Ge  Ge0  1  0.16542892  0.28948867  0.99746109  1
  Ge  Ge1  1  0.83457108  0.21051133  0.49746109  1
  Ge  Ge2  1  0.16542892  0.78948867  0.50253891  1
  Ge  Ge3  1  0.66292642  0.77561144  0.84600240  1
  Ge  Ge4  1  0.83457108  0.71051133  0.00253891  1
  Ge  Ge5  1  0.16281103  0.27768945  0.34737320  1
  Ge  Ge6  1  0.33611761  0.72185437  0.69120135  1
  Ge  Ge7  1  0.83718897  0.72231055  0.65262680  1
  Ge  Ge8  1  0.33611761  0.22185437  0.80879865  1
  Ge  Ge9  1  0.33707358  0.22438856  0.15399760  1
  Ge  Ge10  1  0.66388239  0.77814563  0.19120135  1
  Ge  Ge11  1  0.83718897  0.22231055  0.84737320  1
  Ge  Ge12  1  0.16281103  0.77768945  0.15262680  1
  Ge  Ge13  1  0.33707358  0.72438856  0.34600240  1
  Ge  Ge14  1  0.66388239  0.27814563  0.30879865  1
  Ge  Ge15  1  0.66292642  0.27561144  0.65399760  1
  S  S16  1  0.66784482  0.63724410  0.10783736  1
  S  S17  1  0.65838300  0.71819938  0.31981702  1
  S  S18  1  0.58295479  0.10938043  0.83160160  1
  S  S19  1  0.33215518  0.86275590  0.60783736  1
  S  S20  1  0.84362515  0.79549279  0.52790707  1
  S  S21  1  0.83422691  0.35398727  0.75578192  1
  S  S22  1  0.83422691  0.85398727  0.74421808  1
  S  S23  1  0.08457249  0.10870247  0.83092468  1
  S  S24  1  0.27839094  0.13123363  0.03957970  1
  S  S25  1  0.77321108  0.61688559  0.88862637  1
  S  S26  1  0.72160906  0.36876637  0.53957970  1
  S  S27  1  0.72160906  0.86876637  0.96042030  1
  S  S28  1  0.34161700  0.28180062  0.68018298  1
  S  S29  1  0.16577309  0.64601273  0.24421808  1
  S  S30  1  0.08457249  0.60870247  0.66907532  1
  S  S31  1  0.91542751  0.89129753  0.16907532  1
  S  S32  1  0.15637485  0.20450721  0.47209293  1
  S  S33  1  0.33215518  0.36275590  0.89216264  1
  S  S34  1  0.65838300  0.21819938  0.18018298  1
  S  S35  1  0.91542751  0.39129753  0.33092468  1
  S  S36  1  0.84362515  0.29549279  0.97209293  1
  S  S37  1  0.22678892  0.38311441  0.11137363  1
  S  S38  1  0.27839094  0.63123363  0.46042030  1
  S  S39  1  0.58295479  0.60938043  0.66839840  1
  S  S40  1  0.77321108  0.11688559  0.61137363  1
  S  S41  1  0.41704521  0.89061957  0.16839840  1
  S  S42  1  0.15637485  0.70450721  0.02790707  1
  S  S43  1  0.34161700  0.78180062  0.81981702  1
  S  S44  1  0.22678892  0.88311441  0.38862637  1
  S  S45  1  0.66784482  0.13724410  0.39216264  1
  S  S46  1  0.16577309  0.14601273  0.25578192  1
  S  S47  1  0.41704521  0.39061957  0.33160160  1
