# generated using pymatgen
data_CsCu2F5
_symmetry_space_group_name_H-M   'P 1'
_cell_length_a   7.22539724
_cell_length_b   7.46809451
_cell_length_c   9.70738887
_cell_angle_alpha   90.00000000
_cell_angle_beta   95.71909847
_cell_angle_gamma   90.00000000
_symmetry_Int_Tables_number   1
_chemical_formula_structural   CsCu2F5
_chemical_formula_sum   'Cs4 Cu8 F20'
_cell_volume   521.20289994
_cell_formula_units_Z   4
loop_
 _symmetry_equiv_pos_site_id
 _symmetry_equiv_pos_as_xyz
  1  'x, y, z'
loop_
 _atom_site_type_symbol
 _atom_site_label
 _atom_site_symmetry_multiplicity
 _atom_site_fract_x
 _atom_site_fract_y
 _atom_site_fract_z
 _atom_site_occupancy
  Cs  Cs0  1  0.74457919  0.47995404  0.12144120  1
  Cs  Cs1  1  0.24457919  0.02004596  0.62144120  1
  Cs  Cs2  1  0.25542081  0.52004596  0.87855880  1
  Cs  Cs3  1  0.75542081  0.97995404  0.37855880  1
  Cu  Cu4  1  0.23760125  0.23551501  0.24183948  1
  Cu  Cu5  1  0.76239875  0.76448499  0.75816052  1
  Cu  Cu6  1  0.00000000  0.50000000  0.50000000  1
  Cu  Cu7  1  0.73760125  0.26448499  0.74183948  1
  Cu  Cu8  1  0.26239875  0.73551501  0.25816052  1
  Cu  Cu9  1  0.00000000  0.00000000  0.00000000  1
  Cu  Cu10  1  0.50000000  0.50000000  0.50000000  1
  Cu  Cu11  1  0.50000000  0.00000000  0.00000000  1
  F  F12  1  0.04541962  0.29000521  0.35473389  1
  F  F13  1  0.31754799  0.48289299  0.24226706  1
  F  F14  1  0.95458038  0.70999479  0.64526611  1
  F  F15  1  0.55259587  0.82116289  0.85454441  1
  F  F16  1  0.54092918  0.25360110  0.52866153  1
  F  F17  1  0.68245201  0.51710701  0.75773294  1
  F  F18  1  0.95907082  0.75360110  0.97133847  1
  F  F19  1  0.76107089  0.01992153  0.07117279  1
  F  F20  1  0.26107089  0.48007847  0.57117279  1
  F  F21  1  0.18245201  0.98289299  0.25773294  1
  F  F22  1  0.05259587  0.67883711  0.35454441  1
  F  F23  1  0.81754799  0.01710701  0.74226706  1
  F  F24  1  0.23892911  0.98007847  0.92882721  1
  F  F25  1  0.04092918  0.24639890  0.02866153  1
  F  F26  1  0.73892911  0.51992153  0.42882721  1
  F  F27  1  0.45458038  0.79000521  0.14526611  1
  F  F28  1  0.54541962  0.20999479  0.85473389  1
  F  F29  1  0.45907082  0.74639890  0.47133847  1
  F  F30  1  0.94740413  0.32116289  0.64545559  1
  F  F31  1  0.44740413  0.17883711  0.14545559  1
