# generated using pymatgen
data_Cs3Sm(PS4)2
_symmetry_space_group_name_H-M   'P 1'
_cell_length_a   7.02327450
_cell_length_b   15.65281155
_cell_length_c   15.82096853
_cell_angle_alpha   99.80489527
_cell_angle_beta   90.00000000
_cell_angle_gamma   90.00000000
_symmetry_Int_Tables_number   1
_chemical_formula_structural   Cs3Sm(PS4)2
_chemical_formula_sum   'Cs12 Sm4 P8 S32'
_cell_volume   1713.85744106
_cell_formula_units_Z   4
loop_
 _symmetry_equiv_pos_site_id
 _symmetry_equiv_pos_as_xyz
  1  'x, y, z'
loop_
 _atom_site_type_symbol
 _atom_site_label
 _atom_site_symmetry_multiplicity
 _atom_site_fract_x
 _atom_site_fract_y
 _atom_site_fract_z
 _atom_site_occupancy
  Cs  Cs0  1  0.25837547  0.72296435  0.87830641  1
  Cs  Cs1  1  0.25363057  0.54691944  0.61041701  1
  Cs  Cs2  1  0.75363057  0.95308056  0.88958299  1
  Cs  Cs3  1  0.75837547  0.77703565  0.62169359  1
  Cs  Cs4  1  0.75556001  0.60779477  0.02489137  1
  Cs  Cs5  1  0.74636943  0.45308056  0.38958299  1
  Cs  Cs6  1  0.24443999  0.39220523  0.97510863  1
  Cs  Cs7  1  0.24162453  0.22296435  0.37830641  1
  Cs  Cs8  1  0.25556001  0.89220523  0.47510863  1
  Cs  Cs9  1  0.74443999  0.10779477  0.52489137  1
  Cs  Cs10  1  0.24636943  0.04691944  0.11041701  1
  Cs  Cs11  1  0.74162453  0.27703565  0.12169359  1
  Sm  Sm12  1  0.23160563  0.12356623  0.77011971  1
  Sm  Sm13  1  0.73160563  0.37643377  0.72988029  1
  Sm  Sm14  1  0.26839437  0.62356623  0.27011971  1
  Sm  Sm15  1  0.76839437  0.87643377  0.22988029  1
  P  P16  1  0.25508418  0.91831487  0.72508586  1
  P  P17  1  0.72554068  0.71760771  0.36865935  1
  P  P18  1  0.24491582  0.41831487  0.22508586  1
  P  P19  1  0.27445932  0.28239229  0.63134065  1
  P  P20  1  0.75508418  0.58168513  0.77491414  1
  P  P21  1  0.22554068  0.78239229  0.13134065  1
  P  P22  1  0.74491582  0.08168513  0.27491414  1
  P  P23  1  0.77445932  0.21760771  0.86865935  1
  S  S24  1  0.01380371  0.48419136  0.18776958  1
  S  S25  1  0.75102374  0.84948541  0.40552942  1
  S  S26  1  0.49402047  0.66952701  0.42531632  1
  S  S27  1  0.66056521  0.69843773  0.23940801  1
  S  S28  1  0.51380371  0.01580864  0.31223042  1
  S  S29  1  0.73872607  0.20938299  0.32509733  1
  S  S30  1  0.50597953  0.33047299  0.57468368  1
  S  S31  1  0.98596953  0.02222628  0.31384072  1
  S  S32  1  0.74856959  0.04922007  0.14333190  1
  S  S33  1  0.53249382  0.15728592  0.90126800  1
  S  S34  1  0.99402047  0.83047299  0.07468368  1
  S  S35  1  0.51403047  0.52222628  0.81384072  1
  S  S36  1  0.48619629  0.98419136  0.68776958  1
  S  S37  1  0.46750618  0.84271408  0.09873200  1
  S  S38  1  0.26127393  0.79061701  0.67490267  1
  S  S39  1  0.33943479  0.30156227  0.76059199  1
  S  S40  1  0.01403047  0.97777372  0.68615928  1
  S  S41  1  0.48596953  0.47777372  0.18615928  1
  S  S42  1  0.16056521  0.80156227  0.26059199  1
  S  S43  1  0.96750618  0.65728592  0.40126800  1
  S  S44  1  0.03249382  0.34271408  0.59873200  1
  S  S45  1  0.83943479  0.19843773  0.73940801  1
  S  S46  1  0.25102374  0.65051459  0.09447058  1
  S  S47  1  0.23872607  0.29061701  0.17490267  1
  S  S48  1  0.74897626  0.34948541  0.90552942  1
  S  S49  1  0.75143041  0.54922007  0.64333190  1
  S  S50  1  0.98619629  0.51580864  0.81223042  1
  S  S51  1  0.24856959  0.45077993  0.35666810  1
  S  S52  1  0.00597953  0.16952701  0.92531632  1
  S  S53  1  0.76127393  0.70938299  0.82509733  1
  S  S54  1  0.25143041  0.95077993  0.85666810  1
  S  S55  1  0.24897626  0.15051459  0.59447058  1
