# generated using pymatgen
data_Cs2Ga3As5O18
_symmetry_space_group_name_H-M   'P 1'
_cell_length_a   5.20441330
_cell_length_b   12.72945866
_cell_length_c   14.02768201
_cell_angle_alpha   93.91639405
_cell_angle_beta   100.69058761
_cell_angle_gamma   90.00000052
_symmetry_Int_Tables_number   1
_chemical_formula_structural   Cs2Ga3As5O18
_chemical_formula_sum   'Cs4 Ga6 As10 O36'
_cell_volume   910.98637425
_cell_formula_units_Z   2
loop_
 _symmetry_equiv_pos_site_id
 _symmetry_equiv_pos_as_xyz
  1  'x, y, z'
loop_
 _atom_site_type_symbol
 _atom_site_label
 _atom_site_symmetry_multiplicity
 _atom_site_fract_x
 _atom_site_fract_y
 _atom_site_fract_z
 _atom_site_occupancy
  Cs  Cs0  1  0.57414399  0.33942810  0.25727461  1
  Cs  Cs1  1  0.42585601  0.66057190  0.74272539  1
  Cs  Cs2  1  0.31686938  0.16057190  0.74272539  1
  Cs  Cs3  1  0.68313062  0.83942810  0.25727461  1
  Ga  Ga4  1  0.86902261  0.88602608  0.60117105  1
  Ga  Ga5  1  0.13097739  0.11397392  0.39882895  1
  Ga  Ga6  1  0.73214844  0.38602608  0.60117105  1
  Ga  Ga7  1  0.50000000  0.50000000  0.00000000  1
  Ga  Ga8  1  0.26785156  0.61397392  0.39882895  1
  Ga  Ga9  1  0.50000000  0.00000000  0.00000000  1
  As  As10  1  0.93285316  0.41557484  0.86142260  1
  As  As11  1  0.29661866  0.87322524  0.45873610  1
  As  As12  1  0.25332296  0.75000000  0.00000000  1
  As  As13  1  0.70338134  0.12677476  0.54126390  1
  As  As14  1  0.83788256  0.62677476  0.54126390  1
  As  As15  1  0.06714684  0.58442516  0.13857740  1
  As  As16  1  0.74667704  0.25000000  1.00000000  1
  As  As17  1  0.16211744  0.37322524  0.45873610  1
  As  As18  1  0.07143056  0.08442516  0.13857740  1
  As  As19  1  0.92856944  0.91557484  0.86142260  1
  O  O20  1  0.14824408  0.00898096  0.91932126  1
  O  O21  1  0.36036925  0.37977657  0.57189485  1
  O  O22  1  0.78808388  0.38863068  0.74464196  1
  O  O23  1  0.63963075  0.62022343  0.42810515  1
  O  O24  1  0.16250516  0.96385524  0.37838296  1
  O  O25  1  0.63148553  0.88462834  0.47618322  1
  O  O26  1  0.73872851  0.56252961  0.12178491  1
  O  O27  1  0.61694360  0.93747039  0.87821509  1
  O  O28  1  0.95655808  0.88863068  0.74464196  1
  O  O29  1  0.22892282  0.49101904  0.08067874  1
  O  O30  1  0.81359481  0.23894971  0.61272382  1
  O  O31  1  0.18640519  0.76105029  0.38727618  1
  O  O32  1  0.83749484  0.03614476  0.62161704  1
  O  O33  1  0.55546000  0.14477741  0.95487511  1
  O  O34  1  0.00109579  0.78429582  0.90524501  1
  O  O35  1  0.15530230  0.61537166  0.52381678  1
  O  O36  1  0.36851447  0.11537166  0.52381678  1
  O  O37  1  0.21152560  0.87977657  0.57189485  1
  O  O38  1  0.21587780  0.46385524  0.37838296  1
  O  O39  1  0.21191612  0.61136932  0.25535804  1
  O  O40  1  0.79912901  0.73894971  0.61272382  1
  O  O41  1  0.77107718  0.50898096  0.91932126  1
  O  O42  1  0.90414922  0.28429582  0.90524501  1
  O  O43  1  0.20087099  0.26105029  0.38727618  1
  O  O44  1  0.09585078  0.71570418  0.09475499  1
  O  O45  1  0.26127149  0.43747039  0.87821509  1
  O  O46  1  0.99890421  0.21570418  0.09475499  1
  O  O47  1  0.60058489  0.35522259  0.04512489  1
  O  O48  1  0.78847440  0.12022343  0.42810515  1
  O  O49  1  0.44454000  0.85522259  0.04512489  1
  O  O50  1  0.39941511  0.64477741  0.95487511  1
  O  O51  1  0.84469770  0.38462834  0.47618322  1
  O  O52  1  0.78412220  0.53614476  0.62161704  1
  O  O53  1  0.85175592  0.99101904  0.08067874  1
  O  O54  1  0.38305640  0.06252961  0.12178491  1
  O  O55  1  0.04344192  0.11136932  0.25535804  1
