# generated using pymatgen
data_Cs2I4O11
_symmetry_space_group_name_H-M   'P 1'
_cell_length_a   7.60894018
_cell_length_b   13.04489233
_cell_length_c   14.54690276
_cell_angle_alpha   107.25846705
_cell_angle_beta   90.00000000
_cell_angle_gamma   90.00000000
_symmetry_Int_Tables_number   1
_chemical_formula_structural   Cs2I4O11
_chemical_formula_sum   'Cs8 I16 O44'
_cell_volume   1378.88393667
_cell_formula_units_Z   4
loop_
 _symmetry_equiv_pos_site_id
 _symmetry_equiv_pos_as_xyz
  1  'x, y, z'
loop_
 _atom_site_type_symbol
 _atom_site_label
 _atom_site_symmetry_multiplicity
 _atom_site_fract_x
 _atom_site_fract_y
 _atom_site_fract_z
 _atom_site_occupancy
  Cs  Cs0  1  0.24514837  0.56416774  0.93941944  1
  Cs  Cs1  1  0.24733742  0.44094885  0.57018175  1
  Cs  Cs2  1  0.75266258  0.55905115  0.42981825  1
  Cs  Cs3  1  0.74514837  0.93583226  0.56058056  1
  Cs  Cs4  1  0.25485163  0.06416774  0.43941944  1
  Cs  Cs5  1  0.25266258  0.94094885  0.07018175  1
  Cs  Cs6  1  0.74733742  0.05905115  0.92981825  1
  Cs  Cs7  1  0.75485163  0.43583226  0.06058056  1
  I  I8  1  0.27399372  0.99900619  0.73083160  1
  I  I9  1  0.77986527  0.77610305  0.00563717  1
  I  I10  1  0.03594998  0.25798970  0.26245559  1
  I  I11  1  0.98118447  0.77287907  0.26662228  1
  I  I12  1  0.96405002  0.74201030  0.73754441  1
  I  I13  1  0.72013473  0.27610305  0.50563717  1
  I  I14  1  0.51881553  0.27287907  0.76662228  1
  I  I15  1  0.46405002  0.75798970  0.76245559  1
  I  I16  1  0.72600628  0.00099381  0.26916840  1
  I  I17  1  0.53594998  0.24201030  0.23754441  1
  I  I18  1  0.77399372  0.50099381  0.76916840  1
  I  I19  1  0.48118447  0.72712093  0.23337772  1
  I  I20  1  0.22600628  0.49900619  0.23083160  1
  I  I21  1  0.01881553  0.22712093  0.73337772  1
  I  I22  1  0.27986527  0.72389695  0.49436283  1
  I  I23  1  0.22013473  0.22389695  0.99436283  1
  O  O24  1  0.03335241  0.28801065  0.39290224  1
  O  O25  1  0.11582809  0.35808021  0.74775107  1
  O  O26  1  0.17999419  0.44385001  0.10290201  1
  O  O27  1  0.74638699  0.15732553  0.24516560  1
  O  O28  1  0.24638699  0.34267447  0.25483440  1
  O  O29  1  0.82000581  0.55614999  0.89709799  1
  O  O30  1  0.74519918  0.84060687  0.28069466  1
  O  O31  1  0.96466334  0.00209047  0.26635331  1
  O  O32  1  0.61582809  0.14191979  0.75224893  1
  O  O33  1  0.92217332  0.82093626  0.92248433  1
  O  O34  1  0.53335241  0.21198935  0.10709776  1
  O  O35  1  0.25480082  0.15939313  0.71930534  1
  O  O36  1  0.88613702  0.35988140  0.24548734  1
  O  O37  1  0.53533666  0.50209047  0.76635331  1
  O  O38  1  0.75361301  0.65732553  0.74516560  1
  O  O39  1  0.07782668  0.17906374  0.07751567  1
  O  O40  1  0.25361301  0.84267447  0.75483440  1
  O  O41  1  0.20923309  0.59063458  0.41913629  1
  O  O42  1  0.95428535  0.74416545  0.08021388  1
  O  O43  1  0.79076691  0.40936542  0.58086371  1
  O  O44  1  0.38613702  0.14011860  0.25451266  1
  O  O45  1  0.45428535  0.75583455  0.41978612  1
  O  O46  1  0.42217332  0.67906374  0.57751567  1
  O  O47  1  0.11386298  0.64011860  0.75451266  1
  O  O48  1  0.24519918  0.65939313  0.21930534  1
  O  O49  1  0.70923309  0.90936542  0.08086371  1
  O  O50  1  0.96664759  0.71198935  0.60709776  1
  O  O51  1  0.04571465  0.25583455  0.91978612  1
  O  O52  1  0.46466334  0.49790953  0.23364669  1
  O  O53  1  0.67999419  0.05614999  0.39709799  1
  O  O54  1  0.61386298  0.85988140  0.74548734  1
  O  O55  1  0.46793165  0.31640455  0.89484093  1
  O  O56  1  0.88417191  0.64191979  0.25224893  1
  O  O57  1  0.57782668  0.32093626  0.42248433  1
  O  O58  1  0.96793165  0.18359545  0.60515907  1
  O  O59  1  0.46664759  0.78801065  0.89290224  1
  O  O60  1  0.38417191  0.85808021  0.24775107  1
  O  O61  1  0.32000581  0.94385001  0.60290201  1
  O  O62  1  0.75480082  0.34060687  0.78069466  1
  O  O63  1  0.29076691  0.09063458  0.91913629  1
  O  O64  1  0.53206835  0.68359545  0.10515907  1
  O  O65  1  0.54571465  0.24416545  0.58021388  1
  O  O66  1  0.03206835  0.81640455  0.39484093  1
  O  O67  1  0.03533666  0.99790953  0.73364669  1
