# generated using pymatgen
data_Cs4UC3O11
_symmetry_space_group_name_H-M   'P 1'
_cell_length_a   7.64875893
_cell_length_b   7.64875954
_cell_length_c   13.17924529
_cell_angle_alpha   87.62764003
_cell_angle_beta   87.62763979
_cell_angle_gamma   79.41168880
_symmetry_Int_Tables_number   1
_chemical_formula_structural   Cs4UC3O11
_chemical_formula_sum   'Cs8 U2 C6 O22'
_cell_volume   756.80590281
_cell_formula_units_Z   2
loop_
 _symmetry_equiv_pos_site_id
 _symmetry_equiv_pos_as_xyz
  1  'x, y, z'
loop_
 _atom_site_type_symbol
 _atom_site_label
 _atom_site_symmetry_multiplicity
 _atom_site_fract_x
 _atom_site_fract_y
 _atom_site_fract_z
 _atom_site_occupancy
  Cs  Cs0  1  0.43465879  0.77987579  0.46156976  1
  Cs  Cs1  1  0.22012421  0.56534121  0.03843024  1
  Cs  Cs2  1  0.35263541  0.01791969  0.15413461  1
  Cs  Cs3  1  0.64736459  0.98208031  0.84586539  1
  Cs  Cs4  1  0.56534121  0.22012421  0.53843024  1
  Cs  Cs5  1  0.77987579  0.43465879  0.96156976  1
  Cs  Cs6  1  0.01791969  0.35263541  0.65413461  1
  Cs  Cs7  1  0.98208031  0.64736459  0.34586539  1
  U  U8  1  0.18455240  0.81544760  0.75000000  1
  U  U9  1  0.81544760  0.18455240  0.25000000  1
  C  C10  1  0.48284082  0.51715918  0.75000000  1
  C  C11  1  0.07730557  0.15576155  0.40523149  1
  C  C12  1  0.92269443  0.84423845  0.59476851  1
  C  C13  1  0.15576155  0.07730557  0.90523149  1
  C  C14  1  0.51715918  0.48284082  0.25000000  1
  C  C15  1  0.84423845  0.92269443  0.09476851  1
  O  O16  1  0.91548042  0.96570434  0.66381524  1
  O  O17  1  0.95817878  0.32711935  0.18367913  1
  O  O18  1  0.92227826  0.26549586  0.41159634  1
  O  O19  1  0.38739322  0.61260678  0.25000000  1
  O  O20  1  0.32711935  0.95817878  0.68367913  1
  O  O21  1  0.20734018  0.16959521  0.45846517  1
  O  O22  1  0.79265982  0.83040479  0.54153483  1
  O  O23  1  0.04182122  0.67288065  0.81632087  1
  O  O24  1  0.08451958  0.03429566  0.33618476  1
  O  O25  1  0.62860331  0.44747014  0.32497659  1
  O  O26  1  0.73450414  0.07772174  0.08840366  1
  O  O27  1  0.96570434  0.91548042  0.16381524  1
  O  O28  1  0.83040479  0.79265982  0.04153483  1
  O  O29  1  0.55252986  0.37139669  0.17502341  1
  O  O30  1  0.16959521  0.20734018  0.95846517  1
  O  O31  1  0.61260678  0.38739322  0.75000000  1
  O  O32  1  0.07772174  0.73450414  0.58840366  1
  O  O33  1  0.44747014  0.62860331  0.82497659  1
  O  O34  1  0.26549586  0.92227826  0.91159634  1
  O  O35  1  0.67288065  0.04182122  0.31632087  1
  O  O36  1  0.37139669  0.55252986  0.67502341  1
  O  O37  1  0.03429566  0.08451958  0.83618476  1
