# generated using pymatgen
data_Cs7Cu6F19
_symmetry_space_group_name_H-M   'P 1'
_cell_length_a   6.34809244
_cell_length_b   11.62387741
_cell_length_c   16.17691598
_cell_angle_alpha   96.79905467
_cell_angle_beta   90.00000000
_cell_angle_gamma   90.00000000
_symmetry_Int_Tables_number   1
_chemical_formula_structural   Cs7Cu6F19
_chemical_formula_sum   'Cs14 Cu12 F38'
_cell_volume   1185.29106477
_cell_formula_units_Z   2
loop_
 _symmetry_equiv_pos_site_id
 _symmetry_equiv_pos_as_xyz
  1  'x, y, z'
loop_
 _atom_site_type_symbol
 _atom_site_label
 _atom_site_symmetry_multiplicity
 _atom_site_fract_x
 _atom_site_fract_y
 _atom_site_fract_z
 _atom_site_occupancy
  Cs  Cs0  1  0.00774598  0.94519114  0.15049276  1
  Cs  Cs1  1  0.99024101  0.40734049  0.79413805  1
  Cs  Cs2  1  0.00975899  0.59265951  0.20586195  1
  Cs  Cs3  1  0.50774598  0.05480886  0.34950724  1
  Cs  Cs4  1  -0.00066144  0.84163476  0.43319137  1
  Cs  Cs5  1  0.49933856  0.15836524  0.06680863  1
  Cs  Cs6  1  0.50975899  0.40734049  0.29413805  1
  Cs  Cs7  1  0.00000000  0.50000000  0.50000000  1
  Cs  Cs8  1  1.00066144  0.15836524  0.56680863  1
  Cs  Cs9  1  0.49225402  0.94519114  0.65049276  1
  Cs  Cs10  1  0.49024101  0.59265951  0.70586195  1
  Cs  Cs11  1  0.50000000  0.50000000  0.00000000  1
  Cs  Cs12  1  0.50066144  0.84163476  0.93319137  1
  Cs  Cs13  1  0.99225402  0.05480886  0.84950724  1
  Cu  Cu14  1  0.99709830  0.32702631  0.01312984  1
  Cu  Cu15  1  0.99645863  0.72869193  0.82116340  1
  Cu  Cu16  1  0.49709830  0.67297369  0.48687016  1
  Cu  Cu17  1  0.50354137  0.72869193  0.32116340  1
  Cu  Cu18  1  0.00290170  0.67297369  0.98687016  1
  Cu  Cu19  1  0.50636958  0.76734145  0.15189702  1
  Cu  Cu20  1  0.00636958  0.23265855  0.34810298  1
  Cu  Cu21  1  0.49645863  0.27130807  0.67883660  1
  Cu  Cu22  1  0.99363042  0.76734145  0.65189702  1
  Cu  Cu23  1  0.50290170  0.32702631  0.51312984  1
  Cu  Cu24  1  0.00354137  0.27130807  0.17883660  1
  Cu  Cu25  1  0.49363042  0.23265855  0.84810298  1
  F  F26  1  0.80880406  0.35949246  0.11169362  1
  F  F27  1  0.27718276  0.72302002  0.07412908  1
  F  F28  1  0.77322110  0.64309206  0.86400406  1
  F  F29  1  0.28816535  0.29118136  0.43164423  1
  F  F30  1  0.50000000  0.50000000  0.50000000  1
  F  F31  1  0.71183465  0.70881864  0.56835577  1
  F  F32  1  0.99781836  0.61600945  0.68872080  1
  F  F33  1  0.72168028  0.18639431  0.72072772  1
  F  F34  1  0.00218164  0.38399055  0.31127920  1
  F  F35  1  0.77831972  0.18639431  0.22072772  1
  F  F36  1  0.72677890  0.64309206  0.36400406  1
  F  F37  1  0.80165084  0.81287723  0.75303055  1
  F  F38  1  0.69119594  0.35949246  0.61169362  1
  F  F39  1  0.50218164  0.61600945  0.18872080  1
  F  F40  1  0.78816535  0.70881864  0.06835577  1
  F  F41  1  0.27831972  0.81360569  0.27927228  1
  F  F42  1  0.49781836  0.38399055  0.81127920  1
  F  F43  1  0.98942933  0.92109721  0.62290000  1
  F  F44  1  0.22281724  0.72302002  0.57412908  1
  F  F45  1  0.48942933  0.07890279  0.87710000  1
  F  F46  1  0.00341019  0.16593376  0.04087168  1
  F  F47  1  0.69834916  0.81287723  0.25303055  1
  F  F48  1  0.51057067  0.92109721  0.12290000  1
  F  F49  1  0.19119594  0.64050754  0.88830638  1
  F  F50  1  0.19834916  0.18712277  0.24696945  1
  F  F51  1  0.30165084  0.18712277  0.74696945  1
  F  F52  1  0.30880406  0.64050754  0.38830638  1
  F  F53  1  0.01057067  0.07890279  0.37710000  1
  F  F54  1  0.22677890  0.35690794  0.13599594  1
  F  F55  1  0.21183465  0.29118136  0.93164423  1
  F  F56  1  0.77718276  0.27697998  0.42587092  1
  F  F57  1  0.72281724  0.27697998  0.92587092  1
  F  F58  1  0.22168028  0.81360569  0.77927228  1
  F  F59  1  0.49658981  0.16593376  0.54087168  1
  F  F60  1  0.27322110  0.35690794  0.63599594  1
  F  F61  1  0.50341019  0.83406624  0.45912832  1
  F  F62  1  0.00000000  0.50000000  0.00000000  1
  F  F63  1  0.99658981  0.83406624  0.95912832  1
