# generated using pymatgen
data_CsNaSi2O5
_symmetry_space_group_name_H-M   'P 1'
_cell_length_a   4.98584362
_cell_length_b   13.56740052
_cell_length_c   17.39845700
_cell_angle_alpha   90.00000000
_cell_angle_beta   90.00000000
_cell_angle_gamma   90.00000000
_symmetry_Int_Tables_number   1
_chemical_formula_structural   CsNaSi2O5
_chemical_formula_sum   'Cs8 Na8 Si16 O40'
_cell_volume   1176.91753328
_cell_formula_units_Z   8
loop_
 _symmetry_equiv_pos_site_id
 _symmetry_equiv_pos_as_xyz
  1  'x, y, z'
loop_
 _atom_site_type_symbol
 _atom_site_label
 _atom_site_symmetry_multiplicity
 _atom_site_fract_x
 _atom_site_fract_y
 _atom_site_fract_z
 _atom_site_occupancy
  Cs  Cs0  1  0.73667807  0.50637822  0.26620243  1
  Cs  Cs1  1  0.75263481  0.64135163  0.51665620  1
  Cs  Cs2  1  0.24736519  0.14135163  0.48334380  1
  Cs  Cs3  1  0.74736519  0.64135163  0.01665620  1
  Cs  Cs4  1  0.23667807  0.00637822  0.23379757  1
  Cs  Cs5  1  0.26332193  0.00637822  0.73379757  1
  Cs  Cs6  1  0.76332193  0.50637822  0.76620243  1
  Cs  Cs7  1  0.25263481  0.14135163  0.98334380  1
  Na  Na8  1  0.26128858  0.73451057  0.65437632  1
  Na  Na9  1  0.74432354  0.91236111  0.09614430  1
  Na  Na10  1  0.25567646  0.41236111  0.90385570  1
  Na  Na11  1  0.75567646  0.91236111  0.59614430  1
  Na  Na12  1  0.23871142  0.73451057  0.15437632  1
  Na  Na13  1  0.73871142  0.23451057  0.34562368  1
  Na  Na14  1  0.24432354  0.41236111  0.40385570  1
  Na  Na15  1  0.76128858  0.23451057  0.84562368  1
  Si  Si16  1  0.27716688  0.68841465  0.85541073  1
  Si  Si17  1  0.72283312  0.18841465  0.14458927  1
  Si  Si18  1  0.27543377  0.86290262  0.47477027  1
  Si  Si19  1  0.22283312  0.68841465  0.35541073  1
  Si  Si20  1  0.77543377  0.36290262  0.02522973  1
  Si  Si21  1  0.27042834  0.45857600  0.10451310  1
  Si  Si22  1  0.22456623  0.86290262  0.97477027  1
  Si  Si23  1  0.21843441  0.28420430  0.22389808  1
  Si  Si24  1  0.28156559  0.28420430  0.72389808  1
  Si  Si25  1  0.72456623  0.36290262  0.52522973  1
  Si  Si26  1  0.71843441  0.78420430  0.27610192  1
  Si  Si27  1  0.77716688  0.18841465  0.64458927  1
  Si  Si28  1  0.72957166  0.95857600  0.89548690  1
  Si  Si29  1  0.22957166  0.45857600  0.60451310  1
  Si  Si30  1  0.77042834  0.95857600  0.39548690  1
  Si  Si31  1  0.78156559  0.78420430  0.77610192  1
  O  O32  1  0.69683597  0.35988298  0.93660182  1
  O  O33  1  0.09196338  0.73936652  0.78574270  1
  O  O34  1  0.91386600  0.90719646  0.96501506  1
  O  O35  1  0.78402590  0.89572874  0.81502478  1
  O  O36  1  0.80316403  0.35988298  0.43660182  1
  O  O37  1  0.28402590  0.39572874  0.68497522  1
  O  O38  1  0.21597410  0.39572874  0.18497522  1
  O  O39  1  0.77751451  0.25146550  0.06425723  1
  O  O40  1  0.91383401  0.43522790  0.57949194  1
  O  O41  1  0.77669873  0.07303548  0.88351508  1
  O  O42  1  0.30316403  0.85988298  0.06339818  1
  O  O43  1  0.72248549  0.25146550  0.56425723  1
  O  O44  1  0.22248549  0.75146550  0.93574277  1
  O  O45  1  0.90731767  0.71194378  0.33047843  1
  O  O46  1  0.08613400  0.40719646  0.03498494  1
  O  O47  1  0.22330127  0.57303548  0.11648492  1
  O  O48  1  0.40803662  0.73936652  0.28574270  1
  O  O49  1  0.70191042  0.78718470  0.68757154  1
  O  O50  1  0.20191042  0.28718470  0.81242846  1
  O  O51  1  0.72330127  0.07303548  0.38351508  1
  O  O52  1  0.59196338  0.23936652  0.71425730  1
  O  O53  1  0.41383401  0.93522790  0.92050806  1
  O  O54  1  0.27751451  0.75146550  0.43574277  1
  O  O55  1  0.79808958  0.78718470  0.18757154  1
  O  O56  1  0.90803662  0.23936652  0.21425730  1
  O  O57  1  0.71597410  0.89572874  0.31502478  1
  O  O58  1  0.27669873  0.57303548  0.61648492  1
  O  O59  1  0.59268233  0.71194378  0.83047843  1
  O  O60  1  0.26958157  0.57399884  0.36752044  1
  O  O61  1  0.76958157  0.07399884  0.13247956  1
  O  O62  1  0.19683597  0.85988298  0.56339818  1
  O  O63  1  0.58613400  0.90719646  0.46501506  1
  O  O64  1  0.40731767  0.21194378  0.16952157  1
  O  O65  1  0.23041843  0.57399884  0.86752044  1
  O  O66  1  0.09268233  0.21194378  0.66952157  1
  O  O67  1  0.73041843  0.07399884  0.63247956  1
  O  O68  1  0.08616599  0.93522790  0.42050806  1
  O  O69  1  0.41386600  0.40719646  0.53498494  1
  O  O70  1  0.58616599  0.43522790  0.07949194  1
  O  O71  1  0.29808958  0.28718470  0.31242846  1
