# generated using pymatgen
data_Gd3CuGeS7
_symmetry_space_group_name_H-M   'P 1'
_cell_length_a   9.99638800
_cell_length_b   9.99638766
_cell_length_c   5.83603121
_cell_angle_alpha   90.00000000
_cell_angle_beta   90.00000000
_cell_angle_gamma   120.00000111
_symmetry_Int_Tables_number   1
_chemical_formula_structural   Gd3CuGeS7
_chemical_formula_sum   'Gd6 Cu2 Ge2 S14'
_cell_volume   505.05005957
_cell_formula_units_Z   2
loop_
 _symmetry_equiv_pos_site_id
 _symmetry_equiv_pos_as_xyz
  1  'x, y, z'
loop_
 _atom_site_type_symbol
 _atom_site_label
 _atom_site_symmetry_multiplicity
 _atom_site_fract_x
 _atom_site_fract_y
 _atom_site_fract_z
 _atom_site_occupancy
  Gd  Gd0  1  0.35680611  0.12992850  0.24906921  1
  Gd  Gd1  1  0.22687761  0.35680611  0.74906921  1
  Gd  Gd2  1  0.64319389  0.87007150  0.74906921  1
  Gd  Gd3  1  0.87007150  0.22687761  0.24906921  1
  Gd  Gd4  1  0.77312239  0.64319389  0.24906921  1
  Gd  Gd5  1  0.12992850  0.77312239  0.74906921  1
  Cu  Cu6  1  0.00000000  0.00000000  0.70578610  1
  Cu  Cu7  1  0.00000000  0.00000000  0.20578610  1
  Ge  Ge8  1  0.66666700  0.33333300  0.83232360  1
  Ge  Ge9  1  0.33333300  0.66666700  0.33232360  1
  S  S10  1  0.16107539  0.25614056  0.21902399  1
  S  S11  1  0.83892461  0.74385944  0.71902399  1
  S  S12  1  0.90493482  0.16107539  0.71902399  1
  S  S13  1  0.25614056  0.09506518  0.71902399  1
  S  S14  1  0.41894018  0.89975916  0.49143820  1
  S  S15  1  0.09506518  0.83892461  0.21902399  1
  S  S16  1  0.48081899  0.58105982  0.49143820  1
  S  S17  1  0.33333300  0.66666700  0.95449614  1
  S  S18  1  0.89975916  0.48081899  0.99143820  1
  S  S19  1  0.74385944  0.90493482  0.21902399  1
  S  S20  1  0.66666700  0.33333300  0.45449614  1
  S  S21  1  0.10024084  0.51918101  0.49143820  1
  S  S22  1  0.58105982  0.10024084  0.99143820  1
  S  S23  1  0.51918101  0.41894018  0.99143820  1
