# generated using pymatgen
data_K3Ta2Ag3S8
_symmetry_space_group_name_H-M   'P 1'
_cell_length_a   6.00103502
_cell_length_b   12.91070116
_cell_length_c   13.94331114
_cell_angle_alpha   64.58343504
_cell_angle_beta   77.57308470
_cell_angle_gamma   76.56126646
_symmetry_Int_Tables_number   1
_chemical_formula_structural   K3Ta2Ag3S8
_chemical_formula_sum   'K6 Ta4 Ag6 S16'
_cell_volume   940.78643768
_cell_formula_units_Z   2
loop_
 _symmetry_equiv_pos_site_id
 _symmetry_equiv_pos_as_xyz
  1  'x, y, z'
loop_
 _atom_site_type_symbol
 _atom_site_label
 _atom_site_symmetry_multiplicity
 _atom_site_fract_x
 _atom_site_fract_y
 _atom_site_fract_z
 _atom_site_occupancy
  K  K0  1  0.23874370  0.79232518  0.60207121  1
  K  K1  1  0.00000000  0.00000000  0.00000000  1
  K  K2  1  0.36685991  0.29232518  0.10207121  1
  K  K3  1  0.00000000  0.50000000  0.50000000  1
  K  K4  1  0.63314009  0.70767482  0.89792879  1
  K  K5  1  0.76125630  0.20767482  0.39792879  1
  Ta  Ta6  1  0.83829601  0.02366607  0.72129832  1
  Ta  Ta7  1  0.41673960  0.52366607  0.22129832  1
  Ta  Ta8  1  0.58326040  0.47633393  0.77870168  1
  Ta  Ta9  1  0.16170399  0.97633393  0.27870168  1
  Ag  Ag10  1  0.28804745  0.75000000  0.25000000  1
  Ag  Ag11  1  0.08385108  0.46767797  0.78600263  1
  Ag  Ag12  1  0.66246832  0.96767797  0.28600263  1
  Ag  Ag13  1  0.33753168  0.03232203  0.71399737  1
  Ag  Ag14  1  0.71195255  0.25000000  0.75000000  1
  Ag  Ag15  1  0.91614892  0.53232203  0.21399737  1
  S  S16  1  0.55196334  0.55964951  0.34652895  1
  S  S17  1  0.90805689  0.13211026  0.18284753  1
  S  S18  1  0.54185821  0.05964951  0.84652895  1
  S  S19  1  0.09194311  0.86788974  0.81715247  1
  S  S20  1  0.45814179  0.94035049  0.15347105  1
  S  S21  1  0.71269049  0.46959422  0.10967532  1
  S  S22  1  0.29196003  0.03040578  0.39032468  1
  S  S23  1  0.70803997  0.96959422  0.60967532  1
  S  S24  1  0.22301468  0.36788974  0.31715247  1
  S  S25  1  0.98439320  0.81340191  0.38403725  1
  S  S26  1  0.28730951  0.53040578  0.89032468  1
  S  S27  1  0.44803666  0.44035049  0.65347105  1
  S  S28  1  0.18183235  0.68659809  0.11596275  1
  S  S29  1  0.77698532  0.63211026  0.68284753  1
  S  S30  1  0.01560680  0.18659809  0.61596275  1
  S  S31  1  0.81816765  0.31340191  0.88403725  1
