# generated using pymatgen
data_La3Al(FeO3)4
_symmetry_space_group_name_H-M   'P 1'
_cell_length_a   5.46614670
_cell_length_b   5.56575536
_cell_length_c   7.97933085
_cell_angle_alpha   90.00000000
_cell_angle_beta   90.00000000
_cell_angle_gamma   86.55265822
_symmetry_Int_Tables_number   1
_chemical_formula_structural   La3Al(FeO3)4
_chemical_formula_sum   'La3 Al1 Fe4 O12'
_cell_volume   242.31778731
_cell_formula_units_Z   1
loop_
 _symmetry_equiv_pos_site_id
 _symmetry_equiv_pos_as_xyz
  1  'x, y, z'
loop_
 _atom_site_type_symbol
 _atom_site_label
 _atom_site_symmetry_multiplicity
 _atom_site_fract_x
 _atom_site_fract_y
 _atom_site_fract_z
 _atom_site_occupancy
  La  La0  1  0.98767115  0.04931892  0.25000000  1
  La  La1  1  0.49028721  0.45371120  0.75000000  1
  La  La2  1  0.01203981  0.96675307  0.75000000  1
  Al  Al3  1  0.48715066  0.51786652  0.25000000  1
  Fe  Fe4  1  0.48976879  0.97516838  0.00462784  1
  Fe  Fe5  1  0.99858958  0.50966408  0.49177770  1
  Fe  Fe6  1  0.48976879  0.97516838  0.49537216  1
  Fe  Fe7  1  0.99858958  0.50966408  0.00822230  1
  O  O8  1  0.82357067  0.83235613  0.02410702  1
  O  O9  1  0.67183203  0.35474466  0.41642354  1
  O  O10  1  0.19570483  0.19751951  0.52277040  1
  O  O11  1  0.28787878  0.70839838  0.94099347  1
  O  O12  1  0.19570483  0.19751951  0.97722960  1
  O  O13  1  0.28787878  0.70839838  0.55900653  1
  O  O14  1  0.82357067  0.83235613  0.47589298  1
  O  O15  1  0.67183203  0.35474466  0.08357646  1
  O  O16  1  0.44829706  0.86092235  0.25000000  1
  O  O17  1  0.15276211  0.48025557  0.25000000  1
  O  O18  1  0.56776409  0.02797944  0.75000000  1
  O  O19  1  0.91933855  0.48749064  0.75000000  1
