# generated using pymatgen
data_Cs2LiNbS4
_symmetry_space_group_name_H-M   'P 1'
_cell_length_a   7.02765415
_cell_length_b   7.45761756
_cell_length_c   9.96458401
_cell_angle_alpha   97.01506929
_cell_angle_beta   92.57388869
_cell_angle_gamma   91.32791948
_symmetry_Int_Tables_number   1
_chemical_formula_structural   Cs2LiNbS4
_chemical_formula_sum   'Cs4 Li2 Nb2 S8'
_cell_volume   517.59071013
_cell_formula_units_Z   2
loop_
 _symmetry_equiv_pos_site_id
 _symmetry_equiv_pos_as_xyz
  1  'x, y, z'
loop_
 _atom_site_type_symbol
 _atom_site_label
 _atom_site_symmetry_multiplicity
 _atom_site_fract_x
 _atom_site_fract_y
 _atom_site_fract_z
 _atom_site_occupancy
  Cs  Cs0  1  0.30144305  0.75413847  0.00626249  1
  Cs  Cs1  1  0.12914194  0.20137084  0.65687642  1
  Cs  Cs2  1  0.87085806  0.79862916  0.34312358  1
  Cs  Cs3  1  0.69855695  0.24586153  0.99373751  1
  Li  Li4  1  0.40347855  0.67748198  0.57148504  1
  Li  Li5  1  0.59652145  0.32251802  0.42851496  1
  Nb  Nb6  1  0.78338750  0.70769006  0.74994068  1
  Nb  Nb7  1  0.21661250  0.29230994  0.25005932  1
  S  S8  1  0.37885365  0.06280129  0.33053358  1
  S  S9  1  0.39489383  0.55317032  0.32517861  1
  S  S10  1  0.80156410  0.74755871  0.98109934  1
  S  S11  1  0.91620092  0.29957697  0.33123630  1
  S  S12  1  0.08379908  0.70042303  0.66876370  1
  S  S13  1  0.60510617  0.44682968  0.67482139  1
  S  S14  1  0.62114635  0.93719871  0.66946642  1
  S  S15  1  0.19843590  0.25244129  0.01890066  1
