# generated using pymatgen
data_Sm2Se5O13
_symmetry_space_group_name_H-M   'P 1'
_cell_length_a   10.35826415
_cell_length_b   10.48036558
_cell_length_c   13.11416798
_cell_angle_alpha   90.00000000
_cell_angle_beta   111.89914248
_cell_angle_gamma   90.00000000
_symmetry_Int_Tables_number   1
_chemical_formula_structural   Sm2Se5O13
_chemical_formula_sum   'Sm8 Se20 O52'
_cell_volume   1320.92483989
_cell_formula_units_Z   4
loop_
 _symmetry_equiv_pos_site_id
 _symmetry_equiv_pos_as_xyz
  1  'x, y, z'
loop_
 _atom_site_type_symbol
 _atom_site_label
 _atom_site_symmetry_multiplicity
 _atom_site_fract_x
 _atom_site_fract_y
 _atom_site_fract_z
 _atom_site_occupancy
  Sm  Sm0  1  0.82381716  0.74564850  0.09169169  1
  Sm  Sm1  1  0.93752721  0.18037224  0.08383585  1
  Sm  Sm2  1  0.06247279  0.81962776  0.91616415  1
  Sm  Sm3  1  0.17618284  0.25435150  0.90830831  1
  Sm  Sm4  1  0.93752721  0.31962776  0.58383585  1
  Sm  Sm5  1  0.17618284  0.24564850  0.40830831  1
  Sm  Sm6  1  0.82381716  0.75435150  0.59169169  1
  Sm  Sm7  1  0.06247279  0.68037224  0.41616415  1
  Se  Se8  1  0.90154509  0.07906936  0.77438359  1
  Se  Se9  1  0.35295045  0.57552748  0.03606659  1
  Se  Se10  1  0.64704955  0.42447252  0.96393341  1
  Se  Se11  1  0.65914932  0.73183350  0.30747867  1
  Se  Se12  1  0.34085068  0.23183350  0.19252133  1
  Se  Se13  1  0.64704955  0.07552748  0.46393341  1
  Se  Se14  1  0.09845491  0.57906936  0.72561641  1
  Se  Se15  1  0.15153880  0.57101950  0.17868195  1
  Se  Se16  1  0.59443952  0.48353986  0.40290871  1
  Se  Se17  1  0.65914932  0.76816650  0.80747867  1
  Se  Se18  1  0.84846120  0.07101950  0.32131805  1
  Se  Se19  1  0.40556048  0.98353986  0.09709129  1
  Se  Se20  1  0.59443952  0.01646014  0.90290871  1
  Se  Se21  1  0.90154509  0.42093064  0.27438359  1
  Se  Se22  1  0.34085068  0.26816650  0.69252133  1
  Se  Se23  1  0.09845491  0.92093064  0.22561641  1
  Se  Se24  1  0.35295045  0.92447252  0.53606659  1
  Se  Se25  1  0.40556048  0.51646014  0.59709129  1
  Se  Se26  1  0.84846120  0.42898050  0.82131805  1
  Se  Se27  1  0.15153880  0.92898050  0.67868195  1
  O  O28  1  0.67281244  0.73130403  0.68777354  1
  O  O29  1  0.82742388  0.76414617  0.90482942  1
  O  O30  1  0.20379382  0.63315889  0.94148466  1
  O  O31  1  0.91542086  0.57650983  0.23258074  1
  O  O32  1  0.97957489  0.66639748  0.76420114  1
  O  O33  1  0.02042511  0.16639748  0.73579886  1
  O  O34  1  0.01970130  0.44326819  0.41000197  1
  O  O35  1  0.02042511  0.33360252  0.23579886  1
  O  O36  1  0.01970130  0.05673181  0.91000197  1
  O  O37  1  0.98029870  0.55673181  0.58999803  1
  O  O38  1  0.36268529  0.10801679  0.00796445  1
  O  O39  1  0.63731471  0.60801679  0.49203555  1
  O  O40  1  0.36268529  0.39198321  0.50796445  1
  O  O41  1  0.17257612  0.23585383  0.09517058  1
  O  O42  1  0.82742388  0.73585383  0.40482942  1
  O  O43  1  0.94789398  0.31247491  0.91013337  1
  O  O44  1  0.08457914  0.42349017  0.76741926  1
  O  O45  1  0.08457914  0.07650983  0.26741926  1
  O  O46  1  0.33407232  0.41623106  0.01220344  1
  O  O47  1  0.20390148  0.63286904  0.30598859  1
  O  O48  1  0.67630276  0.09574887  0.33419871  1
  O  O49  1  0.20379382  0.86684111  0.44148466  1
  O  O50  1  0.79609852  0.13286904  0.19401141  1
  O  O51  1  0.05210602  0.68752509  0.08986663  1
  O  O52  1  0.36120210  0.44196553  0.71179837  1
  O  O53  1  0.36120210  0.05803447  0.21179837  1
  O  O54  1  0.67281244  0.76869597  0.18777354  1
  O  O55  1  0.27382622  0.62127638  0.55501742  1
  O  O56  1  0.98029870  0.94326819  0.08999803  1
  O  O57  1  0.72617378  0.12127638  0.94498258  1
  O  O58  1  0.63879790  0.94196553  0.78820163  1
  O  O59  1  0.91542086  0.92349017  0.73258074  1
  O  O60  1  0.79620618  0.36684111  0.05851534  1
  O  O61  1  0.63731471  0.89198321  0.99203555  1
  O  O62  1  0.32718756  0.23130403  0.81222646  1
  O  O63  1  0.17257612  0.26414617  0.59517058  1
  O  O64  1  0.32718756  0.26869597  0.31222646  1
  O  O65  1  0.32369724  0.59574887  0.16580129  1
  O  O66  1  0.63879790  0.55803447  0.28820163  1
  O  O67  1  0.67630276  0.40425113  0.83419871  1
  O  O68  1  0.79620618  0.13315889  0.55851534  1
  O  O69  1  0.05210602  0.81247491  0.58986663  1
  O  O70  1  0.79609852  0.36713096  0.69401141  1
  O  O71  1  0.97957489  0.83360252  0.26420114  1
  O  O72  1  0.72617378  0.37872362  0.44498258  1
  O  O73  1  0.33407232  0.08376894  0.51220344  1
  O  O74  1  0.32369724  0.90425113  0.66580129  1
  O  O75  1  0.66592768  0.91623106  0.48779656  1
  O  O76  1  0.27382622  0.87872362  0.05501742  1
  O  O77  1  0.66592768  0.58376894  0.98779656  1
  O  O78  1  0.94789398  0.18752509  0.41013337  1
  O  O79  1  0.20390148  0.86713096  0.80598859  1
