# generated using pymatgen
data_CsGd(PO3)4
_symmetry_space_group_name_H-M   'P 1'
_cell_length_a   9.04457264
_cell_length_b   10.51286848
_cell_length_c   11.34082145
_cell_angle_alpha   106.68451696
_cell_angle_beta   90.00000000
_cell_angle_gamma   90.00000000
_symmetry_Int_Tables_number   1
_chemical_formula_structural   CsGd(PO3)4
_chemical_formula_sum   'Cs4 Gd4 P16 O48'
_cell_volume   1032.93744205
_cell_formula_units_Z   4
loop_
 _symmetry_equiv_pos_site_id
 _symmetry_equiv_pos_as_xyz
  1  'x, y, z'
loop_
 _atom_site_type_symbol
 _atom_site_label
 _atom_site_symmetry_multiplicity
 _atom_site_fract_x
 _atom_site_fract_y
 _atom_site_fract_z
 _atom_site_occupancy
  Cs  Cs0  1  0.56506028  0.68245116  0.46070316  1
  Cs  Cs1  1  0.43493972  0.31754884  0.53929684  1
  Cs  Cs2  1  0.93493972  0.18245116  0.96070316  1
  Cs  Cs3  1  0.06506028  0.81754884  0.03929684  1
  Gd  Gd4  1  0.22591551  0.99748118  0.68112013  1
  Gd  Gd5  1  0.77408449  0.00251882  0.31887987  1
  Gd  Gd6  1  0.27408449  0.49748118  0.18112013  1
  Gd  Gd7  1  0.72591551  0.50251882  0.81887987  1
  P  P8  1  0.67388771  0.46026156  0.13313938  1
  P  P9  1  0.10764289  0.67412738  0.47364073  1
  P  P10  1  0.17388771  0.03973844  0.36686062  1
  P  P11  1  0.97122301  0.74618215  0.71373308  1
  P  P12  1  0.60764289  0.82587262  0.02635927  1
  P  P13  1  0.40891824  0.85415573  0.24248942  1
  P  P14  1  0.82611229  0.96026156  0.63313938  1
  P  P15  1  0.89235711  0.32587262  0.52635927  1
  P  P16  1  0.32611229  0.53973844  0.86686062  1
  P  P17  1  0.09108176  0.35415573  0.74248942  1
  P  P18  1  0.02877699  0.25381785  0.28626692  1
  P  P19  1  0.59108176  0.14584427  0.75751058  1
  P  P20  1  0.90891824  0.64584427  0.25751058  1
  P  P21  1  0.47122301  0.75381785  0.78626692  1
  P  P22  1  0.52877699  0.24618215  0.21373308  1
  P  P23  1  0.39235711  0.17412738  0.97364073  1
  O  O24  1  0.04082455  0.59893316  0.17640460  1
  O  O25  1  0.20687344  0.47648522  0.75795003  1
  O  O26  1  0.34003967  0.68651520  0.84657261  1
  O  O27  1  0.21056076  0.56692306  0.40337302  1
  O  O28  1  0.53184127  0.53554575  0.16604613  1
  O  O29  1  0.75611122  0.94015381  0.50956614  1
  O  O30  1  0.58230891  0.64828490  0.72616462  1
  O  O31  1  0.04229758  0.63875768  0.59392145  1
  O  O32  1  0.33456334  0.31360639  0.01530276  1
  O  O33  1  0.71056076  0.93307694  0.09662698  1
  O  O34  1  0.65996033  0.31348480  0.15342739  1
  O  O35  1  0.45917545  0.09893316  0.67640460  1
  O  O36  1  0.15996033  0.18651520  0.34657261  1
  O  O37  1  0.45251074  0.83168024  0.10017615  1
  O  O38  1  0.66543666  0.68639361  0.98469724  1
  O  O39  1  0.82532510  0.76464645  0.24598811  1
  O  O40  1  0.70687344  0.02351478  0.74204997  1
  O  O41  1  0.16543666  0.81360639  0.51530276  1
  O  O42  1  0.90330211  0.66942011  0.79242832  1
  O  O43  1  0.09669789  0.33057989  0.20757168  1
  O  O44  1  0.79312656  0.52351478  0.24204997  1
  O  O45  1  0.54748926  0.16831976  0.89982385  1
  O  O46  1  0.54082455  0.90106684  0.32359540  1
  O  O47  1  0.84003967  0.81348480  0.65342739  1
  O  O48  1  0.46815873  0.46445425  0.83395387  1
  O  O49  1  0.95770242  0.36124232  0.40607855  1
  O  O50  1  0.04748926  0.33168024  0.60017615  1
  O  O51  1  0.95917545  0.40106684  0.82359540  1
  O  O52  1  0.03184127  0.96445425  0.33395387  1
  O  O53  1  0.91769109  0.14828490  0.22616462  1
  O  O54  1  0.24388878  0.05984619  0.49043386  1
  O  O55  1  0.40330211  0.83057989  0.70757168  1
  O  O56  1  0.78943924  0.43307694  0.59662698  1
  O  O57  1  0.83456334  0.18639361  0.48469724  1
  O  O58  1  0.17467490  0.23535355  0.75401189  1
  O  O59  1  0.08230891  0.85171510  0.77383538  1
  O  O60  1  0.74388878  0.44015381  0.00956614  1
  O  O61  1  0.25611122  0.55984619  0.99043386  1
  O  O62  1  0.29312656  0.97648522  0.25795003  1
  O  O63  1  0.28943924  0.06692306  0.90337302  1
  O  O64  1  0.95251074  0.66831976  0.39982385  1
  O  O65  1  0.67467490  0.26464645  0.74598811  1
  O  O66  1  0.54229758  0.86124232  0.90607855  1
  O  O67  1  0.45770242  0.13875768  0.09392145  1
  O  O68  1  0.32532510  0.73535355  0.25401189  1
  O  O69  1  0.41769109  0.35171510  0.27383538  1
  O  O70  1  0.96815873  0.03554575  0.66604613  1
  O  O71  1  0.59669789  0.16942011  0.29242832  1
