# generated using pymatgen
data_Cs2Np(SO5)2
_symmetry_space_group_name_H-M   'P 1'
_cell_length_a   9.15759983
_cell_length_b   11.04592331
_cell_length_c   12.03945803
_cell_angle_alpha   110.23254475
_cell_angle_beta   90.00000000
_cell_angle_gamma   90.00000000
_symmetry_Int_Tables_number   1
_chemical_formula_structural   Cs2Np(SO5)2
_chemical_formula_sum   'Cs8 Np4 S8 O40'
_cell_volume   1142.69632051
_cell_formula_units_Z   4
loop_
 _symmetry_equiv_pos_site_id
 _symmetry_equiv_pos_as_xyz
  1  'x, y, z'
loop_
 _atom_site_type_symbol
 _atom_site_label
 _atom_site_symmetry_multiplicity
 _atom_site_fract_x
 _atom_site_fract_y
 _atom_site_fract_z
 _atom_site_occupancy
  Cs  Cs0  1  0.07667870  0.46831220  0.19874846  1
  Cs  Cs1  1  0.57667870  0.03168780  0.30125154  1
  Cs  Cs2  1  0.40005025  0.72075101  0.93249859  1
  Cs  Cs3  1  0.90005025  0.77924899  0.56750141  1
  Cs  Cs4  1  0.92332130  0.53168780  0.80125154  1
  Cs  Cs5  1  0.59994975  0.27924899  0.06750141  1
  Cs  Cs6  1  0.09994975  0.22075101  0.43249859  1
  Cs  Cs7  1  0.42332130  0.96831220  0.69874846  1
  Np  Np8  1  0.50839934  0.63997441  0.35745906  1
  Np  Np9  1  0.99160066  0.13997441  0.85745906  1
  Np  Np10  1  0.00839934  0.86002559  0.14254094  1
  Np  Np11  1  0.49160066  0.36002559  0.64254094  1
  S  S12  1  0.25894673  0.58482799  0.56204919  1
  S  S13  1  0.81014788  0.15449329  0.63999853  1
  S  S14  1  0.74105327  0.41517201  0.43795081  1
  S  S15  1  0.24105327  0.08482799  0.06204919  1
  S  S16  1  0.18985212  0.84550671  0.36000147  1
  S  S17  1  0.31014788  0.34550671  0.86000147  1
  S  S18  1  0.68985212  0.65449329  0.13999853  1
  S  S19  1  0.75894673  0.91517201  0.93795081  1
  O  O20  1  0.64581490  0.94089250  0.02891735  1
  O  O21  1  0.14581490  0.55910750  0.47108265  1
  O  O22  1  0.79019882  0.76997129  0.17235026  1
  O  O23  1  0.79056807  0.33642282  0.31922987  1
  O  O24  1  0.03781555  0.79585298  0.32340384  1
  O  O25  1  0.70015965  0.57933783  0.01435171  1
  O  O26  1  0.22573822  0.92285597  0.28244614  1
  O  O27  1  0.56953575  0.51495762  0.72282913  1
  O  O28  1  0.88843775  0.84674748  0.97053704  1
  O  O29  1  0.58561161  0.79591463  0.43897636  1
  O  O30  1  0.08561161  0.70408537  0.06102364  1
  O  O31  1  0.20015965  0.92066217  0.48564829  1
  O  O32  1  0.53781555  0.70414702  0.17659616  1
  O  O33  1  0.29984035  0.42066217  0.98564829  1
  O  O34  1  0.96218445  0.20414702  0.67659616  1
  O  O35  1  0.79984035  0.07933783  0.51435171  1
  O  O36  1  0.20980118  0.23002871  0.82764974  1
  O  O37  1  0.41438839  0.20408537  0.56102364  1
  O  O38  1  0.27426178  0.42285597  0.78244614  1
  O  O39  1  0.18320785  0.95533290  0.06223411  1
  O  O40  1  0.85418510  0.44089250  0.52891735  1
  O  O41  1  0.68320785  0.54466710  0.43776589  1
  O  O42  1  0.77426178  0.07714403  0.71755386  1
  O  O43  1  0.72573822  0.57714403  0.21755386  1
  O  O44  1  0.70943193  0.83642282  0.81922987  1
  O  O45  1  0.06953575  0.98504238  0.77717087  1
  O  O46  1  0.20943193  0.66357718  0.68077013  1
  O  O47  1  0.61156225  0.34674748  0.47053704  1
  O  O48  1  0.81679215  0.04466710  0.93776589  1
  O  O49  1  0.43046425  0.48504238  0.27717087  1
  O  O50  1  0.29056807  0.16357718  0.18077013  1
  O  O51  1  0.29019882  0.73002871  0.32764974  1
  O  O52  1  0.93046425  0.01495762  0.22282913  1
  O  O53  1  0.11156225  0.15325252  0.02946296  1
  O  O54  1  0.70980118  0.26997129  0.67235026  1
  O  O55  1  0.35418510  0.05910750  0.97108265  1
  O  O56  1  0.38843775  0.65325252  0.52946296  1
  O  O57  1  0.46218445  0.29585298  0.82340384  1
  O  O58  1  0.91438839  0.29591463  0.93897636  1
  O  O59  1  0.31679215  0.45533290  0.56223411  1
