# generated using pymatgen
data_Y8Co5
_symmetry_space_group_name_H-M   'P 1'
_cell_length_a   7.04000791
_cell_length_b   7.18487261
_cell_length_c   23.66579692
_cell_angle_alpha   90.00000000
_cell_angle_beta   94.63611533
_cell_angle_gamma   90.00000000
_symmetry_Int_Tables_number   1
_chemical_formula_structural   Y8Co5
_chemical_formula_sum   'Y32 Co20'
_cell_volume   1193.13632306
_cell_formula_units_Z   4
loop_
 _symmetry_equiv_pos_site_id
 _symmetry_equiv_pos_as_xyz
  1  'x, y, z'
loop_
 _atom_site_type_symbol
 _atom_site_label
 _atom_site_symmetry_multiplicity
 _atom_site_fract_x
 _atom_site_fract_y
 _atom_site_fract_z
 _atom_site_occupancy
  Y  Y0  1  0.10726260  0.68284456  0.46285459  1
  Y  Y1  1  0.39273740  0.18284456  0.03714541  1
  Y  Y2  1  0.89273740  0.31715544  0.53714541  1
  Y  Y3  1  0.60726260  0.81715544  0.96285459  1
  Y  Y4  1  0.85314451  0.66670760  0.32271989  1
  Y  Y5  1  0.64685549  0.16670760  0.17728011  1
  Y  Y6  1  0.14685549  0.33329240  0.67728011  1
  Y  Y7  1  0.35314451  0.83329240  0.82271989  1
  Y  Y8  1  0.48580729  0.31572473  0.79761020  1
  Y  Y9  1  0.01419271  0.81572473  0.70238980  1
  Y  Y10  1  0.51419271  0.68427527  0.20238980  1
  Y  Y11  1  0.98580729  0.18427527  0.29761020  1
  Y  Y12  1  0.72778612  0.33515119  0.94129244  1
  Y  Y13  1  0.77221388  0.83515119  0.55870756  1
  Y  Y14  1  0.27221388  0.66484881  0.05870756  1
  Y  Y15  1  0.22778612  0.16484881  0.44129244  1
  Y  Y16  1  0.83538762  0.68644005  0.83455561  1
  Y  Y17  1  0.66461238  0.18644005  0.66544439  1
  Y  Y18  1  0.16461238  0.31355995  0.16544439  1
  Y  Y19  1  0.33538762  0.81355995  0.33455561  1
  Y  Y20  1  0.51418991  0.68781216  0.69627209  1
  Y  Y21  1  0.98581009  0.18781216  0.80372791  1
  Y  Y22  1  0.48581009  0.31218784  0.30372791  1
  Y  Y23  1  0.01418991  0.81218784  0.19627209  1
  Y  Y24  1  0.23072073  0.45967360  0.91510601  1
  Y  Y25  1  0.26927927  0.95967360  0.58489399  1
  Y  Y26  1  0.76927927  0.54032640  0.08489399  1
  Y  Y27  1  0.73072073  0.04032640  0.41510601  1
  Y  Y28  1  0.42395342  0.47781310  0.56457903  1
  Y  Y29  1  0.07604658  0.97781310  0.93542097  1
  Y  Y30  1  0.57604658  0.52218690  0.43542097  1
  Y  Y31  1  0.92395342  0.02218690  0.06457903  1
  Co  Co32  1  0.95725031  0.64611404  0.98321006  1
  Co  Co33  1  0.54274969  0.14611404  0.51678994  1
  Co  Co34  1  0.04274969  0.35388596  0.01678994  1
  Co  Co35  1  0.45725031  0.85388596  0.48321006  1
  Co  Co36  1  0.79940092  0.53280601  0.63213692  1
  Co  Co37  1  0.70059908  0.03280601  0.86786308  1
  Co  Co38  1  0.20059908  0.46719399  0.36786308  1
  Co  Co39  1  0.29940092  0.96719399  0.13213692  1
  Co  Co40  1  0.14244405  0.53084281  0.78226118  1
  Co  Co41  1  0.35755595  0.03084281  0.71773882  1
  Co  Co42  1  0.85755595  0.46915719  0.21773882  1
  Co  Co43  1  0.64244405  0.96915719  0.28226118  1
  Co  Co44  1  0.17090417  0.52754922  0.26543004  1
  Co  Co45  1  0.32909583  0.02754922  0.23456996  1
  Co  Co46  1  0.82909583  0.47245078  0.73456996  1
  Co  Co47  1  0.67090417  0.97245078  0.76543004  1
  Co  Co48  1  0.91379681  0.38218497  0.40434130  1
  Co  Co49  1  0.58620319  0.88218497  0.09565870  1
  Co  Co50  1  0.08620319  0.61781503  0.59565870  1
  Co  Co51  1  0.41379681  0.11781503  0.90434130  1
