# generated using pymatgen
data_CsBSe3
_symmetry_space_group_name_H-M   'P 1'
_cell_length_a   6.26587523
_cell_length_b   7.82474157
_cell_length_c   13.12753303
_cell_angle_alpha   90.00000000
_cell_angle_beta   90.00000000
_cell_angle_gamma   106.99607097
_symmetry_Int_Tables_number   1
_chemical_formula_structural   CsBSe3
_chemical_formula_sum   'Cs4 B4 Se12'
_cell_volume   615.51733045
_cell_formula_units_Z   4
loop_
 _symmetry_equiv_pos_site_id
 _symmetry_equiv_pos_as_xyz
  1  'x, y, z'
loop_
 _atom_site_type_symbol
 _atom_site_label
 _atom_site_symmetry_multiplicity
 _atom_site_fract_x
 _atom_site_fract_y
 _atom_site_fract_z
 _atom_site_occupancy
  Cs  Cs0  1  0.78655255  0.74001298  0.57752361  1
  Cs  Cs1  1  0.21344745  0.25998702  0.42247639  1
  Cs  Cs2  1  0.71344745  0.25998702  0.07752361  1
  Cs  Cs3  1  0.28655255  0.74001298  0.92247639  1
  B  B4  1  0.84379210  0.29431372  0.73124068  1
  B  B5  1  0.34379210  0.29431372  0.76875932  1
  B  B6  1  0.65620790  0.70568628  0.23124068  1
  B  B7  1  0.15620790  0.70568628  0.26875932  1
  Se  Se8  1  0.33824140  0.06655750  0.68299241  1
  Se  Se9  1  0.16403016  0.44687372  0.69696375  1
  Se  Se10  1  0.31597960  0.79898507  0.40327593  1
  Se  Se11  1  0.81597960  0.79898507  0.09672407  1
  Se  Se12  1  0.66403016  0.44687372  0.80303625  1
  Se  Se13  1  0.83824140  0.06655750  0.81700759  1
  Se  Se14  1  0.83596984  0.55312628  0.30303625  1
  Se  Se15  1  0.18402040  0.20101493  0.90327593  1
  Se  Se16  1  0.33596984  0.55312628  0.19696375  1
  Se  Se17  1  0.66175860  0.93344250  0.31700759  1
  Se  Se18  1  0.16175860  0.93344250  0.18299241  1
  Se  Se19  1  0.68402040  0.20101493  0.59672407  1
