# generated using pymatgen
data_KSr2Nb4FeO15
_symmetry_space_group_name_H-M   'P 1'
_cell_length_a   4.04172661
_cell_length_b   12.55347434
_cell_length_c   12.55347434
_cell_angle_alpha   90.00000000
_cell_angle_beta   90.00000000
_cell_angle_gamma   90.00000000
_symmetry_Int_Tables_number   1
_chemical_formula_structural   KSr2Nb4FeO15
_chemical_formula_sum   'K2 Sr4 Nb8 Fe2 O30'
_cell_volume   636.93455672
_cell_formula_units_Z   2
loop_
 _symmetry_equiv_pos_site_id
 _symmetry_equiv_pos_as_xyz
  1  'x, y, z'
loop_
 _atom_site_type_symbol
 _atom_site_label
 _atom_site_symmetry_multiplicity
 _atom_site_fract_x
 _atom_site_fract_y
 _atom_site_fract_z
 _atom_site_occupancy
  K  K0  1  0.98700845  0.50000000  0.50000000  1
  K  K1  1  0.98700845  0.00000000  -0.00000000  1
  Sr  Sr2  1  0.99305433  0.85474421  0.35474421  1
  Sr  Sr3  1  0.99305433  0.14525579  0.64525579  1
  Sr  Sr4  1  0.99305433  0.64525579  0.85474421  1
  Sr  Sr5  1  0.99305433  0.35474421  0.14525579  1
  Nb  Nb6  1  0.46761936  0.28921511  0.42105618  1
  Nb  Nb7  1  0.46761936  0.71078489  0.57894382  1
  Nb  Nb8  1  0.46761936  0.21078489  0.92105618  1
  Nb  Nb9  1  0.46761936  0.78921511  0.07894382  1
  Nb  Nb10  1  0.46761936  0.42105618  0.71078489  1
  Nb  Nb11  1  0.46761936  0.57894382  0.28921511  1
  Nb  Nb12  1  0.46761936  0.92105618  0.78921511  1
  Nb  Nb13  1  0.46761936  0.07894382  0.21078489  1
  Fe  Fe14  1  0.50169628  0.00000000  0.50000000  1
  Fe  Fe15  1  0.50169628  0.50000000  -0.00000000  1
  O  O16  1  0.51356113  0.72208843  0.22208843  1
  O  O17  1  0.51356113  0.27791157  0.77791157  1
  O  O18  1  0.51356113  0.77791157  0.72208843  1
  O  O19  1  0.51356113  0.22208843  0.27791157  1
  O  O20  1  0.51056900  0.42950647  0.35570336  1
  O  O21  1  0.51056900  0.57049353  0.64429664  1
  O  O22  1  0.51056900  0.07049353  0.85570336  1
  O  O23  1  0.51056900  0.92950647  0.14429664  1
  O  O24  1  0.51056900  0.35570336  0.57049353  1
  O  O25  1  0.51056900  0.64429664  0.42950647  1
  O  O26  1  0.51056900  0.85570336  0.92950647  1
  O  O27  1  0.51056900  0.14429664  0.07049353  1
  O  O28  1  0.00836016  0.00000000  0.50000000  1
  O  O29  1  0.00836016  0.50000000  -0.00000000  1
  O  O30  1  0.50874138  0.49251088  0.14946546  1
  O  O31  1  0.50874138  0.50748912  0.85053454  1
  O  O32  1  0.50874138  0.00748912  0.64946546  1
  O  O33  1  0.50874138  0.99251088  0.35053454  1
  O  O34  1  0.50874138  0.14946546  0.50748912  1
  O  O35  1  0.50874138  0.85053454  0.49251088  1
  O  O36  1  0.50874138  0.64946546  0.99251088  1
  O  O37  1  0.50874138  0.35053454  0.00748912  1
  O  O38  1  0.00749631  0.28667961  0.42920805  1
  O  O39  1  0.00749631  0.71332039  0.57079195  1
  O  O40  1  0.00749631  0.21332039  0.92920805  1
  O  O41  1  0.00749631  0.78667961  0.07079195  1
  O  O42  1  0.00749631  0.42920805  0.71332039  1
  O  O43  1  0.00749631  0.57079195  0.28667961  1
  O  O44  1  0.00749631  0.92920805  0.78667961  1
  O  O45  1  0.00749631  0.07079195  0.21332039  1
