# generated using pymatgen
data_Li17Sn4
_symmetry_space_group_name_H-M   'P 1'
_cell_length_a   13.90427769
_cell_length_b   13.90427758
_cell_length_c   13.90427700
_cell_angle_alpha   59.99999899
_cell_angle_beta   59.99999926
_cell_angle_gamma   60.00000062
_symmetry_Int_Tables_number   1
_chemical_formula_structural   Li17Sn4
_chemical_formula_sum   'Li85 Sn20'
_cell_volume   1900.77307542
_cell_formula_units_Z   5
loop_
 _symmetry_equiv_pos_site_id
 _symmetry_equiv_pos_as_xyz
  1  'x, y, z'
loop_
 _atom_site_type_symbol
 _atom_site_label
 _atom_site_symmetry_multiplicity
 _atom_site_fract_x
 _atom_site_fract_y
 _atom_site_fract_z
 _atom_site_occupancy
  Li  Li0  1  0.57618181  0.92381819  0.57618181  1
  Li  Li1  1  0.58139314  0.94245033  0.23807826  1
  Li  Li2  1  0.92381819  0.57618181  0.92381819  1
  Li  Li3  1  0.17123726  0.17123726  0.82876274  1
  Li  Li4  1  0.99272153  0.68086009  0.33369686  1
  Li  Li5  1  0.44406245  0.44406245  0.44406245  1
  Li  Li6  1  0.92553758  0.22338726  0.92553758  1
  Li  Li7  1  0.99272153  0.68086009  0.99272153  1
  Li  Li8  1  0.48179359  0.17273547  0.17273547  1
  Li  Li9  1  0.48129451  0.82668372  0.21072727  1
  Li  Li10  1  0.07999710  0.73440639  0.45119011  1
  Li  Li11  1  0.58280999  0.58280999  0.58280999  1
  Li  Li12  1  0.73440639  0.07999710  0.73440639  1
  Li  Li13  1  0.17273547  0.48179359  0.17273547  1
  Li  Li14  1  0.68086009  0.33369686  0.99272153  1
  Li  Li15  1  0.17123726  0.82876274  0.17123726  1
  Li  Li16  1  0.48129451  0.82668372  0.48129451  1
  Li  Li17  1  0.82668372  0.21072727  0.48129451  1
  Li  Li18  1  0.48129451  0.21072727  0.48129451  1
  Li  Li19  1  0.69676022  0.90971933  0.69676022  1
  Li  Li20  1  0.58280999  0.25157002  0.58280999  1
  Li  Li21  1  0.82876274  0.17123726  0.17123726  1
  Li  Li22  1  0.48129451  0.48129451  0.21072727  1
  Li  Li23  1  0.57618181  0.57618181  0.92381819  1
  Li  Li24  1  0.68086009  0.99272153  0.99272153  1
  Li  Li25  1  0.17273547  0.17273547  0.48179359  1
  Li  Li26  1  0.23807826  0.58139314  0.94245033  1
  Li  Li27  1  0.31802283  0.31802283  0.04593151  1
  Li  Li28  1  0.33369686  0.99272153  0.68086009  1
  Li  Li29  1  0.58139314  0.23807826  0.94245033  1
  Li  Li30  1  0.58139314  0.23807826  0.23807826  1
  Li  Li31  1  0.22338726  0.92553758  0.92553758  1
  Li  Li32  1  0.31802283  0.31802283  0.31802283  1
  Li  Li33  1  0.73440639  0.45119011  0.07999710  1
  Li  Li34  1  0.69676022  0.69676022  0.90971933  1
  Li  Li35  1  0.17273547  0.17273547  0.17273547  1
  Li  Li36  1  0.82876274  0.17123726  0.82876274  1
  Li  Li37  1  0.99272153  0.99272153  0.68086009  1
  Li  Li38  1  0.92381819  0.57618181  0.57618181  1
  Li  Li39  1  0.57618181  0.92381819  0.92381819  1
  Li  Li40  1  0.92553758  0.92553758  0.92553758  1
  Li  Li41  1  0.66781266  0.44406245  0.44406245  1
  Li  Li42  1  0.07999710  0.73440639  0.73440639  1
  Li  Li43  1  0.23807826  0.23807826  0.58139314  1
  Li  Li44  1  0.58280999  0.58280999  0.25157002  1
  Li  Li45  1  0.94245033  0.23807826  0.23807826  1
  Li  Li46  1  0.73440639  0.07999710  0.45119011  1
  Li  Li47  1  0.99272153  0.33369686  0.99272153  1
  Li  Li48  1  0.82668372  0.48129451  0.21072727  1
  Li  Li49  1  0.44406245  0.66781266  0.44406245  1
  Li  Li50  1  0.82668372  0.48129451  0.48129451  1
  Li  Li51  1  0.69676022  0.69676022  0.69676022  1
  Li  Li52  1  0.44406245  0.44406245  0.66781266  1
  Li  Li53  1  0.25157002  0.58280999  0.58280999  1
  Li  Li54  1  0.23807826  0.94245033  0.58139314  1
  Li  Li55  1  0.33369686  0.68086009  0.99272153  1
  Li  Li56  1  0.45119011  0.07999710  0.73440639  1
  Li  Li57  1  0.33369686  0.99272153  0.99272153  1
  Li  Li58  1  0.07999710  0.45119011  0.73440639  1
  Li  Li59  1  0.21072727  0.48129451  0.48129451  1
  Li  Li60  1  0.45119011  0.73440639  0.07999710  1
  Li  Li61  1  0.48129451  0.48129451  0.82668372  1
  Li  Li62  1  0.73440639  0.73440639  0.45119011  1
  Li  Li63  1  0.23807826  0.94245033  0.23807826  1
  Li  Li64  1  0.48129451  0.21072727  0.82668372  1
  Li  Li65  1  0.92381819  0.92381819  0.57618181  1
  Li  Li66  1  0.92553758  0.92553758  0.22338726  1
  Li  Li67  1  0.94245033  0.23807826  0.58139314  1
  Li  Li68  1  0.31802283  0.04593151  0.31802283  1
  Li  Li69  1  0.45119011  0.73440639  0.73440639  1
  Li  Li70  1  0.73440639  0.73440639  0.07999710  1
  Li  Li71  1  0.17123726  0.82876274  0.82876274  1
  Li  Li72  1  0.68086009  0.99272153  0.33369686  1
  Li  Li73  1  0.23807826  0.58139314  0.23807826  1
  Li  Li74  1  0.90971933  0.69676022  0.69676022  1
  Li  Li75  1  0.00000000  0.00000000  0.00000000  1
  Li  Li76  1  0.21072727  0.48129451  0.82668372  1
  Li  Li77  1  0.99272153  0.99272153  0.33369686  1
  Li  Li78  1  0.21072727  0.82668372  0.48129451  1
  Li  Li79  1  0.82876274  0.82876274  0.17123726  1
  Li  Li80  1  0.04593151  0.31802283  0.31802283  1
  Li  Li81  1  0.73440639  0.45119011  0.73440639  1
  Li  Li82  1  0.99272153  0.33369686  0.68086009  1
  Li  Li83  1  0.23807826  0.23807826  0.94245033  1
  Li  Li84  1  0.94245033  0.58139314  0.23807826  1
  Sn  Sn85  1  0.83988078  0.83988078  0.83988078  1
  Sn  Sn86  1  0.32082015  0.67917985  0.32082015  1
  Sn  Sn87  1  0.83988078  0.48035766  0.83988078  1
  Sn  Sn88  1  0.74902827  0.08365724  0.08365724  1
  Sn  Sn89  1  0.07022635  0.07022635  0.42977365  1
  Sn  Sn90  1  0.07022635  0.42977365  0.42977365  1
  Sn  Sn91  1  0.32082015  0.32082015  0.67917985  1
  Sn  Sn92  1  0.32082015  0.67917985  0.67917985  1
  Sn  Sn93  1  0.42977365  0.07022635  0.07022635  1
  Sn  Sn94  1  0.67917985  0.32082015  0.67917985  1
  Sn  Sn95  1  0.08365724  0.74902827  0.08365724  1
  Sn  Sn96  1  0.08365724  0.08365724  0.08365724  1
  Sn  Sn97  1  0.48035766  0.83988078  0.83988078  1
  Sn  Sn98  1  0.67917985  0.32082015  0.32082015  1
  Sn  Sn99  1  0.67917985  0.67917985  0.32082015  1
  Sn  Sn100  1  0.83988078  0.83988078  0.48035766  1
  Sn  Sn101  1  0.08365724  0.08365724  0.74902827  1
  Sn  Sn102  1  0.42977365  0.42977365  0.07022635  1
  Sn  Sn103  1  0.07022635  0.42977365  0.07022635  1
  Sn  Sn104  1  0.42977365  0.07022635  0.42977365  1
