# generated using pymatgen
data_CsNb3SBr7
_symmetry_space_group_name_H-M   'P 1'
_cell_length_a   7.16060430
_cell_length_b   10.37701015
_cell_length_c   19.57216153
_cell_angle_alpha   90.00000000
_cell_angle_beta   90.00000000
_cell_angle_gamma   97.68885823
_symmetry_Int_Tables_number   1
_chemical_formula_structural   CsNb3SBr7
_chemical_formula_sum   'Cs4 Nb12 S4 Br28'
_cell_volume   1441.24697838
_cell_formula_units_Z   4
loop_
 _symmetry_equiv_pos_site_id
 _symmetry_equiv_pos_as_xyz
  1  'x, y, z'
loop_
 _atom_site_type_symbol
 _atom_site_label
 _atom_site_symmetry_multiplicity
 _atom_site_fract_x
 _atom_site_fract_y
 _atom_site_fract_z
 _atom_site_occupancy
  Cs  Cs0  1  0.23127816  0.88459976  0.59479813  1
  Cs  Cs1  1  0.73127816  0.88459976  0.90520187  1
  Cs  Cs2  1  0.26872184  0.11540024  0.09479813  1
  Cs  Cs3  1  0.76872184  0.11540024  0.40520187  1
  Nb  Nb4  1  0.86528409  0.57874701  0.17231455  1
  Nb  Nb5  1  0.96258363  0.57922674  0.32771971  1
  Nb  Nb6  1  0.53741637  0.42077326  0.82771971  1
  Nb  Nb7  1  0.36528409  0.57874701  0.32768545  1
  Nb  Nb8  1  0.78689720  0.17458886  0.66987374  1
  Nb  Nb9  1  0.21310280  0.82541114  0.33012626  1
  Nb  Nb10  1  0.63471591  0.42125299  0.67231455  1
  Nb  Nb11  1  0.28689720  0.17458886  0.83012626  1
  Nb  Nb12  1  0.13471591  0.42125299  0.82768545  1
  Nb  Nb13  1  0.71310280  0.82541114  0.16987374  1
  Nb  Nb14  1  0.46258363  0.57922674  0.17228029  1
  Nb  Nb15  1  0.03741637  0.42077326  0.67228029  1
  S  S16  1  0.18251463  0.67325957  0.23768462  1
  S  S17  1  0.31748537  0.32674043  0.73768462  1
  S  S18  1  0.68251463  0.67325957  0.26231538  1
  S  S19  1  0.81748537  0.32674043  0.76231538  1
  Br  Br20  1  0.98906885  0.95642459  0.24991687  1
  Br  Br21  1  0.86235289  0.55523339  0.58603640  1
  Br  Br22  1  0.48906885  0.95642459  0.25008313  1
  Br  Br23  1  0.05062321  0.24077523  0.92056836  1
  Br  Br24  1  0.25913006  0.05725902  0.40142908  1
  Br  Br25  1  0.05020943  0.23899277  0.57986077  1
  Br  Br26  1  0.75913006  0.05725902  0.09857092  1
  Br  Br27  1  0.87469197  0.36914373  0.24983020  1
  Br  Br28  1  0.51093115  0.04357541  0.74991687  1
  Br  Br29  1  0.74086994  0.94274098  0.59857092  1
  Br  Br30  1  0.36235289  0.55523339  0.91396360  1
  Br  Br31  1  0.44937679  0.75922477  0.42056836  1
  Br  Br32  1  0.01093115  0.04357541  0.75008313  1
  Br  Br33  1  0.94937679  0.75922477  0.07943164  1
  Br  Br34  1  0.13764711  0.44476661  0.41396360  1
  Br  Br35  1  0.63764711  0.44476661  0.08603640  1
  Br  Br36  1  0.24086994  0.94274098  0.90142908  1
  Br  Br37  1  0.12530803  0.63085627  0.75016980  1
  Br  Br38  1  0.44979057  0.76100723  0.07986077  1
  Br  Br39  1  0.85745073  0.53351150  0.89899565  1
  Br  Br40  1  0.94979057  0.76100723  0.42013923  1
  Br  Br41  1  0.37469197  0.36914373  0.25016980  1
  Br  Br42  1  0.55062321  0.24077523  0.57943164  1
  Br  Br43  1  0.14254927  0.46648850  0.10100435  1
  Br  Br44  1  0.64254927  0.46648850  0.39899565  1
  Br  Br45  1  0.62530803  0.63085627  0.74983020  1
  Br  Br46  1  0.35745073  0.53351150  0.60100435  1
  Br  Br47  1  0.55020943  0.23899277  0.92013923  1
