# generated using pymatgen
data_Nb2Se17Cl12
_symmetry_space_group_name_H-M   'P 1'
_cell_length_a   11.98650546
_cell_length_b   13.79868074
_cell_length_c   13.88599707
_cell_angle_alpha   111.19191415
_cell_angle_beta   99.42492938
_cell_angle_gamma   99.59816305
_symmetry_Int_Tables_number   1
_chemical_formula_structural   Nb2Se17Cl12
_chemical_formula_sum   'Nb4 Se34 Cl24'
_cell_volume   2047.77064738
_cell_formula_units_Z   2
loop_
 _symmetry_equiv_pos_site_id
 _symmetry_equiv_pos_as_xyz
  1  'x, y, z'
loop_
 _atom_site_type_symbol
 _atom_site_label
 _atom_site_symmetry_multiplicity
 _atom_site_fract_x
 _atom_site_fract_y
 _atom_site_fract_z
 _atom_site_occupancy
  Nb  Nb0  1  0.31340711  0.72924974  0.52185860  1
  Nb  Nb1  1  0.68659289  0.27075026  0.47814140  1
  Nb  Nb2  1  0.83497422  0.71715523  0.99720357  1
  Nb  Nb3  1  0.16502578  0.28284477  0.00279643  1
  Se  Se4  1  0.47851718  0.83246863  0.98410393  1
  Se  Se5  1  0.11967651  0.39820205  0.66175584  1
  Se  Se6  1  0.73481363  0.10183359  0.78073482  1
  Se  Se7  1  0.68999799  0.62476201  0.35075819  1
  Se  Se8  1  0.32065131  0.90637848  0.96614140  1
  Se  Se9  1  0.12204238  0.30644195  0.37819267  1
  Se  Se10  1  0.18756805  0.62762778  0.92244159  1
  Se  Se11  1  0.81243195  0.37237222  0.07755841  1
  Se  Se12  1  0.39299885  0.64895498  0.96434138  1
  Se  Se13  1  0.04036689  0.04270587  0.39973683  1
  Se  Se14  1  0.15218429  0.58589947  0.73800903  1
  Se  Se15  1  0.44414349  0.84380587  0.25136560  1
  Se  Se16  1  0.55585651  0.15619413  0.74863440  1
  Se  Se17  1  0.67934869  0.09362152  0.03385860  1
  Se  Se18  1  0.95963311  0.95729413  0.60026317  1
  Se  Se19  1  0.67348840  0.98120583  0.85452607  1
  Se  Se20  1  0.74692071  0.80787250  0.34166643  1
  Se  Se21  1  0.23885422  0.07082332  0.49047973  1
  Se  Se22  1  0.07062934  0.11787800  0.27682782  1
  Se  Se23  1  0.61285966  0.33605237  0.84681168  1
  Se  Se24  1  0.76114578  0.92917668  0.50952027  1
  Se  Se25  1  0.84781571  0.41410053  0.26199097  1
  Se  Se26  1  0.52148282  0.16753137  0.01589607  1
  Se  Se27  1  0.31583697  0.33993055  0.46385950  1
  Se  Se28  1  0.31000201  0.37523799  0.64924181  1
  Se  Se29  1  0.88032349  0.60179795  0.33824416  1
  Se  Se30  1  0.25307929  0.19212750  0.65833357  1
  Se  Se31  1  0.87795762  0.69355805  0.62180733  1
  Se  Se32  1  0.92937066  0.88212200  0.72317218  1
  Se  Se33  1  0.38714034  0.66394763  0.15318832  1
  Se  Se34  1  0.60700115  0.35104502  0.03565862  1
  Se  Se35  1  0.68416303  0.66006945  0.53614050  1
  Se  Se36  1  0.26518637  0.89816641  0.21926518  1
  Se  Se37  1  0.32651160  0.01879417  0.14547393  1
  Cl  Cl38  1  0.03075075  0.27729465  0.85496022  1
  Cl  Cl39  1  0.31952446  0.38851203  0.95932820  1
  Cl  Cl40  1  0.30977743  0.29565457  0.14937891  1
  Cl  Cl41  1  0.76025510  0.15743160  0.34298369  1
  Cl  Cl42  1  0.02172235  0.17483723  0.04418528  1
  Cl  Cl43  1  0.23974490  0.84256840  0.65701631  1
  Cl  Cl44  1  0.97827765  0.82516277  0.95581472  1
  Cl  Cl45  1  0.69022257  0.70434543  0.85062109  1
  Cl  Cl46  1  0.39291196  0.61439716  0.38814169  1
  Cl  Cl47  1  0.60708804  0.38560284  0.61185831  1
  Cl  Cl48  1  0.15663407  0.57990171  0.49362317  1
  Cl  Cl49  1  0.78892266  0.87561835  0.11042242  1
  Cl  Cl50  1  0.21107734  0.12438165  0.88957758  1
  Cl  Cl51  1  0.87954478  0.55847988  0.88800888  1
  Cl  Cl52  1  0.96924925  0.72270535  0.14503978  1
  Cl  Cl53  1  0.12045522  0.44152012  0.11199112  1
  Cl  Cl54  1  0.57028380  0.31288190  0.35044759  1
  Cl  Cl55  1  0.46275566  0.87901892  0.54714242  1
  Cl  Cl56  1  0.68047554  0.61148797  0.04067180  1
  Cl  Cl57  1  0.19179024  0.75918916  0.38672675  1
  Cl  Cl58  1  0.80820976  0.24081084  0.61327325  1
  Cl  Cl59  1  0.84336593  0.42009829  0.50637683  1
  Cl  Cl60  1  0.53724434  0.12098108  0.45285758  1
  Cl  Cl61  1  0.42971620  0.68711810  0.64955241  1
