# generated using pymatgen
data_K2LiTaCl6
_symmetry_space_group_name_H-M   'P 1'
_cell_length_a   7.12958784
_cell_length_b   7.12759942
_cell_length_c   7.13364533
_cell_angle_alpha   59.98150390
_cell_angle_beta   59.96982957
_cell_angle_gamma   60.05095323
_symmetry_Int_Tables_number   1
_chemical_formula_structural   K2LiTaCl6
_chemical_formula_sum   'K2 Li1 Ta1 Cl6'
_cell_volume   256.33695421
_cell_formula_units_Z   1
loop_
 _symmetry_equiv_pos_site_id
 _symmetry_equiv_pos_as_xyz
  1  'x, y, z'
loop_
 _atom_site_type_symbol
 _atom_site_label
 _atom_site_symmetry_multiplicity
 _atom_site_fract_x
 _atom_site_fract_y
 _atom_site_fract_z
 _atom_site_occupancy
  K  K0  1  0.24998214  0.25001033  0.25000944  1
  K  K1  1  0.75001785  0.74998969  0.74999057  1
  Li  Li2  1  0.50000000  0.50000000  0.50000000  1
  Ta  Ta3  1  -0.00000000  0.00000000  0.00000000  1
  Cl  Cl4  1  0.24556983  0.75440020  0.24561871  1
  Cl  Cl5  1  0.75406887  0.75401699  0.24596164  1
  Cl  Cl6  1  0.75443020  0.24559979  0.75438127  1
  Cl  Cl7  1  0.75436395  0.24566081  0.24565515  1
  Cl  Cl8  1  0.24563603  0.75433918  0.75434485  1
  Cl  Cl9  1  0.24593113  0.24598300  0.75403837  1
