# generated using pymatgen
data_K2TcI6
_symmetry_space_group_name_H-M   'P 1'
_cell_length_a   8.00736651
_cell_length_b   8.06790796
_cell_length_c   11.65005194
_cell_angle_alpha   90.00000000
_cell_angle_beta   90.48492421
_cell_angle_gamma   90.00000000
_symmetry_Int_Tables_number   1
_chemical_formula_structural   K2TcI6
_chemical_formula_sum   'K4 Tc2 I12'
_cell_volume   752.59780816
_cell_formula_units_Z   2
loop_
 _symmetry_equiv_pos_site_id
 _symmetry_equiv_pos_as_xyz
  1  'x, y, z'
loop_
 _atom_site_type_symbol
 _atom_site_label
 _atom_site_symmetry_multiplicity
 _atom_site_fract_x
 _atom_site_fract_y
 _atom_site_fract_z
 _atom_site_occupancy
  K  K0  1  0.01471846  0.45687634  0.74898941  1
  K  K1  1  0.48528154  0.95687634  0.75101059  1
  K  K2  1  0.51471846  0.04312366  0.24898941  1
  K  K3  1  0.98528154  0.54312366  0.25101059  1
  Tc  Tc4  1  0.00000000  0.00000000  0.00000000  1
  Tc  Tc5  1  0.50000000  0.50000000  0.50000000  1
  I  I6  1  0.72172975  0.80184483  0.02608701  1
  I  I7  1  0.54978531  0.49880547  0.73434699  1
  I  I8  1  0.45021469  0.50119453  0.26565301  1
  I  I9  1  0.80344283  0.27926725  0.01954523  1
  I  I10  1  0.77827025  0.30184483  0.47391299  1
  I  I11  1  0.30344283  0.22073275  0.51954523  1
  I  I12  1  0.27827025  0.19815517  0.97391299  1
  I  I13  1  0.69655717  0.77926725  0.48045477  1
  I  I14  1  0.19655717  0.72073275  0.98045477  1
  I  I15  1  0.95021469  0.99880547  0.76565301  1
  I  I16  1  0.04978531  0.00119453  0.23434699  1
  I  I17  1  0.22172975  0.69815517  0.52608701  1
