# generated using pymatgen
data_CsSb
_symmetry_space_group_name_H-M   'P 1'
_cell_length_a   7.55911548
_cell_length_b   7.78656706
_cell_length_c   13.49537598
_cell_angle_alpha   90.00000000
_cell_angle_beta   90.00000000
_cell_angle_gamma   90.00000000
_symmetry_Int_Tables_number   1
_chemical_formula_structural   CsSb
_chemical_formula_sum   'Cs8 Sb8'
_cell_volume   794.33188681
_cell_formula_units_Z   8
loop_
 _symmetry_equiv_pos_site_id
 _symmetry_equiv_pos_as_xyz
  1  'x, y, z'
loop_
 _atom_site_type_symbol
 _atom_site_label
 _atom_site_symmetry_multiplicity
 _atom_site_fract_x
 _atom_site_fract_y
 _atom_site_fract_z
 _atom_site_occupancy
  Cs  Cs0  1  0.84283540  0.14456654  0.83342041  1
  Cs  Cs1  1  0.07594307  0.58646522  0.96681912  1
  Cs  Cs2  1  0.65716460  0.64456654  0.16657959  1
  Cs  Cs3  1  0.57594307  0.41353478  0.53318088  1
  Cs  Cs4  1  0.34283540  0.85543346  0.66657959  1
  Cs  Cs5  1  0.15716460  0.35543346  0.33342041  1
  Cs  Cs6  1  0.42405693  0.08646522  0.03318088  1
  Cs  Cs7  1  0.92405693  0.91353478  0.46681912  1
  Sb  Sb8  1  0.83925232  0.68401893  0.71949827  1
  Sb  Sb9  1  0.33925232  0.31598107  0.78050173  1
  Sb  Sb10  1  0.92598881  0.07403739  0.13701216  1
  Sb  Sb11  1  0.66074768  0.18401893  0.28050173  1
  Sb  Sb12  1  0.57401119  0.57403739  0.86298784  1
  Sb  Sb13  1  0.07401119  0.42596261  0.63701216  1
  Sb  Sb14  1  0.16074768  0.81598107  0.21949827  1
  Sb  Sb15  1  0.42598881  0.92596261  0.36298784  1
