# generated using pymatgen
data_Cs3As7
_symmetry_space_group_name_H-M   'P 1'
_cell_length_a   10.46720361
_cell_length_b   13.53492436
_cell_length_c   22.63386876
_cell_angle_alpha   90.00000000
_cell_angle_beta   90.00000000
_cell_angle_gamma   90.00000000
_symmetry_Int_Tables_number   1
_chemical_formula_structural   Cs3As7
_chemical_formula_sum   'Cs24 As56'
_cell_volume   3206.60376853
_cell_formula_units_Z   8
loop_
 _symmetry_equiv_pos_site_id
 _symmetry_equiv_pos_as_xyz
  1  'x, y, z'
loop_
 _atom_site_type_symbol
 _atom_site_label
 _atom_site_symmetry_multiplicity
 _atom_site_fract_x
 _atom_site_fract_y
 _atom_site_fract_z
 _atom_site_occupancy
  Cs  Cs0  1  0.69646771  0.97286620  0.73087287  1
  Cs  Cs1  1  0.30353229  0.47286620  0.76912713  1
  Cs  Cs2  1  0.40027446  0.22643978  0.62095433  1
  Cs  Cs3  1  0.19646771  0.52713380  0.26912713  1
  Cs  Cs4  1  0.23512840  0.95006618  0.47842908  1
  Cs  Cs5  1  0.26487160  0.45006618  0.47842908  1
  Cs  Cs6  1  0.90027446  0.22643978  0.87904567  1
  Cs  Cs7  1  0.59972554  0.72643978  0.87904567  1
  Cs  Cs8  1  0.30353229  0.02713380  0.26912713  1
  Cs  Cs9  1  0.76487160  0.45006618  0.02157092  1
  Cs  Cs10  1  0.26487160  0.04993382  0.97842908  1
  Cs  Cs11  1  0.69646771  0.52713380  0.23087287  1
  Cs  Cs12  1  0.80353229  0.47286620  0.73087287  1
  Cs  Cs13  1  0.09972554  0.77356022  0.12095433  1
  Cs  Cs14  1  0.40027446  0.27356022  0.12095433  1
  Cs  Cs15  1  0.90027446  0.27356022  0.37904567  1
  Cs  Cs16  1  0.59972554  0.77356022  0.37904567  1
  Cs  Cs17  1  0.19646771  0.97286620  0.76912713  1
  Cs  Cs18  1  0.73512840  0.95006618  0.02157092  1
  Cs  Cs19  1  0.09972554  0.72643978  0.62095433  1
  Cs  Cs20  1  0.80353229  0.02713380  0.23087287  1
  Cs  Cs21  1  0.23512840  0.54993382  0.97842908  1
  Cs  Cs22  1  0.73512840  0.54993382  0.52157092  1
  Cs  Cs23  1  0.76487160  0.04993382  0.52157092  1
  As  As24  1  0.59168183  0.08983514  0.36624778  1
  As  As25  1  0.92073717  0.82125002  0.45645605  1
  As  As26  1  0.03234629  0.83649376  0.94761787  1
  As  As27  1  0.23239550  0.70580314  0.39726938  1
  As  As28  1  0.40831817  0.91016486  0.63375222  1
  As  As29  1  0.57926283  0.17874998  0.95645605  1
  As  As30  1  0.05366057  0.37848233  0.14262451  1
  As  As31  1  0.85421848  0.20350895  0.68362559  1
  As  As32  1  0.44633943  0.87848233  0.14262451  1
  As  As33  1  0.42689704  0.77995757  0.70501036  1
  As  As34  1  0.94633943  0.87848233  0.35737549  1
  As  As35  1  0.64578152  0.79649105  0.18362559  1
  As  As36  1  0.57310296  0.27995757  0.79498964  1
  As  As37  1  0.76760450  0.20580314  0.10273062  1
  As  As38  1  0.07310296  0.22004243  0.20501036  1
  As  As39  1  0.44633943  0.62151767  0.64262451  1
  As  As40  1  0.92689704  0.72004243  0.29498964  1
  As  As41  1  0.90831817  0.91016486  0.86624778  1
  As  As42  1  0.14578152  0.79649105  0.31637441  1
  As  As43  1  0.64578152  0.70350895  0.68362559  1
  As  As44  1  0.14578152  0.70350895  0.81637441  1
  As  As45  1  0.07926283  0.17874998  0.54354395  1
  As  As46  1  0.53234629  0.83649376  0.55238213  1
  As  As47  1  0.73239550  0.70580314  0.10273062  1
  As  As48  1  0.94633943  0.62151767  0.85737549  1
  As  As49  1  0.96765371  0.33649376  0.55238213  1
  As  As50  1  0.05366057  0.12151767  0.64262451  1
  As  As51  1  0.09168183  0.41016486  0.63375222  1
  As  As52  1  0.59168183  0.41016486  0.86624778  1
  As  As53  1  0.73239550  0.79419686  0.60273062  1
  As  As54  1  0.03234629  0.66350624  0.44761787  1
  As  As55  1  0.07926283  0.32125002  0.04354395  1
  As  As56  1  0.42073717  0.82125002  0.04354395  1
  As  As57  1  0.35421848  0.20350895  0.81637441  1
  As  As58  1  0.96765371  0.16350624  0.05238213  1
  As  As59  1  0.40831817  0.58983514  0.13375222  1
  As  As60  1  0.46765371  0.16350624  0.44761787  1
  As  As61  1  0.07310296  0.27995757  0.70501036  1
  As  As62  1  0.55366057  0.37848233  0.35737549  1
  As  As63  1  0.85421848  0.29649105  0.18362559  1
  As  As64  1  0.42689704  0.72004243  0.20501036  1
  As  As65  1  0.76760450  0.29419686  0.60273062  1
  As  As66  1  0.57310296  0.22004243  0.29498964  1
  As  As67  1  0.55366057  0.12151767  0.85737549  1
  As  As68  1  0.09168183  0.08983514  0.13375222  1
  As  As69  1  0.23239550  0.79419686  0.89726938  1
  As  As70  1  0.42073717  0.67874998  0.54354395  1
  As  As71  1  0.26760450  0.29419686  0.89726938  1
  As  As72  1  0.26760450  0.20580314  0.39726938  1
  As  As73  1  0.92689704  0.77995757  0.79498964  1
  As  As74  1  0.90831817  0.58983514  0.36624778  1
  As  As75  1  0.53234629  0.66350624  0.05238213  1
  As  As76  1  0.46765371  0.33649376  0.94761787  1
  As  As77  1  0.92073717  0.67874998  0.95645605  1
  As  As78  1  0.57926283  0.32125002  0.45645605  1
  As  As79  1  0.35421848  0.29649105  0.31637441  1
