# generated using pymatgen
data_Na2TeSe3
_symmetry_space_group_name_H-M   'P 1'
_cell_length_a   6.06333815
_cell_length_b   11.41442814
_cell_length_c   11.82689793
_cell_angle_alpha   63.12909172
_cell_angle_beta   75.14307600
_cell_angle_gamma   74.59320410
_symmetry_Int_Tables_number   1
_chemical_formula_structural   Na2TeSe3
_chemical_formula_sum   'Na8 Te4 Se12'
_cell_volume   695.01457618
_cell_formula_units_Z   4
loop_
 _symmetry_equiv_pos_site_id
 _symmetry_equiv_pos_as_xyz
  1  'x, y, z'
loop_
 _atom_site_type_symbol
 _atom_site_label
 _atom_site_symmetry_multiplicity
 _atom_site_fract_x
 _atom_site_fract_y
 _atom_site_fract_z
 _atom_site_occupancy
  Na  Na0  1  0.76303261  0.62056026  0.87584109  1
  Na  Na1  1  0.39322062  0.95318870  0.19069776  1
  Na  Na2  1  0.74059971  0.12055851  0.37583329  1
  Na  Na3  1  0.25940029  0.87944149  0.62416671  1
  Na  Na4  1  0.53708808  0.54680525  0.30931809  1
  Na  Na5  1  0.23696739  0.37943974  0.12415891  1
  Na  Na6  1  0.46291192  0.45319475  0.69068191  1
  Na  Na7  1  0.60677938  0.04681130  0.80930224  1
  Te  Te8  1  0.84265185  0.20579908  0.00764246  1
  Te  Te9  1  0.15734815  0.79420092  0.99235754  1
  Te  Te10  1  0.05598753  0.29418164  0.49233942  1
  Te  Te11  1  0.94401247  0.70581836  0.50766058  1
  Se  Se12  1  0.76880075  0.86369655  0.61670196  1
  Se  Se13  1  0.44703226  0.22199209  0.95736428  1
  Se  Se14  1  0.23119925  0.13630345  0.38329804  1
  Se  Se15  1  0.55296774  0.77800791  0.04263572  1
  Se  Se16  1  0.11823862  0.02295932  0.80600435  1
  Se  Se17  1  0.75093038  0.36366298  0.11666660  1
  Se  Se18  1  0.37379254  0.72198611  0.45733298  1
  Se  Se19  1  0.62620746  0.27801389  0.54266702  1
  Se  Se20  1  0.05278073  0.52289966  0.30600318  1
  Se  Se21  1  0.24906962  0.63633702  0.88333340  1
  Se  Se22  1  0.88176138  0.97704068  0.19399565  1
  Se  Se23  1  0.94721927  0.47710034  0.69399682  1
