# generated using pymatgen
data_CsTlBr4
_symmetry_space_group_name_H-M   'P 1'
_cell_length_a   7.02119658
_cell_length_b   7.96685237
_cell_length_c   18.48919861
_cell_angle_alpha   90.00000000
_cell_angle_beta   90.00000000
_cell_angle_gamma   90.00000000
_symmetry_Int_Tables_number   1
_chemical_formula_structural   CsTlBr4
_chemical_formula_sum   'Cs4 Tl4 Br16'
_cell_volume   1034.22728176
_cell_formula_units_Z   4
loop_
 _symmetry_equiv_pos_site_id
 _symmetry_equiv_pos_as_xyz
  1  'x, y, z'
loop_
 _atom_site_type_symbol
 _atom_site_label
 _atom_site_symmetry_multiplicity
 _atom_site_fract_x
 _atom_site_fract_y
 _atom_site_fract_z
 _atom_site_occupancy
  Cs  Cs0  1  0.08218216  0.52891868  0.36710494  1
  Cs  Cs1  1  0.91781784  0.02891868  0.13289506  1
  Cs  Cs2  1  0.41781784  0.47108132  0.86710494  1
  Cs  Cs3  1  0.58218216  0.97108132  0.63289506  1
  Tl  Tl4  1  0.58392803  0.96211411  0.37069498  1
  Tl  Tl5  1  0.91607197  0.03788589  0.87069498  1
  Tl  Tl6  1  0.41607197  0.46211411  0.12930502  1
  Tl  Tl7  1  0.08392803  0.53788589  0.62930502  1
  Br  Br8  1  0.57213591  0.68987531  0.04719692  1
  Br  Br9  1  0.92786409  0.31012469  0.54719692  1
  Br  Br10  1  0.08458964  0.82009457  0.55458280  1
  Br  Br11  1  0.41541036  0.17990543  0.05458280  1
  Br  Br12  1  0.42786409  0.18987531  0.45280308  1
  Br  Br13  1  0.07586268  0.09707134  0.74538599  1
  Br  Br14  1  0.05467603  0.53263058  0.15595162  1
  Br  Br15  1  0.58458964  0.67990543  0.44541720  1
  Br  Br16  1  0.92413732  0.59707134  0.75461401  1
  Br  Br17  1  0.07213591  0.81012469  0.95280308  1
  Br  Br18  1  0.42413732  0.90292866  0.24538599  1
  Br  Br19  1  0.91541036  0.32009457  0.94541720  1
  Br  Br20  1  0.55467603  0.96736942  0.84404838  1
  Br  Br21  1  0.57586268  0.40292866  0.25461401  1
  Br  Br22  1  0.44532397  0.46736942  0.65595162  1
  Br  Br23  1  0.94532397  0.03263058  0.34404838  1
