# generated using pymatgen
data_CsTbZnSe3
_symmetry_space_group_name_H-M   'P 1'
_cell_length_a   4.19098473
_cell_length_b   8.36413497
_cell_length_c   11.04530555
_cell_angle_alpha   90.00000000
_cell_angle_beta   90.00000000
_cell_angle_gamma   104.50905846
_symmetry_Int_Tables_number   1
_chemical_formula_structural   CsTbZnSe3
_chemical_formula_sum   'Cs2 Tb2 Zn2 Se6'
_cell_volume   374.83373771
_cell_formula_units_Z   2
loop_
 _symmetry_equiv_pos_site_id
 _symmetry_equiv_pos_as_xyz
  1  'x, y, z'
loop_
 _atom_site_type_symbol
 _atom_site_label
 _atom_site_symmetry_multiplicity
 _atom_site_fract_x
 _atom_site_fract_y
 _atom_site_fract_z
 _atom_site_occupancy
  Tb  Tb0  1  0.00000000  0.00000000  0.50000000  1
  Tb  Tb1  1  0.00000000  0.00000000  0.00000000  1
  Cs  Cs2  1  0.25778366  0.51556732  0.25000000  1
  Cs  Cs3  1  0.74221634  0.48443268  0.75000000  1
  Zn  Zn4  1  0.53900304  0.07800607  0.25000000  1
  Zn  Zn5  1  0.46099696  0.92199393  0.75000000  1
  Se  Se6  1  0.38308582  0.76617165  0.94056234  1
  Se  Se7  1  0.94528912  0.89057825  0.25000000  1
  Se  Se8  1  0.61691418  0.23382835  0.05943766  1
  Se  Se9  1  0.05471088  0.10942175  0.75000000  1
  Se  Se10  1  0.38308582  0.76617165  0.55943766  1
  Se  Se11  1  0.61691418  0.23382835  0.44056234  1
