# generated using pymatgen
data_Th7Ru3
_symmetry_space_group_name_H-M   'P 1'
_cell_length_a   9.96067390
_cell_length_b   9.96067369
_cell_length_c   6.34228159
_cell_angle_alpha   90.00000000
_cell_angle_beta   90.00000000
_cell_angle_gamma   120.00000071
_symmetry_Int_Tables_number   1
_chemical_formula_structural   Th7Ru3
_chemical_formula_sum   'Th14 Ru6'
_cell_volume   544.94614381
_cell_formula_units_Z   2
loop_
 _symmetry_equiv_pos_site_id
 _symmetry_equiv_pos_as_xyz
  1  'x, y, z'
loop_
 _atom_site_type_symbol
 _atom_site_label
 _atom_site_symmetry_multiplicity
 _atom_site_fract_x
 _atom_site_fract_y
 _atom_site_fract_z
 _atom_site_occupancy
  Th  Th0  1  0.45915792  0.54084208  0.29969194  1
  Th  Th1  1  0.08168416  0.54084208  0.29969194  1
  Th  Th2  1  0.91831584  0.45915792  0.79969194  1
  Th  Th3  1  0.25173742  0.12586871  0.50191649  1
  Th  Th4  1  0.54084208  0.08168416  0.79969194  1
  Th  Th5  1  0.74826258  0.87413129  0.00191649  1
  Th  Th6  1  0.66666700  0.33333300  0.29205812  1
  Th  Th7  1  0.12586871  0.87413129  0.00191649  1
  Th  Th8  1  0.45915792  0.91831584  0.29969194  1
  Th  Th9  1  0.54084208  0.45915792  0.79969194  1
  Th  Th10  1  0.87413129  0.12586871  0.50191649  1
  Th  Th11  1  0.12586871  0.25173742  0.00191649  1
  Th  Th12  1  0.87413129  0.74826258  0.50191649  1
  Th  Th13  1  0.33333300  0.66666700  0.79205812  1
  Ru  Ru14  1  0.81364343  0.62728685  0.04837219  1
  Ru  Ru15  1  0.81364343  0.18635657  0.04837219  1
  Ru  Ru16  1  0.62728685  0.81364343  0.54837219  1
  Ru  Ru17  1  0.37271315  0.18635657  0.04837219  1
  Ru  Ru18  1  0.18635657  0.37271315  0.54837219  1
  Ru  Ru19  1  0.18635657  0.81364343  0.54837219  1
