# generated using pymatgen
data_Cs2SiAs2
_symmetry_space_group_name_H-M   'P 1'
_cell_length_a   6.52120487
_cell_length_b   7.71717106
_cell_length_c   8.91190979
_cell_angle_alpha   115.67003351
_cell_angle_beta   111.46333841
_cell_angle_gamma   90.00453671
_symmetry_Int_Tables_number   1
_chemical_formula_structural   Cs2SiAs2
_chemical_formula_sum   'Cs4 Si2 As4'
_cell_volume   369.41222298
_cell_formula_units_Z   2
loop_
 _symmetry_equiv_pos_site_id
 _symmetry_equiv_pos_as_xyz
  1  'x, y, z'
loop_
 _atom_site_type_symbol
 _atom_site_label
 _atom_site_symmetry_multiplicity
 _atom_site_fract_x
 _atom_site_fract_y
 _atom_site_fract_z
 _atom_site_occupancy
  Cs  Cs0  1  0.85435189  0.02134626  0.70870897  1
  Cs  Cs1  1  0.35437114  0.68729798  0.70871871  1
  Cs  Cs2  1  0.64562886  0.31270202  0.29128129  1
  Cs  Cs3  1  0.14564811  0.97865374  0.29129103  1
  Si  Si4  1  0.74997587  0.49997421  -0.00000833  1
  Si  Si5  1  0.25002413  0.50002579  1.00000833  1
  As  As6  1  0.90891400  0.56243965  0.81792219  1
  As  As7  1  0.09108600  0.43756035  0.18207781  1
  As  As8  1  0.59123165  0.74459753  0.18236643  1
  As  As9  1  0.40876835  0.25540247  0.81763357  1
