# generated using pymatgen
data_La7Ni3
_symmetry_space_group_name_H-M   'P 1'
_cell_length_a   10.10940430
_cell_length_b   10.10940400
_cell_length_c   6.46825108
_cell_angle_alpha   90.00000000
_cell_angle_beta   90.00000000
_cell_angle_gamma   120.00000097
_symmetry_Int_Tables_number   1
_chemical_formula_structural   La7Ni3
_chemical_formula_sum   'La14 Ni6'
_cell_volume   572.49093627
_cell_formula_units_Z   2
loop_
 _symmetry_equiv_pos_site_id
 _symmetry_equiv_pos_as_xyz
  1  'x, y, z'
loop_
 _atom_site_type_symbol
 _atom_site_label
 _atom_site_symmetry_multiplicity
 _atom_site_fract_x
 _atom_site_fract_y
 _atom_site_fract_z
 _atom_site_occupancy
  La  La0  1  0.46180040  0.53819960  0.31999600  1
  La  La1  1  0.33333300  0.66666700  0.78058453  1
  La  La2  1  0.87350414  0.12649586  0.49211870  1
  La  La3  1  0.74700827  0.87350414  0.99211870  1
  La  La4  1  0.87350414  0.74700827  0.49211870  1
  La  La5  1  0.07639920  0.53819960  0.31999600  1
  La  La6  1  0.12649586  0.87350414  0.99211870  1
  La  La7  1  0.53819960  0.07639920  0.81999600  1
  La  La8  1  0.92360080  0.46180040  0.81999600  1
  La  La9  1  0.66666700  0.33333300  0.28058453  1
  La  La10  1  0.46180040  0.92360080  0.31999600  1
  La  La11  1  0.25299173  0.12649586  0.49211870  1
  La  La12  1  0.53819960  0.46180040  0.81999600  1
  La  La13  1  0.12649586  0.25299173  0.99211870  1
  Ni  Ni14  1  0.37443033  0.18721516  0.05135712  1
  Ni  Ni15  1  0.18721516  0.81278484  0.55135712  1
  Ni  Ni16  1  0.81278484  0.62556967  0.05135712  1
  Ni  Ni17  1  0.18721516  0.37443033  0.55135712  1
  Ni  Ni18  1  0.81278484  0.18721516  0.05135712  1
  Ni  Ni19  1  0.62556967  0.81278484  0.55135712  1
