# generated using pymatgen
data_Cs3As11
_symmetry_space_group_name_H-M   'P 1'
_cell_length_a   10.38556153
_cell_length_b   10.38556142
_cell_length_c   19.91164085
_cell_angle_alpha   93.31208280
_cell_angle_beta   93.31208276
_cell_angle_gamma   98.49492336
_symmetry_Int_Tables_number   1
_chemical_formula_structural   Cs3As11
_chemical_formula_sum   'Cs12 As44'
_cell_volume   2115.76988975
_cell_formula_units_Z   4
loop_
 _symmetry_equiv_pos_site_id
 _symmetry_equiv_pos_as_xyz
  1  'x, y, z'
loop_
 _atom_site_type_symbol
 _atom_site_label
 _atom_site_symmetry_multiplicity
 _atom_site_fract_x
 _atom_site_fract_y
 _atom_site_fract_z
 _atom_site_occupancy
  Cs  Cs0  1  0.20299159  0.71082086  0.10940378  1
  Cs  Cs1  1  0.30486813  0.47040432  0.87120806  1
  Cs  Cs2  1  0.69513187  0.52959568  0.12879194  1
  Cs  Cs3  1  0.74461228  0.02493714  0.12041171  1
  Cs  Cs4  1  0.97506286  0.25538772  0.37958829  1
  Cs  Cs5  1  0.79700841  0.28917914  0.89059622  1
  Cs  Cs6  1  0.52959568  0.69513187  0.62879194  1
  Cs  Cs7  1  0.71082086  0.20299159  0.60940378  1
  Cs  Cs8  1  0.47040432  0.30486813  0.37120806  1
  Cs  Cs9  1  0.02493714  0.74461228  0.62041171  1
  Cs  Cs10  1  0.28917914  0.79700841  0.39059622  1
  Cs  Cs11  1  0.25538772  0.97506286  0.87958829  1
  As  As12  1  0.28531444  0.02427414  0.24478881  1
  As  As13  1  0.97572586  0.71468556  0.25521119  1
  As  As14  1  0.93008743  0.90590117  0.31893693  1
  As  As15  1  0.66378452  0.60285260  0.94592442  1
  As  As16  1  0.55786700  0.83392263  0.81365613  1
  As  As17  1  0.63710895  0.01000176  0.39730424  1
  As  As18  1  0.47568749  0.25165993  0.00625207  1
  As  As19  1  0.27114584  0.11811472  0.51958146  1
  As  As20  1  0.09409883  0.06991257  0.18106307  1
  As  As21  1  0.71468556  0.97572586  0.75521119  1
  As  As22  1  0.05254610  0.14902516  0.55945547  1
  As  As23  1  0.52431251  0.74834007  0.99374793  1
  As  As24  1  0.06779838  0.39221294  0.56971795  1
  As  As25  1  0.06991257  0.09409883  0.68106307  1
  As  As26  1  0.14902516  0.05254610  0.05945547  1
  As  As27  1  0.83392263  0.55786700  0.31365613  1
  As  As28  1  0.37557675  0.34950533  0.67899599  1
  As  As29  1  0.11811472  0.27114584  0.01958146  1
  As  As30  1  0.39714740  0.33621548  0.55407558  1
  As  As31  1  0.65049467  0.62442325  0.82100401  1
  As  As32  1  0.93220162  0.60778706  0.43028205  1
  As  As33  1  0.62442325  0.65049467  0.32100401  1
  As  As34  1  0.85097484  0.94745390  0.94054453  1
  As  As35  1  0.74834007  0.52431251  0.49374793  1
  As  As36  1  0.36289105  0.98999824  0.60269576  1
  As  As37  1  0.34950533  0.37557675  0.17899599  1
  As  As38  1  0.68980817  0.88599065  0.29855944  1
  As  As39  1  0.33621548  0.39714740  0.05407558  1
  As  As40  1  0.01000176  0.63710895  0.89730424  1
  As  As41  1  0.02427414  0.28531444  0.74478881  1
  As  As42  1  0.98999824  0.36289105  0.10269576  1
  As  As43  1  0.94745390  0.85097484  0.44054453  1
  As  As44  1  0.90590117  0.93008743  0.81893693  1
  As  As45  1  0.60778706  0.93220162  0.93028205  1
  As  As46  1  0.11400935  0.31019183  0.20144056  1
  As  As47  1  0.39221294  0.06779838  0.06971795  1
  As  As48  1  0.88599065  0.68980817  0.79855944  1
  As  As49  1  0.72885416  0.88188528  0.48041854  1
  As  As50  1  0.88188528  0.72885416  0.98041854  1
  As  As51  1  0.44213300  0.16607737  0.18634387  1
  As  As52  1  0.60285260  0.66378452  0.44592442  1
  As  As53  1  0.31019183  0.11400935  0.70144056  1
  As  As54  1  0.16607737  0.44213300  0.68634387  1
  As  As55  1  0.25165993  0.47568749  0.50625207  1
