# generated using pymatgen
data_Cs2Te
_symmetry_space_group_name_H-M   'P 1'
_cell_length_a   5.91653978
_cell_length_b   9.52704483
_cell_length_c   11.62128462
_cell_angle_alpha   90.00000000
_cell_angle_beta   90.00000000
_cell_angle_gamma   90.00000000
_symmetry_Int_Tables_number   1
_chemical_formula_structural   Cs2Te
_chemical_formula_sum   'Cs8 Te4'
_cell_volume   655.05857393
_cell_formula_units_Z   4
loop_
 _symmetry_equiv_pos_site_id
 _symmetry_equiv_pos_as_xyz
  1  'x, y, z'
loop_
 _atom_site_type_symbol
 _atom_site_label
 _atom_site_symmetry_multiplicity
 _atom_site_fract_x
 _atom_site_fract_y
 _atom_site_fract_z
 _atom_site_occupancy
  Cs  Cs0  1  0.75000000  0.47710595  0.67468678  1
  Cs  Cs1  1  0.25000000  0.02289405  0.17468678  1
  Cs  Cs2  1  0.75000000  0.84962894  0.42694477  1
  Cs  Cs3  1  0.25000000  0.15037106  0.57305523  1
  Cs  Cs4  1  0.25000000  0.52289405  0.32531322  1
  Cs  Cs5  1  0.25000000  0.65037106  0.92694477  1
  Cs  Cs6  1  0.75000000  0.34962894  0.07305523  1
  Cs  Cs7  1  0.75000000  0.97710595  0.82531322  1
  Te  Te8  1  0.25000000  0.24659345  0.88817387  1
  Te  Te9  1  0.75000000  0.25340655  0.38817387  1
  Te  Te10  1  0.25000000  0.74659345  0.61182613  1
  Te  Te11  1  0.75000000  0.75340655  0.11182613  1
