# generated using pymatgen
data_ReI3
_symmetry_space_group_name_H-M   'P 1'
_cell_length_a   9.42453686
_cell_length_b   9.87676279
_cell_length_c   11.45528693
_cell_angle_alpha   90.00000000
_cell_angle_beta   90.00000000
_cell_angle_gamma   111.06447948
_symmetry_Int_Tables_number   1
_chemical_formula_structural   ReI3
_chemical_formula_sum   'Re6 I18'
_cell_volume   995.04889622
_cell_formula_units_Z   6
loop_
 _symmetry_equiv_pos_site_id
 _symmetry_equiv_pos_as_xyz
  1  'x, y, z'
loop_
 _atom_site_type_symbol
 _atom_site_label
 _atom_site_symmetry_multiplicity
 _atom_site_fract_x
 _atom_site_fract_y
 _atom_site_fract_z
 _atom_site_occupancy
  Re  Re0  1  0.82888640  0.64570068  0.75000000  1
  Re  Re1  1  0.83618655  0.86293634  0.85976121  1
  Re  Re2  1  0.16381345  0.13706366  0.35976121  1
  Re  Re3  1  0.16381345  0.13706366  0.14023879  1
  Re  Re4  1  0.83618655  0.86293634  0.64023879  1
  Re  Re5  1  0.17111360  0.35429932  0.25000000  1
  I  I6  1  0.45427768  0.19214794  0.40854384  1
  I  I7  1  0.85558451  0.01696528  0.41082737  1
  I  I8  1  0.90655419  0.38796157  0.25000000  1
  I  I9  1  0.82821994  0.62480131  0.99129820  1
  I  I10  1  0.44668557  0.54274172  0.25000000  1
  I  I11  1  0.14441549  0.98303472  0.58917263  1
  I  I12  1  0.85574491  0.11805353  0.75000000  1
  I  I13  1  0.17178006  0.37519869  0.00870180  1
  I  I14  1  0.14425509  0.88194647  0.25000000  1
  I  I15  1  0.55331443  0.45725828  0.75000000  1
  I  I16  1  0.17178006  0.37519869  0.49129820  1
  I  I17  1  0.54572232  0.80785206  0.59145616  1
  I  I18  1  0.45427768  0.19214794  0.09145616  1
  I  I19  1  0.85558451  0.01696528  0.08917263  1
  I  I20  1  0.14441549  0.98303472  0.91082737  1
  I  I21  1  0.82821994  0.62480131  0.50870180  1
  I  I22  1  0.54572232  0.80785206  0.90854384  1
  I  I23  1  0.09344581  0.61203843  0.75000000  1
