# generated using pymatgen
data_K2Ag4Se3
_symmetry_space_group_name_H-M   'P 1'
_cell_length_a   4.49314776
_cell_length_b   9.37836884
_cell_length_c   12.06446185
_cell_angle_alpha   107.78235283
_cell_angle_beta   90.00000000
_cell_angle_gamma   103.85989206
_symmetry_Int_Tables_number   1
_chemical_formula_structural   K2Ag4Se3
_chemical_formula_sum   'K4 Ag8 Se6'
_cell_volume   468.52020083
_cell_formula_units_Z   2
loop_
 _symmetry_equiv_pos_site_id
 _symmetry_equiv_pos_as_xyz
  1  'x, y, z'
loop_
 _atom_site_type_symbol
 _atom_site_label
 _atom_site_symmetry_multiplicity
 _atom_site_fract_x
 _atom_site_fract_y
 _atom_site_fract_z
 _atom_site_occupancy
  K  K0  1  0.81393420  0.62786840  0.65583945  1
  K  K1  1  0.18606580  0.37213160  0.34416055  1
  K  K2  1  0.33626053  0.67252106  0.16146103  1
  K  K3  1  0.66373947  0.32747894  0.83853897  1
  Ag  Ag4  1  0.59080087  0.18160173  0.51626765  1
  Ag  Ag5  1  0.00769229  0.01538459  0.87747750  1
  Ag  Ag6  1  0.01784884  0.03569768  0.62973212  1
  Ag  Ag7  1  0.58947935  0.17895869  0.08796298  1
  Ag  Ag8  1  0.40919913  0.81839827  0.48373235  1
  Ag  Ag9  1  0.41052065  0.82104131  0.91203702  1
  Ag  Ag10  1  0.98215116  0.96430232  0.37026788  1
  Ag  Ag11  1  0.99230771  0.98461541  0.12252250  1
  Se  Se12  1  0.85498761  0.70997522  0.95990888  1
  Se  Se13  1  0.16165607  0.32331214  0.61622429  1
  Se  Se14  1  0.46586586  0.93173172  0.72260067  1
  Se  Se15  1  0.83834393  0.67668786  0.38377571  1
  Se  Se16  1  0.53413414  0.06826828  0.27739933  1
  Se  Se17  1  0.14501239  0.29002478  0.04009112  1
