# generated using pymatgen
data_AlTeCl7
_symmetry_space_group_name_H-M   'P 1'
_cell_length_a   6.74796556
_cell_length_b   12.91575706
_cell_length_c   14.11015128
_cell_angle_alpha   90.00000000
_cell_angle_beta   101.50946903
_cell_angle_gamma   90.00000000
_symmetry_Int_Tables_number   1
_chemical_formula_structural   AlTeCl7
_chemical_formula_sum   'Al4 Te4 Cl28'
_cell_volume   1205.04285616
_cell_formula_units_Z   4
loop_
 _symmetry_equiv_pos_site_id
 _symmetry_equiv_pos_as_xyz
  1  'x, y, z'
loop_
 _atom_site_type_symbol
 _atom_site_label
 _atom_site_symmetry_multiplicity
 _atom_site_fract_x
 _atom_site_fract_y
 _atom_site_fract_z
 _atom_site_occupancy
  Al  Al0  1  0.09448949  0.04277785  0.72173942  1
  Al  Al1  1  0.40551051  0.54277785  0.77826058  1
  Al  Al2  1  0.90551051  0.95722215  0.27826058  1
  Al  Al3  1  0.59448949  0.45722215  0.22173942  1
  Te  Te4  1  0.47752442  0.75187461  0.38926775  1
  Te  Te5  1  0.97752442  0.74812539  0.88926775  1
  Te  Te6  1  0.52247558  0.24812539  0.61073225  1
  Te  Te7  1  0.02247558  0.25187461  0.11073225  1
  Cl  Cl8  1  0.20870987  0.90744214  0.26542623  1
  Cl  Cl9  1  0.15862063  0.10234791  0.58610630  1
  Cl  Cl10  1  0.41334402  0.84394511  0.52200229  1
  Cl  Cl11  1  0.34137937  0.60234791  0.91389370  1
  Cl  Cl12  1  0.65862063  0.39765209  0.08610630  1
  Cl  Cl13  1  0.19479790  0.86455194  0.98499599  1
  Cl  Cl14  1  0.70870987  0.59255786  0.76542623  1
  Cl  Cl15  1  0.58665598  0.15605489  0.47799771  1
  Cl  Cl16  1  0.80866703  0.35349551  0.62685874  1
  Cl  Cl17  1  0.80520210  0.13544806  0.01500401  1
  Cl  Cl18  1  0.69479790  0.63544806  0.48499599  1
  Cl  Cl19  1  0.84137937  0.89765209  0.41389370  1
  Cl  Cl20  1  0.68298744  0.90333293  0.16084238  1
  Cl  Cl21  1  0.91334402  0.65605489  0.02200229  1
  Cl  Cl22  1  0.91400819  0.12548442  0.28607852  1
  Cl  Cl23  1  0.79129013  0.09255786  0.73457377  1
  Cl  Cl24  1  0.18298744  0.59666707  0.66084238  1
  Cl  Cl25  1  0.31701256  0.09666707  0.83915762  1
  Cl  Cl26  1  0.41400819  0.37451558  0.78607852  1
  Cl  Cl27  1  0.29129013  0.40744214  0.23457377  1
  Cl  Cl28  1  0.30520210  0.36455194  0.51500401  1
  Cl  Cl29  1  0.19133297  0.64650449  0.37314126  1
  Cl  Cl30  1  0.08665598  0.34394511  0.97799771  1
  Cl  Cl31  1  0.30866703  0.14650449  0.12685874  1
  Cl  Cl32  1  0.08599181  0.87451558  0.71392148  1
  Cl  Cl33  1  0.58599181  0.62548442  0.21392148  1
  Cl  Cl34  1  0.81701256  0.40333293  0.33915762  1
  Cl  Cl35  1  0.69133297  0.85349551  0.87314126  1
