# generated using pymatgen
data_Ce3CI5
_symmetry_space_group_name_H-M   'P 1'
_cell_length_a   7.89027989
_cell_length_b   9.73304388
_cell_length_c   9.77796298
_cell_angle_alpha   107.54797774
_cell_angle_beta   96.54710440
_cell_angle_gamma   104.65224865
_symmetry_Int_Tables_number   1
_chemical_formula_structural   Ce3CI5
_chemical_formula_sum   'Ce6 C2 I10'
_cell_volume   677.78697189
_cell_formula_units_Z   2
loop_
 _symmetry_equiv_pos_site_id
 _symmetry_equiv_pos_as_xyz
  1  'x, y, z'
loop_
 _atom_site_type_symbol
 _atom_site_label
 _atom_site_symmetry_multiplicity
 _atom_site_fract_x
 _atom_site_fract_y
 _atom_site_fract_z
 _atom_site_occupancy
  Ce  Ce0  1  0.10826173  0.04014251  0.77834327  1
  Ce  Ce1  1  0.38179478  0.13336525  0.17973918  1
  Ce  Ce2  1  0.89173827  0.95985749  0.22165673  1
  Ce  Ce3  1  0.03298522  0.73729767  0.92457181  1
  Ce  Ce4  1  0.96701478  0.26270233  0.07542819  1
  Ce  Ce5  1  0.61820522  0.86663475  0.82026082  1
  C  C6  1  0.91080147  0.96908303  0.95817416  1
  C  C7  1  0.08919853  0.03091697  0.04182584  1
  I  I8  1  0.18902257  0.72741883  0.63566557  1
  I  I9  1  0.08935694  0.37489090  0.81803315  1
  I  I10  1  0.45455456  0.80628676  0.09435947  1
  I  I11  1  0.25781816  0.08613918  0.46504381  1
  I  I12  1  0.54544544  0.19371324  0.90564053  1
  I  I13  1  0.81097743  0.27258117  0.36433443  1
  I  I14  1  0.34990766  0.45864540  0.27425589  1
  I  I15  1  0.91064306  0.62510910  0.18196685  1
  I  I16  1  0.65009234  0.54135460  0.72574411  1
  I  I17  1  0.74218184  0.91386082  0.53495619  1
