# generated using pymatgen
data_U2Te5
_symmetry_space_group_name_H-M   'P 1'
_cell_length_a   4.18268488
_cell_length_b   6.11050715
_cell_length_c   17.45763708
_cell_angle_alpha   95.04591761
_cell_angle_beta   96.88547879
_cell_angle_gamma   89.99682828
_symmetry_Int_Tables_number   1
_chemical_formula_structural   U2Te5
_chemical_formula_sum   'U4 Te10'
_cell_volume   441.22842440
_cell_formula_units_Z   2
loop_
 _symmetry_equiv_pos_site_id
 _symmetry_equiv_pos_as_xyz
  1  'x, y, z'
loop_
 _atom_site_type_symbol
 _atom_site_label
 _atom_site_symmetry_multiplicity
 _atom_site_fract_x
 _atom_site_fract_y
 _atom_site_fract_z
 _atom_site_occupancy
  U  U0  1  0.15013078  0.58105650  0.29966010  1
  U  U1  1  0.84986922  0.41894350  0.70033990  1
  U  U2  1  0.44466733  0.97247142  0.88993698  1
  U  U3  1  0.55533267  0.02752858  0.11006302  1
  Te  Te4  1  0.87927596  0.93618826  0.75955446  1
  Te  Te5  1  0.12072404  0.06381174  0.24044554  1
  Te  Te6  1  0.29977336  0.63996613  0.60010048  1
  Te  Te7  1  0.70022664  0.36003387  0.39989952  1
  Te  Te8  1  0.70137733  0.84818845  0.40204906  1
  Te  Te9  1  -0.00000108  0.25003770  0.00002133  1
  Te  Te10  1  0.58299263  0.54231876  0.16508771  1
  Te  Te11  1  0.29862267  0.15181155  0.59795094  1
  Te  Te12  1  1.00000108  0.74996230  0.99997867  1
  Te  Te13  1  0.41700737  0.45768124  0.83491229  1
