# generated using pymatgen
data_Cs4Pb9
_symmetry_space_group_name_H-M   'P 1'
_cell_length_a   10.35254531
_cell_length_b   15.21362414
_cell_length_c   16.31390407
_cell_angle_alpha   90.00000000
_cell_angle_beta   99.85712263
_cell_angle_gamma   90.00000000
_symmetry_Int_Tables_number   1
_chemical_formula_structural   Cs4Pb9
_chemical_formula_sum   'Cs16 Pb36'
_cell_volume   2531.50479684
_cell_formula_units_Z   4
loop_
 _symmetry_equiv_pos_site_id
 _symmetry_equiv_pos_as_xyz
  1  'x, y, z'
loop_
 _atom_site_type_symbol
 _atom_site_label
 _atom_site_symmetry_multiplicity
 _atom_site_fract_x
 _atom_site_fract_y
 _atom_site_fract_z
 _atom_site_occupancy
  Cs  Cs0  1  0.51297710  0.72975884  0.87957175  1
  Cs  Cs1  1  0.25608710  0.45986751  0.48575603  1
  Cs  Cs2  1  0.60967493  0.93110667  0.34016183  1
  Cs  Cs3  1  0.74391290  0.54013249  0.51424397  1
  Cs  Cs4  1  0.10274317  0.27101667  0.90821283  1
  Cs  Cs5  1  0.01297710  0.77024116  0.37957175  1
  Cs  Cs6  1  0.24391290  0.95986751  0.01424397  1
  Cs  Cs7  1  0.39725683  0.77101667  0.59178717  1
  Cs  Cs8  1  0.89032507  0.43110667  0.15983817  1
  Cs  Cs9  1  0.89725683  0.72898333  0.09178717  1
  Cs  Cs10  1  0.60274317  0.22898333  0.40821283  1
  Cs  Cs11  1  0.10967493  0.56889333  0.84016183  1
  Cs  Cs12  1  0.48702290  0.27024116  0.12042825  1
  Cs  Cs13  1  0.39032507  0.06889333  0.65983817  1
  Cs  Cs14  1  0.98702290  0.22975884  0.62042825  1
  Cs  Cs15  1  0.75608710  0.04013249  0.98575603  1
  Pb  Pb16  1  0.03477688  0.71369868  0.63447115  1
  Pb  Pb17  1  0.22099996  0.98872833  0.39754156  1
  Pb  Pb18  1  0.46522312  0.21369868  0.86552885  1
  Pb  Pb19  1  0.19503379  0.60313981  0.24506519  1
  Pb  Pb20  1  0.96522312  0.28630132  0.36552885  1
  Pb  Pb21  1  0.05304892  0.92144753  0.59449273  1
  Pb  Pb22  1  0.77900004  0.01127167  0.60245844  1
  Pb  Pb23  1  0.97762852  0.00588581  0.77571612  1
  Pb  Pb24  1  0.28494858  0.80262963  0.22647597  1
  Pb  Pb25  1  0.06046428  0.17797672  0.13103963  1
  Pb  Pb26  1  0.56046428  0.32202328  0.63103963  1
  Pb  Pb27  1  0.80496621  0.39686019  0.75493481  1
  Pb  Pb28  1  0.21505142  0.30262963  0.27352403  1
  Pb  Pb29  1  0.44695108  0.42144753  0.90550727  1
  Pb  Pb30  1  0.43953572  0.67797672  0.36896037  1
  Pb  Pb31  1  0.02237148  0.99411419  0.22428388  1
  Pb  Pb32  1  0.94695108  0.07855247  0.40550727  1
  Pb  Pb33  1  0.53477688  0.78630132  0.13447115  1
  Pb  Pb34  1  0.93953572  0.82202328  0.86896037  1
  Pb  Pb35  1  0.17742381  0.84498848  0.77269031  1
  Pb  Pb36  1  0.55304892  0.57855247  0.09449273  1
  Pb  Pb37  1  0.69503379  0.89686019  0.74506519  1
  Pb  Pb38  1  0.78494858  0.69737037  0.72647597  1
  Pb  Pb39  1  0.72099996  0.51127167  0.89754156  1
  Pb  Pb40  1  0.47762852  0.49411419  0.27571612  1
  Pb  Pb41  1  0.71505142  0.19737037  0.77352403  1
  Pb  Pb42  1  0.26891495  0.69041709  0.06026918  1
  Pb  Pb43  1  0.73108505  0.30958291  0.93973082  1
  Pb  Pb44  1  0.67742381  0.65501152  0.27269031  1
  Pb  Pb45  1  0.76891495  0.80958291  0.56026918  1
  Pb  Pb46  1  0.52237148  0.50588581  0.72428388  1
  Pb  Pb47  1  0.32257619  0.34498848  0.72730969  1
  Pb  Pb48  1  0.30496621  0.10313981  0.25493481  1
  Pb  Pb49  1  0.82257619  0.15501152  0.22730969  1
  Pb  Pb50  1  0.27900004  0.48872833  0.10245844  1
  Pb  Pb51  1  0.23108505  0.19041709  0.43973082  1
