# generated using pymatgen
data_CeAs2Pd3
_symmetry_space_group_name_H-M   'P 1'
_cell_length_a   4.14660489
_cell_length_b   8.65265022
_cell_length_c   10.09712480
_cell_angle_alpha   107.29629791
_cell_angle_beta   90.00000000
_cell_angle_gamma   103.86380249
_symmetry_Int_Tables_number   1
_chemical_formula_structural   CeAs2Pd3
_chemical_formula_sum   'Ce3 As6 Pd9'
_cell_volume   334.82407745
_cell_formula_units_Z   3
loop_
 _symmetry_equiv_pos_site_id
 _symmetry_equiv_pos_as_xyz
  1  'x, y, z'
loop_
 _atom_site_type_symbol
 _atom_site_label
 _atom_site_symmetry_multiplicity
 _atom_site_fract_x
 _atom_site_fract_y
 _atom_site_fract_z
 _atom_site_occupancy
  Ce  Ce0  1  0.15569068  0.31138136  0.70210063  1
  Ce  Ce1  1  0.84430932  0.68861864  0.29789937  1
  Ce  Ce2  1  0.00000000  0.00000000  0.00000000  1
  As  As3  1  0.80112811  0.60225621  0.87085903  1
  As  As4  1  0.63661712  0.27323423  0.45635275  1
  As  As5  1  0.36338288  0.72676577  0.54364725  1
  As  As6  1  0.19887189  0.39774379  0.12914097  1
  As  As7  1  0.53760967  0.07521934  0.78731670  1
  As  As8  1  0.46239033  0.92478066  0.21268330  1
  Pd  Pd9  1  0.04254301  0.08508602  0.33434948  1
  Pd  Pd10  1  0.32181815  0.64363630  0.03306110  1
  Pd  Pd11  1  0.67818185  0.35636370  0.96693890  1
  Pd  Pd12  1  0.78026723  0.56053446  0.60821627  1
  Pd  Pd13  1  0.37446439  0.74892878  0.79618581  1
  Pd  Pd14  1  0.95745699  0.91491398  0.66565052  1
  Pd  Pd15  1  0.21973277  0.43946554  0.39178373  1
  Pd  Pd16  1  0.50000000  0.00000000  0.50000000  1
  Pd  Pd17  1  0.62553561  0.25107122  0.20381419  1
