# generated using pymatgen
data_CsCeSiSe4
_symmetry_space_group_name_H-M   'P 1'
_cell_length_a   6.81228674
_cell_length_b   7.16444565
_cell_length_c   18.79630024
_cell_angle_alpha   90.00000000
_cell_angle_beta   90.00000000
_cell_angle_gamma   90.00000000
_symmetry_Int_Tables_number   1
_chemical_formula_structural   CsCeSiSe4
_chemical_formula_sum   'Cs4 Ce4 Si4 Se16'
_cell_volume   917.37708086
_cell_formula_units_Z   4
loop_
 _symmetry_equiv_pos_site_id
 _symmetry_equiv_pos_as_xyz
  1  'x, y, z'
loop_
 _atom_site_type_symbol
 _atom_site_label
 _atom_site_symmetry_multiplicity
 _atom_site_fract_x
 _atom_site_fract_y
 _atom_site_fract_z
 _atom_site_occupancy
  Cs  Cs0  1  0.50379946  0.49427141  0.96634081  1
  Cs  Cs1  1  0.99620054  0.50572859  0.46634081  1
  Cs  Cs2  1  0.49620054  0.99427141  0.53365919  1
  Cs  Cs3  1  0.00379946  0.00572859  0.03365919  1
  Ce  Ce4  1  0.70800706  0.97661618  0.27342486  1
  Ce  Ce5  1  0.29199294  0.47661618  0.22657514  1
  Ce  Ce6  1  0.79199294  0.02338382  0.77342486  1
  Ce  Ce7  1  0.20800706  0.52338382  0.72657514  1
  Si  Si8  1  0.28706136  0.98494357  0.83565117  1
  Si  Si9  1  0.78706136  0.51505643  0.16434883  1
  Si  Si10  1  0.21293864  0.01505643  0.33565117  1
  Si  Si11  1  0.71293864  0.48494357  0.66434883  1
  Se  Se12  1  0.55289195  0.98929479  0.90854337  1
  Se  Se13  1  0.06684189  0.74907899  0.85788460  1
  Se  Se14  1  0.38209627  0.93454519  0.72026166  1
  Se  Se15  1  0.11790373  0.06545481  0.22026166  1
  Se  Se16  1  0.05289195  0.51070521  0.09145663  1
  Se  Se17  1  0.94710805  0.01070521  0.40854337  1
  Se  Se18  1  0.39527789  0.74695972  0.34989298  1
  Se  Se19  1  0.61790373  0.43454519  0.77973834  1
  Se  Se20  1  0.60472211  0.24695972  0.15010702  1
  Se  Se21  1  0.10472211  0.25304028  0.84989298  1
  Se  Se22  1  0.89527789  0.75304028  0.65010702  1
  Se  Se23  1  0.44710805  0.48929479  0.59145663  1
  Se  Se24  1  0.93315811  0.24907899  0.64211540  1
  Se  Se25  1  0.56684189  0.75092101  0.14211540  1
  Se  Se26  1  0.43315811  0.25092101  0.35788460  1
  Se  Se27  1  0.88209627  0.56545481  0.27973834  1
