# generated using pymatgen
data_Cs2MnSe2
_symmetry_space_group_name_H-M   'P 1'
_cell_length_a   6.84138554
_cell_length_b   7.63911400
_cell_length_c   8.86497274
_cell_angle_alpha   115.51513676
_cell_angle_beta   112.66384029
_cell_angle_gamma   89.99256520
_symmetry_Int_Tables_number   1
_chemical_formula_structural   Cs2MnSe2
_chemical_formula_sum   'Cs4 Mn2 Se4'
_cell_volume   378.10223114
_cell_formula_units_Z   2
loop_
 _symmetry_equiv_pos_site_id
 _symmetry_equiv_pos_as_xyz
  1  'x, y, z'
loop_
 _atom_site_type_symbol
 _atom_site_label
 _atom_site_symmetry_multiplicity
 _atom_site_fract_x
 _atom_site_fract_y
 _atom_site_fract_z
 _atom_site_occupancy
  Cs  Cs0  1  0.85265164  0.51635237  0.70520458  1
  Cs  Cs1  1  0.14734836  0.48364763  0.29479542  1
  Cs  Cs2  1  0.64738323  0.81111890  0.29483852  1
  Cs  Cs3  1  0.35261677  0.18888110  0.70516148  1
  Mn  Mn4  1  0.25001730  0.99996207  0.99999976  1
  Mn  Mn5  1  0.74998270  0.00003793  0.00000024  1
  Se  Se6  1  0.90411904  0.08074371  0.80770690  1
  Se  Se7  1  0.40418422  0.72699210  0.80781029  1
  Se  Se8  1  0.09588096  0.91925629  0.19229310  1
  Se  Se9  1  0.59581578  0.27300790  0.19218971  1
