# generated using pymatgen
data_Ba(InAu)2
_symmetry_space_group_name_H-M   'P 1'
_cell_length_a   4.84139579
_cell_length_b   8.94258945
_cell_length_c   12.60150415
_cell_angle_alpha   90.00000000
_cell_angle_beta   90.00000000
_cell_angle_gamma   90.00000000
_symmetry_Int_Tables_number   1
_chemical_formula_structural   Ba(InAu)2
_chemical_formula_sum   'Ba4 In8 Au8'
_cell_volume   545.57726952
_cell_formula_units_Z   4
loop_
 _symmetry_equiv_pos_site_id
 _symmetry_equiv_pos_as_xyz
  1  'x, y, z'
loop_
 _atom_site_type_symbol
 _atom_site_label
 _atom_site_symmetry_multiplicity
 _atom_site_fract_x
 _atom_site_fract_y
 _atom_site_fract_z
 _atom_site_occupancy
  Ba  Ba0  1  0.75000000  0.22011706  0.83360156  1
  Ba  Ba1  1  0.25000000  0.27988294  0.33360156  1
  Ba  Ba2  1  0.25000000  0.77988294  0.16639844  1
  Ba  Ba3  1  0.75000000  0.72011706  0.66639844  1
  In  In4  1  0.25000000  0.85944012  0.85844718  1
  In  In5  1  0.25000000  0.35944012  0.64155282  1
  In  In6  1  0.75000000  0.10185788  0.54930560  1
  In  In7  1  0.75000000  0.14055988  0.14155282  1
  In  In8  1  0.75000000  0.64055988  0.35844718  1
  In  In9  1  0.25000000  0.39814212  0.04930560  1
  In  In10  1  0.75000000  0.60185788  0.95069440  1
  In  In11  1  0.25000000  0.89814212  0.45069440  1
  Au  Au12  1  0.25000000  0.58985129  0.47894189  1
  Au  Au13  1  0.75000000  0.97398411  0.33611977  1
  Au  Au14  1  0.75000000  0.47398411  0.16388023  1
  Au  Au15  1  0.25000000  0.02601589  0.66388023  1
  Au  Au16  1  0.25000000  0.52601589  0.83611977  1
  Au  Au17  1  0.75000000  0.41014871  0.52105811  1
  Au  Au18  1  0.25000000  0.08985129  0.02105811  1
  Au  Au19  1  0.75000000  0.91014871  0.97894189  1
