# generated using pymatgen
data_TiGeTe6
_symmetry_space_group_name_H-M   'P 1'
_cell_length_a   3.93362373
_cell_length_b   7.73115504
_cell_length_c   17.57034535
_cell_angle_alpha   79.24976235
_cell_angle_beta   83.55268035
_cell_angle_gamma   75.14890605
_symmetry_Int_Tables_number   1
_chemical_formula_structural   TiGeTe6
_chemical_formula_sum   'Ti2 Ge2 Te12'
_cell_volume   506.25454880
_cell_formula_units_Z   2
loop_
 _symmetry_equiv_pos_site_id
 _symmetry_equiv_pos_as_xyz
  1  'x, y, z'
loop_
 _atom_site_type_symbol
 _atom_site_label
 _atom_site_symmetry_multiplicity
 _atom_site_fract_x
 _atom_site_fract_y
 _atom_site_fract_z
 _atom_site_occupancy
  Ti  Ti0  1  0.73644709  0.78716483  0.74058573  1
  Ti  Ti1  1  0.26355291  0.21283517  0.25941427  1
  Ge  Ge2  1  0.27830803  0.03667232  0.40626371  1
  Ge  Ge3  1  0.72169197  0.96332768  0.59373629  1
  Te  Te4  1  0.90826333  0.92797588  0.25501496  1
  Te  Te5  1  0.15626619  0.70665351  0.98033474  1
  Te  Te6  1  0.40623952  0.07022160  0.11780149  1
  Te  Te7  1  0.63350509  0.38806434  0.34399255  1
  Te  Te8  1  0.09173667  0.07202412  0.74498504  1
  Te  Te9  1  0.59376048  0.92977840  0.88219851  1
  Te  Te10  1  0.84373381  0.29334649  0.01966526  1
  Te  Te11  1  0.12929783  0.20603079  0.53604901  1
  Te  Te12  1  0.87070217  0.79396921  0.46395099  1
  Te  Te13  1  0.31166733  0.55538222  0.82207671  1
  Te  Te14  1  0.68833267  0.44461778  0.17792329  1
  Te  Te15  1  0.36649491  0.61193566  0.65600745  1
