# generated using pymatgen
data_Cs2Te3As
_symmetry_space_group_name_H-M   'P 1'
_cell_length_a   9.61477121
_cell_length_b   11.01289821
_cell_length_c   11.71664770
_cell_angle_alpha   119.11525729
_cell_angle_beta   90.00000000
_cell_angle_gamma   90.00000000
_symmetry_Int_Tables_number   1
_chemical_formula_structural   Cs2Te3As
_chemical_formula_sum   'Cs8 Te12 As4'
_cell_volume   1083.87149909
_cell_formula_units_Z   4
loop_
 _symmetry_equiv_pos_site_id
 _symmetry_equiv_pos_as_xyz
  1  'x, y, z'
loop_
 _atom_site_type_symbol
 _atom_site_label
 _atom_site_symmetry_multiplicity
 _atom_site_fract_x
 _atom_site_fract_y
 _atom_site_fract_z
 _atom_site_occupancy
  Cs  Cs0  1  0.39119640  0.26798304  0.96938783  1
  Cs  Cs1  1  0.60880360  0.73201696  0.03061217  1
  Cs  Cs2  1  0.91057999  0.25557506  0.80067001  1
  Cs  Cs3  1  0.58942001  0.25557506  0.30067001  1
  Cs  Cs4  1  0.08942001  0.74442494  0.19932999  1
  Cs  Cs5  1  0.10880360  0.26798304  0.46938783  1
  Cs  Cs6  1  0.89119640  0.73201696  0.53061217  1
  Cs  Cs7  1  0.41057999  0.74442494  0.69932999  1
  Te  Te8  1  0.78081272  0.00222400  0.39199447  1
  Te  Te9  1  0.50495065  0.69270831  0.34748740  1
  Te  Te10  1  0.28081272  0.99777600  0.10800553  1
  Te  Te11  1  0.21918728  0.99777600  0.60800553  1
  Te  Te12  1  0.71918728  0.00222400  0.89199447  1
  Te  Te13  1  0.00495065  0.30729169  0.15251260  1
  Te  Te14  1  0.99504935  0.69270831  0.84748740  1
  Te  Te15  1  0.72406907  0.47206872  0.66667061  1
  Te  Te16  1  0.27593093  0.52793128  0.33332939  1
  Te  Te17  1  0.22406907  0.52793128  0.83332939  1
  Te  Te18  1  0.49504935  0.30729169  0.65251260  1
  Te  Te19  1  0.77593093  0.47206872  0.16667061  1
  As  As20  1  0.60120578  0.04429347  0.57280973  1
  As  As21  1  0.89879422  0.04429347  0.07280973  1
  As  As22  1  0.10120578  0.95570653  0.92719027  1
  As  As23  1  0.39879422  0.95570653  0.42719027  1
