# generated using pymatgen
data_GeAs3
_symmetry_space_group_name_H-M   'P 1'
_cell_length_a   3.77018071
_cell_length_b   3.77018048
_cell_length_c   7.63461415
_cell_angle_alpha   75.70504885
_cell_angle_beta   90.00000537
_cell_angle_gamma   119.99999797
_symmetry_Int_Tables_number   1
_chemical_formula_structural   GeAs3
_chemical_formula_sum   'Ge1 As3'
_cell_volume   90.08067620
_cell_formula_units_Z   1
loop_
 _symmetry_equiv_pos_site_id
 _symmetry_equiv_pos_as_xyz
  1  'x, y, z'
loop_
 _atom_site_type_symbol
 _atom_site_label
 _atom_site_symmetry_multiplicity
 _atom_site_fract_x
 _atom_site_fract_y
 _atom_site_fract_z
 _atom_site_occupancy
  Ge  Ge0  1  0.61122676  0.22245352  0.16631972  1
  As  As1  1  0.11326851  0.22653701  0.66019448  1
  As  As2  1  0.89019406  0.78038813  0.32941781  1
  As  As3  1  0.38531067  0.77062134  0.84406798  1
