# generated using pymatgen
data_CuAsSe
_symmetry_space_group_name_H-M   'P 1'
_cell_length_a   6.87068164
_cell_length_b   11.84695653
_cell_length_c   19.52236297
_cell_angle_alpha   90.00000000
_cell_angle_beta   90.00000000
_cell_angle_gamma   90.00000000
_symmetry_Int_Tables_number   1
_chemical_formula_structural   CuAsSe
_chemical_formula_sum   'Cu24 As24 Se24'
_cell_volume   1589.05527227
_cell_formula_units_Z   24
loop_
 _symmetry_equiv_pos_site_id
 _symmetry_equiv_pos_as_xyz
  1  'x, y, z'
loop_
 _atom_site_type_symbol
 _atom_site_label
 _atom_site_symmetry_multiplicity
 _atom_site_fract_x
 _atom_site_fract_y
 _atom_site_fract_z
 _atom_site_occupancy
  Cu  Cu0  1  0.96827044  0.66856432  0.69527725  1
  Cu  Cu1  1  0.68432413  0.66736015  0.86077564  1
  Cu  Cu2  1  0.46827044  0.16856432  0.80472275  1
  Cu  Cu3  1  0.53172956  0.16856432  0.30472275  1
  Cu  Cu4  1  0.68432413  0.33263985  0.63922436  1
  Cu  Cu5  1  0.03172956  0.33143568  0.30472275  1
  Cu  Cu6  1  0.14001575  0.82911091  0.52932248  1
  Cu  Cu7  1  0.18432413  0.83263985  0.86077564  1
  Cu  Cu8  1  0.35998425  0.32911091  0.47067752  1
  Cu  Cu9  1  0.85998425  0.82911091  0.02932248  1
  Cu  Cu10  1  0.81567587  0.16736015  0.13922436  1
  Cu  Cu11  1  0.18432413  0.16736015  0.63922436  1
  Cu  Cu12  1  0.14001575  0.17088909  0.97067752  1
  Cu  Cu13  1  0.31567587  0.66736015  0.36077564  1
  Cu  Cu14  1  0.03172956  0.66856432  0.19527725  1
  Cu  Cu15  1  0.64001575  0.67088909  0.52932248  1
  Cu  Cu16  1  0.85998425  0.17088909  0.47067752  1
  Cu  Cu17  1  0.31567587  0.33263985  0.13922436  1
  Cu  Cu18  1  0.53172956  0.83143568  0.19527725  1
  Cu  Cu19  1  0.46827044  0.83143568  0.69527725  1
  Cu  Cu20  1  0.96827044  0.33143568  0.80472275  1
  Cu  Cu21  1  0.64001575  0.32911091  0.97067752  1
  Cu  Cu22  1  0.81567587  0.83263985  0.36077564  1
  Cu  Cu23  1  0.35998425  0.67088909  0.02932248  1
  As  As24  1  0.50571421  0.48476627  0.18412668  1
  As  As25  1  0.49428579  0.51523373  0.81587332  1
  As  As26  1  0.49428579  0.48476627  0.68412668  1
  As  As27  1  0.14588645  0.48348912  0.85383746  1
  As  As28  1  0.67711746  0.98271047  0.98302959  1
  As  As29  1  0.32288254  0.98271047  0.48302959  1
  As  As30  1  0.82288254  0.51728953  0.48302959  1
  As  As31  1  0.85411355  0.51651088  0.14616254  1
  As  As32  1  0.17711746  0.48271047  0.51697041  1
  As  As33  1  0.50571421  0.51523373  0.31587332  1
  As  As34  1  0.00571421  0.01523373  0.18412668  1
  As  As35  1  0.35411355  0.98348912  0.14616254  1
  As  As36  1  0.82288254  0.48271047  0.01697041  1
  As  As37  1  0.99428579  0.98476627  0.81587332  1
  As  As38  1  0.85411355  0.48348912  0.35383746  1
  As  As39  1  0.17711746  0.51728953  0.98302959  1
  As  As40  1  0.67711746  0.01728953  0.51697041  1
  As  As41  1  0.64588645  0.01651088  0.85383746  1
  As  As42  1  0.32288254  0.01728953  0.01697041  1
  As  As43  1  0.99428579  0.01523373  0.68412668  1
  As  As44  1  0.64588645  0.98348912  0.64616254  1
  As  As45  1  0.14588645  0.51651088  0.64616254  1
  As  As46  1  0.00571421  0.98476627  0.31587332  1
  As  As47  1  0.35411355  0.01651088  0.35383746  1
  Se  Se48  1  0.48473793  0.83306440  0.31857523  1
  Se  Se49  1  0.18677163  0.83314961  0.98450480  1
  Se  Se50  1  0.81322837  0.83314961  0.48450480  1
  Se  Se51  1  0.36037722  0.33328893  0.34718542  1
  Se  Se52  1  0.98473793  0.66693560  0.31857523  1
  Se  Se53  1  0.98473793  0.33306440  0.18142477  1
  Se  Se54  1  0.01526207  0.66693560  0.81857523  1
  Se  Se55  1  0.68677163  0.33314961  0.51549520  1
  Se  Se56  1  0.13962278  0.83328893  0.65281458  1
  Se  Se57  1  0.18677163  0.16685039  0.51549520  1
  Se  Se58  1  0.63962278  0.66671107  0.65281458  1
  Se  Se59  1  0.81322837  0.16685039  0.01549520  1
  Se  Se60  1  0.86037722  0.83328893  0.15281458  1
  Se  Se61  1  0.48473793  0.16693560  0.18142477  1
  Se  Se62  1  0.31322837  0.66685039  0.48450480  1
  Se  Se63  1  0.51526207  0.16693560  0.68142477  1
  Se  Se64  1  0.51526207  0.83306440  0.81857523  1
  Se  Se65  1  0.63962278  0.33328893  0.84718542  1
  Se  Se66  1  0.01526207  0.33306440  0.68142477  1
  Se  Se67  1  0.36037722  0.66671107  0.15281458  1
  Se  Se68  1  0.31322837  0.33314961  0.01549520  1
  Se  Se69  1  0.68677163  0.66685039  0.98450480  1
  Se  Se70  1  0.86037722  0.16671107  0.34718542  1
  Se  Se71  1  0.13962278  0.16671107  0.84718542  1
