# generated using pymatgen
data_Al(SeCl2)2
_symmetry_space_group_name_H-M   'P 1'
_cell_length_a   9.35202214
_cell_length_b   13.97263644
_cell_length_c   13.99036250
_cell_angle_alpha   90.00000000
_cell_angle_beta   90.00000000
_cell_angle_gamma   90.00000000
_symmetry_Int_Tables_number   1
_chemical_formula_structural   Al(SeCl2)2
_chemical_formula_sum   'Al8 Se16 Cl32'
_cell_volume   1828.15431947
_cell_formula_units_Z   8
loop_
 _symmetry_equiv_pos_site_id
 _symmetry_equiv_pos_as_xyz
  1  'x, y, z'
loop_
 _atom_site_type_symbol
 _atom_site_label
 _atom_site_symmetry_multiplicity
 _atom_site_fract_x
 _atom_site_fract_y
 _atom_site_fract_z
 _atom_site_occupancy
  Al  Al0  1  0.50000000  0.60162982  0.33159810  1
  Al  Al1  1  0.00000000  0.83940322  0.38451945  1
  Al  Al2  1  0.00000000  0.33940322  0.11548055  1
  Al  Al3  1  0.50000000  0.89837018  0.83159810  1
  Al  Al4  1  0.00000000  0.16059678  0.61548055  1
  Al  Al5  1  0.50000000  0.39837018  0.66840190  1
  Al  Al6  1  0.00000000  0.66059678  0.88451945  1
  Al  Al7  1  0.50000000  0.10162982  0.16840190  1
  Se  Se8  1  0.32261777  0.50000000  0.00000000  1
  Se  Se9  1  0.00000000  0.48588927  0.61740005  1
  Se  Se10  1  0.82269310  0.50000000  0.50000000  1
  Se  Se11  1  0.50000000  0.11562837  0.52516583  1
  Se  Se12  1  0.82269310  0.00000000  0.00000000  1
  Se  Se13  1  0.00000000  0.51411073  0.38259995  1
  Se  Se14  1  0.17730690  0.50000000  0.50000000  1
  Se  Se15  1  0.32261777  0.00000000  0.50000000  1
  Se  Se16  1  0.00000000  0.01411073  0.11740005  1
  Se  Se17  1  0.50000000  0.38437163  0.02516583  1
  Se  Se18  1  0.17730690  0.00000000  0.00000000  1
  Se  Se19  1  0.00000000  0.98588927  0.88259995  1
  Se  Se20  1  0.67738223  0.50000000  0.00000000  1
  Se  Se21  1  0.50000000  0.88437163  0.47483417  1
  Se  Se22  1  0.50000000  0.61562837  0.97483417  1
  Se  Se23  1  0.67738223  0.00000000  0.50000000  1
  Cl  Cl24  1  0.68512310  0.98904867  0.80014479  1
  Cl  Cl25  1  0.31487690  0.98904867  0.80014479  1
  Cl  Cl26  1  0.50000000  0.27469120  0.75686338  1
  Cl  Cl27  1  0.50000000  0.63465581  0.48175250  1
  Cl  Cl28  1  0.50000000  0.22530880  0.25686338  1
  Cl  Cl29  1  0.81431855  0.69954015  0.97151053  1
  Cl  Cl30  1  0.50000000  0.86534419  0.98175250  1
  Cl  Cl31  1  0.00000000  0.73820573  0.75381078  1
  Cl  Cl32  1  0.00000000  0.23820573  0.74618922  1
  Cl  Cl33  1  0.31487690  0.51095133  0.30014479  1
  Cl  Cl34  1  0.81431855  0.80045985  0.47151053  1
  Cl  Cl35  1  0.00000000  0.49193146  0.13534276  1
  Cl  Cl36  1  0.00000000  0.99193146  0.36465724  1
  Cl  Cl37  1  0.00000000  0.00806854  0.63534276  1
  Cl  Cl38  1  0.00000000  0.76179427  0.25381078  1
  Cl  Cl39  1  0.81431855  0.19954015  0.52848947  1
  Cl  Cl40  1  0.31487690  0.48904867  0.69985521  1
  Cl  Cl41  1  0.18568145  0.19954015  0.52848947  1
  Cl  Cl42  1  0.31487690  0.01095133  0.19985521  1
  Cl  Cl43  1  0.68512310  0.48904867  0.69985521  1
  Cl  Cl44  1  0.50000000  0.72530880  0.24313662  1
  Cl  Cl45  1  0.18568145  0.69954015  0.97151053  1
  Cl  Cl46  1  0.50000000  0.36534419  0.51824750  1
  Cl  Cl47  1  0.18568145  0.30045985  0.02848947  1
  Cl  Cl48  1  0.50000000  0.13465581  0.01824750  1
  Cl  Cl49  1  0.68512310  0.01095133  0.19985521  1
  Cl  Cl50  1  0.81431855  0.30045985  0.02848947  1
  Cl  Cl51  1  0.18568145  0.80045985  0.47151053  1
  Cl  Cl52  1  0.00000000  0.26179427  0.24618922  1
  Cl  Cl53  1  0.68512310  0.51095133  0.30014479  1
  Cl  Cl54  1  0.50000000  0.77469120  0.74313662  1
  Cl  Cl55  1  0.00000000  0.50806854  0.86465724  1
