# generated using pymatgen
data_CsCeHgSe3
_symmetry_space_group_name_H-M   'P 1'
_cell_length_a   4.46575635
_cell_length_b   8.41172036
_cell_length_c   11.44475632
_cell_angle_alpha   90.00000000
_cell_angle_beta   90.00000000
_cell_angle_gamma   105.39360174
_symmetry_Int_Tables_number   1
_chemical_formula_structural   CsCeHgSe3
_chemical_formula_sum   'Cs2 Ce2 Hg2 Se6'
_cell_volume   414.49545184
_cell_formula_units_Z   2
loop_
 _symmetry_equiv_pos_site_id
 _symmetry_equiv_pos_as_xyz
  1  'x, y, z'
loop_
 _atom_site_type_symbol
 _atom_site_label
 _atom_site_symmetry_multiplicity
 _atom_site_fract_x
 _atom_site_fract_y
 _atom_site_fract_z
 _atom_site_occupancy
  Cs  Cs0  1  0.25653519  0.51307038  0.25000000  1
  Cs  Cs1  1  0.74346481  0.48692962  0.75000000  1
  Ce  Ce2  1  0.00000000  0.00000000  0.00000000  1
  Ce  Ce3  1  0.00000000  0.00000000  0.50000000  1
  Hg  Hg4  1  0.54271158  0.08542316  0.25000000  1
  Hg  Hg5  1  0.45728842  0.91457684  0.75000000  1
  Se  Se6  1  0.06115442  0.12230884  0.75000000  1
  Se  Se7  1  0.62112879  0.24225758  0.45251043  1
  Se  Se8  1  0.62112879  0.24225758  0.04748957  1
  Se  Se9  1  0.93884558  0.87769116  0.25000000  1
  Se  Se10  1  0.37887121  0.75774242  0.95251043  1
  Se  Se11  1  0.37887121  0.75774242  0.54748957  1
