# generated using pymatgen
data_GeAu3
_symmetry_space_group_name_H-M   'P 1'
_cell_length_a   2.96027741
_cell_length_b   2.96027741
_cell_length_c   9.69302530
_cell_angle_alpha   90.00000000
_cell_angle_beta   90.00000000
_cell_angle_gamma   119.96501500
_symmetry_Int_Tables_number   1
_chemical_formula_structural   GeAu3
_chemical_formula_sum   'Ge1 Au3'
_cell_volume   73.58813469
_cell_formula_units_Z   1
loop_
 _symmetry_equiv_pos_site_id
 _symmetry_equiv_pos_as_xyz
  1  'x, y, z'
loop_
 _atom_site_type_symbol
 _atom_site_label
 _atom_site_symmetry_multiplicity
 _atom_site_fract_x
 _atom_site_fract_y
 _atom_site_fract_z
 _atom_site_occupancy
  Ge  Ge0  1  0.66667294  0.33332706  0.37500000  1
  Au  Au1  1  0.66667261  0.33332739  0.87500000  1
  Au  Au2  1  0.33332723  0.66667277  0.12705575  1
  Au  Au3  1  0.33332723  0.66667277  0.62294425  1
