# generated using pymatgen
data_Zr21Re25
_symmetry_space_group_name_H-M   'P 1'
_cell_length_a   15.27741483
_cell_length_b   15.27741509
_cell_length_c   15.27741535
_cell_angle_alpha   116.38837058
_cell_angle_beta   116.38837105
_cell_angle_gamma   116.38836683
_symmetry_Int_Tables_number   1
_chemical_formula_structural   Zr21Re25
_chemical_formula_sum   'Zr42 Re50'
_cell_volume   1716.71062278
_cell_formula_units_Z   2
loop_
 _symmetry_equiv_pos_site_id
 _symmetry_equiv_pos_as_xyz
  1  'x, y, z'
loop_
 _atom_site_type_symbol
 _atom_site_label
 _atom_site_symmetry_multiplicity
 _atom_site_fract_x
 _atom_site_fract_y
 _atom_site_fract_z
 _atom_site_occupancy
  Zr  Zr0  1  0.31933646  0.55033008  0.43532307  1
  Zr  Zr1  1  0.75000000  0.05435141  0.44564859  1
  Zr  Zr2  1  0.54815121  0.31538037  0.77401297  1
  Zr  Zr3  1  0.36139437  0.45573750  0.93781110  1
  Zr  Zr4  1  0.04815121  0.27401297  0.81538037  1
  Zr  Zr5  1  0.43781110  0.95573750  0.86139437  1
  Zr  Zr6  1  0.06218890  0.63860563  0.54426250  1
  Zr  Zr7  1  0.77401297  0.54815121  0.31538037  1
  Zr  Zr8  1  0.04426250  0.13860563  0.56218890  1
  Zr  Zr9  1  0.86139437  0.43781110  0.95573750  1
  Zr  Zr10  1  0.55033008  0.43532307  0.31933646  1
  Zr  Zr11  1  0.25000000  0.94564859  0.55435141  1
  Zr  Zr12  1  0.45573750  0.93781110  0.36139437  1
  Zr  Zr13  1  0.31538037  0.77401297  0.54815121  1
  Zr  Zr14  1  0.93781110  0.36139437  0.45573750  1
  Zr  Zr15  1  0.94966992  0.18066354  0.06467693  1
  Zr  Zr16  1  0.27401297  0.81538037  0.04815121  1
  Zr  Zr17  1  0.54426250  0.06218890  0.63860563  1
  Zr  Zr18  1  0.45184879  0.68461963  0.22598703  1
  Zr  Zr19  1  0.63860563  0.54426250  0.06218890  1
  Zr  Zr20  1  0.94564859  0.55435141  0.25000000  1
  Zr  Zr21  1  0.72598703  0.18461963  0.95184879  1
  Zr  Zr22  1  0.81538037  0.04815121  0.27401297  1
  Zr  Zr23  1  0.18066354  0.06467693  0.94966992  1
  Zr  Zr24  1  0.56467693  0.68066354  0.44966992  1
  Zr  Zr25  1  0.43532307  0.31933646  0.55033008  1
  Zr  Zr26  1  0.56218890  0.04426250  0.13860563  1
  Zr  Zr27  1  0.18461963  0.95184879  0.72598703  1
  Zr  Zr28  1  0.44966992  0.56467693  0.68066354  1
  Zr  Zr29  1  0.68066354  0.44966992  0.56467693  1
  Zr  Zr30  1  0.95184879  0.72598703  0.18461963  1
  Zr  Zr31  1  0.95573750  0.86139437  0.43781110  1
  Zr  Zr32  1  0.55435141  0.25000000  0.94564859  1
  Zr  Zr33  1  0.44564859  0.75000000  0.05435141  1
  Zr  Zr34  1  0.81933646  0.93532307  0.05033008  1
  Zr  Zr35  1  0.22598703  0.45184879  0.68461963  1
  Zr  Zr36  1  0.05435141  0.44564859  0.75000000  1
  Zr  Zr37  1  0.06467693  0.94966992  0.18066354  1
  Zr  Zr38  1  0.05033008  0.81933646  0.93532307  1
  Zr  Zr39  1  0.93532307  0.05033008  0.81933646  1
  Zr  Zr40  1  0.68461963  0.22598703  0.45184879  1
  Zr  Zr41  1  0.13860563  0.56218890  0.04426250  1
  Re  Re42  1  0.57205798  0.68895021  0.98171152  1
  Re  Re43  1  0.88190846  0.88536427  0.23551551  1
  Re  Re44  1  0.42794202  0.31104979  0.01828848  1
  Re  Re45  1  0.38190846  0.73551551  0.38536427  1
  Re  Re46  1  0.01828848  0.42794202  0.31104979  1
  Re  Re47  1  0.69392736  0.63270123  0.92982430  1
  Re  Re48  1  0.18895021  0.07205798  0.48171152  1
  Re  Re49  1  0.73551551  0.38536427  0.38190846  1
  Re  Re50  1  0.19469937  0.75000000  0.30530063  1
  Re  Re51  1  0.36729877  0.07017570  0.30607264  1
  Re  Re52  1  0.30607264  0.36729877  0.07017570  1
  Re  Re53  1  0.68928863  0.81071137  0.75000000  1
  Re  Re54  1  0.98171152  0.57205798  0.68895021  1
  Re  Re55  1  0.31071137  0.18928863  0.25000000  1
  Re  Re56  1  0.61809154  0.26448449  0.61463573  1
  Re  Re57  1  0.51828848  0.81104979  0.92794202  1
  Re  Re58  1  0.63270123  0.92982430  0.69392736  1
  Re  Re59  1  0.30530063  0.19469937  0.75000000  1
  Re  Re60  1  0.19392736  0.42982430  0.13270123  1
  Re  Re61  1  0.11463573  0.76448449  0.11809154  1
  Re  Re62  1  0.81104979  0.92794202  0.51828848  1
  Re  Re63  1  0.80607264  0.57017570  0.86729877  1
  Re  Re64  1  0.92982430  0.69392736  0.63270123  1
  Re  Re65  1  0.76448449  0.11809154  0.11463573  1
  Re  Re66  1  0.61463573  0.61809154  0.26448449  1
  Re  Re67  1  0.42982430  0.13270123  0.19392736  1
  Re  Re68  1  0.57017570  0.86729877  0.80607264  1
  Re  Re69  1  0.13270123  0.19392736  0.42982430  1
  Re  Re70  1  0.07017570  0.30607264  0.36729877  1
  Re  Re71  1  0.23551551  0.88190846  0.88536427  1
  Re  Re72  1  0.92794202  0.51828848  0.81104979  1
  Re  Re73  1  0.50000000  0.50000000  0.50000000  1
  Re  Re74  1  0.00000000  0.00000000  0.00000000  1
  Re  Re75  1  0.18928863  0.25000000  0.31071137  1
  Re  Re76  1  0.75000000  0.30530063  0.19469937  1
  Re  Re77  1  0.25000000  0.31071137  0.18928863  1
  Re  Re78  1  0.88536427  0.23551551  0.88190846  1
  Re  Re79  1  0.81071137  0.75000000  0.68928863  1
  Re  Re80  1  0.11809154  0.11463573  0.76448449  1
  Re  Re81  1  0.31104979  0.01828848  0.42794202  1
  Re  Re82  1  0.75000000  0.68928863  0.81071137  1
  Re  Re83  1  0.26448449  0.61463573  0.61809154  1
  Re  Re84  1  0.38536427  0.38190846  0.73551551  1
  Re  Re85  1  0.07205798  0.48171152  0.18895021  1
  Re  Re86  1  0.25000000  0.69469937  0.80530063  1
  Re  Re87  1  0.80530063  0.25000000  0.69469937  1
  Re  Re88  1  0.69469937  0.80530063  0.25000000  1
  Re  Re89  1  0.48171152  0.18895021  0.07205798  1
  Re  Re90  1  0.86729877  0.80607264  0.57017570  1
  Re  Re91  1  0.68895021  0.98171152  0.57205798  1
