# generated using pymatgen
data_Y2Ni7
_symmetry_space_group_name_H-M   'P 1'
_cell_length_a   12.36865359
_cell_length_b   12.36865372
_cell_length_c   12.36865326
_cell_angle_alpha   23.02864344
_cell_angle_beta   23.02864202
_cell_angle_gamma   23.02864057
_symmetry_Int_Tables_number   1
_chemical_formula_structural   Y2Ni7
_chemical_formula_sum   'Y4 Ni14'
_cell_volume   254.14453678
_cell_formula_units_Z   2
loop_
 _symmetry_equiv_pos_site_id
 _symmetry_equiv_pos_as_xyz
  1  'x, y, z'
loop_
 _atom_site_type_symbol
 _atom_site_label
 _atom_site_symmetry_multiplicity
 _atom_site_fract_x
 _atom_site_fract_y
 _atom_site_fract_z
 _atom_site_occupancy
  Y  Y0  1  0.94956367  0.94956367  0.94956367  1
  Y  Y1  1  0.14716243  0.14716243  0.14716243  1
  Y  Y2  1  0.05043633  0.05043633  0.05043633  1
  Y  Y3  1  0.85283757  0.85283757  0.85283757  1
  Ni  Ni4  1  0.72181928  0.72181928  0.72181928  1
  Ni  Ni5  1  0.38826542  0.38826542  0.38826542  1
  Ni  Ni6  1  0.89113374  0.38998817  0.38998817  1
  Ni  Ni7  1  0.61173458  0.61173458  0.61173458  1
  Ni  Ni8  1  0.50000000  0.00000000  0.50000000  1
  Ni  Ni9  1  0.61001183  0.61001183  0.10886626  1
  Ni  Ni10  1  0.50000000  0.50000000  0.50000000  1
  Ni  Ni11  1  0.38998817  0.38998817  0.89113374  1
  Ni  Ni12  1  0.27818072  0.27818072  0.27818072  1
  Ni  Ni13  1  0.10886626  0.61001183  0.61001183  1
  Ni  Ni14  1  0.38998817  0.89113374  0.38998817  1
  Ni  Ni15  1  0.00000000  0.50000000  0.50000000  1
  Ni  Ni16  1  0.50000000  0.50000000  0.00000000  1
  Ni  Ni17  1  0.61001183  0.10886626  0.61001183  1
