# generated using pymatgen
data_K2U(PSe3)3
_symmetry_space_group_name_H-M   'P 1'
_cell_length_a   10.24464757
_cell_length_b   10.61673570
_cell_length_c   16.78328242
_cell_angle_alpha   90.03854678
_cell_angle_beta   107.29165253
_cell_angle_gamma   91.67715172
_symmetry_Int_Tables_number   1
_chemical_formula_structural   K2U(PSe3)3
_chemical_formula_sum   'K8 U4 P12 Se36'
_cell_volume   1742.09640775
_cell_formula_units_Z   4
loop_
 _symmetry_equiv_pos_site_id
 _symmetry_equiv_pos_as_xyz
  1  'x, y, z'
loop_
 _atom_site_type_symbol
 _atom_site_label
 _atom_site_symmetry_multiplicity
 _atom_site_fract_x
 _atom_site_fract_y
 _atom_site_fract_z
 _atom_site_occupancy
  K  K0  1  0.97145001  0.24632148  0.46644692  1
  K  K1  1  0.24791569  0.81407049  0.86674988  1
  K  K2  1  0.55243903  0.76037158  0.54858652  1
  K  K3  1  0.44756097  0.23962842  0.45141348  1
  K  K4  1  0.70415738  0.66944661  0.85008861  1
  K  K5  1  0.02854999  0.75367852  0.53355308  1
  K  K6  1  0.75208431  0.18592951  0.13325012  1
  K  K7  1  0.29584262  0.33055339  0.14991139  1
  U  U8  1  0.19365069  0.27776849  0.77569888  1
  U  U9  1  0.22252959  0.78014145  0.16836404  1
  U  U10  1  0.77747041  0.21985855  0.83163596  1
  U  U11  1  0.80634931  0.72223151  0.22430112  1
  P  P12  1  0.51019047  0.57188594  0.05376999  1
  P  P13  1  0.46338987  0.99753996  0.71875113  1
  P  P14  1  0.72413682  0.93223716  0.37848395  1
  P  P15  1  0.78161978  0.41402390  0.65063991  1
  P  P16  1  0.21838022  0.58597610  0.34936009  1
  P  P17  1  0.92731745  0.92435292  0.00862696  1
  P  P18  1  0.07268255  0.07564708  0.99137304  1
  P  P19  1  0.48980953  0.42811406  0.94623001  1
  P  P20  1  0.27586318  0.06776284  0.62151605  1
  P  P21  1  0.95138293  0.54298012  0.72664866  1
  P  P22  1  0.53661013  0.00246004  0.28124887  1
  P  P23  1  0.04861707  0.45701988  0.27335134  1
  Se  Se24  1  0.71523531  0.46766754  0.52126752  1
  Se  Se25  1  0.01150829  0.74329704  0.98593601  1
  Se  Se26  1  0.10607411  0.77037989  0.32554725  1
  Se  Se27  1  0.74943900  0.01707329  0.49938755  1
  Se  Se28  1  0.03125874  0.07013859  0.85151256  1
  Se  Se29  1  0.88654227  0.49606678  0.33266256  1
  Se  Se30  1  0.62718558  0.41437147  0.72003710  1
  Se  Se31  1  0.00588050  0.43840441  0.85065125  1
  Se  Se32  1  0.53376273  0.87503647  0.17197035  1
  Se  Se33  1  0.10767302  0.26260605  0.27758738  1
  Se  Se34  1  0.42392140  0.79609054  0.72510837  1
  Se  Se35  1  0.99411950  0.56159559  0.14934875  1
  Se  Se36  1  0.89232698  0.73739395  0.72241262  1
  Se  Se37  1  0.70777570  0.37965534  0.96307086  1
  Se  Se38  1  0.98849171  0.25670296  0.01406399  1
  Se  Se39  1  0.12414833  0.02026989  0.68968901  1
  Se  Se40  1  0.37400499  0.50910955  0.82415411  1
  Se  Se41  1  0.25056100  0.98292671  0.50061245  1
  Se  Se42  1  0.71001660  0.72367634  0.37401576  1
  Se  Se43  1  0.87585167  0.97973011  0.31031099  1
  Se  Se44  1  0.62599501  0.49089045  0.17584589  1
  Se  Se45  1  0.57607860  0.20390946  0.27489163  1
  Se  Se46  1  0.35745321  0.27002031  0.96460766  1
  Se  Se47  1  0.37281442  0.58562853  0.27996290  1
  Se  Se48  1  0.29222430  0.62034466  0.03692914  1
  Se  Se49  1  0.28998340  0.27632366  0.62598424  1
  Se  Se50  1  0.28476469  0.53233246  0.47873248  1
  Se  Se51  1  0.27605484  0.00898071  0.06810940  1
  Se  Se52  1  0.65223554  0.05471194  0.68688467  1
  Se  Se53  1  0.34776446  0.94528806  0.31311533  1
  Se  Se54  1  0.89392589  0.22962011  0.67445275  1
  Se  Se55  1  0.46623727  0.12496353  0.82802965  1
  Se  Se56  1  0.72394516  0.99101929  0.93189060  1
  Se  Se57  1  0.64254679  0.72997969  0.03539234  1
  Se  Se58  1  0.96874126  0.92986141  0.14848744  1
  Se  Se59  1  0.11345773  0.50393322  0.66733744  1
