# generated using pymatgen
data_Na2SnAs2
_symmetry_space_group_name_H-M   'P 1'
_cell_length_a   14.36184342
_cell_length_b   14.36184326
_cell_length_c   14.84043441
_cell_angle_alpha   118.93882190
_cell_angle_beta   118.93882150
_cell_angle_gamma   89.99999874
_symmetry_Int_Tables_number   1
_chemical_formula_structural   Na2SnAs2
_chemical_formula_sum   'Na32 Sn16 As32'
_cell_volume   2232.09253742
_cell_formula_units_Z   16
loop_
 _symmetry_equiv_pos_site_id
 _symmetry_equiv_pos_as_xyz
  1  'x, y, z'
loop_
 _atom_site_type_symbol
 _atom_site_label
 _atom_site_symmetry_multiplicity
 _atom_site_fract_x
 _atom_site_fract_y
 _atom_site_fract_z
 _atom_site_occupancy
  Na  Na0  1  0.02462897  0.47537103  0.75000000  1
  Na  Na1  1  0.91372029  0.62046004  0.06220557  1
  Na  Na2  1  0.87953996  0.58627971  0.43779443  1
  Na  Na3  1  0.58627971  0.55825447  0.93779443  1
  Na  Na4  1  0.64848528  0.12046004  0.06220557  1
  Na  Na5  1  0.62046004  0.14848528  0.56220557  1
  Na  Na6  1  0.55825447  0.35151472  0.43779443  1
  Na  Na7  1  0.47537103  0.72537103  0.25000000  1
  Na  Na8  1  0.02481984  0.27481984  0.25000000  1
  Na  Na9  1  0.22537103  0.97537103  0.75000000  1
  Na  Na10  1  0.22518016  0.47518016  0.25000000  1
  Na  Na11  1  0.52462897  0.27462897  0.75000000  1
  Na  Na12  1  0.97537103  0.52462897  0.25000000  1
  Na  Na13  1  0.77462897  0.02462897  0.25000000  1
  Na  Na14  1  0.12046004  0.41372029  0.56220557  1
  Na  Na15  1  0.44174553  0.64848528  0.56220557  1
  Na  Na16  1  0.47518016  0.02481984  0.75000000  1
  Na  Na17  1  0.97518016  0.72518016  0.75000000  1
  Na  Na18  1  0.27462897  0.22537103  0.25000000  1
  Na  Na19  1  0.14848528  0.94174553  0.06220557  1
  Na  Na20  1  0.77481984  0.52481984  0.75000000  1
  Na  Na21  1  0.35151472  0.87953996  0.93779443  1
  Na  Na22  1  0.08627971  0.37953996  0.93779443  1
  Na  Na23  1  0.27481984  0.22518016  0.75000000  1
  Na  Na24  1  0.52481984  0.97518016  0.25000000  1
  Na  Na25  1  0.85151472  0.05825447  0.93779443  1
  Na  Na26  1  0.41372029  0.44174553  0.06220557  1
  Na  Na27  1  0.05825447  0.08627971  0.43779443  1
  Na  Na28  1  0.72537103  0.77462897  0.75000000  1
  Na  Na29  1  0.37953996  0.85151472  0.43779443  1
  Na  Na30  1  0.94174553  0.91372029  0.56220557  1
  Na  Na31  1  0.72518016  0.77481984  0.25000000  1
  Sn  Sn32  1  0.77513219  0.32413897  0.38774804  1
  Sn  Sn33  1  0.06360907  0.11261586  0.88774804  1
  Sn  Sn34  1  0.38738414  0.43639093  0.61225196  1
  Sn  Sn35  1  0.32413897  0.61261586  0.88774804  1
  Sn  Sn36  1  0.93639093  0.88738414  0.11225196  1
  Sn  Sn37  1  0.88738414  0.17586103  0.61225196  1
  Sn  Sn38  1  0.72486781  0.93639093  0.61225196  1
  Sn  Sn39  1  0.43639093  0.22486781  0.11225196  1
  Sn  Sn40  1  0.82413897  0.27513219  0.88774804  1
  Sn  Sn41  1  0.56360907  0.77513219  0.88774804  1
  Sn  Sn42  1  0.22486781  0.67586103  0.61225196  1
  Sn  Sn43  1  0.17586103  0.72486781  0.11225196  1
  Sn  Sn44  1  0.61261586  0.56360907  0.38774804  1
  Sn  Sn45  1  0.27513219  0.06360907  0.38774804  1
  Sn  Sn46  1  0.11261586  0.82413897  0.38774804  1
  Sn  Sn47  1  0.67586103  0.38738414  0.11225196  1
  As  As48  1  0.43278990  0.25000000  0.50000000  1
  As  As49  1  0.06721010  0.75000000  0.50000000  1
  As  As50  1  0.91535534  0.84305239  0.25590570  1
  As  As51  1  0.08464466  0.15694761  0.74409430  1
  As  As52  1  0.02307621  0.27307621  0.04615242  1
  As  As53  1  0.25000000  0.56721010  0.00000000  1
  As  As54  1  0.65944964  0.08714669  0.74409430  1
  As  As55  1  0.77307621  0.52307621  0.54615242  1
  As  As56  1  0.93278990  0.25000000  0.50000000  1
  As  As57  1  0.97692379  0.72692379  0.95384758  1
  As  As58  1  0.65694761  0.58464466  0.24409430  1
  As  As59  1  0.91285331  0.91535534  0.75590570  1
  As  As60  1  0.15944964  0.65694761  0.74409430  1
  As  As61  1  0.27307621  0.02307621  0.54615242  1
  As  As62  1  0.15694761  0.65944964  0.24409430  1
  As  As63  1  0.84305239  0.34055036  0.75590570  1
  As  As64  1  0.08714669  0.08464466  0.24409430  1
  As  As65  1  0.41285331  0.84055036  0.75590570  1
  As  As66  1  0.22692379  0.47692379  0.45384758  1
  As  As67  1  0.75000000  0.93278990  1.00000000  1
  As  As68  1  0.56721010  0.75000000  0.50000000  1
  As  As69  1  0.72692379  0.97692379  0.45384758  1
  As  As70  1  0.34305239  0.41535534  0.75590570  1
  As  As71  1  0.25000000  0.06721010  0.00000000  1
  As  As72  1  0.52307621  0.77307621  0.04615242  1
  As  As73  1  0.75000000  0.43278990  1.00000000  1
  As  As74  1  0.84055036  0.34305239  0.25590570  1
  As  As75  1  0.47692379  0.22692379  0.95384758  1
  As  As76  1  0.34055036  0.91285331  0.25590570  1
  As  As77  1  0.58464466  0.58714669  0.74409430  1
  As  As78  1  0.58714669  0.15944964  0.24409430  1
  As  As79  1  0.41535534  0.41285331  0.25590570  1
