# generated using pymatgen
data_CsSmMnSe3
_symmetry_space_group_name_H-M   'P 1'
_cell_length_a   4.29016787
_cell_length_b   8.37315600
_cell_length_c   11.31891192
_cell_angle_alpha   90.00000000
_cell_angle_beta   90.00000000
_cell_angle_gamma   104.84386264
_symmetry_Int_Tables_number   1
_chemical_formula_structural   CsSmMnSe3
_chemical_formula_sum   'Cs2 Sm2 Mn2 Se6'
_cell_volume   393.03146295
_cell_formula_units_Z   2
loop_
 _symmetry_equiv_pos_site_id
 _symmetry_equiv_pos_as_xyz
  1  'x, y, z'
loop_
 _atom_site_type_symbol
 _atom_site_label
 _atom_site_symmetry_multiplicity
 _atom_site_fract_x
 _atom_site_fract_y
 _atom_site_fract_z
 _atom_site_occupancy
  Cs  Cs0  1  0.25962254  0.51924507  0.25000000  1
  Cs  Cs1  1  0.74037746  0.48075493  0.75000000  1
  Sm  Sm2  1  0.00000000  0.00000000  0.00000000  1
  Sm  Sm3  1  0.00000000  0.00000000  0.50000000  1
  Mn  Mn4  1  0.53942795  0.07885591  0.25000000  1
  Mn  Mn5  1  0.46057205  0.92114409  0.75000000  1
  Se  Se6  1  0.61824969  0.23649938  0.43857620  1
  Se  Se7  1  0.38175031  0.76350062  0.56142380  1
  Se  Se8  1  0.38175031  0.76350062  0.93857620  1
  Se  Se9  1  0.94769853  0.89539705  0.25000000  1
  Se  Se10  1  0.05230147  0.10460295  0.75000000  1
  Se  Se11  1  0.61824969  0.23649938  0.06142380  1
