# generated using pymatgen
data_Ca51W12N56O3
_symmetry_space_group_name_H-M   'P 1'
_cell_length_a   10.61206260
_cell_length_b   12.49080492
_cell_length_c   16.09527508
_cell_angle_alpha   102.82375559
_cell_angle_beta   95.08103510
_cell_angle_gamma   109.86654649
_symmetry_Int_Tables_number   1
_chemical_formula_structural   Ca51W12N56O3
_chemical_formula_sum   'Ca51 W12 N56 O3'
_cell_volume   1924.92459520
_cell_formula_units_Z   1
loop_
 _symmetry_equiv_pos_site_id
 _symmetry_equiv_pos_as_xyz
  1  'x, y, z'
loop_
 _atom_site_type_symbol
 _atom_site_label
 _atom_site_symmetry_multiplicity
 _atom_site_fract_x
 _atom_site_fract_y
 _atom_site_fract_z
 _atom_site_occupancy
  Ca  Ca0  1  0.47179795  0.52296376  0.40134706  1
  Ca  Ca1  1  0.93087617  0.17398211  0.16216185  1
  Ca  Ca2  1  0.40621659  0.76489321  0.37210683  1
  Ca  Ca3  1  0.54122701  0.39365914  0.02157694  1
  Ca  Ca4  1  0.43742257  0.67829294  0.78479263  1
  Ca  Ca5  1  0.45877299  0.60634086  0.97842306  1
  Ca  Ca6  1  0.28760585  0.13577320  0.71699723  1
  Ca  Ca7  1  0.69317502  0.95759499  0.87805809  1
  Ca  Ca8  1  0.36151998  0.90449420  0.74793903  1
  Ca  Ca9  1  0.76685985  0.72119713  0.90381059  1
  Ca  Ca10  1  0.63848002  0.09550580  0.25206097  1
  Ca  Ca11  1  0.30682498  0.04240501  0.12194191  1
  Ca  Ca12  1  0.35560433  0.85627164  0.94588676  1
  Ca  Ca13  1  0.52820205  0.47703624  0.59865294  1
  Ca  Ca14  1  0.08844176  0.69432609  0.25406685  1
  Ca  Ca15  1  0.75395448  0.77338578  0.70712794  1
  Ca  Ca16  1  0.01334889  0.94929657  0.20056121  1
  Ca  Ca17  1  0.23314015  0.27880287  0.09618941  1
  Ca  Ca18  1  0.03050791  0.88015997  0.41475727  1
  Ca  Ca19  1  0.89964699  0.36849117  0.33116261  1
  Ca  Ca20  1  0.64430021  0.03582943  0.45570785  1
  Ca  Ca21  1  0.64439567  0.14372836  0.05411324  1
  Ca  Ca22  1  0.21995832  0.32962639  0.90291350  1
  Ca  Ca23  1  0.67773842  0.02106946  0.67167523  1
  Ca  Ca24  1  0.39861468  0.80579349  0.16899262  1
  Ca  Ca25  1  0.51970387  0.43040716  0.82015794  1
  Ca  Ca26  1  0.26312435  0.19326534  0.50588519  1
  Ca  Ca27  1  0.60138532  0.19420651  0.83100738  1
  Ca  Ca28  1  0.85620789  0.41891092  0.14268957  1
  Ca  Ca29  1  0.48029613  0.56959284  0.17984206  1
  Ca  Ca30  1  0.24604552  0.22661422  0.29287206  1
  Ca  Ca31  1  0.88139062  0.34020274  0.54256321  1
  Ca  Ca32  1  0.15845519  0.51216788  0.06533211  1
  Ca  Ca33  1  0.35569979  0.96417057  0.54429215  1
  Ca  Ca34  1  0.91155924  0.30567391  0.74593315  1
  Ca  Ca35  1  0.84154481  0.48783212  0.93466789  1
  Ca  Ca36  1  0.14379211  0.58108908  0.85731043  1
  Ca  Ca37  1  0.11860938  0.65979726  0.45743679  1
  Ca  Ca38  1  0.73687565  0.80673466  0.49411481  1
  Ca  Ca39  1  0.59378341  0.23510679  0.62789317  1
  Ca  Ca40  1  0.18670098  0.45665628  0.51532707  1
  Ca  Ca41  1  0.96949209  0.11984003  0.58524273  1
  Ca  Ca42  1  0.98665111  0.05070343  0.79943879  1
  Ca  Ca43  1  0.06912383  0.82601789  0.83783815  1
  Ca  Ca44  1  0.71239415  0.86422680  0.28300277  1
  Ca  Ca45  1  0.56257743  0.32170706  0.21520737  1
  Ca  Ca46  1  0.32226158  0.97893054  0.32832477  1
  Ca  Ca47  1  0.00000000  0.00000000  0.00000000  1
  Ca  Ca48  1  0.81329902  0.54334372  0.48467293  1
  Ca  Ca49  1  0.78004168  0.67037361  0.09708650  1
  Ca  Ca50  1  0.10035301  0.63150883  0.66883739  1
  W  W51  1  0.90904183  0.25670352  0.92814580  1
  W  W52  1  0.96820721  0.09742936  0.38435543  1
  W  W53  1  0.22759499  0.48672339  0.26482882  1
  W  W54  1  0.37254673  0.11750082  0.94364260  1
  W  W55  1  0.47785566  0.75624599  0.59078354  1
  W  W56  1  0.77240501  0.51327661  0.73517118  1
  W  W57  1  0.22053115  0.37583007  0.71446284  1
  W  W58  1  0.09095817  0.74329648  0.07185420  1
  W  W59  1  0.77946885  0.62416993  0.28553716  1
  W  W60  1  0.03179279  0.90257064  0.61564457  1
  W  W61  1  0.62745327  0.88249918  0.05635740  1
  W  W62  1  0.52214434  0.24375401  0.40921646  1
  N  N63  1  0.55573044  0.79251217  0.93761837  1
  N  N64  1  0.14541092  0.01871168  0.56580323  1
  N  N65  1  0.49380043  0.04276797  0.90513700  1
  N  N66  1  0.05765143  0.38664390  0.19592474  1
  N  N67  1  0.98640811  0.60293535  0.09943792  1
  N  N68  1  0.76106320  0.46696711  0.61287112  1
  N  N69  1  0.23893680  0.53303289  0.38712888  1
  N  N70  1  0.09504914  0.43341792  0.66576628  1
  N  N71  1  0.80880622  0.14445853  0.81911774  1
  N  N72  1  0.64242652  0.58755663  0.75212661  1
  N  N73  1  0.78084767  0.30158240  0.99078634  1
  N  N74  1  0.70785283  0.37168200  0.77342432  1
  N  N75  1  0.53501846  0.87316961  0.52618206  1
  N  N76  1  0.34795909  0.33811300  0.64661554  1
  N  N77  1  0.65188812  0.54373016  0.95751321  1
  N  N78  1  0.44426956  0.20748783  0.06238163  1
  N  N79  1  0.86740508  0.88620357  0.84567977  1
  N  N80  1  0.55891167  0.83469153  0.71008550  1
  N  N81  1  0.43317136  0.35076448  0.44851582  1
  N  N82  1  0.04018123  0.20226853  0.97302268  1
  N  N83  1  0.61397503  0.76941084  0.12485878  1
  N  N84  1  0.67981925  0.51437688  0.17609019  1
  N  N85  1  0.12142098  0.05490815  0.36028993  1
  N  N86  1  0.56682864  0.64923552  0.55148418  1
  N  N87  1  0.29214717  0.62831800  0.22657568  1
  N  N88  1  0.52195461  0.91846132  0.31506762  1
  N  N89  1  0.21442529  0.99409935  0.95152754  1
  N  N90  1  0.44108833  0.16530847  0.28991450  1
  N  N91  1  0.50619957  0.95723203  0.09486300  1
  N  N92  1  0.78557471  0.00590065  0.04847246  1
  N  N93  1  0.65204091  0.66188700  0.35338446  1
  N  N94  1  0.95867384  0.75394988  0.52946958  1
  N  N95  1  0.21915233  0.69841760  0.00921366  1
  N  N96  1  0.35757348  0.41244337  0.24787339  1
  N  N97  1  0.88733929  0.76571568  0.26064720  1
  N  N98  1  0.01359189  0.39706465  0.90056208  1
  N  N99  1  0.74232644  0.25878986  0.19729919  1
  N  N100  1  0.87857902  0.94509185  0.63971007  1
  N  N101  1  0.32018075  0.48562312  0.82390981  1
  N  N102  1  0.38602497  0.23058916  0.87514122  1
  N  N103  1  0.47804539  0.08153868  0.68493238  1
  N  N104  1  0.46498154  0.12683039  0.47381794  1
  N  N105  1  0.90495086  0.56658208  0.33423372  1
  N  N106  1  0.25767356  0.74121014  0.80270081  1
  N  N107  1  0.19119378  0.85554147  0.18088226  1
  N  N108  1  0.34811188  0.45626984  0.04248679  1
  N  N109  1  0.94234857  0.61335610  0.80407526  1
  N  N110  1  0.11266071  0.23428432  0.73935280  1
  N  N111  1  0.71244123  0.30689855  0.41406419  1
  N  N112  1  0.13259492  0.11379643  0.15432023  1
  N  N113  1  0.95981877  0.79773147  0.02697732  1
  N  N114  1  0.28755877  0.69310145  0.58593581  1
  N  N115  1  0.13533721  0.92072512  0.72292762  1
  N  N116  1  0.86466279  0.07927488  0.27707238  1
  N  N117  1  0.85458908  0.98128832  0.43419677  1
  N  N118  1  0.04132616  0.24605012  0.47053042  1
  O  O119  1  0.78209314  0.17729701  0.60506992  1
  O  O120  1  0.00000000  0.50000000  0.50000000  1
  O  O121  1  0.21790686  0.82270299  0.39493008  1
