# generated using pymatgen
data_Na4Ni3P4O15
_symmetry_space_group_name_H-M   'P 1'
_cell_length_a   6.56616985
_cell_length_b   10.50862578
_cell_length_c   18.23815719
_cell_angle_alpha   90.00000000
_cell_angle_beta   90.00000000
_cell_angle_gamma   90.00000000
_symmetry_Int_Tables_number   1
_chemical_formula_structural   Na4Ni3P4O15
_chemical_formula_sum   'Na16 Ni12 P16 O60'
_cell_volume   1258.45877642
_cell_formula_units_Z   4
loop_
 _symmetry_equiv_pos_site_id
 _symmetry_equiv_pos_as_xyz
  1  'x, y, z'
loop_
 _atom_site_type_symbol
 _atom_site_label
 _atom_site_symmetry_multiplicity
 _atom_site_fract_x
 _atom_site_fract_y
 _atom_site_fract_z
 _atom_site_occupancy
  Na  Na0  1  0.33741834  0.45866443  0.46145834  1
  Na  Na1  1  0.58948726  0.73616115  0.39051361  1
  Na  Na2  1  0.65364127  0.75087774  0.20257060  1
  Na  Na3  1  0.18995204  0.47546343  0.99352920  1
  Na  Na4  1  0.83741834  0.54133557  0.53854166  1
  Na  Na5  1  0.08948726  0.26383885  0.60948639  1
  Na  Na6  1  0.18995204  0.02453657  0.49352920  1
  Na  Na7  1  0.68995204  0.52453657  0.00647080  1
  Na  Na8  1  0.15364127  0.24912226  0.79742940  1
  Na  Na9  1  0.08948726  0.23616115  0.10948639  1
  Na  Na10  1  0.58948726  0.76383885  0.89051361  1
  Na  Na11  1  0.83741834  0.95866443  0.03854166  1
  Na  Na12  1  0.68995204  0.97546343  0.50647080  1
  Na  Na13  1  0.15364127  0.25087774  0.29742940  1
  Na  Na14  1  0.65364127  0.74912226  0.70257060  1
  Na  Na15  1  0.33741834  0.04133557  0.96145834  1
  Ni  Ni16  1  0.41440922  0.50467827  0.13862601  1
  Ni  Ni17  1  0.90344788  0.00361609  0.83000614  1
  Ni  Ni18  1  0.40344788  0.99638391  0.16999386  1
  Ni  Ni19  1  0.67886144  0.24432097  0.73911422  1
  Ni  Ni20  1  0.91440922  0.49532173  0.86137399  1
  Ni  Ni21  1  0.17886144  0.75567903  0.26088578  1
  Ni  Ni22  1  0.90344788  0.49638391  0.33000614  1
  Ni  Ni23  1  0.17886144  0.74432097  0.76088578  1
  Ni  Ni24  1  0.91440922  0.00467827  0.36137399  1
  Ni  Ni25  1  0.67886144  0.25567903  0.23911422  1
  Ni  Ni26  1  0.40344788  0.50361609  0.66999386  1
  Ni  Ni27  1  0.41440922  0.99532173  0.63862601  1
  P  P28  1  0.42141059  0.01131621  0.32090887  1
  P  P29  1  0.86815963  0.27399965  0.45041829  1
  P  P30  1  0.05651669  0.76551397  0.92933775  1
  P  P31  1  0.55651669  0.26551397  0.57066225  1
  P  P32  1  0.92141059  0.51131621  0.17909113  1
  P  P33  1  0.91077805  0.99742439  0.21034168  1
  P  P34  1  0.86815963  0.22600035  0.95041829  1
  P  P35  1  0.05651669  0.73448603  0.42933775  1
  P  P36  1  0.92141059  0.98868379  0.67909113  1
  P  P37  1  0.41077805  0.49742439  0.28965832  1
  P  P38  1  0.91077805  0.50257561  0.71034168  1
  P  P39  1  0.42141059  0.48868379  0.82090887  1
  P  P40  1  0.36815963  0.72600035  0.54958171  1
  P  P41  1  0.41077805  0.00257561  0.78965832  1
  P  P42  1  0.36815963  0.77399965  0.04958171  1
  P  P43  1  0.55651669  0.23448603  0.07066225  1
  O  O44  1  0.23087507  0.74087680  0.37436642  1
  O  O45  1  0.22291485  0.46282352  0.33658101  1
  O  O46  1  0.44921164  0.11365972  0.73287439  1
  O  O47  1  0.02349473  0.34951849  0.49425602  1
  O  O48  1  0.59238445  0.97524147  0.83974011  1
  O  O49  1  0.09238445  0.47524147  0.66025989  1
  O  O50  1  0.94921164  0.88634028  0.26712561  1
  O  O51  1  0.37904582  0.61488551  0.23685419  1
  O  O52  1  0.59238445  0.52475853  0.33974011  1
  O  O53  1  0.02349473  0.15048151  0.99425602  1
  O  O54  1  0.44677719  0.13742333  0.55916016  1
  O  O55  1  0.87904582  0.38511449  0.76314581  1
  O  O56  1  0.95504439  0.87575943  0.73516276  1
  O  O57  1  0.10118642  0.01637913  0.62698622  1
  O  O58  1  0.40548569  0.12683561  0.08613510  1
  O  O59  1  0.22291485  0.03717648  0.83658101  1
  O  O60  1  0.52349473  0.65048151  0.50574398  1
  O  O61  1  0.95504439  0.62424057  0.23516276  1
  O  O62  1  0.40548569  0.37316439  0.58613510  1
  O  O63  1  0.23087507  0.75912320  0.87436642  1
  O  O64  1  0.73087507  0.25912320  0.62563358  1
  O  O65  1  0.64530856  0.19414582  0.98981064  1
  O  O66  1  0.34384138  0.81853332  0.12867940  1
  O  O67  1  0.37904582  0.88511449  0.73685419  1
  O  O68  1  0.52349473  0.84951849  0.00574398  1
  O  O69  1  0.44921164  0.38634028  0.23287439  1
  O  O70  1  0.73087507  0.24087680  0.12563358  1
  O  O71  1  0.84384138  0.31853332  0.37132060  1
  O  O72  1  0.87904582  0.11488551  0.26314581  1
  O  O73  1  0.39736709  0.87106032  0.54577804  1
  O  O74  1  0.60118642  0.51637913  0.87301378  1
  O  O75  1  0.90548569  0.87316439  0.91386490  1
  O  O76  1  0.64530856  0.30585418  0.48981064  1
  O  O77  1  0.94677719  0.63742333  0.94083984  1
  O  O78  1  0.72291485  0.53717648  0.66341899  1
  O  O79  1  0.34384138  0.68146668  0.62867940  1
  O  O80  1  0.89736809  0.37106032  0.95422196  1
  O  O81  1  0.44677719  0.36257667  0.05916016  1
  O  O82  1  0.22768993  0.04343873  0.36510157  1
  O  O83  1  0.72291485  0.96282352  0.16341899  1
  O  O84  1  0.09238445  0.02475853  0.16025989  1
  O  O85  1  0.45504439  0.12424057  0.26483724  1
  O  O86  1  0.10118642  0.48362087  0.12698622  1
  O  O87  1  0.94677719  0.86257667  0.44083984  1
  O  O88  1  0.84384138  0.18146668  0.87132060  1
  O  O89  1  0.39736709  0.62893968  0.04577804  1
  O  O90  1  0.90548569  0.62683561  0.41386490  1
  O  O91  1  0.39648939  0.89352022  0.26790518  1
  O  O92  1  0.60118642  0.98362087  0.37301378  1
  O  O93  1  0.72768993  0.95656127  0.63489843  1
  O  O94  1  0.94921164  0.61365972  0.76712561  1
  O  O95  1  0.14530856  0.69414582  0.51018936  1
  O  O96  1  0.22768993  0.45656127  0.86510157  1
  O  O97  1  0.89648939  0.10647978  0.73209482  1
  O  O98  1  0.39648939  0.60647978  0.76790518  1
  O  O99  1  0.14530856  0.80585418  0.01018936  1
  O  O100  1  0.89648939  0.39352022  0.23209482  1
  O  O101  1  0.72768993  0.54343873  0.13489843  1
  O  O102  1  0.45504439  0.37575943  0.76483724  1
  O  O103  1  0.89736809  0.12893968  0.45422196  1
