# generated using pymatgen
data_Tb2Fe14B
_symmetry_space_group_name_H-M   'P 1'
_cell_length_a   8.73650157
_cell_length_b   8.73650157
_cell_length_c   11.92804651
_cell_angle_alpha   90.00000000
_cell_angle_beta   90.00000000
_cell_angle_gamma   90.00000000
_symmetry_Int_Tables_number   1
_chemical_formula_structural   Tb2Fe14B
_chemical_formula_sum   'Tb8 Fe56 B4'
_cell_volume   910.42556104
_cell_formula_units_Z   4
loop_
 _symmetry_equiv_pos_site_id
 _symmetry_equiv_pos_as_xyz
  1  'x, y, z'
loop_
 _atom_site_type_symbol
 _atom_site_label
 _atom_site_symmetry_multiplicity
 _atom_site_fract_x
 _atom_site_fract_y
 _atom_site_fract_z
 _atom_site_occupancy
  B  B0  1  0.12428145  0.12428145  0.00000000  1
  B  B1  1  0.37571855  0.62428145  0.50000000  1
  B  B2  1  0.62428145  0.37571855  0.50000000  1
  B  B3  1  0.87571855  0.87571855  0.00000000  1
  Fe  Fe4  1  0.00000000  0.50000000  0.00000000  1
  Fe  Fe5  1  0.00000000  0.50000000  0.50000000  1
  Fe  Fe6  1  0.50000000  0.00000000  0.50000000  1
  Fe  Fe7  1  0.50000000  0.00000000  0.00000000  1
  Fe  Fe8  1  0.00000000  0.00000000  0.11588276  1
  Fe  Fe9  1  0.50000000  0.50000000  0.61588276  1
  Fe  Fe10  1  0.50000000  0.50000000  0.38411724  1
  Fe  Fe11  1  0.00000000  0.00000000  0.88411724  1
  Fe  Fe12  1  0.09741079  0.09741079  0.29910833  1
  Fe  Fe13  1  0.40258921  0.59741079  0.79910833  1
  Fe  Fe14  1  0.59741079  0.40258921  0.79910833  1
  Fe  Fe15  1  0.59741079  0.40258921  0.20089167  1
  Fe  Fe16  1  0.40258921  0.59741079  0.20089167  1
  Fe  Fe17  1  0.90258921  0.90258921  0.29910833  1
  Fe  Fe18  1  0.09741079  0.09741079  0.70089167  1
  Fe  Fe19  1  0.90258921  0.90258921  0.70089167  1
  Fe  Fe20  1  0.31723938  0.31723938  0.25416748  1
  Fe  Fe21  1  0.18276062  0.81723938  0.75416748  1
  Fe  Fe22  1  0.81723938  0.18276062  0.75416748  1
  Fe  Fe23  1  0.81723938  0.18276062  0.24583252  1
  Fe  Fe24  1  0.18276062  0.81723938  0.24583252  1
  Fe  Fe25  1  0.68276062  0.68276062  0.25416748  1
  Fe  Fe26  1  0.31723938  0.31723938  0.74583252  1
  Fe  Fe27  1  0.68276062  0.68276062  0.74583252  1
  Fe  Fe28  1  0.56640751  0.22453665  0.37361308  1
  Fe  Fe29  1  0.27546335  0.06640751  0.87361308  1
  Fe  Fe30  1  0.72453665  0.93359249  0.87361308  1
  Fe  Fe31  1  0.06640751  0.27546335  0.12638692  1
  Fe  Fe32  1  0.93359249  0.72453665  0.12638692  1
  Fe  Fe33  1  0.43359249  0.77546335  0.37361308  1
  Fe  Fe34  1  0.22453665  0.56640751  0.62638692  1
  Fe  Fe35  1  0.77546335  0.43359249  0.62638692  1
  Fe  Fe36  1  0.43359249  0.77546335  0.62638692  1
  Fe  Fe37  1  0.72453665  0.93359249  0.12638692  1
  Fe  Fe38  1  0.27546335  0.06640751  0.12638692  1
  Fe  Fe39  1  0.93359249  0.72453665  0.87361308  1
  Fe  Fe40  1  0.06640751  0.27546335  0.87361308  1
  Fe  Fe41  1  0.56640751  0.22453665  0.62638692  1
  Fe  Fe42  1  0.77546335  0.43359249  0.37361308  1
  Fe  Fe43  1  0.22453665  0.56640751  0.37361308  1
  Fe  Fe44  1  0.14094854  0.53700865  0.17490844  1
  Fe  Fe45  1  0.96299135  0.64094854  0.67490844  1
  Fe  Fe46  1  0.03700865  0.35905146  0.67490844  1
  Fe  Fe47  1  0.64094854  0.96299135  0.32509156  1
  Fe  Fe48  1  0.35905146  0.03700865  0.32509156  1
  Fe  Fe49  1  0.85905146  0.46299135  0.17490844  1
  Fe  Fe50  1  0.53700865  0.14094854  0.82509156  1
  Fe  Fe51  1  0.46299135  0.85905146  0.82509156  1
  Fe  Fe52  1  0.85905146  0.46299135  0.82509156  1
  Fe  Fe53  1  0.03700865  0.35905146  0.32509156  1
  Fe  Fe54  1  0.96299135  0.64094854  0.32509156  1
  Fe  Fe55  1  0.35905146  0.03700865  0.67490844  1
  Fe  Fe56  1  0.64094854  0.96299135  0.67490844  1
  Fe  Fe57  1  0.14094854  0.53700865  0.82509156  1
  Fe  Fe58  1  0.46299135  0.85905146  0.17490844  1
  Fe  Fe59  1  0.53700865  0.14094854  0.17490844  1
  Tb  Tb60  1  0.35646242  0.35646242  0.00000000  1
  Tb  Tb61  1  0.14353758  0.85646242  0.50000000  1
  Tb  Tb62  1  0.85646242  0.14353758  0.50000000  1
  Tb  Tb63  1  0.64353758  0.64353758  0.00000000  1
  Tb  Tb64  1  0.76752055  0.23247945  0.00000000  1
  Tb  Tb65  1  0.26752055  0.26752055  0.50000000  1
  Tb  Tb66  1  0.73247945  0.73247945  0.50000000  1
  Tb  Tb67  1  0.23247945  0.76752055  0.00000000  1
