# generated using pymatgen
data_Ga2BiAs
_symmetry_space_group_name_H-M   'P 1'
_cell_length_a   4.34028455
_cell_length_b   4.34028455
_cell_length_c   7.49090466
_cell_angle_alpha   73.15978193
_cell_angle_beta   90.00000000
_cell_angle_gamma   120.00000000
_symmetry_Int_Tables_number   1
_chemical_formula_structural   Ga2BiAs
_chemical_formula_sum   'Ga2 Bi1 As1'
_cell_volume   115.16783100
_cell_formula_units_Z   1
loop_
 _symmetry_equiv_pos_site_id
 _symmetry_equiv_pos_as_xyz
  1  'x, y, z'
loop_
 _atom_site_type_symbol
 _atom_site_label
 _atom_site_symmetry_multiplicity
 _atom_site_fract_x
 _atom_site_fract_y
 _atom_site_fract_z
 _atom_site_occupancy
  Ga  Ga0  1  0.88282689  0.76565378  0.35151934  1
  Ga  Ga1  1  0.36710673  0.73421345  0.89867982  1
  Bi  Bi2  1  0.49956894  0.99913788  0.50129317  1
  As  As3  1  0.00049744  0.00099489  0.99850767  1
