# generated using pymatgen
data_Er10W2O21
_symmetry_space_group_name_H-M   'P 1'
_cell_length_a   10.52108772
_cell_length_b   10.60351151
_cell_length_c   15.90663924
_cell_angle_alpha   90.00000000
_cell_angle_beta   90.00000000
_cell_angle_gamma   90.00000000
_symmetry_Int_Tables_number   1
_chemical_formula_structural   Er10W2O21
_chemical_formula_sum   'Er40 W8 O84'
_cell_volume   1774.55222508
_cell_formula_units_Z   4
loop_
 _symmetry_equiv_pos_site_id
 _symmetry_equiv_pos_as_xyz
  1  'x, y, z'
loop_
 _atom_site_type_symbol
 _atom_site_label
 _atom_site_symmetry_multiplicity
 _atom_site_fract_x
 _atom_site_fract_y
 _atom_site_fract_z
 _atom_site_occupancy
  Er  Er0  1  0.74835942  0.62605115  0.27187666  1
  Er  Er1  1  0.48608146  0.85788329  0.24299645  1
  Er  Er2  1  0.48608146  0.64211671  0.75700355  1
  Er  Er3  1  0.47896566  0.39037585  0.91042587  1
  Er  Er4  1  0.24998709  0.34218823  0.09947426  1
  Er  Er5  1  0.25001291  0.84218823  0.40052574  1
  Er  Er6  1  0.75001291  0.65781177  0.90052574  1
  Er  Er7  1  0.47896566  0.10962415  0.08957413  1
  Er  Er8  1  0.48879435  0.36488869  0.58050870  1
  Er  Er9  1  0.52103434  0.60962415  0.08957413  1
  Er  Er10  1  0.01120565  0.86488869  0.91949130  1
  Er  Er11  1  0.52103434  0.89037585  0.91042587  1
  Er  Er12  1  0.25164058  0.12605115  0.27187666  1
  Er  Er13  1  0.25164058  0.37394885  0.72812334  1
  Er  Er14  1  0.01120565  0.63511131  0.08050870  1
  Er  Er15  1  0.51391854  0.35788329  0.24299645  1
  Er  Er16  1  0.97896566  0.10962415  0.41042587  1
  Er  Er17  1  0.75001291  0.84218823  0.09947426  1
  Er  Er18  1  0.24998709  0.15781177  0.90052574  1
  Er  Er19  1  0.51120565  0.86488869  0.58050870  1
  Er  Er20  1  0.98608146  0.85788329  0.25700355  1
  Er  Er21  1  0.74998709  0.15781177  0.59947426  1
  Er  Er22  1  0.02103434  0.89037585  0.58957413  1
  Er  Er23  1  0.51120565  0.63511131  0.41949130  1
  Er  Er24  1  0.75164058  0.37394885  0.77187666  1
  Er  Er25  1  0.97896566  0.39037585  0.58957413  1
  Er  Er26  1  0.74835942  0.87394885  0.72812334  1
  Er  Er27  1  0.98879435  0.13511131  0.08050870  1
  Er  Er28  1  0.02103434  0.60962415  0.41042587  1
  Er  Er29  1  0.74998709  0.34218823  0.40052574  1
  Er  Er30  1  0.25001291  0.65781177  0.59947426  1
  Er  Er31  1  0.51391854  0.14211671  0.75700355  1
  Er  Er32  1  0.98608146  0.64211671  0.74299645  1
  Er  Er33  1  0.01391854  0.35788329  0.25700355  1
  Er  Er34  1  0.98879435  0.36488869  0.91949130  1
  Er  Er35  1  0.24835942  0.87394885  0.77187666  1
  Er  Er36  1  0.75164058  0.12605115  0.22812334  1
  Er  Er37  1  0.48879435  0.13511131  0.41949130  1
  Er  Er38  1  0.24835942  0.62605115  0.22812334  1
  Er  Er39  1  0.01391854  0.14211671  0.74299645  1
  W  W40  1  0.24840410  0.12323081  0.58595945  1
  W  W41  1  0.75159590  0.87676919  0.41404055  1
  W  W42  1  0.74840410  0.37676919  0.08595945  1
  W  W43  1  0.24840410  0.37676919  0.41404055  1
  W  W44  1  0.25159590  0.62323081  0.91404055  1
  W  W45  1  0.74840410  0.12323081  0.91404055  1
  W  W46  1  0.75159590  0.62323081  0.58595945  1
  W  W47  1  0.25159590  0.87676919  0.08595945  1
  O  O48  1  0.61327324  0.25000000  0.50000000  1
  O  O49  1  0.18653324  0.01639624  0.67181481  1
  O  O50  1  0.89293739  0.48979081  0.32905504  1
  O  O51  1  0.12878564  0.78503188  0.15777866  1
  O  O52  1  0.39293739  0.48979081  0.17094496  1
  O  O53  1  0.12183277  0.72861203  0.32115133  1
  O  O54  1  0.62183277  0.77138797  0.82115133  1
  O  O55  1  0.37112674  0.74950944  0.13351796  1
  O  O56  1  0.87721401  0.55497356  0.51219254  1
  O  O57  1  0.10706261  0.51020919  0.67094496  1
  O  O58  1  0.87112674  0.74950944  0.36648204  1
  O  O59  1  0.12887326  0.25049056  0.63351796  1
  O  O60  1  0.37112674  0.75049056  0.86648204  1
  O  O61  1  0.31346676  0.51639624  0.82818519  1
  O  O62  1  0.87931168  0.47947859  0.04188395  1
  O  O63  1  0.62068832  0.97947859  0.45811605  1
  O  O64  1  0.12034006  0.28566752  0.82241598  1
  O  O65  1  0.87965994  0.78566752  0.82241598  1
  O  O66  1  0.38535033  0.99262960  0.34206275  1
  O  O67  1  0.38672676  0.75000000  0.50000000  1
  O  O68  1  0.60706261  0.98979081  0.17094496  1
  O  O69  1  0.37931168  0.47947859  0.45811605  1
  O  O70  1  0.18793699  0.75000000  0.00000000  1
  O  O71  1  0.68653324  0.01639624  0.82818519  1
  O  O72  1  0.12068832  0.97947859  0.04188395  1
  O  O73  1  0.87121436  0.21496812  0.84222134  1
  O  O74  1  0.37121436  0.21496812  0.65777866  1
  O  O75  1  0.18653324  0.48360376  0.32818519  1
  O  O76  1  0.12034006  0.21433248  0.17758402  1
  O  O77  1  0.37816723  0.27138797  0.82115133  1
  O  O78  1  0.12878564  0.71496812  0.84222134  1
  O  O79  1  0.10706261  0.98979081  0.32905504  1
  O  O80  1  0.37931168  0.02052141  0.54188395  1
  O  O81  1  0.62068832  0.52052141  0.54188395  1
  O  O82  1  0.39293739  0.01020919  0.82905504  1
  O  O83  1  0.37721401  0.55497356  0.98780746  1
  O  O84  1  0.87965994  0.71433248  0.17758402  1
  O  O85  1  0.61464967  0.00737040  0.65793725  1
  O  O86  1  0.68793699  0.75000000  0.50000000  1
  O  O87  1  0.31206301  0.25000000  0.50000000  1
  O  O88  1  0.87121436  0.28503188  0.15777866  1
  O  O89  1  0.11464967  0.00737040  0.84206275  1
  O  O90  1  0.38535033  0.50737040  0.65793725  1
  O  O91  1  0.81346676  0.51639624  0.67181481  1
  O  O92  1  0.87112674  0.75049056  0.63351796  1
  O  O93  1  0.89293739  0.01020919  0.67094496  1
  O  O94  1  0.62278599  0.44502644  0.01219254  1
  O  O95  1  0.88076066  0.25000000  0.50000000  1
  O  O96  1  0.12068832  0.52052141  0.95811605  1
  O  O97  1  0.81206301  0.25000000  0.00000000  1
  O  O98  1  0.37965994  0.78566752  0.67758402  1
  O  O99  1  0.62887326  0.25049056  0.86648204  1
  O  O100  1  0.61464967  0.49262960  0.34206275  1
  O  O101  1  0.87721401  0.94502644  0.48780746  1
  O  O102  1  0.12887326  0.24950944  0.36648204  1
  O  O103  1  0.11464967  0.49262960  0.15793725  1
  O  O104  1  0.12183277  0.77138797  0.67884867  1
  O  O105  1  0.68653324  0.48360376  0.17181481  1
  O  O106  1  0.62034006  0.28566752  0.67758402  1
  O  O107  1  0.81346676  0.98360376  0.32818519  1
  O  O108  1  0.88672676  0.75000000  0.00000000  1
  O  O109  1  0.37816723  0.22861203  0.17884867  1
  O  O110  1  0.37121436  0.28503188  0.34222134  1
  O  O111  1  0.88535033  0.50737040  0.84206275  1
  O  O112  1  0.87931168  0.02052141  0.95811605  1
  O  O113  1  0.12278599  0.05497356  0.51219254  1
  O  O114  1  0.37721401  0.94502644  0.01219254  1
  O  O115  1  0.88535033  0.99262960  0.15793725  1
  O  O116  1  0.62183277  0.72861203  0.17884867  1
  O  O117  1  0.87816723  0.22861203  0.32115133  1
  O  O118  1  0.62278599  0.05497356  0.98780746  1
  O  O119  1  0.60706261  0.51020919  0.82905504  1
  O  O120  1  0.11327324  0.25000000  0.00000000  1
  O  O121  1  0.61923934  0.75000000  0.00000000  1
  O  O122  1  0.62034006  0.21433248  0.32241598  1
  O  O123  1  0.37965994  0.71433248  0.32241598  1
  O  O124  1  0.87816723  0.27138797  0.67884867  1
  O  O125  1  0.12278599  0.44502644  0.48780746  1
  O  O126  1  0.11923934  0.75000000  0.50000000  1
  O  O127  1  0.31346676  0.98360376  0.17181481  1
  O  O128  1  0.38076066  0.25000000  0.00000000  1
  O  O129  1  0.62878564  0.78503188  0.34222134  1
  O  O130  1  0.62878564  0.71496812  0.65777866  1
  O  O131  1  0.62887326  0.24950944  0.13351796  1
