# generated using pymatgen
data_Sr11InSb9
_symmetry_space_group_name_H-M   'P 1'
_cell_length_a   12.54396052
_cell_length_b   12.71774106
_cell_length_c   12.71774105
_cell_angle_alpha   62.84564151
_cell_angle_beta   60.45099355
_cell_angle_gamma   60.45099336
_symmetry_Int_Tables_number   1
_chemical_formula_structural   Sr11InSb9
_chemical_formula_sum   'Sr22 In2 Sb18'
_cell_volume   1473.24717847
_cell_formula_units_Z   2
loop_
 _symmetry_equiv_pos_site_id
 _symmetry_equiv_pos_as_xyz
  1  'x, y, z'
loop_
 _atom_site_type_symbol
 _atom_site_label
 _atom_site_symmetry_multiplicity
 _atom_site_fract_x
 _atom_site_fract_y
 _atom_site_fract_z
 _atom_site_occupancy
  Sr  Sr0  1  0.32141567  0.67858433  0.67858433  1
  Sr  Sr1  1  0.15954196  0.82641789  0.17342305  1
  Sr  Sr2  1  0.24796273  0.11488962  0.56849035  1
  Sr  Sr3  1  0.82141567  0.17858433  0.17858433  1
  Sr  Sr4  1  0.31644634  0.42787734  0.31097008  1
  Sr  Sr5  1  0.05523687  0.68227022  0.57439223  1
  Sr  Sr6  1  0.34061711  0.32641789  0.67342305  1
  Sr  Sr7  1  0.55523687  0.07439223  0.18227022  1
  Sr  Sr8  1  0.26927997  0.93547793  0.37952320  1
  Sr  Sr9  1  0.06865730  0.56849035  0.11488962  1
  Sr  Sr10  1  0.91571889  0.43547793  0.87952320  1
  Sr  Sr11  1  0.44470624  0.92787734  0.81097008  1
  Sr  Sr12  1  0.18810068  0.18227022  0.07439223  1
  Sr  Sr13  1  0.74796273  0.06849035  0.61488962  1
  Sr  Sr14  1  0.41571889  0.37952320  0.93547793  1
  Sr  Sr15  1  0.76927997  0.87952320  0.43547793  1
  Sr  Sr16  1  0.56865730  0.61488962  0.06849035  1
  Sr  Sr17  1  0.65954196  0.67342305  0.32641789  1
  Sr  Sr18  1  0.94470624  0.31097008  0.42787734  1
  Sr  Sr19  1  0.84061711  0.17342305  0.82641789  1
  Sr  Sr20  1  0.81644634  0.81097008  0.92787734  1
  Sr  Sr21  1  0.68810068  0.57439223  0.68227022  1
  In  In22  1  0.60734422  0.39265578  0.39265578  1
  In  In23  1  0.10734422  0.89265578  0.89265578  1
  Sb  Sb24  1  0.99418269  0.00468563  0.36086615  1
  Sb  Sb25  1  0.03687468  0.39231502  0.60143077  1
  Sb  Sb26  1  0.64026552  0.36086615  0.00468563  1
  Sb  Sb27  1  0.36784611  0.62008307  0.38621935  1
  Sb  Sb28  1  0.33669194  0.67131440  0.94976673  1
  Sb  Sb29  1  0.74899315  0.75100685  0.75100685  1
  Sb  Sb30  1  0.54222694  0.17131440  0.44976673  1
  Sb  Sb31  1  0.24899315  0.25100685  0.25100685  1
  Sb  Sb32  1  0.86784611  0.88621935  0.12008307  1
  Sb  Sb33  1  0.49418269  0.86086615  0.50468563  1
  Sb  Sb34  1  0.14026552  0.50468563  0.86086615  1
  Sb  Sb35  1  0.62585147  0.38621935  0.62008307  1
  Sb  Sb36  1  0.04222694  0.94976673  0.67131440  1
  Sb  Sb37  1  0.46937953  0.89231502  0.10143077  1
  Sb  Sb38  1  0.53687468  0.10143077  0.89231502  1
  Sb  Sb39  1  0.83669194  0.44976673  0.17131440  1
  Sb  Sb40  1  0.96937953  0.60143077  0.39231502  1
  Sb  Sb41  1  0.12585147  0.12008307  0.88621935  1
