# generated using pymatgen
data_K2U(MoO5)2
_symmetry_space_group_name_H-M   'P 1'
_cell_length_a   12.47696919
_cell_length_b   13.26191585
_cell_length_c   13.72691167
_cell_angle_alpha   90.00000000
_cell_angle_beta   90.00000000
_cell_angle_gamma   94.74762909
_symmetry_Int_Tables_number   1
_chemical_formula_structural   K2U(MoO5)2
_chemical_formula_sum   'K16 U8 Mo16 O80'
_cell_volume   2263.57845713
_cell_formula_units_Z   8
loop_
 _symmetry_equiv_pos_site_id
 _symmetry_equiv_pos_as_xyz
  1  'x, y, z'
loop_
 _atom_site_type_symbol
 _atom_site_label
 _atom_site_symmetry_multiplicity
 _atom_site_fract_x
 _atom_site_fract_y
 _atom_site_fract_z
 _atom_site_occupancy
  K  K0  1  0.96374238  0.19143915  0.67729391  1
  K  K1  1  0.72878290  0.18158503  0.95650996  1
  K  K2  1  0.96374238  0.69143915  0.82270609  1
  K  K3  1  0.76014263  0.71835001  0.13015364  1
  K  K4  1  0.23985737  0.78164999  0.63015364  1
  K  K5  1  0.23985737  0.28164999  0.86984636  1
  K  K6  1  0.03625762  0.30856085  0.17729391  1
  K  K7  1  0.46141634  0.21379758  0.15850698  1
  K  K8  1  0.27121710  0.81841497  0.04349004  1
  K  K9  1  0.72878290  0.68158503  0.54349004  1
  K  K10  1  0.53858366  0.78620242  0.84149302  1
  K  K11  1  0.53858366  0.28620242  0.65850698  1
  K  K12  1  0.76014263  0.21835001  0.36984636  1
  K  K13  1  0.03625762  0.80856085  0.32270609  1
  K  K14  1  0.27121710  0.31841497  0.45650996  1
  K  K15  1  0.46141634  0.71379758  0.34149302  1
  U  U16  1  0.84609022  0.03153764  0.18268630  1
  U  U17  1  0.15390978  0.46846236  0.68268630  1
  U  U18  1  0.66838922  0.51177032  0.81942763  1
  U  U19  1  0.66838922  0.01177032  0.68057237  1
  U  U20  1  0.33161078  0.48822968  0.18057237  1
  U  U21  1  0.15390978  0.96846236  0.81731370  1
  U  U22  1  0.33161078  0.98822968  0.31942763  1
  U  U23  1  0.84609022  0.53153764  0.31731370  1
  Mo  Mo24  1  0.15031428  0.06471520  0.08616022  1
  Mo  Mo25  1  0.84968572  0.43528480  0.58616022  1
  Mo  Mo26  1  0.64173115  0.44947494  0.09626224  1
  Mo  Mo27  1  0.44465851  0.57672641  0.62433497  1
  Mo  Mo28  1  0.94394275  0.89972853  0.61218094  1
  Mo  Mo29  1  0.55534149  0.92327359  0.12433497  1
  Mo  Mo30  1  0.05605725  0.10027147  0.38781906  1
  Mo  Mo31  1  0.55534149  0.42327359  0.37566503  1
  Mo  Mo32  1  0.64173115  0.94947494  0.40373776  1
  Mo  Mo33  1  0.94394275  0.39972853  0.88781906  1
  Mo  Mo34  1  0.35826885  0.05052506  0.59626224  1
  Mo  Mo35  1  0.35826885  0.55052506  0.90373776  1
  Mo  Mo36  1  0.05605725  0.60027147  0.11218094  1
  Mo  Mo37  1  0.84968572  0.93528480  0.91383978  1
  Mo  Mo38  1  0.44465851  0.07672641  0.87566503  1
  Mo  Mo39  1  0.15031428  0.56471520  0.41383978  1
  O  O40  1  0.15153689  0.50665588  0.14575253  1
  O  O41  1  0.53590408  0.00381368  0.80484584  1
  O  O42  1  0.31704100  0.47322220  0.00821799  1
  O  O43  1  0.19993731  0.68367933  0.45911852  1
  O  O44  1  0.70099428  0.64749612  0.80047921  1
  O  O45  1  0.31507205  0.50700455  0.59643019  1
  O  O46  1  0.29387895  0.98894903  0.70237388  1
  O  O47  1  0.96883205  0.41685086  0.65735207  1
  O  O48  1  0.50922029  0.62018293  0.51541158  1
  O  O49  1  0.17706161  0.83438880  0.82914186  1
  O  O50  1  0.82293839  0.66561120  0.32914186  1
  O  O51  1  0.67631742  0.82536332  0.41936811  1
  O  O52  1  0.03116795  0.08314914  0.15735207  1
  O  O53  1  0.12514374  0.10165348  0.80554012  1
  O  O54  1  0.87485626  0.39834652  0.30554012  1
  O  O55  1  0.84846311  0.49334412  0.85424747  1
  O  O56  1  0.75134976  0.48548568  0.66511842  1
  O  O57  1  0.19993731  0.18367933  0.04088148  1
  O  O58  1  0.29387895  0.48894903  0.79762612  1
  O  O59  1  0.58162283  0.31420442  0.30837321  1
  O  O60  1  0.31507205  0.00700455  0.90356981  1
  O  O61  1  0.04402565  0.61058250  0.98509846  1
  O  O62  1  0.15153689  0.00665588  0.35424747  1
  O  O63  1  0.63537015  0.87581099  0.66530875  1
  O  O64  1  0.36462985  0.62418901  0.16530875  1
  O  O65  1  0.87485626  0.89834652  0.19445988  1
  O  O66  1  0.70099428  0.14749612  0.69952079  1
  O  O67  1  0.31704100  0.97322220  0.49178201  1
  O  O68  1  0.49782874  0.44302374  0.11272067  1
  O  O69  1  0.70612105  0.01105097  0.29762612  1
  O  O70  1  0.96883205  0.91685086  0.84264793  1
  O  O71  1  0.92166785  0.57327906  0.16665969  1
  O  O72  1  0.11949910  0.47457264  0.51084848  1
  O  O73  1  0.88050090  0.52542736  0.48915152  1
  O  O74  1  0.67631742  0.32536332  0.08063189  1
  O  O75  1  0.07833215  0.92672094  0.66665969  1
  O  O76  1  0.46409592  0.49618632  0.30484584  1
  O  O77  1  0.84846311  0.99334412  0.64575253  1
  O  O78  1  0.63537015  0.37581099  0.83469125  1
  O  O79  1  0.46409592  0.99618632  0.19515416  1
  O  O80  1  0.24865024  0.51451432  0.33488158  1
  O  O81  1  0.80006269  0.81632067  0.95911852  1
  O  O82  1  0.12514374  0.60165348  0.69445988  1
  O  O83  1  0.53590408  0.50381368  0.69515416  1
  O  O84  1  0.10752044  0.22094748  0.34676883  1
  O  O85  1  0.68492795  0.49299545  0.40356981  1
  O  O86  1  0.10752044  0.72094748  0.15323117  1
  O  O87  1  0.24865024  0.01451432  0.16511842  1
  O  O88  1  0.49077971  0.37981707  0.48458842  1
  O  O89  1  0.88050090  0.02542736  0.01084848  1
  O  O90  1  0.68295900  0.52677780  0.99178201  1
  O  O91  1  0.03116795  0.58314914  0.34264793  1
  O  O92  1  0.89247956  0.77905252  0.65323117  1
  O  O93  1  0.80006269  0.31632067  0.54088148  1
  O  O94  1  0.11949910  0.97457264  0.98915152  1
  O  O95  1  0.68295900  0.02677780  0.50821799  1
  O  O96  1  0.95597435  0.38941750  0.01490154  1
  O  O97  1  0.75134976  0.98548568  0.83488158  1
  O  O98  1  0.70612105  0.51105097  0.20237388  1
  O  O99  1  0.50217126  0.55697626  0.88727933  1
  O  O100  1  0.50217126  0.05697626  0.61272067  1
  O  O101  1  0.29900572  0.85250388  0.30047921  1
  O  O102  1  0.36462985  0.12418901  0.33469125  1
  O  O103  1  0.49782874  0.94302374  0.38727933  1
  O  O104  1  0.89247956  0.27905252  0.84676883  1
  O  O105  1  0.68492795  0.99299545  0.09643019  1
  O  O106  1  0.49077971  0.87981707  0.01541158  1
  O  O107  1  0.41837717  0.18579558  0.80837321  1
  O  O108  1  0.92166785  0.07327906  0.33334031  1
  O  O109  1  0.32368258  0.67463668  0.91936811  1
  O  O110  1  0.41837717  0.68579558  0.69162679  1
  O  O111  1  0.17706161  0.33438880  0.67085814  1
  O  O112  1  0.04402565  0.11058250  0.51490154  1
  O  O113  1  0.29900572  0.35250388  0.19952079  1
  O  O114  1  0.95597435  0.88941750  0.48509846  1
  O  O115  1  0.07833215  0.42672094  0.83334031  1
  O  O116  1  0.32368258  0.17463668  0.58063189  1
  O  O117  1  0.58162283  0.81420442  0.19162679  1
  O  O118  1  0.50922029  0.12018293  0.98458842  1
  O  O119  1  0.82293839  0.16561120  0.17085814  1
