# generated using pymatgen
data_Rb2Cr5F17
_symmetry_space_group_name_H-M   'P 1'
_cell_length_a   7.56645011
_cell_length_b   13.63594107
_cell_length_c   14.93540069
_cell_angle_alpha   90.00000000
_cell_angle_beta   90.00000000
_cell_angle_gamma   106.10777941
_symmetry_Int_Tables_number   1
_chemical_formula_structural   Rb2Cr5F17
_chemical_formula_sum   'Rb8 Cr20 F68'
_cell_volume   1480.47376077
_cell_formula_units_Z   4
loop_
 _symmetry_equiv_pos_site_id
 _symmetry_equiv_pos_as_xyz
  1  'x, y, z'
loop_
 _atom_site_type_symbol
 _atom_site_label
 _atom_site_symmetry_multiplicity
 _atom_site_fract_x
 _atom_site_fract_y
 _atom_site_fract_z
 _atom_site_occupancy
  Rb  Rb0  1  0.00000000  0.00000000  0.00000000  1
  Rb  Rb1  1  0.24973761  0.49947522  0.03218288  1
  Rb  Rb2  1  0.24973761  0.49947522  0.46781712  1
  Rb  Rb3  1  0.75026239  0.50052478  0.53218288  1
  Rb  Rb4  1  0.75026239  0.50052478  0.96781712  1
  Rb  Rb5  1  0.25249151  0.50498301  0.75000000  1
  Rb  Rb6  1  0.00000000  0.00000000  0.50000000  1
  Rb  Rb7  1  0.74750849  0.49501699  0.25000000  1
  Cr  Cr8  1  0.62500569  0.75598727  0.87580365  1
  Cr  Cr9  1  0.37499431  0.24401273  0.37580365  1
  Cr  Cr10  1  0.87473688  0.24772663  0.87466983  1
  Cr  Cr11  1  0.37298975  0.24772663  0.62533017  1
  Cr  Cr12  1  0.74935583  0.00136158  0.75000000  1
  Cr  Cr13  1  0.87473688  0.24772663  0.62533017  1
  Cr  Cr14  1  0.62500569  0.75598727  0.62419635  1
  Cr  Cr15  1  0.12526312  0.75227337  0.37466983  1
  Cr  Cr16  1  0.25200575  0.00136158  0.75000000  1
  Cr  Cr17  1  0.13098157  0.75598727  0.62419635  1
  Cr  Cr18  1  0.86901843  0.24401273  0.12419635  1
  Cr  Cr19  1  0.62701025  0.75227337  0.37466983  1
  Cr  Cr20  1  0.37499431  0.24401273  0.12419635  1
  Cr  Cr21  1  0.37298975  0.24772663  0.87466983  1
  Cr  Cr22  1  0.86901843  0.24401273  0.37580365  1
  Cr  Cr23  1  0.74799425  0.99863842  0.25000000  1
  Cr  Cr24  1  0.25064417  0.99863842  0.25000000  1
  Cr  Cr25  1  0.13098157  0.75598727  0.87580365  1
  Cr  Cr26  1  0.12526312  0.75227337  0.12533017  1
  Cr  Cr27  1  0.62701025  0.75227337  0.12533017  1
  F  F28  1  0.56226549  0.71688478  0.25000000  1
  F  F29  1  0.43842381  0.27519923  0.25000000  1
  F  F30  1  0.74885096  0.90204954  0.65545263  1
  F  F31  1  0.89772752  0.20379551  0.50080953  1
  F  F32  1  0.89496478  0.38091593  0.09747136  1
  F  F33  1  0.98188434  0.96376868  0.25000000  1
  F  F34  1  0.11064536  0.22129071  0.65149934  1
  F  F35  1  0.48130967  0.96261934  0.75000000  1
  F  F36  1  0.15319858  0.90204954  0.84454737  1
  F  F37  1  0.56157619  0.72480077  0.75000000  1
  F  F38  1  0.60226460  0.61445976  0.10252705  1
  F  F39  1  0.25114904  0.09795046  0.15545263  1
  F  F40  1  0.89772752  0.20379551  0.99919047  1
  F  F41  1  0.10227248  0.79620449  0.00080953  1
  F  F42  1  0.84538071  0.28311522  0.75000000  1
  F  F43  1  0.13760062  0.27520124  0.35893531  1
  F  F44  1  0.65815549  0.89978946  0.15457185  1
  F  F45  1  0.60255927  0.20511855  0.39298082  1
  F  F46  1  0.60226460  0.61445976  0.39747295  1
  F  F47  1  0.10227248  0.79620449  0.49919047  1
  F  F48  1  0.13760062  0.27520124  0.14106469  1
  F  F49  1  0.15319858  0.90204954  0.65545263  1
  F  F50  1  0.24163397  0.89978946  0.15457185  1
  F  F51  1  0.30606800  0.20379551  0.50080953  1
  F  F52  1  0.60255927  0.20511855  0.10701918  1
  F  F53  1  0.24163397  0.89978946  0.34542815  1
  F  F54  1  0.89496478  0.38091593  0.40252864  1
  F  F55  1  0.84680142  0.09795046  0.34454737  1
  F  F56  1  0.39773540  0.38554024  0.60252705  1
  F  F57  1  0.74885096  0.90204954  0.84454737  1
  F  F58  1  0.01219516  0.61445976  0.10252705  1
  F  F59  1  0.30606800  0.20379551  0.99919047  1
  F  F60  1  0.39744073  0.79488145  0.89298082  1
  F  F61  1  0.10503522  0.61908407  0.59747136  1
  F  F62  1  0.69393200  0.79620449  0.49919047  1
  F  F63  1  0.15461929  0.71688478  0.25000000  1
  F  F64  1  0.65815549  0.89978946  0.34542815  1
  F  F65  1  0.39773540  0.38554024  0.89747295  1
  F  F66  1  0.88935464  0.77870929  0.15149934  1
  F  F67  1  0.88935464  0.77870929  0.34850066  1
  F  F68  1  0.36659121  0.73318242  0.40398738  1
  F  F69  1  0.43773451  0.28311522  0.75000000  1
  F  F70  1  0.51869033  0.03738066  0.25000000  1
  F  F71  1  0.98780484  0.38554024  0.89747295  1
  F  F72  1  0.48595115  0.38091593  0.40252864  1
  F  F73  1  0.86239938  0.72479876  0.64106469  1
  F  F74  1  0.36659121  0.73318242  0.09601262  1
  F  F75  1  0.01811566  0.03623132  0.75000000  1
  F  F76  1  0.75836603  0.10021054  0.84542815  1
  F  F77  1  0.51404885  0.61908407  0.90252864  1
  F  F78  1  0.63340879  0.26681758  0.59601262  1
  F  F79  1  0.34184451  0.10021054  0.84542815  1
  F  F80  1  0.84680142  0.09795046  0.15545263  1
  F  F81  1  0.34184451  0.10021054  0.65457185  1
  F  F82  1  0.63340879  0.26681758  0.90398738  1
  F  F83  1  0.51404885  0.61908407  0.59747136  1
  F  F84  1  0.01219516  0.61445976  0.39747295  1
  F  F85  1  0.75836603  0.10021054  0.65457185  1
  F  F86  1  0.86239938  0.72479876  0.85893531  1
  F  F87  1  0.83677543  0.27519923  0.25000000  1
  F  F88  1  0.98780484  0.38554024  0.60252705  1
  F  F89  1  0.48595115  0.38091593  0.09747136  1
  F  F90  1  0.16322457  0.72480077  0.75000000  1
  F  F91  1  0.11064536  0.22129071  0.84850066  1
  F  F92  1  0.69393200  0.79620449  0.00080953  1
  F  F93  1  0.10503522  0.61908407  0.90252864  1
  F  F94  1  0.25114904  0.09795046  0.34454737  1
  F  F95  1  0.39744073  0.79488145  0.60701918  1
