# generated using pymatgen
data_La2(MoO4)3
_symmetry_space_group_name_H-M   'P 1'
_cell_length_a   10.54018130
_cell_length_b   10.54018121
_cell_length_c   16.32239215
_cell_angle_alpha   75.06633757
_cell_angle_beta   75.06633767
_cell_angle_gamma   70.20029528
_symmetry_Int_Tables_number   1
_chemical_formula_structural   La2(MoO4)3
_chemical_formula_sum   'La12 Mo18 O72'
_cell_volume   1619.29706843
_cell_formula_units_Z   6
loop_
 _symmetry_equiv_pos_site_id
 _symmetry_equiv_pos_as_xyz
  1  'x, y, z'
loop_
 _atom_site_type_symbol
 _atom_site_label
 _atom_site_symmetry_multiplicity
 _atom_site_fract_x
 _atom_site_fract_y
 _atom_site_fract_z
 _atom_site_occupancy
  La  La0  1  0.61760848  0.36887172  0.58886751  1
  La  La1  1  0.38239152  0.63112828  0.41113249  1
  La  La2  1  0.29517686  0.03649783  0.69744433  1
  La  La3  1  0.63112828  0.38239152  0.91113249  1
  La  La4  1  0.96350217  0.70482314  0.80255567  1
  La  La5  1  0.70482314  0.96350217  0.30255567  1
  La  La6  1  0.71334276  0.95564706  0.97658551  1
  La  La7  1  0.04435294  0.28665724  0.52341449  1
  La  La8  1  0.28665724  0.04435294  0.02341449  1
  La  La9  1  0.03649783  0.29517686  0.19744433  1
  La  La10  1  0.36887172  0.61760848  0.08886751  1
  La  La11  1  0.95564706  0.71334276  0.47658451  1
  Mo  Mo12  1  0.13625288  0.87760121  0.57876487  1
  Mo  Mo13  1  0.79518124  0.54721307  0.36310152  1
  Mo  Mo14  1  0.20002438  0.46691558  0.30952328  1
  Mo  Mo15  1  0.54721307  0.79518124  0.86310152  1
  Mo  Mo16  1  0.77626728  0.54857849  0.03370159  1
  Mo  Mo17  1  0.53308442  0.79997562  0.19047672  1
  Mo  Mo18  1  0.46691558  0.20002438  0.80952328  1
  Mo  Mo19  1  0.87760121  0.13625288  0.07876487  1
  Mo  Mo20  1  0.86374712  0.12239879  0.42123513  1
  Mo  Mo21  1  0.22373272  0.45142151  0.96629841  1
  Mo  Mo22  1  0.20481876  0.45278693  0.63689848  1
  Mo  Mo23  1  0.54857849  0.77626728  0.53370159  1
  Mo  Mo24  1  0.12472509  0.87527491  0.25000000  1
  Mo  Mo25  1  0.87527491  0.12472509  0.75000000  1
  Mo  Mo26  1  0.45278693  0.20481876  0.13689848  1
  Mo  Mo27  1  0.45142151  0.22373272  0.46629841  1
  Mo  Mo28  1  0.12239879  0.86374712  0.92123513  1
  Mo  Mo29  1  0.79997562  0.53308442  0.69047672  1
  O  O30  1  0.35724750  0.46797836  0.33248083  1
  O  O31  1  0.42389206  0.81634392  0.96444395  1
  O  O32  1  0.46317550  0.10794332  0.56664557  1
  O  O33  1  0.15355717  0.57990602  0.88094270  1
  O  O34  1  0.70966350  0.80799009  0.87553256  1
  O  O35  1  0.71760286  0.75168407  0.55154334  1
  O  O36  1  0.24850083  0.84780951  0.14784807  1
  O  O37  1  0.76065467  0.15088135  0.17838908  1
  O  O38  1  0.61650361  0.53115410  0.01650697  1
  O  O39  1  0.89205668  0.53682450  0.93335443  1
  O  O40  1  0.72586035  0.18389911  0.50496210  1
  O  O41  1  0.68563659  0.80191694  0.21844996  1
  O  O42  1  0.64275250  0.53202164  0.66751917  1
  O  O43  1  0.87266696  0.98321038  0.05194176  1
  O  O44  1  0.85971396  0.95681253  0.40415392  1
  O  O45  1  0.46884590  0.38349639  0.48349303  1
  O  O46  1  0.56988294  0.62966216  0.84399965  1
  O  O47  1  0.40120228  0.82289614  0.28454666  1
  O  O48  1  0.27413965  0.81610089  0.49503790  1
  O  O49  1  0.15219049  0.75149917  0.35215193  1
  O  O50  1  0.17710386  0.59879772  0.21545334  1
  O  O51  1  0.38349639  0.46884590  0.98349303  1
  O  O52  1  0.57610794  0.18365608  0.03555605  1
  O  O53  1  0.81610089  0.27413965  0.99503790  1
  O  O54  1  0.53115410  0.61650361  0.51650697  1
  O  O55  1  0.04318747  0.14028604  0.09584608  1
  O  O56  1  0.19200991  0.29033650  0.62446744  1
  O  O57  1  0.24831593  0.28239714  0.94845666  1
  O  O58  1  0.48793009  0.92218082  0.77489770  1
  O  O59  1  0.29033650  0.19200991  0.12446744  1
  O  O60  1  0.15088135  0.76065467  0.67838908  1
  O  O61  1  0.14028604  0.04318747  0.59584608  1
  O  O62  1  0.10794332  0.46317550  0.06664557  1
  O  O63  1  0.53682450  0.89205668  0.43335443  1
  O  O64  1  0.18389911  0.72586035  0.00496210  1
  O  O65  1  0.11141951  0.03952891  0.26582446  1
  O  O66  1  0.49939527  0.93553960  0.09375632  1
  O  O67  1  0.88858049  0.96047109  0.73417554  1
  O  O68  1  0.80799009  0.70966350  0.37553256  1
  O  O69  1  0.98321038  0.87266696  0.55194176  1
  O  O70  1  0.28239714  0.24831593  0.44845666  1
  O  O71  1  0.53202164  0.64275250  0.16751917  1
  O  O72  1  0.42009398  0.84644283  0.61905730  1
  O  O73  1  0.96047109  0.88858049  0.23417554  1
  O  O74  1  0.51206991  0.07781918  0.22510230  1
  O  O75  1  0.03952891  0.11141951  0.76582446  1
  O  O76  1  0.92218082  0.48793009  0.27489770  1
  O  O77  1  0.01678962  0.12733304  0.44805824  1
  O  O78  1  0.80191694  0.68563659  0.71844996  1
  O  O79  1  0.46797836  0.35724750  0.83248083  1
  O  O80  1  0.59879772  0.17710386  0.71545334  1
  O  O81  1  0.19808306  0.31436341  0.28155004  1
  O  O82  1  0.75168407  0.71760286  0.05154334  1
  O  O83  1  0.18365608  0.57610794  0.53555605  1
  O  O84  1  0.07781918  0.51206991  0.72510230  1
  O  O85  1  0.81634392  0.42389206  0.46444395  1
  O  O86  1  0.12733304  0.01678962  0.94805824  1
  O  O87  1  0.62966216  0.56988294  0.34399965  1
  O  O88  1  0.95681253  0.85971396  0.90415392  1
  O  O89  1  0.57990602  0.15355717  0.38094270  1
  O  O90  1  0.82289614  0.40120228  0.78454666  1
  O  O91  1  0.06446040  0.50060473  0.40624368  1
  O  O92  1  0.50060473  0.06446040  0.90624368  1
  O  O93  1  0.37033784  0.43011706  0.65600035  1
  O  O94  1  0.84644283  0.42009398  0.11905730  1
  O  O95  1  0.43011706  0.37033784  0.15600035  1
  O  O96  1  0.93553960  0.49939527  0.59375632  1
  O  O97  1  0.23934533  0.84911865  0.82161092  1
  O  O98  1  0.31436341  0.19808306  0.78155004  1
  O  O99  1  0.84780951  0.24850083  0.64784807  1
  O  O100  1  0.84911865  0.23934533  0.32161092  1
  O  O101  1  0.75149917  0.15219049  0.85215193  1
