# generated using pymatgen
data_Na5LiMn2O8
_symmetry_space_group_name_H-M   'P 1'
_cell_length_a   10.56125710
_cell_length_b   10.61662668
_cell_length_c   15.21052137
_cell_angle_alpha   90.00000000
_cell_angle_beta   90.00000000
_cell_angle_gamma   90.00000000
_symmetry_Int_Tables_number   1
_chemical_formula_structural   Na5LiMn2O8
_chemical_formula_sum   'Na40 Li8 Mn16 O64'
_cell_volume   1705.47855112
_cell_formula_units_Z   8
loop_
 _symmetry_equiv_pos_site_id
 _symmetry_equiv_pos_as_xyz
  1  'x, y, z'
loop_
 _atom_site_type_symbol
 _atom_site_label
 _atom_site_symmetry_multiplicity
 _atom_site_fract_x
 _atom_site_fract_y
 _atom_site_fract_z
 _atom_site_occupancy
  Na  Na0  1  0.77778616  0.00663517  0.50398745  1
  Na  Na1  1  0.75778226  0.24463016  0.89628717  1
  Na  Na2  1  0.48308547  0.29155090  0.25000000  1
  Na  Na3  1  0.72345758  0.76243599  0.36224778  1
  Na  Na4  1  0.24221774  0.75536984  0.39628717  1
  Na  Na5  1  0.27654242  0.23756401  0.63775222  1
  Na  Na6  1  0.72221384  0.50663517  0.99601255  1
  Na  Na7  1  0.27778616  0.49336483  0.00398745  1
  Na  Na8  1  0.72221384  0.50663517  0.50398745  1
  Na  Na9  1  0.57097831  0.23112947  0.75000000  1
  Na  Na10  1  0.27654242  0.23756401  0.86224778  1
  Na  Na11  1  0.51873316  0.00979046  0.11247628  1
  Na  Na12  1  0.98126684  0.50979046  0.38752372  1
  Na  Na13  1  0.75778226  0.24463016  0.60371283  1
  Na  Na14  1  0.77778616  0.00663517  0.99601255  1
  Na  Na15  1  0.72345758  0.76243599  0.13775222  1
  Na  Na16  1  0.77654242  0.26243599  0.36224778  1
  Na  Na17  1  0.01873316  0.49020954  0.61247628  1
  Na  Na18  1  0.25778226  0.25536984  0.39628717  1
  Na  Na19  1  0.92902169  0.73112947  0.75000000  1
  Na  Na20  1  0.48126684  0.99020954  0.61247628  1
  Na  Na21  1  0.51691453  0.70844910  0.75000000  1
  Na  Na22  1  0.22345758  0.73756401  0.63775222  1
  Na  Na23  1  0.22221384  0.99336483  0.49601255  1
  Na  Na24  1  0.51873316  0.00979046  0.38752372  1
  Na  Na25  1  0.74221774  0.74463016  0.89628717  1
  Na  Na26  1  0.01873316  0.49020954  0.88752372  1
  Na  Na27  1  0.25778226  0.25536984  0.10371283  1
  Na  Na28  1  0.74221774  0.74463016  0.60371283  1
  Na  Na29  1  0.42902169  0.76887053  0.25000000  1
  Na  Na30  1  0.07097831  0.26887053  0.25000000  1
  Na  Na31  1  0.98126684  0.50979046  0.11247628  1
  Na  Na32  1  0.98308547  0.20844910  0.75000000  1
  Na  Na33  1  0.77654242  0.26243599  0.13775222  1
  Na  Na34  1  0.22345758  0.73756401  0.86224778  1
  Na  Na35  1  0.24221774  0.75536984  0.10371283  1
  Na  Na36  1  0.48126684  0.99020954  0.88752372  1
  Na  Na37  1  0.22221384  0.99336483  0.00398745  1
  Na  Na38  1  0.27778616  0.49336483  0.49601255  1
  Na  Na39  1  0.01691453  0.79155090  0.25000000  1
  Li  Li40  1  0.00233965  0.98730979  0.86011456  1
  Li  Li41  1  0.99766035  0.01269021  0.13988544  1
  Li  Li42  1  0.00233965  0.98730979  0.63988544  1
  Li  Li43  1  0.50233965  0.51269021  0.13988544  1
  Li  Li44  1  0.49766035  0.48730979  0.86011456  1
  Li  Li45  1  0.49766035  0.48730979  0.63988544  1
  Li  Li46  1  0.99766035  0.01269021  0.36011456  1
  Li  Li47  1  0.50233965  0.51269021  0.36011456  1
  Mn  Mn48  1  0.49383401  0.74805292  0.49946104  1
  Mn  Mn49  1  0.50616599  0.25194708  0.99946104  1
  Mn  Mn50  1  0.49383401  0.74805292  0.00053896  1
  Mn  Mn51  1  0.25429688  0.02070889  0.25000000  1
  Mn  Mn52  1  0.22869572  0.49291784  0.75000000  1
  Mn  Mn53  1  0.50616599  0.25194708  0.50053896  1
  Mn  Mn54  1  0.00616599  0.24805292  0.00053896  1
  Mn  Mn55  1  0.00616599  0.24805292  0.49946104  1
  Mn  Mn56  1  0.75429688  0.47929111  0.75000000  1
  Mn  Mn57  1  0.27130428  0.99291784  0.75000000  1
  Mn  Mn58  1  0.99383401  0.75194708  0.99946104  1
  Mn  Mn59  1  0.24570312  0.52070889  0.25000000  1
  Mn  Mn60  1  0.74570312  0.97929111  0.75000000  1
  Mn  Mn61  1  0.77130428  0.50708216  0.25000000  1
  Mn  Mn62  1  0.72869572  0.00708216  0.25000000  1
  Mn  Mn63  1  0.99383401  0.75194708  0.50053896  1
  O  O64  1  0.11495424  0.61040524  0.75000000  1
  O  O65  1  0.68330663  0.04730976  0.84247330  1
  O  O66  1  0.61495424  0.88959476  0.25000000  1
  O  O67  1  0.11184514  0.64042393  0.98803105  1
  O  O68  1  0.44974913  0.36343529  0.07174382  1
  O  O69  1  0.94974913  0.13656471  0.57174382  1
  O  O70  1  0.45933732  0.68088452  0.39935659  1
  O  O71  1  0.28864657  0.18037877  0.25000000  1
  O  O72  1  0.61184514  0.85957607  0.48803105  1
  O  O73  1  0.38504576  0.11040524  0.75000000  1
  O  O74  1  0.86078652  0.67638375  0.46412783  1
  O  O75  1  0.81580140  0.98791513  0.15562228  1
  O  O76  1  0.05025087  0.86343529  0.07174382  1
  O  O77  1  0.81669337  0.54730976  0.84247330  1
  O  O78  1  0.18330663  0.45269024  0.15752670  1
  O  O79  1  0.31669337  0.95269024  0.15752670  1
  O  O80  1  0.13921348  0.32361625  0.53587217  1
  O  O81  1  0.34721998  0.84959570  0.75000000  1
  O  O82  1  0.63921348  0.17638375  0.03587217  1
  O  O83  1  0.13921348  0.32361625  0.96412783  1
  O  O84  1  0.81669337  0.54730976  0.65752670  1
  O  O85  1  0.05025087  0.86343529  0.42825618  1
  O  O86  1  0.55025087  0.63656471  0.92825618  1
  O  O87  1  0.31669337  0.95269024  0.34247330  1
  O  O88  1  0.68419860  0.48791513  0.15562228  1
  O  O89  1  0.55025087  0.63656471  0.57174382  1
  O  O90  1  0.84721998  0.65040430  0.25000000  1
  O  O91  1  0.90882351  0.99833817  0.75000000  1
  O  O92  1  0.45933732  0.68088452  0.10064341  1
  O  O93  1  0.04066268  0.18088452  0.39935659  1
  O  O94  1  0.94974913  0.13656471  0.92825618  1
  O  O95  1  0.71135343  0.81962123  0.75000000  1
  O  O96  1  0.11184514  0.64042393  0.51196895  1
  O  O97  1  0.68330663  0.04730976  0.65752670  1
  O  O98  1  0.88815486  0.35957607  0.48803105  1
  O  O99  1  0.38815486  0.14042393  0.51196895  1
  O  O100  1  0.88815486  0.35957607  0.01196895  1
  O  O101  1  0.59117649  0.49833817  0.75000000  1
  O  O102  1  0.95933732  0.81911548  0.60064341  1
  O  O103  1  0.04066268  0.18088452  0.10064341  1
  O  O104  1  0.78864657  0.31962123  0.75000000  1
  O  O105  1  0.18419860  0.01208487  0.84437772  1
  O  O106  1  0.88504576  0.38959476  0.25000000  1
  O  O107  1  0.40882351  0.50166183  0.25000000  1
  O  O108  1  0.36078652  0.82361625  0.96412783  1
  O  O109  1  0.95933732  0.81911548  0.89935659  1
  O  O110  1  0.81580140  0.98791513  0.34437772  1
  O  O111  1  0.65278002  0.15040430  0.25000000  1
  O  O112  1  0.68419860  0.48791513  0.34437772  1
  O  O113  1  0.54066268  0.31911548  0.60064341  1
  O  O114  1  0.63921348  0.17638375  0.46412783  1
  O  O115  1  0.15278002  0.34959570  0.75000000  1
  O  O116  1  0.18330663  0.45269024  0.34247330  1
  O  O117  1  0.36078652  0.82361625  0.53587217  1
  O  O118  1  0.86078652  0.67638375  0.03587217  1
  O  O119  1  0.54066268  0.31911548  0.89935659  1
  O  O120  1  0.44974913  0.36343529  0.42825618  1
  O  O121  1  0.61184514  0.85957607  0.01196895  1
  O  O122  1  0.18419860  0.01208487  0.65562228  1
  O  O123  1  0.21135343  0.68037877  0.25000000  1
  O  O124  1  0.09117649  0.00166183  0.25000000  1
  O  O125  1  0.38815486  0.14042393  0.98803105  1
  O  O126  1  0.31580140  0.51208487  0.84437772  1
  O  O127  1  0.31580140  0.51208487  0.65562228  1
