# generated using pymatgen
data_KVCdO4
_symmetry_space_group_name_H-M   'P 1'
_cell_length_a   5.82004704
_cell_length_b   15.15648258
_cell_length_c   20.24475303
_cell_angle_alpha   90.30077164
_cell_angle_beta   90.00000000
_cell_angle_gamma   90.00000000
_symmetry_Int_Tables_number   1
_chemical_formula_structural   KVCdO4
_chemical_formula_sum   'K16 V16 Cd16 O64'
_cell_volume   1785.79424353
_cell_formula_units_Z   16
loop_
 _symmetry_equiv_pos_site_id
 _symmetry_equiv_pos_as_xyz
  1  'x, y, z'
loop_
 _atom_site_type_symbol
 _atom_site_label
 _atom_site_symmetry_multiplicity
 _atom_site_fract_x
 _atom_site_fract_y
 _atom_site_fract_z
 _atom_site_occupancy
  K  K0  1  0.78440945  0.75110475  0.86370143  1
  K  K1  1  0.78276130  0.62550324  0.20581335  1
  K  K2  1  0.21904465  0.24720127  0.61631424  1
  K  K3  1  0.71904465  0.25279873  0.88368576  1
  K  K4  1  0.28276130  0.87449676  0.29418665  1
  K  K5  1  0.71723870  0.12550324  0.70581335  1
  K  K6  1  0.21559055  0.24889525  0.13629857  1
  K  K7  1  0.78522880  0.89618240  0.04367596  1
  K  K8  1  0.28522880  0.60381760  0.45632404  1
  K  K9  1  0.28095535  0.74720127  0.11631424  1
  K  K10  1  0.78095535  0.75279873  0.38368576  1
  K  K11  1  0.71477120  0.39618240  0.54367596  1
  K  K12  1  0.28440945  0.74889525  0.63629857  1
  K  K13  1  0.21723870  0.37449676  0.79418665  1
  K  K14  1  0.21477120  0.10381760  0.95632404  1
  K  K15  1  0.71559055  0.25110475  0.36370143  1
  V  V16  1  0.22561334  0.88534628  0.46265490  1
  V  V17  1  0.77595329  0.63363125  0.54211839  1
  V  V18  1  0.27595329  0.86636875  0.95788161  1
  V  V19  1  0.22404671  0.36636875  0.45788161  1
  V  V20  1  0.72854783  0.38777799  0.71559947  1
  V  V21  1  0.74240970  0.36449057  0.20769331  1
  V  V22  1  0.77145217  0.88777799  0.21559947  1
  V  V23  1  0.77438666  0.11465372  0.53734510  1
  V  V24  1  0.25759030  0.63550943  0.79230669  1
  V  V25  1  0.22854783  0.11222201  0.78440053  1
  V  V26  1  0.27145217  0.61222201  0.28440053  1
  V  V27  1  0.75759030  0.86449057  0.70769331  1
  V  V28  1  0.27438666  0.38534628  0.96265490  1
  V  V29  1  0.72561334  0.61465372  0.03734510  1
  V  V30  1  0.72404671  0.13363125  0.04211839  1
  V  V31  1  0.24240970  0.13550943  0.29230669  1
  Cd  Cd32  1  0.74726179  0.50925458  0.87735247  1
  Cd  Cd33  1  0.23302056  0.39449308  0.30295411  1
  Cd  Cd34  1  0.24726179  0.99074542  0.62264753  1
  Cd  Cd35  1  0.73302056  0.10550692  0.19704589  1
  Cd  Cd36  1  0.21484453  0.60796461  0.95380693  1
  Cd  Cd37  1  0.75144422  0.99889282  0.87105798  1
  Cd  Cd38  1  0.26697944  0.89449308  0.80295411  1
  Cd  Cd39  1  0.71484453  0.89203539  0.54619307  1
  Cd  Cd40  1  0.25144422  0.50110718  0.62894202  1
  Cd  Cd41  1  0.76697944  0.60550692  0.69704589  1
  Cd  Cd42  1  0.28515547  0.10796461  0.45380693  1
  Cd  Cd43  1  0.78515547  0.39203539  0.04619307  1
  Cd  Cd44  1  0.24855578  0.00110718  0.12894202  1
  Cd  Cd45  1  0.75273821  0.00925458  0.37735247  1
  Cd  Cd46  1  0.25273821  0.49074542  0.12264753  1
  Cd  Cd47  1  0.74855578  0.49889282  0.37105798  1
  O  O48  1  0.87831574  0.90579811  0.78117657  1
  O  O49  1  0.75689506  0.75077257  0.70823294  1
  O  O50  1  0.31230808  0.59200260  0.19943237  1
  O  O51  1  0.03401073  0.88740982  0.17245324  1
  O  O52  1  0.68716480  0.08826025  0.96338595  1
  O  O53  1  0.02718341  0.40133358  0.19997902  1
  O  O54  1  0.62606547  0.79179870  0.20808917  1
  O  O55  1  0.52049719  0.88235230  0.90810831  1
  O  O56  1  0.12606547  0.70820130  0.29191083  1
  O  O57  1  0.95243335  0.08020131  0.08134771  1
  O  O58  1  0.73105599  0.21411154  0.57282195  1
  O  O59  1  0.17838547  0.38290358  0.04607363  1
  O  O60  1  0.54756665  0.58020131  0.58134771  1
  O  O61  1  0.07530389  0.09966708  0.35928553  1
  O  O62  1  0.97281659  0.59866642  0.80002098  1
  O  O63  1  0.24310494  0.24922743  0.29176706  1
  O  O64  1  0.88935175  0.53676461  0.08071244  1
  O  O65  1  0.81283520  0.58826025  0.46338595  1
  O  O66  1  0.04756665  0.91979869  0.91865229  1
  O  O67  1  0.18769192  0.09200260  0.69943237  1
  O  O68  1  0.76894401  0.71411154  0.07282195  1
  O  O69  1  0.87393453  0.29179870  0.70808917  1
  O  O70  1  0.25689506  0.74922743  0.79176706  1
  O  O71  1  0.59087293  0.97083623  0.18131870  1
  O  O72  1  0.40912707  0.02916377  0.81868130  1
  O  O73  1  0.96598927  0.11259018  0.82754676  1
  O  O74  1  0.37393453  0.20820130  0.79191083  1
  O  O75  1  0.46598927  0.38740982  0.67245324  1
  O  O76  1  0.82161453  0.61709642  0.95392637  1
  O  O77  1  0.07132775  0.08602165  0.54397741  1
  O  O78  1  0.26894401  0.78588846  0.42717805  1
  O  O79  1  0.09087293  0.52916377  0.31868130  1
  O  O80  1  0.32161453  0.88290358  0.54607363  1
  O  O81  1  0.31283520  0.91173975  0.03661405  1
  O  O82  1  0.38935175  0.96323539  0.41928756  1
  O  O83  1  0.28236371  0.25540100  0.46599787  1
  O  O84  1  0.47950281  0.11764770  0.09189169  1
  O  O85  1  0.21763629  0.75540100  0.96599787  1
  O  O86  1  0.45243335  0.41979869  0.41865229  1
  O  O87  1  0.37831574  0.59420189  0.71882343  1
  O  O88  1  0.12168426  0.09420189  0.21882343  1
  O  O89  1  0.67838547  0.11709642  0.45392637  1
  O  O90  1  0.11064825  0.46323539  0.91928756  1
  O  O91  1  0.90912707  0.47083623  0.68131870  1
  O  O92  1  0.23105599  0.28588846  0.92717805  1
  O  O93  1  0.74310494  0.25077257  0.20823294  1
  O  O94  1  0.92469611  0.90033292  0.64071447  1
  O  O95  1  0.47281659  0.90133358  0.69997902  1
  O  O96  1  0.53401073  0.61259018  0.32754676  1
  O  O97  1  0.81230808  0.90799740  0.30056763  1
  O  O98  1  0.71763629  0.74459900  0.53400213  1
  O  O99  1  0.52718341  0.09866642  0.30002098  1
  O  O100  1  0.62168426  0.40579811  0.28117657  1
  O  O101  1  0.02049719  0.61764770  0.59189169  1
  O  O102  1  0.57132775  0.41397835  0.95602259  1
  O  O103  1  0.97950281  0.38235230  0.40810831  1
  O  O104  1  0.57530389  0.40033292  0.14071447  1
  O  O105  1  0.18716480  0.41173975  0.53661405  1
  O  O106  1  0.68769192  0.40799740  0.80056763  1
  O  O107  1  0.61064825  0.03676461  0.58071244  1
  O  O108  1  0.78236371  0.24459900  0.03400213  1
  O  O109  1  0.92867225  0.91397835  0.45602259  1
  O  O110  1  0.42469611  0.59966708  0.85928553  1
  O  O111  1  0.42867225  0.58602165  0.04397741  1
