# generated using pymatgen
data_YbZr6(PO4)9
_symmetry_space_group_name_H-M   'P 1'
_cell_length_a   8.99054824
_cell_length_b   8.99054865
_cell_length_c   22.81548095
_cell_angle_alpha   90.00000000
_cell_angle_beta   90.00000000
_cell_angle_gamma   119.99999850
_symmetry_Int_Tables_number   1
_chemical_formula_structural   YbZr6(PO4)9
_chemical_formula_sum   'Yb2 Zr12 P18 O72'
_cell_volume   1597.10194043
_cell_formula_units_Z   2
loop_
 _symmetry_equiv_pos_site_id
 _symmetry_equiv_pos_as_xyz
  1  'x, y, z'
loop_
 _atom_site_type_symbol
 _atom_site_label
 _atom_site_symmetry_multiplicity
 _atom_site_fract_x
 _atom_site_fract_y
 _atom_site_fract_z
 _atom_site_occupancy
  Yb  Yb0  1  0.00000000  0.00000000  0.50000000  1
  Yb  Yb1  1  0.00000000  0.00000000  0.00000000  1
  Zr  Zr2  1  0.33333300  0.66666700  0.81086936  1
  Zr  Zr3  1  0.66666700  0.33333300  0.97023379  1
  Zr  Zr4  1  0.33333300  0.66666700  0.02976621  1
  Zr  Zr5  1  0.66666700  0.33333300  0.18913064  1
  Zr  Zr6  1  0.66666700  0.33333300  0.47023379  1
  Zr  Zr7  1  0.00000000  0.00000000  0.64692936  1
  Zr  Zr8  1  0.33333300  0.66666700  0.31086936  1
  Zr  Zr9  1  0.00000000  0.00000000  0.35307064  1
  Zr  Zr10  1  0.66666700  0.33333300  0.68913064  1
  Zr  Zr11  1  0.33333300  0.66666700  0.52976621  1
  Zr  Zr12  1  0.00000000  0.00000000  0.14692936  1
  Zr  Zr13  1  0.00000000  0.00000000  0.85307064  1
  P  P14  1  0.94644966  0.32071364  0.57976656  1
  P  P15  1  0.32071364  0.37426398  0.42023344  1
  P  P16  1  0.32071364  0.94644966  0.92023344  1
  P  P17  1  0.37426398  0.05355034  0.57976656  1
  P  P18  1  1.00000000  0.71056651  0.75000000  1
  P  P19  1  0.05355034  0.37426398  0.92023344  1
  P  P20  1  0.62573602  0.94644966  0.42023344  1
  P  P21  1  0.28943349  0.00000000  0.25000000  1
  P  P22  1  0.28943349  0.28943349  0.75000000  1
  P  P23  1  0.71056651  0.00000000  0.75000000  1
  P  P24  1  0.67928636  0.62573602  0.57976656  1
  P  P25  1  0.37426398  0.32071364  0.07976656  1
  P  P26  1  0.71056651  0.71056651  0.25000000  1
  P  P27  1  0.67928636  0.05355034  0.07976656  1
  P  P28  1  0.05355034  0.67928636  0.42023344  1
  P  P29  1  0.00000000  0.28943349  0.25000000  1
  P  P30  1  0.94644966  0.62573602  0.07976656  1
  P  P31  1  0.62573602  0.67928636  0.92023344  1
  O  O32  1  0.32464142  0.85290669  0.86469703  1
  O  O33  1  0.15960151  0.97100627  0.92005048  1
  O  O34  1  0.97100627  0.15960151  0.57994952  1
  O  O35  1  0.12548586  0.64219843  0.07762483  1
  O  O36  1  0.18859525  0.15960151  0.07994952  1
  O  O37  1  0.85290669  0.32464142  0.63530297  1
  O  O38  1  0.48328743  0.12548586  0.92237517  1
  O  O39  1  0.30686938  0.84246150  0.97549277  1
  O  O40  1  0.79778757  0.82501539  0.19548354  1
  O  O41  1  0.84039849  0.02899373  0.07994952  1
  O  O42  1  0.18859525  0.02899373  0.57994952  1
  O  O43  1  0.84139579  0.53343080  0.74150655  1
  O  O44  1  0.12548586  0.48328743  0.57762483  1
  O  O45  1  0.85290669  0.52826527  0.13530297  1
  O  O46  1  0.20221243  0.17498461  0.80451646  1
  O  O47  1  0.15753850  0.46440788  0.97549277  1
  O  O48  1  0.15860421  0.69203501  0.75849345  1
  O  O49  1  0.32464142  0.47173473  0.36469703  1
  O  O50  1  0.15860421  0.46656920  0.25849345  1
  O  O51  1  0.53343080  0.69203501  0.25849345  1
  O  O52  1  0.52826527  0.85290669  0.36469703  1
  O  O53  1  0.84246150  0.53559212  0.02450723  1
  O  O54  1  0.97277218  0.79778757  0.80451646  1
  O  O55  1  0.52826527  0.67535858  0.86469703  1
  O  O56  1  0.64219843  0.51671257  0.92237517  1
  O  O57  1  0.14709331  0.67535858  0.36469703  1
  O  O58  1  0.53343080  0.84139579  0.75849345  1
  O  O59  1  0.20221243  0.02722782  0.30451646  1
  O  O60  1  0.51671257  0.87451414  0.07762483  1
  O  O61  1  0.82501539  0.79778757  0.30451646  1
  O  O62  1  0.81140475  0.97100627  0.42005048  1
  O  O63  1  0.87451414  0.35780157  0.92237517  1
  O  O64  1  0.69203501  0.15860421  0.74150655  1
  O  O65  1  0.46440788  0.15753850  0.52450723  1
  O  O66  1  0.87451414  0.51671257  0.42237517  1
  O  O67  1  0.30686938  0.46440788  0.47549277  1
  O  O68  1  0.79778757  0.97277218  0.69548354  1
  O  O69  1  0.47173473  0.14709331  0.63530297  1
  O  O70  1  0.15960151  0.18859525  0.42005048  1
  O  O71  1  0.51671257  0.64219843  0.57762483  1
  O  O72  1  0.35780157  0.48328743  0.07762483  1
  O  O73  1  0.02899373  0.84039849  0.42005048  1
  O  O74  1  0.47173473  0.32464142  0.13530297  1
  O  O75  1  0.46656920  0.30796499  0.74150655  1
  O  O76  1  0.53559212  0.84246150  0.47549277  1
  O  O77  1  0.35780157  0.87451414  0.57762483  1
  O  O78  1  0.17498461  0.97277218  0.19548354  1
  O  O79  1  0.84039849  0.81140475  0.57994952  1
  O  O80  1  0.81140475  0.84039849  0.92005048  1
  O  O81  1  0.02722782  0.20221243  0.19548354  1
  O  O82  1  0.14709331  0.47173473  0.86469703  1
  O  O83  1  0.64219843  0.12548586  0.42237517  1
  O  O84  1  0.97277218  0.17498461  0.30451646  1
  O  O85  1  0.69313062  0.15753850  0.02450723  1
  O  O86  1  0.84246150  0.30686938  0.52450723  1
  O  O87  1  0.67535858  0.14709331  0.13530297  1
  O  O88  1  0.02899373  0.18859525  0.92005048  1
  O  O89  1  0.17498461  0.20221243  0.69548354  1
  O  O90  1  0.30796499  0.84139579  0.25849345  1
  O  O91  1  0.69313062  0.53559212  0.52450723  1
  O  O92  1  0.53559212  0.69313062  0.97549277  1
  O  O93  1  0.46440788  0.30686938  0.02450723  1
  O  O94  1  0.82501539  0.02722782  0.80451646  1
  O  O95  1  0.69203501  0.53343080  0.24150655  1
  O  O96  1  0.02722782  0.82501539  0.69548354  1
  O  O97  1  0.30796499  0.46656920  0.75849345  1
  O  O98  1  0.67535858  0.52826527  0.63530297  1
  O  O99  1  0.97100627  0.81140475  0.07994952  1
  O  O100  1  0.48328743  0.35780157  0.42237517  1
  O  O101  1  0.15753850  0.69313062  0.47549277  1
  O  O102  1  0.46656920  0.15860421  0.24150655  1
  O  O103  1  0.84139579  0.30796499  0.24150655  1
