# generated using pymatgen
data_V2Cd4(TeO5)3
_symmetry_space_group_name_H-M   'P 1'
_cell_length_a   5.47985495
_cell_length_b   16.68679695
_cell_length_c   16.37836946
_cell_angle_alpha   90.00000000
_cell_angle_beta   90.00000000
_cell_angle_gamma   90.00000000
_symmetry_Int_Tables_number   1
_chemical_formula_structural   V2Cd4(TeO5)3
_chemical_formula_sum   'V8 Cd16 Te12 O60'
_cell_volume   1497.65819749
_cell_formula_units_Z   4
loop_
 _symmetry_equiv_pos_site_id
 _symmetry_equiv_pos_as_xyz
  1  'x, y, z'
loop_
 _atom_site_type_symbol
 _atom_site_label
 _atom_site_symmetry_multiplicity
 _atom_site_fract_x
 _atom_site_fract_y
 _atom_site_fract_z
 _atom_site_occupancy
  V  V0  1  0.53525084  0.31898148  0.83305813  1
  V  V1  1  0.05828163  0.68872088  0.99911384  1
  V  V2  1  0.94171837  0.18872088  0.50088616  1
  V  V3  1  0.55828163  0.81127912  0.00088616  1
  V  V4  1  0.44171837  0.31127912  0.49911384  1
  V  V5  1  0.03525084  0.18101852  0.16694187  1
  V  V6  1  0.96474916  0.68101852  0.33305813  1
  V  V7  1  0.46474916  0.81898148  0.66694187  1
  Cd  Cd8  1  0.99725626  0.98729989  0.33671393  1
  Cd  Cd9  1  0.01107619  0.16543021  0.83712190  1
  Cd  Cd10  1  0.92448598  0.02015236  0.66455565  1
  Cd  Cd11  1  0.07551402  0.52015236  0.83544435  1
  Cd  Cd12  1  0.06546431  0.01516673  0.00384767  1
  Cd  Cd13  1  0.42448598  0.47984764  0.33544435  1
  Cd  Cd14  1  0.43453569  0.98483327  0.50384767  1
  Cd  Cd15  1  0.48892381  0.83456979  0.33712190  1
  Cd  Cd16  1  0.93453569  0.51516673  0.49615233  1
  Cd  Cd17  1  0.49725626  0.51270011  0.66328607  1
  Cd  Cd18  1  0.51107619  0.33456979  0.16287810  1
  Cd  Cd19  1  0.00274374  0.48729989  0.16328607  1
  Cd  Cd20  1  0.57551402  0.97984764  0.16455565  1
  Cd  Cd21  1  0.50274374  0.01270011  0.83671393  1
  Cd  Cd22  1  0.98892381  0.66543021  0.66287810  1
  Cd  Cd23  1  0.56546431  0.48483327  0.99615233  1
  Te  Te24  1  0.47918269  0.13103917  0.32454230  1
  Te  Te25  1  0.54714900  0.64393033  0.82261853  1
  Te  Te26  1  0.95339907  0.86226320  0.50022474  1
  Te  Te27  1  0.95285100  0.35606967  0.32261853  1
  Te  Te28  1  0.97918269  0.36896083  0.67545770  1
  Te  Te29  1  0.04714900  0.85606967  0.17738147  1
  Te  Te30  1  0.45339907  0.63773680  0.49977526  1
  Te  Te31  1  0.52081731  0.63103917  0.17545770  1
  Te  Te32  1  0.04660093  0.36226320  0.99977526  1
  Te  Te33  1  0.02081731  0.86896083  0.82454230  1
  Te  Te34  1  0.45285100  0.14393033  0.67738147  1
  Te  Te35  1  0.54660093  0.13773680  0.00022474  1
  O  O36  1  0.43626845  0.56319024  0.89563662  1
  O  O37  1  0.21013855  0.12347122  0.24420582  1
  O  O38  1  0.31440960  0.36911323  0.57212690  1
  O  O39  1  0.31121341  0.55758626  0.22788596  1
  O  O40  1  0.89530669  0.12154072  0.09491243  1
  O  O41  1  0.21553266  0.88362758  0.42473527  1
  O  O42  1  0.24036311  0.57506473  0.56906506  1
  O  O43  1  0.80960852  0.44002702  0.60610964  1
  O  O44  1  0.10469331  0.62154072  0.40508757  1
  O  O45  1  0.81440960  0.13088677  0.42787310  1
  O  O46  1  0.71553266  0.61637242  0.57526473  1
  O  O47  1  0.30960852  0.05997298  0.39389036  1
  O  O48  1  0.25963689  0.42493527  0.06906506  1
  O  O49  1  0.94312786  0.63557578  0.92075248  1
  O  O50  1  0.26262764  0.92111442  0.24223976  1
  O  O51  1  0.74036311  0.92493527  0.43093494  1
  O  O52  1  0.39530669  0.37845928  0.90508757  1
  O  O53  1  0.80166697  0.74688798  0.04069412  1
  O  O54  1  0.22003501  0.37989725  0.25195514  1
  O  O55  1  0.06373155  0.43680976  0.39563662  1
  O  O56  1  0.75537743  0.74045452  0.38372206  1
  O  O57  1  0.81121341  0.94241374  0.77211404  1
  O  O58  1  0.30166697  0.75311202  0.95930588  1
  O  O59  1  0.78446734  0.38362758  0.07526473  1
  O  O60  1  0.68878659  0.05758626  0.27211404  1
  O  O61  1  0.24462257  0.24045452  0.11627794  1
  O  O62  1  0.68584525  0.75862378  0.71149791  1
  O  O63  1  0.27996499  0.62010275  0.75195514  1
  O  O64  1  0.74462257  0.25954548  0.88372206  1
  O  O65  1  0.93626845  0.93680976  0.10436338  1
  O  O66  1  0.42222515  0.05284200  0.06550533  1
  O  O67  1  0.81415475  0.24137622  0.21149791  1
  O  O68  1  0.60469331  0.87845928  0.59491243  1
  O  O69  1  0.31415475  0.25862378  0.78850209  1
  O  O70  1  0.72003501  0.12010275  0.74804486  1
  O  O71  1  0.28986145  0.87652878  0.74420582  1
  O  O72  1  0.55687214  0.36442422  0.42075248  1
  O  O73  1  0.71013855  0.37652878  0.75579418  1
  O  O74  1  0.07777485  0.94715800  0.56550533  1
  O  O75  1  0.69039148  0.55997298  0.10610964  1
  O  O76  1  0.19833303  0.24688798  0.45930588  1
  O  O77  1  0.77996499  0.87989725  0.24804486  1
  O  O78  1  0.78986145  0.62347122  0.25579418  1
  O  O79  1  0.92222515  0.44715800  0.93449467  1
  O  O80  1  0.69833303  0.25311202  0.54069412  1
  O  O81  1  0.18559040  0.63088677  0.07212690  1
  O  O82  1  0.76262764  0.57888558  0.75776024  1
  O  O83  1  0.18878659  0.44241374  0.72788596  1
  O  O84  1  0.73737236  0.42111442  0.25776024  1
  O  O85  1  0.25537743  0.75954548  0.61627794  1
  O  O86  1  0.75963689  0.07506473  0.93093494  1
  O  O87  1  0.57777485  0.55284200  0.43449467  1
  O  O88  1  0.05687214  0.13557578  0.57924752  1
  O  O89  1  0.68559040  0.86911323  0.92787310  1
  O  O90  1  0.56373155  0.06319024  0.60436338  1
  O  O91  1  0.23737236  0.07888558  0.74223976  1
  O  O92  1  0.18584525  0.74137622  0.28850209  1
  O  O93  1  0.28446734  0.11637242  0.92473527  1
  O  O94  1  0.19039148  0.94002702  0.89389036  1
  O  O95  1  0.44312786  0.86442422  0.07924752  1
