# generated using pymatgen
data_Na9V14O35
_symmetry_space_group_name_H-M   'P 1'
_cell_length_a   5.22175405
_cell_length_b   15.36364725
_cell_length_c   21.05163428
_cell_angle_alpha   109.07215237
_cell_angle_beta   90.00000000
_cell_angle_gamma   90.00000000
_symmetry_Int_Tables_number   1
_chemical_formula_structural   Na9V14O35
_chemical_formula_sum   'Na18 V28 O70'
_cell_volume   1596.16550714
_cell_formula_units_Z   2
loop_
 _symmetry_equiv_pos_site_id
 _symmetry_equiv_pos_as_xyz
  1  'x, y, z'
loop_
 _atom_site_type_symbol
 _atom_site_label
 _atom_site_symmetry_multiplicity
 _atom_site_fract_x
 _atom_site_fract_y
 _atom_site_fract_z
 _atom_site_occupancy
  Na  Na0  1  0.40963972  0.00000000  0.75000000  1
  Na  Na1  1  0.37191689  0.56902943  0.84847124  1
  Na  Na2  1  0.62808311  0.56902943  0.34847124  1
  Na  Na3  1  0.62170566  0.34927091  0.38377432  1
  Na  Na4  1  0.36736948  0.86661334  0.57754419  1
  Na  Na5  1  0.61273661  0.78257194  0.30216831  1
  Na  Na6  1  0.63263052  0.13338666  0.42245581  1
  Na  Na7  1  0.62170566  0.65072909  0.11622568  1
  Na  Na8  1  0.59036028  0.00000000  0.25000000  1
  Na  Na9  1  0.37829434  0.65072909  0.61622568  1
  Na  Na10  1  0.38726339  0.78257194  0.80216831  1
  Na  Na11  1  0.38726339  0.21742806  0.69783169  1
  Na  Na12  1  0.63263052  0.86661334  0.07754419  1
  Na  Na13  1  0.37191689  0.43097057  0.65152876  1
  Na  Na14  1  0.37829434  0.34927091  0.88377432  1
  Na  Na15  1  0.36736948  0.13338666  0.92245581  1
  Na  Na16  1  0.61273661  0.21742806  0.19783169  1
  Na  Na17  1  0.62808311  0.43097057  0.15152876  1
  V  V18  1  0.10004416  0.69967551  0.02387086  1
  V  V19  1  0.85400388  0.40284987  0.76860997  1
  V  V20  1  0.89957242  0.48819886  0.56509333  1
  V  V21  1  0.89910976  0.27614004  0.60687623  1
  V  V22  1  0.08204255  0.06429297  0.15143017  1
  V  V23  1  0.10042758  0.51180114  0.43490667  1
  V  V24  1  0.88864721  0.90890107  0.47961832  1
  V  V25  1  0.08204255  0.93570703  0.34856983  1
  V  V26  1  0.14599612  0.59715013  0.23139003  1
  V  V27  1  0.11135279  0.09109893  0.52038168  1
  V  V28  1  0.11135279  0.90890107  0.97961832  1
  V  V29  1  0.07386165  0.14395073  0.31792545  1
  V  V30  1  0.07386165  0.85604927  0.18207455  1
  V  V31  1  0.89995584  0.30032449  0.97612914  1
  V  V32  1  0.88864721  0.09109893  0.02038168  1
  V  V33  1  0.89957242  0.51180114  0.93490667  1
  V  V34  1  0.89995584  0.69967551  0.52387086  1
  V  V35  1  0.91795745  0.93570703  0.84856983  1
  V  V36  1  0.92613835  0.14395073  0.81792545  1
  V  V37  1  0.10089024  0.72385996  0.39312377  1
  V  V38  1  0.10004416  0.30032449  0.47612914  1
  V  V39  1  0.85400388  0.59715013  0.73139003  1
  V  V40  1  0.10042758  0.48819886  0.06509333  1
  V  V41  1  0.10089024  0.27614004  0.10687623  1
  V  V42  1  0.91795745  0.06429297  0.65143017  1
  V  V43  1  0.92613835  0.85604927  0.68207455  1
  V  V44  1  0.14599612  0.40284987  0.26860997  1
  V  V45  1  0.89910976  0.72385996  0.89312377  1
  O  O46  1  0.41326616  0.50030053  0.08126902  1
  O  O47  1  0.03336765  0.20215109  0.01015237  1
  O  O48  1  0.41316480  0.71117513  0.37683087  1
  O  O49  1  0.03532947  0.16140439  0.61485030  1
  O  O50  1  0.03412669  0.62798193  0.92725014  1
  O  O51  1  0.03995060  0.41648879  0.96853487  1
  O  O52  1  0.95517397  0.44696038  0.34065749  1
  O  O53  1  0.96467053  0.83859561  0.38514970  1
  O  O54  1  0.60570334  0.86176164  0.67940958  1
  O  O55  1  0.04482603  0.44696038  0.84065749  1
  O  O56  1  0.03943157  0.00813448  0.94164916  1
  O  O57  1  0.60570334  0.13823836  0.82059042  1
  O  O58  1  0.95186055  0.23627997  0.38567382  1
  O  O59  1  0.58673384  0.50030053  0.58126902  1
  O  O60  1  0.41316480  0.28882487  0.12316913  1
  O  O61  1  0.96587331  0.62798193  0.42725014  1
  O  O62  1  0.39958150  0.93548259  0.34235659  1
  O  O63  1  0.41352795  0.70944790  0.03722677  1
  O  O64  1  0.95306518  0.34707181  0.19889507  1
  O  O65  1  0.95517397  0.55303962  0.15934251  1
  O  O66  1  0.96467053  0.16140439  0.11485030  1
  O  O67  1  0.58078949  0.09817549  0.00860203  1
  O  O68  1  0.05162330  0.95837843  0.67335312  1
  O  O69  1  0.41921051  0.09817549  0.50860203  1
  O  O70  1  0.04813945  0.76372003  0.61432618  1
  O  O71  1  0.41921051  0.90182451  0.99139797  1
  O  O72  1  0.60041850  0.93548259  0.84235659  1
  O  O73  1  0.62299715  0.66523637  0.71907586  1
  O  O74  1  0.03718542  0.14694009  0.73893827  1
  O  O75  1  0.62299715  0.33476363  0.78092414  1
  O  O76  1  0.96587331  0.37201807  0.07274986  1
  O  O77  1  0.96281458  0.14694009  0.23893827  1
  O  O78  1  0.04693482  0.34707181  0.69889507  1
  O  O79  1  0.03943157  0.99186552  0.55835084  1
  O  O80  1  0.58647205  0.70944790  0.53722677  1
  O  O81  1  0.03412669  0.37201807  0.57274986  1
  O  O82  1  0.96056843  0.99186552  0.05835084  1
  O  O83  1  0.60041850  0.06451741  0.65764341  1
  O  O84  1  0.39429666  0.86176164  0.17940958  1
  O  O85  1  0.58078949  0.90182451  0.49139797  1
  O  O86  1  0.96281458  0.85305991  0.26106173  1
  O  O87  1  0.96056843  0.00813448  0.44164916  1
  O  O88  1  0.04693482  0.65292819  0.80110493  1
  O  O89  1  0.03532947  0.83859561  0.88514970  1
  O  O90  1  0.04813945  0.23627997  0.88567382  1
  O  O91  1  0.58673384  0.49969947  0.91873098  1
  O  O92  1  0.05162330  0.04162157  0.82664688  1
  O  O93  1  0.03718542  0.85305991  0.76106173  1
  O  O94  1  0.58683520  0.71117513  0.87683087  1
  O  O95  1  0.41326616  0.49969947  0.41873098  1
  O  O96  1  0.41352795  0.29055210  0.46277323  1
  O  O97  1  0.03995060  0.58351121  0.53146513  1
  O  O98  1  0.94837670  0.95837843  0.17335312  1
  O  O99  1  0.39958150  0.06451741  0.15764341  1
  O  O100  1  0.96004940  0.41648879  0.46853487  1
  O  O101  1  0.69330741  0.50000000  0.75000000  1
  O  O102  1  0.04482603  0.55303962  0.65934251  1
  O  O103  1  0.37700285  0.33476363  0.28092414  1
  O  O104  1  0.94837670  0.04162157  0.32664688  1
  O  O105  1  0.03336765  0.79784891  0.48984763  1
  O  O106  1  0.96663235  0.20215109  0.51015237  1
  O  O107  1  0.39429666  0.13823836  0.32059042  1
  O  O108  1  0.96663235  0.79784891  0.98984763  1
  O  O109  1  0.58683520  0.28882487  0.62316913  1
  O  O110  1  0.95306518  0.65292819  0.30110493  1
  O  O111  1  0.95186055  0.76372003  0.11432618  1
  O  O112  1  0.58647205  0.29055210  0.96277323  1
  O  O113  1  0.96004940  0.58351121  0.03146513  1
  O  O114  1  0.30669159  0.50000000  0.25000000  1
  O  O115  1  0.37700285  0.66523637  0.21907586  1
