# generated using pymatgen
data_Rb2MgP2WO10
_symmetry_space_group_name_H-M   'P 1'
_cell_length_a   10.00742989
_cell_length_b   12.85786472
_cell_length_c   15.68649099
_cell_angle_alpha   90.00000000
_cell_angle_beta   90.00000000
_cell_angle_gamma   90.00000000
_symmetry_Int_Tables_number   1
_chemical_formula_structural   Rb2MgP2WO10
_chemical_formula_sum   'Rb16 Mg8 P16 W8 O80'
_cell_volume   2018.44636083
_cell_formula_units_Z   8
loop_
 _symmetry_equiv_pos_site_id
 _symmetry_equiv_pos_as_xyz
  1  'x, y, z'
loop_
 _atom_site_type_symbol
 _atom_site_label
 _atom_site_symmetry_multiplicity
 _atom_site_fract_x
 _atom_site_fract_y
 _atom_site_fract_z
 _atom_site_occupancy
  Rb  Rb0  1  0.60571187  0.86723116  0.10769339  1
  Rb  Rb1  1  0.10764401  0.17334722  0.34571538  1
  Rb  Rb2  1  0.39235599  0.82665278  0.84571538  1
  Rb  Rb3  1  0.89235599  0.67334722  0.15428462  1
  Rb  Rb4  1  0.60764401  0.17334722  0.15428462  1
  Rb  Rb5  1  0.39428813  0.36723116  0.39230661  1
  Rb  Rb6  1  0.89428813  0.36723116  0.10769339  1
  Rb  Rb7  1  0.60571187  0.63276884  0.60769339  1
  Rb  Rb8  1  0.10764401  0.32665278  0.84571538  1
  Rb  Rb9  1  0.10571187  0.86723116  0.39230661  1
  Rb  Rb10  1  0.39235599  0.67334722  0.34571538  1
  Rb  Rb11  1  0.89428813  0.13276884  0.60769339  1
  Rb  Rb12  1  0.39428813  0.13276884  0.89230661  1
  Rb  Rb13  1  0.60764401  0.32665278  0.65428462  1
  Rb  Rb14  1  0.10571187  0.63276884  0.89230661  1
  Rb  Rb15  1  0.89235599  0.82665278  0.65428462  1
  Mg  Mg16  1  0.00029545  0.87435749  0.00239291  1
  Mg  Mg17  1  0.99970455  0.12564251  0.99760709  1
  Mg  Mg18  1  0.00029545  0.62564251  0.50239291  1
  Mg  Mg19  1  0.99970455  0.37435749  0.49760709  1
  Mg  Mg20  1  0.50029545  0.87435749  0.49760709  1
  Mg  Mg21  1  0.49970455  0.37435749  0.00239291  1
  Mg  Mg22  1  0.50029545  0.62564251  0.99760709  1
  Mg  Mg23  1  0.49970455  0.12564251  0.50239291  1
  P  P24  1  0.07655621  0.99511293  0.83457391  1
  P  P25  1  0.42344379  0.00488707  0.33457391  1
  P  P26  1  0.07655621  0.50488707  0.33457391  1
  P  P27  1  0.25788712  0.74417456  0.59238674  1
  P  P28  1  0.57655621  0.99511293  0.66542609  1
  P  P29  1  0.24211288  0.25582544  0.09238674  1
  P  P30  1  0.75788712  0.74417456  0.90761326  1
  P  P31  1  0.74211288  0.25582544  0.40761326  1
  P  P32  1  0.92344379  0.49511293  0.66542609  1
  P  P33  1  0.42344379  0.49511293  0.83457391  1
  P  P34  1  0.25788712  0.75582544  0.09238674  1
  P  P35  1  0.75788712  0.75582544  0.40761326  1
  P  P36  1  0.24211288  0.24417456  0.59238674  1
  P  P37  1  0.74211288  0.24417456  0.90761326  1
  P  P38  1  0.57655621  0.50488707  0.16542609  1
  P  P39  1  0.92344379  0.00488707  0.16542609  1
  W  W40  1  0.74943611  0.49256938  0.85737828  1
  W  W41  1  0.75056389  0.99256938  0.85737828  1
  W  W42  1  0.25056389  0.99256938  0.64262172  1
  W  W43  1  0.74943611  0.00743062  0.35737828  1
  W  W44  1  0.24943611  0.49256938  0.64262172  1
  W  W45  1  0.75056389  0.50743062  0.35737828  1
  W  W46  1  0.24943611  0.00743062  0.14262172  1
  W  W47  1  0.25056389  0.50743062  0.14262172  1
  O  O48  1  0.72893656  0.35285769  0.34625246  1
  O  O49  1  0.35996765  0.50057388  0.04915588  1
  O  O50  1  0.59199809  0.60543916  0.11320211  1
  O  O51  1  0.59125252  0.97737000  0.90662434  1
  O  O52  1  0.43869026  0.50142019  0.21352902  1
  O  O53  1  0.09199809  0.60543916  0.38679789  1
  O  O54  1  0.56130974  0.00142019  0.28647098  1
  O  O55  1  0.14003235  0.00057388  0.04915588  1
  O  O56  1  0.09125252  0.52263000  0.09337566  1
  O  O57  1  0.37733112  0.25923228  0.04833102  1
  O  O58  1  0.64003235  0.49942612  0.95084412  1
  O  O59  1  0.93869026  0.50142019  0.28647098  1
  O  O60  1  0.62376102  0.24851576  0.46844131  1
  O  O61  1  0.12266888  0.74076772  0.54833102  1
  O  O62  1  0.37623898  0.74851576  0.03155869  1
  O  O63  1  0.09880928  0.09609943  0.88532271  1
  O  O64  1  0.30990774  0.49141970  0.76497590  1
  O  O65  1  0.26660356  0.66277972  0.15816993  1
  O  O66  1  0.62376102  0.25148424  0.96844131  1
  O  O67  1  0.76660356  0.66277972  0.34183007  1
  O  O68  1  0.37733112  0.24076772  0.54833102  1
  O  O69  1  0.80990774  0.00858030  0.23502410  1
  O  O70  1  0.37623898  0.75148424  0.53155869  1
  O  O71  1  0.40119072  0.59609943  0.88532271  1
  O  O72  1  0.27106344  0.64714231  0.65374754  1
  O  O73  1  0.40119072  0.90390057  0.38532271  1
  O  O74  1  0.23339644  0.16277972  0.15816993  1
  O  O75  1  0.77106344  0.85285769  0.34625246  1
  O  O76  1  0.43869026  0.99857981  0.71352902  1
  O  O77  1  0.12376102  0.25148424  0.53155869  1
  O  O78  1  0.27106344  0.85285769  0.15374754  1
  O  O79  1  0.87623898  0.74851576  0.46844131  1
  O  O80  1  0.85996765  0.99942612  0.95084412  1
  O  O81  1  0.73339644  0.16277972  0.34183007  1
  O  O82  1  0.59199809  0.89456084  0.61320211  1
  O  O83  1  0.90874748  0.47737000  0.90662434  1
  O  O84  1  0.40800191  0.39456084  0.88679789  1
  O  O85  1  0.90119072  0.59609943  0.61467729  1
  O  O86  1  0.87733112  0.25923228  0.45166898  1
  O  O87  1  0.30990774  0.00858030  0.26497590  1
  O  O88  1  0.77106344  0.64714231  0.84625246  1
  O  O89  1  0.22893656  0.35285769  0.15374754  1
  O  O90  1  0.80990774  0.49141970  0.73502410  1
  O  O91  1  0.85996765  0.50057388  0.45084412  1
  O  O92  1  0.87733112  0.24076772  0.95166898  1
  O  O93  1  0.19009226  0.50858030  0.26497590  1
  O  O94  1  0.93869026  0.99857981  0.78647098  1
  O  O95  1  0.09199809  0.89456084  0.88679789  1
  O  O96  1  0.23339644  0.33722028  0.65816993  1
  O  O97  1  0.72893656  0.14714231  0.84625246  1
  O  O98  1  0.26660356  0.83722028  0.65816993  1
  O  O99  1  0.64003235  0.00057388  0.45084412  1
  O  O100  1  0.90800191  0.39456084  0.61320211  1
  O  O101  1  0.62266888  0.74076772  0.95166898  1
  O  O102  1  0.73339644  0.33722028  0.84183007  1
  O  O103  1  0.22893656  0.14714231  0.65374754  1
  O  O104  1  0.40874748  0.47737000  0.59337566  1
  O  O105  1  0.62266888  0.75923228  0.45166898  1
  O  O106  1  0.90800191  0.10543916  0.11320211  1
  O  O107  1  0.12376102  0.24851576  0.03155869  1
  O  O108  1  0.90874748  0.02263000  0.40662434  1
  O  O109  1  0.35996765  0.99942612  0.54915588  1
  O  O110  1  0.06130974  0.00142019  0.21352902  1
  O  O111  1  0.40874748  0.02263000  0.09337566  1
  O  O112  1  0.76660356  0.83722028  0.84183007  1
  O  O113  1  0.56130974  0.49857981  0.78647098  1
  O  O114  1  0.40800191  0.10543916  0.38679789  1
  O  O115  1  0.69009226  0.50858030  0.23502410  1
  O  O116  1  0.12266888  0.75923228  0.04833102  1
  O  O117  1  0.06130974  0.49857981  0.71352902  1
  O  O118  1  0.87623898  0.75148424  0.96844131  1
  O  O119  1  0.59880928  0.40390057  0.11467729  1
  O  O120  1  0.14003235  0.49942612  0.54915588  1
  O  O121  1  0.09125252  0.97737000  0.59337566  1
  O  O122  1  0.09880928  0.40390057  0.38532271  1
  O  O123  1  0.69009226  0.99141970  0.73502410  1
  O  O124  1  0.59880928  0.09609943  0.61467729  1
  O  O125  1  0.59125252  0.52263000  0.40662434  1
  O  O126  1  0.90119072  0.90390057  0.11467729  1
  O  O127  1  0.19009226  0.99141970  0.76497590  1
