# generated using pymatgen
data_Mo8O23
_symmetry_space_group_name_H-M   'P 1'
_cell_length_a   8.13757970
_cell_length_b   13.71323920
_cell_length_c   17.35525462
_cell_angle_alpha   106.35859361
_cell_angle_beta   90.00000000
_cell_angle_gamma   90.00000000
_symmetry_Int_Tables_number   1
_chemical_formula_structural   Mo8O23
_chemical_formula_sum   'Mo32 O92'
_cell_volume   1858.31493227
_cell_formula_units_Z   4
loop_
 _symmetry_equiv_pos_site_id
 _symmetry_equiv_pos_as_xyz
  1  'x, y, z'
loop_
 _atom_site_type_symbol
 _atom_site_label
 _atom_site_symmetry_multiplicity
 _atom_site_fract_x
 _atom_site_fract_y
 _atom_site_fract_z
 _atom_site_occupancy
  Mo  Mo0  1  0.79210290  0.55531835  0.59837969  1
  Mo  Mo1  1  0.79142564  0.68489881  0.42183291  1
  Mo  Mo2  1  0.29182467  0.44627551  0.90429505  1
  Mo  Mo3  1  0.28780780  0.18598235  0.74663351  1
  Mo  Mo4  1  0.71260261  0.93650027  0.58264475  1
  Mo  Mo5  1  0.70744782  0.55553822  0.09875415  1
  Mo  Mo6  1  0.21085998  0.06725419  0.91871345  1
  Mo  Mo7  1  0.20789710  0.55531835  0.09837969  1
  Mo  Mo8  1  0.78608191  0.81713654  0.75478132  1
  Mo  Mo9  1  0.78914002  0.06725419  0.41871345  1
  Mo  Mo10  1  0.71103282  0.68547946  0.92062717  1
  Mo  Mo11  1  0.79152671  0.44664436  0.90469762  1
  Mo  Mo12  1  0.28739739  0.93650027  0.08264475  1
  Mo  Mo13  1  0.28896718  0.68547946  0.42062717  1
  Mo  Mo14  1  0.20935960  0.31676860  0.58110900  1
  Mo  Mo15  1  0.20857436  0.68489881  0.92183291  1
  Mo  Mo16  1  0.28817943  0.06513071  0.42033899  1
  Mo  Mo17  1  0.28829277  0.31647903  0.08254525  1
  Mo  Mo18  1  0.71219220  0.18598235  0.24663351  1
  Mo  Mo19  1  0.21402891  0.18453680  0.24828726  1
  Mo  Mo20  1  0.20847329  0.44664436  0.40469762  1
  Mo  Mo21  1  0.21391809  0.81713654  0.25478132  1
  Mo  Mo22  1  0.28758318  0.81612737  0.75665242  1
  Mo  Mo23  1  0.29255218  0.55553822  0.59875415  1
  Mo  Mo24  1  0.71182057  0.06513071  0.92033899  1
  Mo  Mo25  1  0.71170723  0.31647903  0.58254525  1
  Mo  Mo26  1  0.71241682  0.81612737  0.25665242  1
  Mo  Mo27  1  0.79064040  0.31676860  0.08110900  1
  Mo  Mo28  1  0.78824288  0.93478891  0.08451785  1
  Mo  Mo29  1  0.78597109  0.18453680  0.74828726  1
  Mo  Mo30  1  0.21175712  0.93478891  0.58451785  1
  Mo  Mo31  1  0.70817533  0.44627551  0.40429505  1
  O  O32  1  0.76004011  0.45813960  0.65362030  1
  O  O33  1  0.49893128  0.19906237  0.24166381  1
  O  O34  1  0.24366034  0.93451844  0.33600947  1
  O  O35  1  0.24992901  0.93374645  0.83671029  1
  O  O36  1  0.75436196  0.06734780  0.66711122  1
  O  O37  1  0.23330660  0.00029776  0.50127806  1
  O  O38  1  0.74577778  0.58981082  0.49707112  1
  O  O39  1  0.23032797  0.73685012  0.83648298  1
  O  O40  1  0.23031788  0.26508145  0.66664679  1
  O  O41  1  0.75509600  0.73801449  0.83721330  1
  O  O42  1  0.49784498  0.06066591  0.92118290  1
  O  O43  1  0.76669340  0.00029776  0.00127806  1
  O  O44  1  0.00408942  0.32150048  0.07327596  1
  O  O45  1  0.25113488  0.45857314  0.65334935  1
  O  O46  1  0.50278973  0.32161100  0.08494115  1
  O  O47  1  0.25288461  0.06821824  0.66635342  1
  O  O48  1  0.25458622  0.67456320  0.67443450  1
  O  O49  1  0.74491157  0.79998369  0.00483287  1
  O  O50  1  0.50215502  0.06066591  0.42118290  1
  O  O51  1  0.74541378  0.67456320  0.17443450  1
  O  O52  1  -0.00067305  0.81128617  0.24966071  1
  O  O53  1  0.76968212  0.26508145  0.16664679  1
  O  O54  1  0.75007099  0.93374645  0.33671029  1
  O  O55  1  0.25508843  0.79998369  0.50483287  1
  O  O56  1  0.25459333  0.41200608  0.50587879  1
  O  O57  1  0.24490400  0.73801449  0.33721330  1
  O  O58  1  0.74377108  0.20185563  0.49824134  1
  O  O59  1  0.23995989  0.45813960  0.15362030  1
  O  O60  1  0.00220531  0.07502003  0.41140005  1
  O  O61  1  0.74760503  0.32733262  0.32875216  1
  O  O62  1  1.00135318  0.92812145  0.09246726  1
  O  O63  1  0.25437747  0.20159004  0.49925855  1
  O  O64  1  0.73021352  0.13187982  0.33095132  1
  O  O65  1  0.75557906  0.67373925  0.67478462  1
  O  O66  1  0.49645229  0.68114252  0.91880781  1
  O  O67  1  0.24442094  0.67373925  0.17478462  1
  O  O68  1  1.00067305  0.81128617  0.74966071  1
  O  O69  1  0.25622892  0.20185563  0.99824134  1
  O  O70  1  0.25162781  0.54325403  0.84958400  1
  O  O71  1  0.75801281  0.54369850  0.84944167  1
  O  O72  1  0.75607726  0.26384334  0.66585320  1
  O  O73  1  0.23226182  0.00157942  0.00186607  1
  O  O74  1  0.76967203  0.73685012  0.33648298  1
  O  O75  1  0.49300017  0.55372693  0.09665254  1
  O  O76  1  0.74540667  0.41200608  0.00587879  1
  O  O77  1  0.50699983  0.55372693  0.59665254  1
  O  O78  1  0.50092899  0.80429125  0.76237475  1
  O  O79  1  0.73682385  0.13289641  0.83161907  1
  O  O80  1  0.25677458  0.58960421  0.49666647  1
  O  O81  1  0.49369900  0.44718826  0.40619582  1
  O  O82  1  0.74711539  0.06821824  0.16635342  1
  O  O83  1  0.99779469  0.07502003  0.91140005  1
  O  O84  1  0.72977880  0.87004869  0.17220191  1
  O  O85  1  0.50354771  0.68114252  0.41880781  1
  O  O86  1  0.50106872  0.19906237  0.74166381  1
  O  O87  1  0.74861861  0.80020959  0.50390883  1
  O  O88  1  0.74886512  0.45857314  0.15334935  1
  O  O89  1  0.00645204  0.55519824  0.59196415  1
  O  O90  1  0.49721027  0.32161100  0.58494115  1
  O  O91  1  0.74322542  0.58960421  0.99666647  1
  O  O92  1  0.99591058  0.32150048  0.57327596  1
  O  O93  1  0.76773818  0.00157942  0.50186607  1
  O  O94  1  0.25576301  0.41237356  0.00647148  1
  O  O95  1  0.26978648  0.13187982  0.83095132  1
  O  O96  1  0.75633966  0.93451844  0.83600947  1
  O  O97  1  0.25239497  0.32733262  0.82875216  1
  O  O98  1  0.74562253  0.20159004  0.99925855  1
  O  O99  1  0.25422222  0.58981082  0.99707112  1
  O  O100  1  0.50139306  0.93989504  0.08103944  1
  O  O101  1  0.26317615  0.13289641  0.33161907  1
  O  O102  1  0.24318104  0.32802982  0.32827692  1
  O  O103  1  0.75681896  0.32802982  0.82827692  1
  O  O104  1  0.74423699  0.41237356  0.50647148  1
  O  O105  1  0.99508985  0.67936137  0.92894354  1
  O  O106  1  0.25138139  0.80020959  0.00390883  1
  O  O107  1  1.00065420  0.18935893  0.75286864  1
  O  O108  1  -0.00065420  0.18935893  0.25286864  1
  O  O109  1  0.49907101  0.80429125  0.26237475  1
  O  O110  1  0.00586757  0.44774968  0.91129133  1
  O  O111  1  0.00491015  0.67936137  0.42894354  1
  O  O112  1  0.99413243  0.44774968  0.41129133  1
  O  O113  1  0.24563804  0.06734780  0.16711122  1
  O  O114  1  0.27022120  0.87004869  0.67220191  1
  O  O115  1  -0.00135318  0.92812145  0.59246726  1
  O  O116  1  0.74837219  0.54325403  0.34958400  1
  O  O117  1  0.24392274  0.26384334  0.16585220  1
  O  O118  1  0.26293537  0.86887870  0.17148670  1
  O  O119  1  0.73706463  0.86887870  0.67148670  1
  O  O120  1  0.99354796  0.55519824  0.09196415  1
  O  O121  1  0.24198719  0.54369850  0.34944167  1
  O  O122  1  0.50630100  0.44718826  0.90619582  1
  O  O123  1  0.49860694  0.93989504  0.58103944  1
