# generated using pymatgen
data_Ca4Al6MoO16
_symmetry_space_group_name_H-M   'P 1'
_cell_length_a   8.12287026
_cell_length_b   8.12287116
_cell_length_c   26.36826843
_cell_angle_alpha   90.00000000
_cell_angle_beta   90.00000000
_cell_angle_gamma   108.98142349
_symmetry_Int_Tables_number   1
_chemical_formula_structural   Ca4Al6MoO16
_chemical_formula_sum   'Ca16 Al24 Mo4 O64'
_cell_volume   1645.20195188
_cell_formula_units_Z   4
loop_
 _symmetry_equiv_pos_site_id
 _symmetry_equiv_pos_as_xyz
  1  'x, y, z'
loop_
 _atom_site_type_symbol
 _atom_site_label
 _atom_site_symmetry_multiplicity
 _atom_site_fract_x
 _atom_site_fract_y
 _atom_site_fract_z
 _atom_site_occupancy
  Ca  Ca0  1  0.43796949  0.97152698  0.51704290  1
  Ca  Ca1  1  0.48775996  0.00952243  0.75009218  1
  Ca  Ca2  1  0.97152698  0.43796949  0.48295710  1
  Ca  Ca3  1  0.30842153  0.25384488  0.86229567  1
  Ca  Ca4  1  0.00952243  0.48775996  0.24990782  1
  Ca  Ca5  1  0.93796949  0.47152698  0.98295710  1
  Ca  Ca6  1  0.23292090  0.26165720  0.62046515  1
  Ca  Ca7  1  0.75384488  0.80842153  0.36229567  1
  Ca  Ca8  1  0.98775996  0.50952243  0.74990782  1
  Ca  Ca9  1  0.25384488  0.30842153  0.13770433  1
  Ca  Ca10  1  0.47152698  0.93796949  0.01704290  1
  Ca  Ca11  1  0.80842153  0.75384488  0.63770433  1
  Ca  Ca12  1  0.26165720  0.23292090  0.37953485  1
  Ca  Ca13  1  0.50952243  0.98775996  0.25009218  1
  Ca  Ca14  1  0.73292090  0.76165720  0.87953485  1
  Ca  Ca15  1  0.76165720  0.73292090  0.12046515  1
  Al  Al16  1  0.74348950  0.74348950  0.00000000  1
  Al  Al17  1  0.12416004  0.87438430  0.81464182  1
  Al  Al18  1  0.87438430  0.12416004  0.18535818  1
  Al  Al19  1  0.36357269  0.59148490  0.93724476  1
  Al  Al20  1  0.36058367  0.62871791  0.44037390  1
  Al  Al21  1  0.75826263  0.75353020  0.24351377  1
  Al  Al22  1  0.59148490  0.36357269  0.06275524  1
  Al  Al23  1  0.13580200  0.88510817  0.31019730  1
  Al  Al24  1  0.63580200  0.38510817  0.18980270  1
  Al  Al25  1  0.12871791  0.86058367  0.94037390  1
  Al  Al26  1  0.88510817  0.13580200  0.68980270  1
  Al  Al27  1  0.72874302  0.72874302  0.50000000  1
  Al  Al28  1  0.86058367  0.12871791  0.05962610  1
  Al  Al29  1  0.37438430  0.62416004  0.31464182  1
  Al  Al30  1  0.86357269  0.09148490  0.56275524  1
  Al  Al31  1  0.09148490  0.86357269  0.43724476  1
  Al  Al32  1  0.25826263  0.25353020  0.25648623  1
  Al  Al33  1  0.75353020  0.75826263  0.75648523  1
  Al  Al34  1  0.22874302  0.22874302  0.00000000  1
  Al  Al35  1  0.24348950  0.24348950  0.50000000  1
  Al  Al36  1  0.38510817  0.63580200  0.81019730  1
  Al  Al37  1  0.62871791  0.36058367  0.55962610  1
  Al  Al38  1  0.25353020  0.25826263  0.74351477  1
  Al  Al39  1  0.62416004  0.37438430  0.68535818  1
  Mo  Mo40  1  0.26137073  0.74092437  0.63623282  1
  Mo  Mo41  1  0.76137073  0.24092437  0.86376718  1
  Mo  Mo42  1  0.74092437  0.26137073  0.36376718  1
  Mo  Mo43  1  0.24092437  0.76137073  0.13623282  1
  O  O44  1  0.60328383  0.43305838  0.12625212  1
  O  O45  1  0.17620553  0.69625677  0.45339126  1
  O  O46  1  0.55123066  0.27867029  0.39404992  1
  O  O47  1  0.25162174  0.40198018  0.30528394  1
  O  O48  1  0.43902218  0.82422651  0.67918804  1
  O  O49  1  0.10328383  0.93305838  0.37374788  1
  O  O50  1  0.90198018  0.75162174  0.80528394  1
  O  O51  1  0.94718220  0.15802654  0.12184287  1
  O  O52  1  0.27867029  0.55123066  0.60595008  1
  O  O53  1  0.32615687  0.42248218  0.78829557  1
  O  O54  1  0.56724443  0.72184035  0.27955425  1
  O  O55  1  0.08234034  0.29243435  0.70930228  1
  O  O56  1  0.26754760  0.90364603  0.58922354  1
  O  O57  1  0.58234034  0.79243435  0.79069772  1
  O  O58  1  0.40260613  0.26715323  0.54710622  1
  O  O59  1  0.79243435  0.58234034  0.20930228  1
  O  O60  1  0.93902218  0.32422651  0.82081196  1
  O  O61  1  0.72184035  0.56724443  0.72044575  1
  O  O62  1  0.05633176  0.68742653  0.66987189  1
  O  O63  1  0.82422651  0.43902218  0.32081196  1
  O  O64  1  0.44718220  0.65802654  0.37815713  1
  O  O65  1  0.32422651  0.93902218  0.17918804  1
  O  O66  1  0.73385496  0.55108388  0.03242135  1
  O  O67  1  0.76754760  0.40364603  0.91077646  1
  O  O68  1  0.40364603  0.76754760  0.08922354  1
  O  O69  1  0.65802654  0.44718220  0.62184287  1
  O  O70  1  0.06724443  0.22184035  0.22044575  1
  O  O71  1  0.29363165  0.36388076  0.94586474  1
  O  O72  1  0.69625677  0.17620553  0.54660874  1
  O  O73  1  0.55633176  0.18742653  0.83012811  1
  O  O74  1  0.74649699  0.52274397  0.51675746  1
  O  O75  1  0.86388076  0.79363165  0.44586474  1
  O  O76  1  0.93305838  0.10328383  0.62625212  1
  O  O77  1  0.22760821  0.72876547  0.79166561  1
  O  O78  1  0.18742653  0.55633176  0.16987189  1
  O  O79  1  0.22876547  0.72760821  0.29166561  1
  O  O80  1  0.43305838  0.60328383  0.87374788  1
  O  O81  1  0.26715323  0.40260613  0.45289378  1
  O  O82  1  0.15802654  0.94718220  0.87815713  1
  O  O83  1  0.55108388  0.73385496  0.96757865  1
  O  O84  1  0.77867029  0.05123066  0.89404992  1
  O  O85  1  0.40198018  0.25162174  0.69471606  1
  O  O86  1  0.42248218  0.32615687  0.21170443  1
  O  O87  1  0.72760821  0.22876547  0.70833439  1
  O  O88  1  0.67620553  0.19625677  0.04660874  1
  O  O89  1  0.75162174  0.90198018  0.19471606  1
  O  O90  1  0.36388076  0.29363165  0.05413526  1
  O  O91  1  0.52274397  0.74649699  0.48324254  1
  O  O92  1  0.22184035  0.06724443  0.77955425  1
  O  O93  1  0.05123066  0.77867029  0.10595008  1
  O  O94  1  0.24649699  0.02274397  0.98324254  1
  O  O95  1  0.68742653  0.05633176  0.33012811  1
  O  O96  1  0.02274397  0.24649699  0.01675746  1
  O  O97  1  0.29243435  0.08234034  0.29069772  1
  O  O98  1  0.05108388  0.23385496  0.53242135  1
  O  O99  1  0.76715323  0.90260613  0.04710622  1
  O  O100  1  0.92248218  0.82615687  0.28829557  1
  O  O101  1  0.72876547  0.22760821  0.20833439  1
  O  O102  1  0.79363165  0.86388076  0.55413526  1
  O  O103  1  0.82615687  0.92248218  0.71170443  1
  O  O104  1  0.23385496  0.05108388  0.46757865  1
  O  O105  1  0.90260613  0.76715323  0.95289378  1
  O  O106  1  0.90364603  0.26754760  0.41077646  1
  O  O107  1  0.19625677  0.67620553  0.95339126  1
