# generated using pymatgen
data_Er(AlCr)6
_symmetry_space_group_name_H-M   'P 1'
_cell_length_a   5.06366889
_cell_length_b   6.67010213
_cell_length_c   6.67010213
_cell_angle_alpha   97.47601382
_cell_angle_beta   112.30763849
_cell_angle_gamma   67.69236151
_symmetry_Int_Tables_number   1
_chemical_formula_structural   Er(AlCr)6
_chemical_formula_sum   'Er1 Al6 Cr6'
_cell_volume   192.79922648
_cell_formula_units_Z   1
loop_
 _symmetry_equiv_pos_site_id
 _symmetry_equiv_pos_as_xyz
  1  'x, y, z'
loop_
 _atom_site_type_symbol
 _atom_site_label
 _atom_site_symmetry_multiplicity
 _atom_site_fract_x
 _atom_site_fract_y
 _atom_site_fract_z
 _atom_site_occupancy
  Er  Er0  1  -0.00000000  0.00000000  0.00000000  1
  Al  Al1  1  0.65434422  0.34565578  0.65434422  1
  Al  Al2  1  0.34565578  0.65434422  0.34565578  1
  Al  Al3  1  -0.00000000  0.32925651  0.32925651  1
  Al  Al4  1  0.00000000  0.67074349  0.67074349  1
  Al  Al5  1  0.69344589  0.80655411  0.19344589  1
  Al  Al6  1  0.30655411  0.19344589  0.80655411  1
  Cr  Cr7  1  0.50000000  0.00000000  0.50000000  1
  Cr  Cr8  1  -0.00000000  0.00000000  0.50000000  1
  Cr  Cr9  1  0.50000000  0.50000000  0.00000000  1
  Cr  Cr10  1  -0.00000000  0.50000000  0.00000000  1
  Cr  Cr11  1  0.50000000  0.75977432  0.75977432  1
  Cr  Cr12  1  0.50000000  0.24022568  0.24022568  1
