# generated using pymatgen
data_MoSO6
_symmetry_space_group_name_H-M   'P 1'
_cell_length_a   8.84136744
_cell_length_b   12.38909877
_cell_length_c   14.95974010
_cell_angle_alpha   114.46147634
_cell_angle_beta   103.26211342
_cell_angle_gamma   89.99999875
_symmetry_Int_Tables_number   1
_chemical_formula_structural   MoSO6
_chemical_formula_sum   'Mo12 S12 O72'
_cell_volume   1443.40674189
_cell_formula_units_Z   12
loop_
 _symmetry_equiv_pos_site_id
 _symmetry_equiv_pos_as_xyz
  1  'x, y, z'
loop_
 _atom_site_type_symbol
 _atom_site_label
 _atom_site_symmetry_multiplicity
 _atom_site_fract_x
 _atom_site_fract_y
 _atom_site_fract_z
 _atom_site_occupancy
  Mo  Mo0  1  0.10812845  0.45770913  0.15844302  1
  Mo  Mo1  1  0.09841702  0.95813252  0.16794465  1
  Mo  Mo2  1  0.73860881  0.64032085  0.51347606  1
  Mo  Mo3  1  0.23860881  0.87315521  0.51347606  1
  Mo  Mo4  1  0.89187155  0.54229087  0.84155698  1
  Mo  Mo5  1  0.60812845  0.70073389  0.15844302  1
  Mo  Mo6  1  0.39187155  0.29926611  0.84155698  1
  Mo  Mo7  1  0.40158298  0.79018788  0.83205535  1
  Mo  Mo8  1  0.76139119  0.12684479  0.48652394  1
  Mo  Mo9  1  0.26139119  0.35967915  0.48652394  1
  Mo  Mo10  1  0.90158298  0.04186748  0.83205535  1
  Mo  Mo11  1  0.59841702  0.20981212  0.16794465  1
  S  S12  1  0.31672728  0.58359129  0.42605316  1
  S  S13  1  0.97179602  0.18059512  0.10955071  1
  S  S14  1  0.75879192  0.25041981  0.75513956  1
  S  S15  1  0.74120808  0.49528026  0.24486044  1
  S  S16  1  0.47179602  0.92895560  0.10955071  1
  S  S17  1  0.68327272  0.41640871  0.57394684  1
  S  S18  1  0.52820398  0.07104440  0.89044929  1
  S  S19  1  0.81672728  0.84246187  0.42605316  1
  S  S20  1  0.02820398  0.81940488  0.89044929  1
  S  S21  1  0.24120808  0.74958019  0.24486044  1
  S  S22  1  0.18327272  0.15753813  0.57394684  1
  S  S23  1  0.25879192  0.50471974  0.75513956  1
  O  O24  1  0.67328960  0.36898950  0.17278979  1
  O  O25  1  0.93645934  0.64363055  0.55111234  1
  O  O26  1  0.56354066  0.09251821  0.44888766  1
  O  O27  1  0.17781546  0.02841581  0.50129352  1
  O  O28  1  0.13104967  0.63877943  0.20997820  1
  O  O29  1  0.82671040  0.19619971  0.82721021  1
  O  O30  1  0.02317502  0.58028787  0.95550148  1
  O  O31  1  0.82218454  0.97158419  0.49870648  1
  O  O32  1  0.27672761  0.17739059  0.67456783  1
  O  O33  1  0.35451274  0.74869226  0.70454946  1
  O  O34  1  0.06354066  0.35636945  0.44888766  1
  O  O35  1  0.43645934  0.90748179  0.55111234  1
  O  O36  1  0.78232605  0.69194277  0.12676326  1
  O  O37  1  0.06551144  0.30147657  0.16978328  1
  O  O38  1  0.47682498  0.62478639  0.04449852  1
  O  O39  1  0.41645694  0.84524674  0.00334914  1
  O  O40  1  0.39808388  0.72001000  0.23620135  1
  O  O41  1  0.77672761  0.49717724  0.67456783  1
  O  O42  1  0.43448856  0.13169330  0.83021672  1
  O  O43  1  0.23614594  0.82972841  0.34807126  1
  O  O44  1  0.32671040  0.63101050  0.82721021  1
  O  O45  1  0.93448856  0.69852343  0.83021672  1
  O  O46  1  0.34680877  0.98269273  0.15761716  1
  O  O47  1  0.86895033  0.36122057  0.79002180  1
  O  O48  1  0.73614594  0.51834284  0.34807126  1
  O  O49  1  0.76385406  0.17027159  0.65192874  1
  O  O50  1  0.68840277  0.71700701  0.62482990  1
  O  O51  1  0.41490862  0.97296186  0.87990750  1
  O  O52  1  0.58509138  0.02703814  0.12009250  1
  O  O53  1  0.90214895  0.92141431  0.14064995  1
  O  O54  1  0.72327239  0.82260941  0.32543217  1
  O  O55  1  0.02461978  0.19063934  0.57354381  1
  O  O56  1  0.97682498  0.41971213  0.04449852  1
  O  O57  1  0.10191612  0.48380865  0.76379865  1
  O  O58  1  0.08354306  0.84189761  0.99665086  1
  O  O59  1  0.26385406  0.48165716  0.65192874  1
  O  O60  1  0.47538022  0.61709553  0.42645619  1
  O  O61  1  0.67781546  0.47287772  0.50129352  1
  O  O62  1  0.21767395  0.30805723  0.87323674  1
  O  O63  1  0.65319123  0.01730727  0.84238284  1
  O  O64  1  0.97538022  0.80936066  0.42645619  1
  O  O65  1  0.64548726  0.25130774  0.29545054  1
  O  O66  1  0.91645694  0.15810239  0.00334914  1
  O  O67  1  0.59785105  0.78076436  0.85935005  1
  O  O68  1  0.63104967  0.57119878  0.20997820  1
  O  O69  1  0.40214895  0.21923564  0.14064995  1
  O  O70  1  0.28232605  0.43482049  0.12676326  1
  O  O71  1  0.91490862  0.90694564  0.87990750  1
  O  O72  1  0.52461978  0.38290447  0.57354381  1
  O  O73  1  0.32218454  0.52712228  0.49870648  1
  O  O74  1  0.36895033  0.42880122  0.79002180  1
  O  O75  1  0.14548726  0.04414280  0.29545054  1
  O  O76  1  0.76734448  0.30717302  0.53361922  1
  O  O77  1  0.85451274  0.95585720  0.70454946  1
  O  O78  1  0.84680877  0.17492443  0.15761716  1
  O  O79  1  0.15319123  0.82507557  0.84238284  1
  O  O80  1  0.52317502  0.37521361  0.95550148  1
  O  O81  1  0.31159723  0.28299299  0.37517010  1
  O  O82  1  0.17328960  0.80380029  0.17278979  1
  O  O83  1  0.71767395  0.56517951  0.87323674  1
  O  O84  1  0.08509138  0.09305436  0.12009250  1
  O  O85  1  0.09785105  0.07858569  0.85935005  1
  O  O86  1  0.23265552  0.69282698  0.46638078  1
  O  O87  1  0.73265552  0.77355380  0.46638078  1
  O  O88  1  0.22327239  0.50282276  0.32543217  1
  O  O89  1  0.18840277  0.90782289  0.62482990  1
  O  O90  1  0.89808388  0.51619135  0.23620135  1
  O  O91  1  0.60191612  0.27999000  0.76379865  1
  O  O92  1  0.56551144  0.86830670  0.16978328  1
  O  O93  1  0.58354306  0.15475326  0.99665086  1
  O  O94  1  0.26734448  0.22644620  0.53361922  1
  O  O95  1  0.81159723  0.09217711  0.37517010  1
