# generated using pymatgen
data_KSrNb2O6F
_symmetry_space_group_name_H-M   'P 1'
_cell_length_a   3.91388344
_cell_length_b   7.78443929
_cell_length_c   12.19825411
_cell_angle_alpha   108.60541868
_cell_angle_beta   99.22536249
_cell_angle_gamma   90.00090937
_symmetry_Int_Tables_number   1
_chemical_formula_structural   KSrNb2O6F
_chemical_formula_sum   'K2 Sr2 Nb4 O12 F2'
_cell_volume   347.14960402
_cell_formula_units_Z   2
loop_
 _symmetry_equiv_pos_site_id
 _symmetry_equiv_pos_as_xyz
  1  'x, y, z'
loop_
 _atom_site_type_symbol
 _atom_site_label
 _atom_site_symmetry_multiplicity
 _atom_site_fract_x
 _atom_site_fract_y
 _atom_site_fract_z
 _atom_site_occupancy
  K  K0  1  0.23561352  0.23580525  0.47147113  1
  K  K1  1  0.76438648  0.76419475  0.52852887  1
  Sr  Sr2  1  0.00000000  0.50000000  0.00000000  1
  Sr  Sr3  1  0.00000000  0.00000000  0.00000000  1
  Nb  Nb4  1  0.60739345  0.35491508  0.21514695  1
  Nb  Nb5  1  0.60748494  0.86024923  0.21517024  1
  Nb  Nb6  1  0.39260655  0.64508492  0.78485305  1
  Nb  Nb7  1  0.39251506  0.13975077  0.78482976  1
  O  O8  1  0.31411990  0.04104389  0.62790025  1
  O  O9  1  0.58003367  0.08002421  0.16005191  1
  O  O10  1  0.91481291  0.66642922  0.82938389  1
  O  O11  1  0.68584575  0.41312659  0.37210690  1
  O  O12  1  0.08520875  0.83702963  0.17061628  1
  O  O13  1  0.68588010  0.95895611  0.37209975  1
  O  O14  1  0.41996633  0.91997579  0.83994809  1
  O  O15  1  0.40909513  0.40893160  0.81784851  1
  O  O16  1  0.31415425  0.58687341  0.62789310  1
  O  O17  1  0.91479125  0.16297037  0.82938372  1
  O  O18  1  0.08518709  0.33357078  0.17061611  1
  O  O19  1  0.59090487  0.59106840  0.18215149  1
  F  F20  1  0.49994855  0.26719334  1.00000052  1
  F  F21  1  0.50005145  0.73280666  -0.00000052  1
