# generated using pymatgen
data_BaEu2Mn2O7
_symmetry_space_group_name_H-M   'P 1'
_cell_length_a   5.65730289
_cell_length_b   5.59831780
_cell_length_c   10.42806950
_cell_angle_alpha   90.00204261
_cell_angle_beta   105.68054802
_cell_angle_gamma   89.99896354
_symmetry_Int_Tables_number   1
_chemical_formula_structural   BaEu2Mn2O7
_chemical_formula_sum   'Ba2 Eu4 Mn4 O14'
_cell_volume   317.97982234
_cell_formula_units_Z   2
loop_
 _symmetry_equiv_pos_site_id
 _symmetry_equiv_pos_as_xyz
  1  'x, y, z'
loop_
 _atom_site_type_symbol
 _atom_site_label
 _atom_site_symmetry_multiplicity
 _atom_site_fract_x
 _atom_site_fract_y
 _atom_site_fract_z
 _atom_site_occupancy
  Eu  Eu0  1  0.41743262  0.75002725  0.36535692  1
  Eu  Eu1  1  0.05242542  0.74999809  0.63355267  1
  Eu  Eu2  1  0.94722715  0.24994006  0.36590406  1
  Eu  Eu3  1  0.58051441  0.24997889  0.63371401  1
  Ba  Ba4  1  0.75236613  0.24998494  0.00003551  1
  Ba  Ba5  1  0.24817066  0.74997988  0.00067384  1
  Mn  Mn6  1  0.64878640  0.74994677  0.80058437  1
  Mn  Mn7  1  0.35117110  0.25009243  0.19981554  1
  Mn  Mn8  1  0.15155864  0.24990171  0.80014233  1
  Mn  Mn9  1  0.84817470  0.75003613  0.19959740  1
  O  O10  1  0.89902763  0.49991687  0.79793713  1
  O  O11  1  0.10188120  0.99978576  0.20283037  1
  O  O12  1  0.98621267  0.74997615  0.40274015  1
  O  O13  1  0.01548395  0.24996861  0.59671109  1
  O  O14  1  0.61014934  0.99948212  0.22178797  1
  O  O15  1  0.38991073  0.49976105  0.77914442  1
  O  O16  1  0.73236369  0.75003530  0.00010742  1
  O  O17  1  0.89909690  0.99982989  0.79792766  1
  O  O18  1  0.41778045  0.25034879  0.40271664  1
  O  O19  1  0.38982542  0.99998355  0.77913424  1
  O  O20  1  0.10188886  0.50044517  0.20278350  1
  O  O21  1  0.61021644  0.50052037  0.22159807  1
  O  O22  1  0.58043716  0.75010583  0.59511950  1
  O  O23  1  0.26789834  0.24995439  0.00008519  1
