# generated using pymatgen
data_Cs4Tc6S13
_symmetry_space_group_name_H-M   'P 1'
_cell_length_a   10.05832153
_cell_length_b   10.05832214
_cell_length_c   13.93373490
_cell_angle_alpha   95.30482187
_cell_angle_beta   95.30482218
_cell_angle_gamma   119.01264399
_symmetry_Int_Tables_number   1
_chemical_formula_structural   Cs4Tc6S13
_chemical_formula_sum   'Cs8 Tc12 S26'
_cell_volume   1212.14349923
_cell_formula_units_Z   2
loop_
 _symmetry_equiv_pos_site_id
 _symmetry_equiv_pos_as_xyz
  1  'x, y, z'
loop_
 _atom_site_type_symbol
 _atom_site_label
 _atom_site_symmetry_multiplicity
 _atom_site_fract_x
 _atom_site_fract_y
 _atom_site_fract_z
 _atom_site_occupancy
  Cs  Cs0  1  0.91327246  0.65988885  0.08858958  1
  Cs  Cs1  1  0.65988885  0.91327246  0.58858958  1
  Cs  Cs2  1  0.34011115  0.08672754  0.41141042  1
  Cs  Cs3  1  0.68390412  0.72715029  0.28869798  1
  Cs  Cs4  1  0.27284971  0.31609588  0.21130202  1
  Cs  Cs5  1  0.08672754  0.34011115  0.91141042  1
  Cs  Cs6  1  0.72715029  0.68390412  0.78869798  1
  Cs  Cs7  1  0.31609588  0.27284971  0.71130202  1
  Tc  Tc8  1  0.00353894  0.68771314  0.52131537  1
  Tc  Tc9  1  0.68771314  0.00353894  0.02131537  1
  Tc  Tc10  1  0.43524270  0.84672554  0.89149458  1
  Tc  Tc11  1  0.41833412  0.85099086  0.07885449  1
  Tc  Tc12  1  0.56475730  0.15327446  0.10850542  1
  Tc  Tc13  1  0.58166588  0.14900914  0.92114551  1
  Tc  Tc14  1  0.99646106  0.31228686  0.47868463  1
  Tc  Tc15  1  0.15327446  0.56475730  0.60850542  1
  Tc  Tc16  1  0.31228686  0.99646106  0.97868463  1
  Tc  Tc17  1  0.85099086  0.41833412  0.57885449  1
  Tc  Tc18  1  0.14900914  0.58166588  0.42114551  1
  Tc  Tc19  1  0.84672554  0.43524270  0.39149458  1
  S  S20  1  0.53772669  0.72506996  0.99476782  1
  S  S21  1  0.34421929  0.99167787  0.80960445  1
  S  S22  1  0.35866229  0.64133771  0.75000000  1
  S  S23  1  0.46227331  0.27493004  0.00523218  1
  S  S24  1  0.31153201  0.99665658  0.15077674  1
  S  S25  1  0.64133771  0.35866229  0.25000000  1
  S  S26  1  0.99167787  0.34421929  0.30960445  1
  S  S27  1  0.72099948  0.19633474  0.45207376  1
  S  S28  1  0.27900052  0.80366526  0.54792624  1
  S  S29  1  0.35471467  0.72024761  0.32538884  1
  S  S30  1  0.95177162  0.02136432  0.06065299  1
  S  S31  1  0.27493004  0.46227331  0.50523218  1
  S  S32  1  0.65578071  0.00832213  0.19039555  1
  S  S33  1  0.04822838  0.97863568  0.93934701  1
  S  S34  1  0.68846799  0.00334342  0.84922326  1
  S  S35  1  0.72024761  0.35471467  0.82538884  1
  S  S36  1  0.99665658  0.31153201  0.65077674  1
  S  S37  1  0.97863568  0.04822838  0.43934701  1
  S  S38  1  0.00832213  0.65578071  0.69039555  1
  S  S39  1  0.80366526  0.27900052  0.04792624  1
  S  S40  1  0.72506996  0.53772669  0.49476782  1
  S  S41  1  0.02136432  0.95177162  0.56065299  1
  S  S42  1  0.19633474  0.72099948  0.95207376  1
  S  S43  1  0.64528533  0.27975239  0.67461116  1
  S  S44  1  0.00334342  0.68846799  0.34922326  1
  S  S45  1  0.27975239  0.64528533  0.17461116  1
