# generated using pymatgen
data_Gd(PO3)3
_symmetry_space_group_name_H-M   'P 1'
_cell_length_a   10.24414479
_cell_length_b   13.47153662
_cell_length_c   13.47153722
_cell_angle_alpha   61.17136623
_cell_angle_beta   84.18550183
_cell_angle_gamma   84.18550331
_symmetry_Int_Tables_number   1
_chemical_formula_structural   Gd(PO3)3
_chemical_formula_sum   'Gd8 P24 O72'
_cell_volume   1617.40386773
_cell_formula_units_Z   8
loop_
 _symmetry_equiv_pos_site_id
 _symmetry_equiv_pos_as_xyz
  1  'x, y, z'
loop_
 _atom_site_type_symbol
 _atom_site_label
 _atom_site_symmetry_multiplicity
 _atom_site_fract_x
 _atom_site_fract_y
 _atom_site_fract_z
 _atom_site_occupancy
  Gd  Gd0  1  0.23072391  0.98109331  0.75190992  1
  Gd  Gd1  1  0.73417988  0.48747912  0.74536355  1
  Gd  Gd2  1  0.23417988  0.24536355  0.98747912  1
  Gd  Gd3  1  0.76582012  0.75463645  0.01252088  1
  Gd  Gd4  1  0.76927609  0.01890669  0.24809008  1
  Gd  Gd5  1  0.26582012  0.51252088  0.25463645  1
  Gd  Gd6  1  0.73072391  0.25190992  0.48109331  1
  Gd  Gd7  1  0.26927609  0.74809008  0.51890669  1
  P  P8  1  0.93599526  0.15626938  0.72943087  1
  P  P9  1  0.57336399  0.84123351  0.76177847  1
  P  P10  1  0.44821518  0.64232587  0.77860737  1
  P  P11  1  0.07336399  0.26177847  0.34123351  1
  P  P12  1  0.06658801  0.35414461  0.71621866  1
  P  P13  1  0.25000000  0.53053608  0.96946392  1
  P  P14  1  0.71015290  0.53972125  0.45027707  1
  P  P15  1  0.25000000  0.04862660  0.45137340  1
  P  P16  1  0.06400474  0.84373062  0.27056913  1
  P  P17  1  0.56658801  0.21621866  0.85414461  1
  P  P18  1  0.92663601  0.73822153  0.65876649  1
  P  P19  1  0.55178482  0.35767413  0.22139263  1
  P  P20  1  0.43599526  0.22943087  0.65626938  1
  P  P21  1  0.21015290  0.95027707  0.03972125  1
  P  P22  1  0.75000000  0.95137340  0.54862660  1
  P  P23  1  0.94821518  0.27860737  0.14232587  1
  P  P24  1  0.56400474  0.77056913  0.34373062  1
  P  P25  1  0.28984710  0.46027875  0.54972293  1
  P  P26  1  0.05178482  0.72139263  0.85767413  1
  P  P27  1  0.75000000  0.46946392  0.03053608  1
  P  P28  1  0.43341199  0.78378134  0.14585539  1
  P  P29  1  0.42663601  0.15876649  0.23822153  1
  P  P30  1  0.93341199  0.64585539  0.28378134  1
  P  P31  1  0.78984710  0.04972293  0.96027875  1
  O  O32  1  0.14126476  0.42475384  0.59402475  1
  O  O33  1  0.94186682  0.71015068  0.78744694  1
  O  O34  1  0.67103247  0.85212695  0.28826905  1
  O  O35  1  0.45529267  0.79465823  0.25614896  1
  O  O36  1  0.26439029  0.04657257  0.56193273  1
  O  O37  1  0.54470733  0.20534177  0.74385104  1
  O  O38  1  0.88076624  0.13451225  0.85490798  1
  O  O39  1  0.87616893  0.87012189  0.60676455  1
  O  O40  1  0.47933611  0.45923120  0.22322953  1
  O  O41  1  0.43779174  0.21841371  0.91655624  1
  O  O42  1  0.44123646  0.89705540  0.76964434  1
  O  O43  1  0.82054213  0.66744596  0.66230504  1
  O  O44  1  0.87154671  0.40059152  0.10715208  1
  O  O45  1  0.17103247  0.78826905  0.35212695  1
  O  O46  1  0.23149452  0.53170348  0.08054916  1
  O  O47  1  0.37616893  0.10676455  0.37012189  1
  O  O48  1  0.34303701  0.69092701  0.17736953  1
  O  O49  1  0.18984786  0.06745145  0.02671372  1
  O  O50  1  0.55813318  0.71255306  0.78984932  1
  O  O51  1  0.76439029  0.06193273  0.54657257  1
  O  O52  1  0.48687727  0.76622952  0.44650038  1
  O  O53  1  0.12383107  0.12987811  0.39323545  1
  O  O54  1  0.52066389  0.54076880  0.77677047  1
  O  O55  1  0.62845329  0.39284792  0.09940848  1
  O  O56  1  0.68984786  0.52671372  0.56745145  1
  O  O57  1  0.82896753  0.21173095  0.64787305  1
  O  O58  1  0.97933611  0.72322953  0.95923120  1
  O  O59  1  0.32896753  0.14787305  0.71173095  1
  O  O60  1  0.31106003  0.56012021  0.56573165  1
  O  O61  1  0.65696299  0.30907299  0.82263047  1
  O  O62  1  0.04470733  0.24385104  0.70534177  1
  O  O63  1  0.18893997  0.93426835  0.93987979  1
  O  O64  1  0.44186682  0.28744694  0.21015068  1
  O  O65  1  0.14109179  0.81541593  0.78519482  1
  O  O66  1  0.73560971  0.95342743  0.43806727  1
  O  O67  1  0.11923376  0.86548775  0.14509202  1
  O  O68  1  0.93779174  0.41655624  0.71841371  1
  O  O69  1  0.17945787  0.33255404  0.33769496  1
  O  O70  1  0.85890821  0.18458407  0.21480518  1
  O  O71  1  0.01312273  0.05349962  0.73377048  1
  O  O72  1  0.55876354  0.10294460  0.23035566  1
  O  O73  1  0.35873524  0.90597525  0.07524616  1
  O  O74  1  0.67945787  0.83769496  0.83255404  1
  O  O75  1  0.35890821  0.71480518  0.68458407  1
  O  O76  1  0.05876354  0.73035566  0.60294460  1
  O  O77  1  0.73149452  0.58054916  0.03170348  1
  O  O78  1  0.26850548  0.41945084  0.96829652  1
  O  O79  1  0.94123646  0.26964434  0.39705540  1
  O  O80  1  0.56220826  0.78158629  0.08344376  1
  O  O81  1  0.68893997  0.43987979  0.43426835  1
  O  O82  1  0.05813318  0.28984932  0.21255306  1
  O  O83  1  0.76850548  0.46829652  0.91945084  1
  O  O84  1  0.32054213  0.16230504  0.16744596  1
  O  O85  1  0.62383107  0.89323545  0.62987811  1
  O  O86  1  0.81106003  0.06573165  0.06012021  1
  O  O87  1  0.23560971  0.93806727  0.45342743  1
  O  O88  1  0.84303701  0.67736953  0.19092701  1
  O  O89  1  0.95529267  0.75614896  0.29465823  1
  O  O90  1  0.15696299  0.32263047  0.80907299  1
  O  O91  1  0.37154671  0.60715208  0.90059152  1
  O  O92  1  0.61923376  0.64509202  0.36548775  1
  O  O93  1  0.64126476  0.09402475  0.92475384  1
  O  O94  1  0.06220826  0.58344376  0.28158629  1
  O  O95  1  0.85873524  0.57524616  0.40597525  1
  O  O96  1  0.38076624  0.35490798  0.63451225  1
  O  O97  1  0.51312273  0.23377048  0.55349962  1
  O  O98  1  0.12845329  0.59940848  0.89284792  1
  O  O99  1  0.31015214  0.47328628  0.43254855  1
  O  O100  1  0.64109179  0.28519482  0.31541593  1
  O  O101  1  0.81015214  0.93254855  0.97328628  1
  O  O102  1  0.02066389  0.27677047  0.04076880  1
  O  O103  1  0.98687727  0.94650038  0.26622952  1
