# generated using pymatgen
data_SrMn5(SO4)6
_symmetry_space_group_name_H-M   'P 1'
_cell_length_a   14.83612991
_cell_length_b   14.83613032
_cell_length_c   7.59653977
_cell_angle_alpha   90.00000000
_cell_angle_beta   90.00000000
_cell_angle_gamma   119.99999907
_symmetry_Int_Tables_number   1
_chemical_formula_structural   SrMn5(SO4)6
_chemical_formula_sum   'Sr3 Mn15 S18 O72'
_cell_volume   1448.06387312
_cell_formula_units_Z   3
loop_
 _symmetry_equiv_pos_site_id
 _symmetry_equiv_pos_as_xyz
  1  'x, y, z'
loop_
 _atom_site_type_symbol
 _atom_site_label
 _atom_site_symmetry_multiplicity
 _atom_site_fract_x
 _atom_site_fract_y
 _atom_site_fract_z
 _atom_site_occupancy
  Sr  Sr0  1  0.66666700  0.33333300  0.00102761  1
  Sr  Sr1  1  0.33333300  0.66666700  0.99897239  1
  Sr  Sr2  1  0.00000000  0.00000000  0.50000000  1
  Mn  Mn3  1  0.00161738  0.34694006  0.96490294  1
  Mn  Mn4  1  0.65467732  0.00161738  0.03509706  1
  Mn  Mn5  1  0.32314541  0.00496508  0.54555925  1
  Mn  Mn6  1  0.66666700  0.33333300  0.50163881  1
  Mn  Mn7  1  0.34694006  0.34532268  0.03509706  1
  Mn  Mn8  1  0.65305994  0.65467732  0.96490294  1
  Mn  Mn9  1  0.99838262  0.65305994  0.03509706  1
  Mn  Mn10  1  0.99503492  0.31818033  0.54555925  1
  Mn  Mn11  1  0.33333300  0.66666700  0.49836119  1
  Mn  Mn12  1  0.00496508  0.68181967  0.45444075  1
  Mn  Mn13  1  0.67685459  0.99503492  0.45444075  1
  Mn  Mn14  1  0.00000000  0.00000000  0.00000000  1
  Mn  Mn15  1  0.68181967  0.67685459  0.54555925  1
  Mn  Mn16  1  0.31818033  0.32314541  0.45444075  1
  Mn  Mn17  1  0.34532268  0.99838262  0.96490294  1
  S  S18  1  0.77397417  0.90233205  0.75704351  1
  S  S19  1  0.44091436  0.23621614  0.74430170  1
  S  S20  1  0.56991164  0.46084795  0.25916916  1
  S  S21  1  0.43008836  0.53915205  0.74083084  1
  S  S22  1  0.20469822  0.44091436  0.25569830  1
  S  S23  1  0.55908564  0.76378386  0.25569830  1
  S  S24  1  0.76378386  0.20469822  0.74430170  1
  S  S25  1  0.46084795  0.89093632  0.74083084  1
  S  S26  1  0.89093632  0.43008836  0.25916916  1
  S  S27  1  0.10906368  0.56991164  0.74083084  1
  S  S28  1  0.87164212  0.77397417  0.24295649  1
  S  S29  1  0.09766795  0.87164212  0.75704351  1
  S  S30  1  0.90233205  0.12835788  0.24295649  1
  S  S31  1  0.22602583  0.09766795  0.24295649  1
  S  S32  1  0.12835788  0.22602583  0.75704351  1
  S  S33  1  0.23621614  0.79530178  0.25569830  1
  S  S34  1  0.79530178  0.55908564  0.74430170  1
  S  S35  1  0.53915205  0.10906368  0.25916916  1
  O  O36  1  0.42449904  0.96894740  0.74479389  1
  O  O37  1  0.24479030  0.36604226  0.23934313  1
  O  O38  1  0.41029645  0.27753237  0.59495192  1
  O  O39  1  0.49522911  0.11024893  0.08245737  1
  O  O40  1  0.25531311  0.04442008  0.11149493  1
  O  O41  1  0.86723592  0.58970355  0.59495192  1
  O  O42  1  0.41594834  0.63070638  0.70999624  1
  O  O43  1  0.25261194  0.70507386  0.28613431  1
  O  O44  1  0.84558112  0.55664894  0.91274364  1
  O  O45  1  0.91934519  0.03930236  0.20545215  1
  O  O46  1  0.08391167  0.62180051  0.60087625  1
  O  O47  1  0.15441888  0.44335106  0.08725636  1
  O  O48  1  0.74738806  0.29492614  0.71386569  1
  O  O49  1  0.08065481  0.96069764  0.79454785  1
  O  O50  1  0.21089304  0.25531311  0.88850507  1
  O  O51  1  0.94402292  0.16668244  0.42354881  1
  O  O52  1  0.88975107  0.38498018  0.08245737  1
  O  O53  1  0.08957476  0.30206998  0.75881120  1
  O  O54  1  0.57550096  0.03105260  0.25520611  1
  O  O55  1  0.27753237  0.86723592  0.40504808  1
  O  O56  1  0.37819949  0.46211116  0.60087625  1
  O  O57  1  0.61501982  0.50477089  0.08245737  1
  O  O58  1  0.91608833  0.37819949  0.39912375  1
  O  O59  1  0.63070638  0.21475804  0.29000376  1
  O  O60  1  0.54753807  0.25261194  0.71386569  1
  O  O61  1  0.03930236  0.11995717  0.79454785  1
  O  O62  1  0.22265952  0.05597708  0.42354881  1
  O  O63  1  0.13276408  0.41029645  0.40504808  1
  O  O64  1  0.87874803  0.24479030  0.76065687  1
  O  O65  1  0.44335106  0.28893218  0.91274364  1
  O  O66  1  0.69793002  0.78750478  0.75881120  1
  O  O67  1  0.53788884  0.91608833  0.60087625  1
  O  O68  1  0.78524196  0.41594834  0.29000376  1
  O  O69  1  0.63395774  0.87874803  0.23934313  1
  O  O70  1  0.29492614  0.54753807  0.28613431  1
  O  O71  1  0.55664894  0.71106782  0.08725636  1
  O  O72  1  0.70507386  0.45246193  0.71386569  1
  O  O73  1  0.36604226  0.12125197  0.76065687  1
  O  O74  1  0.96069764  0.88004283  0.20545215  1
  O  O75  1  0.45246193  0.74738806  0.28613431  1
  O  O76  1  0.58405166  0.36929362  0.29000376  1
  O  O77  1  0.11024893  0.61501982  0.91754263  1
  O  O78  1  0.88004283  0.91934519  0.79454785  1
  O  O79  1  0.72246763  0.13276408  0.59495192  1
  O  O80  1  0.30206998  0.21249522  0.24118880  1
  O  O81  1  0.71106782  0.15441888  0.91274364  1
  O  O82  1  0.58970355  0.72246763  0.40504808  1
  O  O83  1  0.03105260  0.45555163  0.74479389  1
  O  O84  1  0.96894740  0.54444837  0.25520611  1
  O  O85  1  0.95557992  0.21089304  0.11149493  1
  O  O86  1  0.28893218  0.84558112  0.08725636  1
  O  O87  1  0.45555163  0.42449904  0.25520611  1
  O  O88  1  0.50477089  0.88975107  0.91754263  1
  O  O89  1  0.75520970  0.63395774  0.76065687  1
  O  O90  1  0.62180051  0.53788884  0.39912375  1
  O  O91  1  0.04442008  0.78910696  0.88850507  1
  O  O92  1  0.36929362  0.78524196  0.70999624  1
  O  O93  1  0.78750478  0.08957476  0.24118880  1
  O  O94  1  0.54444837  0.57550096  0.74479389  1
  O  O95  1  0.74468689  0.95557992  0.88850507  1
  O  O96  1  0.78910696  0.74468689  0.11149493  1
  O  O97  1  0.12125197  0.75520970  0.23934313  1
  O  O98  1  0.46211116  0.08391167  0.39912375  1
  O  O99  1  0.11995717  0.08065481  0.20545215  1
  O  O100  1  0.21249522  0.91042524  0.75881120  1
  O  O101  1  0.05597708  0.83331756  0.57645119  1
  O  O102  1  0.38498018  0.49522911  0.91754263  1
  O  O103  1  0.91042524  0.69793002  0.24118880  1
  O  O104  1  0.21475804  0.58405166  0.70999624  1
  O  O105  1  0.83331756  0.77734048  0.42354881  1
  O  O106  1  0.77734048  0.94402292  0.57645119  1
  O  O107  1  0.16668244  0.22265952  0.57645119  1
