# generated using pymatgen
data_Cr3(PO4)2
_symmetry_space_group_name_H-M   'P 1'
_cell_length_a   8.63171148
_cell_length_b   10.54103991
_cell_length_c   14.46616272
_cell_angle_alpha   90.00000000
_cell_angle_beta   90.00000000
_cell_angle_gamma   90.00000000
_symmetry_Int_Tables_number   1
_chemical_formula_structural   Cr3(PO4)2
_chemical_formula_sum   'Cr24 P16 O64'
_cell_volume   1316.23586056
_cell_formula_units_Z   8
loop_
 _symmetry_equiv_pos_site_id
 _symmetry_equiv_pos_as_xyz
  1  'x, y, z'
loop_
 _atom_site_type_symbol
 _atom_site_label
 _atom_site_symmetry_multiplicity
 _atom_site_fract_x
 _atom_site_fract_y
 _atom_site_fract_z
 _atom_site_occupancy
  Cr  Cr0  1  0.96716696  0.49493273  0.45982992  1
  Cr  Cr1  1  0.20356881  0.41967000  0.08954606  1
  Cr  Cr2  1  0.15435817  0.73391411  0.76235557  1
  Cr  Cr3  1  0.84564183  0.23391411  0.73764443  1
  Cr  Cr4  1  0.70356881  0.08033000  0.91045394  1
  Cr  Cr5  1  0.79643119  0.91967000  0.41045394  1
  Cr  Cr6  1  0.65435817  0.76608589  0.23764443  1
  Cr  Cr7  1  0.60542775  0.41819437  0.61111592  1
  Cr  Cr8  1  0.69145773  0.16690207  0.14390255  1
  Cr  Cr9  1  0.84328380  0.65656607  0.86892139  1
  Cr  Cr10  1  0.30854227  0.66690207  0.35609745  1
  Cr  Cr11  1  0.34564183  0.26608589  0.26235557  1
  Cr  Cr12  1  0.34328380  0.84343393  0.13107861  1
  Cr  Cr13  1  0.10542775  0.08180563  0.38888408  1
  Cr  Cr14  1  0.39457225  0.91819437  0.88888408  1
  Cr  Cr15  1  0.19145773  0.33309793  0.85609745  1
  Cr  Cr16  1  0.29643119  0.58033000  0.58954606  1
  Cr  Cr17  1  0.80854227  0.83309793  0.64390255  1
  Cr  Cr18  1  0.89457225  0.58180563  0.11111592  1
  Cr  Cr19  1  0.53283304  0.50506727  0.95982992  1
  Cr  Cr20  1  0.65671620  0.34343393  0.36892139  1
  Cr  Cr21  1  0.03283304  0.99493273  0.04017008  1
  Cr  Cr22  1  0.46716696  0.00506727  0.54017008  1
  Cr  Cr23  1  0.15671620  0.15656607  0.63107861  1
  P  P24  1  0.14865295  0.82407321  0.53597604  1
  P  P25  1  0.53167916  0.50122424  0.18863127  1
  P  P26  1  0.85134705  0.32407321  0.96402396  1
  P  P27  1  0.96832084  0.49877576  0.68863127  1
  P  P28  1  0.79950466  0.15669215  0.52893758  1
  P  P29  1  0.46832084  0.00122424  0.31136873  1
  P  P30  1  0.96407748  0.32785903  0.26077966  1
  P  P31  1  0.35134705  0.17592679  0.03597604  1
  P  P32  1  0.29950466  0.34330785  0.47106242  1
  P  P33  1  0.03167916  0.99877576  0.81136873  1
  P  P34  1  0.70049534  0.84330785  0.02893758  1
  P  P35  1  0.46407748  0.17214097  0.73922034  1
  P  P36  1  0.64865295  0.67592679  0.46402396  1
  P  P37  1  0.20049534  0.65669215  0.97106242  1
  P  P38  1  0.53592252  0.67214097  0.76077966  1
  P  P39  1  0.03592252  0.82785903  0.23922034  1
  O  O40  1  0.54967729  0.97652923  0.40600770  1
  O  O41  1  0.57748099  0.80903938  0.10378204  1
  O  O42  1  0.47783782  0.63688746  0.45312967  1
  O  O43  1  0.80751347  0.94797113  0.06610062  1
  O  O44  1  0.93267428  0.90996553  0.75221142  1
  O  O45  1  0.21565941  0.75931947  0.62667491  1
  O  O46  1  0.74309560  0.55374910  0.48483505  1
  O  O47  1  0.24309560  0.94625090  0.51516495  1
  O  O48  1  0.11722513  0.90741905  0.15941443  1
  O  O49  1  0.25690440  0.05374910  0.01516495  1
  O  O50  1  0.88288553  0.10120173  0.44162166  1
  O  O51  1  0.06732572  0.40996553  0.74778858  1
  O  O52  1  0.99452645  0.91954728  0.32107574  1
  O  O53  1  0.30910033  0.06307439  0.32382959  1
  O  O54  1  0.38700288  0.73482353  0.79840485  1
  O  O55  1  0.05421161  0.13131857  0.76289954  1
  O  O56  1  0.61299712  0.23482353  0.70159515  1
  O  O57  1  0.34858879  0.27632217  0.76338815  1
  O  O58  1  0.21162136  0.21951083  0.49789103  1
  O  O59  1  0.52216218  0.13688746  0.04687033  1
  O  O60  1  0.38277487  0.09258095  0.65941443  1
  O  O61  1  0.00547355  0.41954728  0.17892426  1
  O  O62  1  0.02216218  0.36311254  0.95312967  1
  O  O63  1  0.94578839  0.63131857  0.73710046  1
  O  O64  1  0.80910033  0.43692561  0.67617041  1
  O  O65  1  0.71565941  0.74068053  0.37332509  1
  O  O66  1  0.19089967  0.93692561  0.82382959  1
  O  O67  1  0.43267428  0.59003447  0.24778858  1
  O  O68  1  0.75690440  0.44625090  0.98483505  1
  O  O69  1  0.45032271  0.47652923  0.09399230  1
  O  O70  1  0.69248653  0.05202887  0.56610062  1
  O  O71  1  0.16573158  0.72097723  0.46130246  1
  O  O72  1  0.33426842  0.27902277  0.96130246  1
  O  O73  1  0.04967729  0.52347077  0.59399230  1
  O  O74  1  0.65141121  0.77632217  0.73661185  1
  O  O75  1  0.78837864  0.71951083  0.00210897  1
  O  O76  1  0.71162136  0.28048917  0.50210897  1
  O  O77  1  0.11299712  0.26517647  0.29840485  1
  O  O78  1  0.56732572  0.09003447  0.25221142  1
  O  O79  1  0.28434059  0.24068053  0.12667491  1
  O  O80  1  0.11711447  0.60120173  0.05837834  1
  O  O81  1  0.61722513  0.59258095  0.84058557  1
  O  O82  1  0.50547355  0.08045272  0.82107574  1
  O  O83  1  0.69089967  0.56307439  0.17617041  1
  O  O84  1  0.84858879  0.22367783  0.23661185  1
  O  O85  1  0.83426842  0.22097723  0.03869754  1
  O  O86  1  0.88277487  0.40741905  0.34058557  1
  O  O87  1  0.61711447  0.89879827  0.94162166  1
  O  O88  1  0.19248653  0.44797113  0.43389938  1
  O  O89  1  0.66573158  0.77902277  0.53869754  1
  O  O90  1  0.88700288  0.76517647  0.20159515  1
  O  O91  1  0.97783782  0.86311254  0.54687033  1
  O  O92  1  0.49452645  0.58045272  0.67892426  1
  O  O93  1  0.78434059  0.25931947  0.87332509  1
  O  O94  1  0.38288553  0.39879827  0.55837834  1
  O  O95  1  0.15141121  0.72367783  0.26338815  1
  O  O96  1  0.55421161  0.36868143  0.23710046  1
  O  O97  1  0.44578839  0.86868143  0.26289954  1
  O  O98  1  0.95032271  0.02347077  0.90600770  1
  O  O99  1  0.28837864  0.78048917  0.99789103  1
  O  O100  1  0.42251901  0.30903938  0.39621796  1
  O  O101  1  0.30751347  0.55202887  0.93389938  1
  O  O102  1  0.07748099  0.69096062  0.89621796  1
  O  O103  1  0.92251901  0.19096062  0.60378204  1
