# generated using pymatgen
data_Rb3Mo4(P2O11)2
_symmetry_space_group_name_H-M   'P 1'
_cell_length_a   10.27448638
_cell_length_b   10.27448639
_cell_length_c   19.60316258
_cell_angle_alpha   90.00000000
_cell_angle_beta   90.00000000
_cell_angle_gamma   90.27597212
_symmetry_Int_Tables_number   1
_chemical_formula_structural   Rb3Mo4(P2O11)2
_chemical_formula_sum   'Rb12 Mo16 P16 O88'
_cell_volume   2069.38523415
_cell_formula_units_Z   4
loop_
 _symmetry_equiv_pos_site_id
 _symmetry_equiv_pos_as_xyz
  1  'x, y, z'
loop_
 _atom_site_type_symbol
 _atom_site_label
 _atom_site_symmetry_multiplicity
 _atom_site_fract_x
 _atom_site_fract_y
 _atom_site_fract_z
 _atom_site_occupancy
  Rb  Rb0  1  0.79193775  0.79193775  0.00000000  1
  Rb  Rb1  1  0.01326126  0.11288726  0.87537300  1
  Rb  Rb2  1  0.38798726  0.51336134  0.62948601  1
  Rb  Rb3  1  0.11288726  0.01326126  0.12462700  1
  Rb  Rb4  1  0.61201274  0.48663866  0.12948601  1
  Rb  Rb5  1  0.88711274  0.98673874  0.62462700  1
  Rb  Rb6  1  0.71078482  0.28921518  0.75000000  1
  Rb  Rb7  1  0.48663866  0.61201274  0.87051399  1
  Rb  Rb8  1  0.98673874  0.88711274  0.37537300  1
  Rb  Rb9  1  0.28921518  0.71078482  0.25000000  1
  Rb  Rb10  1  0.20806225  0.20806225  0.50000000  1
  Rb  Rb11  1  0.51336134  0.38798726  0.37051399  1
  Mo  Mo12  1  0.01737306  0.63347398  0.56070352  1
  Mo  Mo13  1  0.98262694  0.36652602  0.06070352  1
  Mo  Mo14  1  0.39166456  0.75576965  0.43468424  1
  Mo  Mo15  1  0.89619600  0.74482281  0.81430579  1
  Mo  Mo16  1  0.25517719  0.10380400  0.68569421  1
  Mo  Mo17  1  0.51651322  0.86216986  0.68953476  1
  Mo  Mo18  1  0.75576965  0.39166456  0.56531576  1
  Mo  Mo19  1  0.74482281  0.89619600  0.18569421  1
  Mo  Mo20  1  0.13783014  0.48348678  0.81046524  1
  Mo  Mo21  1  0.60833544  0.24423035  0.93468424  1
  Mo  Mo22  1  0.63347398  0.01737306  0.43929648  1
  Mo  Mo23  1  0.10380400  0.25517719  0.31430579  1
  Mo  Mo24  1  0.48348678  0.13783014  0.18953476  1
  Mo  Mo25  1  0.36652602  0.98262694  0.93929648  1
  Mo  Mo26  1  0.24423035  0.60833544  0.06531676  1
  Mo  Mo27  1  0.86216986  0.51651322  0.31046524  1
  P  P28  1  0.73858203  0.15632891  0.08009667  1
  P  P29  1  0.45332638  0.85782695  0.09044269  1
  P  P30  1  0.64432252  0.95271159  0.84087096  1
  P  P31  1  0.76406903  0.65649201  0.66915106  1
  P  P32  1  0.35567748  0.04728841  0.34087096  1
  P  P33  1  0.84367109  0.26141797  0.41990333  1
  P  P34  1  0.85782695  0.45332638  0.90955731  1
  P  P35  1  0.34350799  0.23593097  0.83084894  1
  P  P36  1  0.26141797  0.84367109  0.58009667  1
  P  P37  1  0.14217305  0.54667362  0.40955731  1
  P  P38  1  0.54667362  0.14217305  0.59044269  1
  P  P39  1  0.65649201  0.76406903  0.33084894  1
  P  P40  1  0.23593097  0.34350799  0.16915106  1
  P  P41  1  0.15632891  0.73858203  0.91990333  1
  P  P42  1  0.04728841  0.35567748  0.65912904  1
  P  P43  1  0.95271159  0.64432252  0.15912904  1
  O  O44  1  0.81428193  0.39916319  0.39340616  1
  O  O45  1  0.76658346  0.67771483  0.35819176  1
  O  O46  1  0.97706850  0.20726042  0.39611430  1
  O  O47  1  0.88582576  0.52309571  0.53593078  1
  O  O48  1  0.63766668  0.95006265  0.76170176  1
  O  O49  1  0.23067480  0.02183799  0.98696720  1
  O  O50  1  0.68330369  0.90503669  0.35847277  1
  O  O51  1  0.48092450  0.72153957  0.73456142  1
  O  O52  1  0.73035142  0.17062150  0.39501365  1
  O  O53  1  0.47690429  0.11417424  0.96406922  1
  O  O54  1  0.13593800  0.55457491  0.49022501  1
  O  O55  1  0.67771483  0.76658346  0.64180824  1
  O  O56  1  0.73804742  0.15587788  0.00066206  1
  O  O57  1  0.02183799  0.23067480  0.01303280  1
  O  O58  1  0.35508232  0.74965501  0.11402340  1
  O  O59  1  0.31805235  0.90746537  0.36403027  1
  O  O60  1  0.28661898  0.48038081  0.14582645  1
  O  O61  1  0.17062150  0.73035142  0.60498635  1
  O  O62  1  0.26964858  0.82937850  0.89501365  1
  O  O63  1  0.65615539  0.76496233  0.25186461  1
  O  O64  1  0.40709367  0.18120205  0.60978172  1
  O  O65  1  0.09496331  0.31669631  0.14152723  1
  O  O66  1  0.51961919  0.71338102  0.35417355  1
  O  O67  1  0.86406200  0.44542509  0.99022501  1
  O  O68  1  0.90503669  0.68330369  0.64152723  1
  O  O69  1  0.48545084  0.09174401  0.37407587  1
  O  O70  1  0.48038081  0.28661898  0.85417355  1
  O  O71  1  0.79273958  0.02293150  0.10388570  1
  O  O72  1  0.36233332  0.04993735  0.26170176  1
  O  O73  1  0.02293150  0.79273958  0.89611430  1
  O  O74  1  0.18120205  0.40709367  0.39021828  1
  O  O75  1  0.39916319  0.81428193  0.60659384  1
  O  O76  1  0.68194765  0.09253463  0.86403027  1
  O  O77  1  0.34384461  0.23503767  0.75186461  1
  O  O78  1  0.32228517  0.23341654  0.14180824  1
  O  O79  1  0.93093771  0.87899219  0.76481625  1
  O  O80  1  0.74939190  0.85401508  0.86521963  1
  O  O81  1  0.44542509  0.86406200  0.00977499  1
  O  O82  1  0.14598492  0.25060810  0.63478037  1
  O  O83  1  0.61291839  0.01366469  0.21582102  1
  O  O84  1  0.56658838  0.37225242  0.98639435  1
  O  O85  1  0.97816201  0.76932520  0.51303280  1
  O  O86  1  0.37225242  0.56658838  0.01360565  1
  O  O87  1  0.27846043  0.51907550  0.76543858  1
  O  O88  1  0.98633531  0.38708161  0.28417898  1
  O  O89  1  0.11417424  0.47690429  0.03593078  1
  O  O90  1  0.62774758  0.43341162  0.51360565  1
  O  O91  1  0.98595887  0.40745036  0.87816840  1
  O  O92  1  0.04993735  0.36233332  0.73829824  1
  O  O93  1  0.72153957  0.48092450  0.26543858  1
  O  O94  1  0.74965501  0.35508232  0.88597660  1
  O  O95  1  0.90825599  0.51454916  0.12592413  1
  O  O96  1  0.90746537  0.31805235  0.63596973  1
  O  O97  1  0.64491768  0.25034499  0.61402340  1
  O  O98  1  0.09174401  0.48545084  0.62592413  1
  O  O99  1  0.01366469  0.61291839  0.78417898  1
  O  O100  1  0.84412212  0.26195258  0.49933794  1
  O  O101  1  0.95006265  0.63766668  0.23829824  1
  O  O102  1  0.18571807  0.60083681  0.89340616  1
  O  O103  1  0.55457491  0.13593800  0.50977499  1
  O  O104  1  0.59290633  0.81879795  0.10978172  1
  O  O105  1  0.71338102  0.51961919  0.64582645  1
  O  O106  1  0.40745036  0.98595887  0.12183160  1
  O  O107  1  0.43341162  0.62774758  0.48639435  1
  O  O108  1  0.85401508  0.74939190  0.13478037  1
  O  O109  1  0.81879795  0.59290633  0.89021828  1
  O  O110  1  0.59254964  0.01404113  0.62183160  1
  O  O111  1  0.51907550  0.27846043  0.23456142  1
  O  O112  1  0.82937850  0.26964858  0.10498635  1
  O  O113  1  0.38708161  0.98633531  0.71582102  1
  O  O114  1  0.76932520  0.97816201  0.48696720  1
  O  O115  1  0.26195258  0.84412212  0.50066206  1
  O  O116  1  0.51454916  0.90825599  0.87407587  1
  O  O117  1  0.23341654  0.32228517  0.85819176  1
  O  O118  1  0.31669631  0.09496331  0.85847277  1
  O  O119  1  0.20726042  0.97706850  0.60388570  1
  O  O120  1  0.09253463  0.68194765  0.13596973  1
  O  O121  1  0.12100781  0.06906229  0.73518375  1
  O  O122  1  0.25034499  0.64491768  0.38597660  1
  O  O123  1  0.25060810  0.14598492  0.36521963  1
  O  O124  1  0.23503767  0.34384461  0.24813539  1
  O  O125  1  0.01404113  0.59254964  0.37816840  1
  O  O126  1  0.60083681  0.18571807  0.10659384  1
  O  O127  1  0.06906229  0.12100781  0.26481625  1
  O  O128  1  0.87899219  0.93093771  0.23518375  1
  O  O129  1  0.52309571  0.88582576  0.46406922  1
  O  O130  1  0.76496233  0.65615539  0.74813539  1
  O  O131  1  0.15587788  0.73804742  0.99933794  1
