# generated using pymatgen
data_Ce2Ga12Cu
_symmetry_space_group_name_H-M   'P 1'
_cell_length_a   6.14748239
_cell_length_b   6.14748239
_cell_length_c   15.32526217
_cell_angle_alpha   90.00000000
_cell_angle_beta   90.00000000
_cell_angle_gamma   90.00000000
_symmetry_Int_Tables_number   1
_chemical_formula_structural   Ce2Ga12Cu
_chemical_formula_sum   'Ce4 Ga24 Cu2'
_cell_volume   579.16525425
_cell_formula_units_Z   2
loop_
 _symmetry_equiv_pos_site_id
 _symmetry_equiv_pos_as_xyz
  1  'x, y, z'
loop_
 _atom_site_type_symbol
 _atom_site_label
 _atom_site_symmetry_multiplicity
 _atom_site_fract_x
 _atom_site_fract_y
 _atom_site_fract_z
 _atom_site_occupancy
  Cu  Cu0  1  0.75000000  0.25000000  0.00000000  1
  Cu  Cu1  1  0.25000000  0.75000000  0.00000000  1
  Ga  Ga2  1  0.92110230  0.42110230  0.42825042  1
  Ga  Ga3  1  0.92110230  0.07889770  0.57174958  1
  Ga  Ga4  1  0.42110230  0.92110230  0.57174958  1
  Ga  Ga5  1  0.07889770  0.57889770  0.57174958  1
  Ga  Ga6  1  0.75000000  0.75000000  0.18147704  1
  Ga  Ga7  1  0.75000000  0.75000000  0.81852296  1
  Ga  Ga8  1  0.25000000  0.25000000  0.81852296  1
  Ga  Ga9  1  0.25000000  0.25000000  0.18147704  1
  Ga  Ga10  1  0.75000000  0.75000000  0.34112131  1
  Ga  Ga11  1  0.75000000  0.75000000  0.65887869  1
  Ga  Ga12  1  0.25000000  0.25000000  0.65887869  1
  Ga  Ga13  1  0.25000000  0.25000000  0.34112131  1
  Ga  Ga14  1  0.50025508  0.00025508  0.91377769  1
  Ga  Ga15  1  0.49974492  0.50025508  0.91377769  1
  Ga  Ga16  1  0.00025508  0.99974492  0.91377769  1
  Ga  Ga17  1  0.50025508  0.49974492  0.08622231  1
  Ga  Ga18  1  0.99974492  0.00025508  0.08622231  1
  Ga  Ga19  1  0.99974492  0.49974492  0.91377769  1
  Ga  Ga20  1  0.00025508  0.50025508  0.08622231  1
  Ga  Ga21  1  0.49974492  0.99974492  0.08622231  1
  Ga  Ga22  1  0.57889770  0.07889770  0.42825042  1
  Ga  Ga23  1  0.42110230  0.57889770  0.42825042  1
  Ga  Ga24  1  0.07889770  0.92110230  0.42825042  1
  Ga  Ga25  1  0.57889770  0.42110230  0.57174958  1
  Ce  Ce26  1  0.25000000  0.75000000  0.75648868  1
  Ce  Ce27  1  0.75000000  0.25000000  0.75648868  1
  Ce  Ce28  1  0.25000000  0.75000000  0.24351132  1
  Ce  Ce29  1  0.75000000  0.25000000  0.24351132  1
