# generated using pymatgen
data_Rb3Mo12PO40
_symmetry_space_group_name_H-M   'P 1'
_cell_length_a   12.03358108
_cell_length_b   12.03358108
_cell_length_c   12.03358108
_cell_angle_alpha   90.00000000
_cell_angle_beta   90.00000000
_cell_angle_gamma   90.00000000
_symmetry_Int_Tables_number   1
_chemical_formula_structural   Rb3Mo12PO40
_chemical_formula_sum   'Rb6 Mo24 P2 O80'
_cell_volume   1742.54766123
_cell_formula_units_Z   2
loop_
 _symmetry_equiv_pos_site_id
 _symmetry_equiv_pos_as_xyz
  1  'x, y, z'
loop_
 _atom_site_type_symbol
 _atom_site_label
 _atom_site_symmetry_multiplicity
 _atom_site_fract_x
 _atom_site_fract_y
 _atom_site_fract_z
 _atom_site_occupancy
  Rb  Rb0  1  0.25000000  0.75000000  0.75000000  1
  Rb  Rb1  1  0.75000000  0.75000000  0.25000000  1
  Rb  Rb2  1  0.75000000  0.25000000  0.25000000  1
  Rb  Rb3  1  0.75000000  0.25000000  0.75000000  1
  Rb  Rb4  1  0.25000000  0.75000000  0.25000000  1
  Rb  Rb5  1  0.25000000  0.25000000  0.75000000  1
  Mo  Mo6  1  0.03765680  0.03765680  0.24205997  1
  Mo  Mo7  1  0.75794003  0.53765680  0.53765680  1
  Mo  Mo8  1  0.24205997  0.46234320  0.46234320  1
  Mo  Mo9  1  0.74205997  0.96234320  0.53765680  1
  Mo  Mo10  1  0.53765680  0.75794003  0.53765680  1
  Mo  Mo11  1  0.75794003  0.96234320  0.96234320  1
  Mo  Mo12  1  0.96234320  0.74205997  0.53765680  1
  Mo  Mo13  1  0.24205997  0.03765680  0.03765680  1
  Mo  Mo14  1  0.74205997  0.53765680  0.96234320  1
  Mo  Mo15  1  0.25794003  0.46234320  0.03765680  1
  Mo  Mo16  1  0.03765680  0.24205997  0.03765680  1
  Mo  Mo17  1  0.53765680  0.74205997  0.96234320  1
  Mo  Mo18  1  0.03765680  0.25794003  0.46234320  1
  Mo  Mo19  1  0.46234320  0.03765680  0.25794003  1
  Mo  Mo20  1  0.25794003  0.03765680  0.46234320  1
  Mo  Mo21  1  0.96234320  0.96234320  0.75794003  1
  Mo  Mo22  1  0.96234320  0.75794003  0.96234320  1
  Mo  Mo23  1  0.46234320  0.24205997  0.46234320  1
  Mo  Mo24  1  0.03765680  0.46234320  0.25794003  1
  Mo  Mo25  1  0.53765680  0.96234320  0.74205997  1
  Mo  Mo26  1  0.53765680  0.53765680  0.75794003  1
  Mo  Mo27  1  0.46234320  0.25794003  0.03765680  1
  Mo  Mo28  1  0.46234320  0.46234320  0.24205997  1
  Mo  Mo29  1  0.96234320  0.53765680  0.74205997  1
  P  P30  1  0.75000000  0.75000000  0.75000000  1
  P  P31  1  0.25000000  0.25000000  0.25000000  1
  O  O32  1  0.96791340  0.37358280  0.37358280  1
  O  O33  1  0.82423588  0.82423588  0.82423588  1
  O  O34  1  0.76578637  0.06165747  0.43834253  1
  O  O35  1  0.37358280  0.96791340  0.37358280  1
  O  O36  1  0.67576412  0.67576412  0.82423588  1
  O  O37  1  0.84735422  0.84735422  0.49765439  1
  O  O38  1  0.53208660  0.37358280  0.12641720  1
  O  O39  1  0.87358280  0.87358280  0.03208660  1
  O  O40  1  0.62641720  0.87358280  0.46791340  1
  O  O41  1  0.37358280  0.37358280  0.96791340  1
  O  O42  1  0.34735422  0.34735422  0.50234561  1
  O  O43  1  0.37358280  0.53208660  0.12641720  1
  O  O44  1  0.23421363  0.93834253  0.56165747  1
  O  O45  1  0.73421363  0.06165747  0.06165747  1
  O  O46  1  0.06165747  0.43834253  0.76578637  1
  O  O47  1  0.34735422  0.15264578  0.99765439  1
  O  O48  1  0.50234561  0.34735422  0.34735422  1
  O  O49  1  0.06165747  0.73421363  0.06165747  1
  O  O50  1  0.34735422  0.99765439  0.15264578  1
  O  O51  1  0.43834253  0.43834253  0.73421363  1
  O  O52  1  0.56165747  0.93834253  0.23421363  1
  O  O53  1  0.56165747  0.23421363  0.93834253  1
  O  O54  1  0.84735422  0.49765439  0.84735422  1
  O  O55  1  0.53208660  0.12641720  0.37358280  1
  O  O56  1  0.46791340  0.87358280  0.62641720  1
  O  O57  1  0.32423588  0.17576412  0.32423588  1
  O  O58  1  0.03208660  0.62641720  0.62641720  1
  O  O59  1  0.87358280  0.03208660  0.87358280  1
  O  O60  1  0.76578637  0.43834253  0.06165747  1
  O  O61  1  0.65264578  0.65264578  0.49765439  1
  O  O62  1  0.93834253  0.93834253  0.26578637  1
  O  O63  1  0.23421363  0.56165747  0.93834253  1
  O  O64  1  0.15264578  0.34735422  0.99765439  1
  O  O65  1  0.93834253  0.23421363  0.56165747  1
  O  O66  1  0.84735422  0.65264578  0.00234561  1
  O  O67  1  0.84735422  0.00234561  0.65264578  1
  O  O68  1  0.49765439  0.84735422  0.84735422  1
  O  O69  1  0.15264578  0.15264578  0.50234561  1
  O  O70  1  0.17576412  0.17576412  0.17576412  1
  O  O71  1  0.43834253  0.06165747  0.76578637  1
  O  O72  1  0.96791340  0.12641720  0.12641720  1
  O  O73  1  0.12641720  0.37358280  0.53208660  1
  O  O74  1  0.62641720  0.03208660  0.62641720  1
  O  O75  1  0.17576412  0.32423588  0.32423588  1
  O  O76  1  0.65264578  0.84735422  0.00234561  1
  O  O77  1  0.12641720  0.12641720  0.96791340  1
  O  O78  1  0.00234561  0.65264578  0.84735422  1
  O  O79  1  0.32423588  0.32423588  0.17576412  1
  O  O80  1  0.49765439  0.65264578  0.65264578  1
  O  O81  1  0.46791340  0.62641720  0.87358280  1
  O  O82  1  0.62641720  0.62641720  0.03208660  1
  O  O83  1  0.82423588  0.67576412  0.67576412  1
  O  O84  1  0.93834253  0.56165747  0.23421363  1
  O  O85  1  0.06165747  0.06165747  0.73421363  1
  O  O86  1  0.56165747  0.26578637  0.56165747  1
  O  O87  1  0.06165747  0.76578637  0.43834253  1
  O  O88  1  0.87358280  0.62641720  0.46791340  1
  O  O89  1  0.50234561  0.15264578  0.15264578  1
  O  O90  1  0.65264578  0.00234561  0.84735422  1
  O  O91  1  0.99765439  0.15264578  0.34735422  1
  O  O92  1  0.12641720  0.96791340  0.12641720  1
  O  O93  1  0.03208660  0.87358280  0.87358280  1
  O  O94  1  0.62641720  0.46791340  0.87358280  1
  O  O95  1  0.00234561  0.84735422  0.65264578  1
  O  O96  1  0.56165747  0.56165747  0.26578637  1
  O  O97  1  0.93834253  0.26578637  0.93834253  1
  O  O98  1  0.73421363  0.43834253  0.43834253  1
  O  O99  1  0.26578637  0.56165747  0.56165747  1
  O  O100  1  0.99765439  0.34735422  0.15264578  1
  O  O101  1  0.87358280  0.46791340  0.62641720  1
  O  O102  1  0.34735422  0.50234561  0.34735422  1
  O  O103  1  0.12641720  0.53208660  0.37358280  1
  O  O104  1  0.43834253  0.73421363  0.43834253  1
  O  O105  1  0.26578637  0.93834253  0.93834253  1
  O  O106  1  0.67576412  0.82423588  0.67576412  1
  O  O107  1  0.15264578  0.99765439  0.34735422  1
  O  O108  1  0.65264578  0.49765439  0.65264578  1
  O  O109  1  0.15264578  0.50234561  0.15264578  1
  O  O110  1  0.37358280  0.12641720  0.53208660  1
  O  O111  1  0.43834253  0.76578637  0.06165747  1
