# generated using pymatgen
data_FeCl3
_symmetry_space_group_name_H-M   'P 1'
_cell_length_a   6.18758655
_cell_length_b   6.18758670
_cell_length_c   18.70470982
_cell_angle_alpha   90.00000000
_cell_angle_beta   90.00000000
_cell_angle_gamma   119.99999925
_symmetry_Int_Tables_number   1
_chemical_formula_structural   FeCl3
_chemical_formula_sum   'Fe6 Cl18'
_cell_volume   620.18919267
_cell_formula_units_Z   6
loop_
 _symmetry_equiv_pos_site_id
 _symmetry_equiv_pos_as_xyz
  1  'x, y, z'
loop_
 _atom_site_type_symbol
 _atom_site_label
 _atom_site_symmetry_multiplicity
 _atom_site_fract_x
 _atom_site_fract_y
 _atom_site_fract_z
 _atom_site_occupancy
  Fe  Fe0  1  0.33333300  0.66666700  0.66660749  1
  Fe  Fe1  1  0.66666700  0.33333300  0.33589405  1
  Fe  Fe2  1  0.33333300  0.66666700  0.33339251  1
  Fe  Fe3  1  0.00000000  0.00000000  0.00000000  1
  Fe  Fe4  1  0.66666700  0.33333300  0.66410595  1
  Fe  Fe5  1  0.33333300  0.66666700  0.00000000  1
  Cl  Cl6  1  0.03318008  0.33328265  0.92614107  1
  Cl  Cl7  1  0.99921562  0.36680416  0.26063896  1
  Cl  Cl8  1  0.36758855  0.00078438  0.26063896  1
  Cl  Cl9  1  0.63319584  0.00078438  0.73936104  1
  Cl  Cl10  1  0.03318008  0.69989743  0.07385893  1
  Cl  Cl11  1  0.99921562  0.63241145  0.73936104  1
  Cl  Cl12  1  0.30010257  0.33328265  0.07385893  1
  Cl  Cl13  1  0.30010257  0.96681992  0.92614107  1
  Cl  Cl14  1  0.36758855  0.36680416  0.73936104  1
  Cl  Cl15  1  0.36369327  0.36444846  0.40808154  1
  Cl  Cl16  1  0.63319584  0.63241145  0.26063896  1
  Cl  Cl17  1  0.66671735  0.96681992  0.07385893  1
  Cl  Cl18  1  0.63555154  0.99924481  0.40808154  1
  Cl  Cl19  1  0.00075519  0.36444846  0.59191846  1
  Cl  Cl20  1  0.00075519  0.63630673  0.40808154  1
  Cl  Cl21  1  0.36369327  0.99924481  0.59191846  1
  Cl  Cl22  1  0.66671735  0.69989743  0.92614107  1
  Cl  Cl23  1  0.63555154  0.63630673  0.59191846  1
