# generated using pymatgen
data_Eu3BeO5
_symmetry_space_group_name_H-M   'P 1'
_cell_length_a   6.57633826
_cell_length_b   7.20175551
_cell_length_c   9.52401911
_cell_angle_alpha   89.93999416
_cell_angle_beta   90.00000000
_cell_angle_gamma   90.00000000
_symmetry_Int_Tables_number   1
_chemical_formula_structural   Eu3BeO5
_chemical_formula_sum   'Eu12 Be4 O20'
_cell_volume   451.06853862
_cell_formula_units_Z   4
loop_
 _symmetry_equiv_pos_site_id
 _symmetry_equiv_pos_as_xyz
  1  'x, y, z'
loop_
 _atom_site_type_symbol
 _atom_site_label
 _atom_site_symmetry_multiplicity
 _atom_site_fract_x
 _atom_site_fract_y
 _atom_site_fract_z
 _atom_site_occupancy
  Eu  Eu0  1  0.41059691  0.75011251  0.02152969  1
  Eu  Eu1  1  0.91822477  0.52049623  0.17360062  1
  Eu  Eu2  1  0.41973369  0.02117342  0.32620891  1
  Eu  Eu3  1  0.58026631  0.97882658  0.67379109  1
  Eu  Eu4  1  0.08177523  0.47950377  0.82639938  1
  Eu  Eu5  1  0.41822477  0.47950377  0.32639938  1
  Eu  Eu6  1  0.08940309  0.75011251  0.52152969  1
  Eu  Eu7  1  0.91973369  0.97882658  0.17379109  1
  Eu  Eu8  1  0.58940309  0.24988749  0.97847031  1
  Eu  Eu9  1  0.58177523  0.52049623  0.67360062  1
  Eu  Eu10  1  0.91059691  0.24988749  0.47847031  1
  Eu  Eu11  1  0.08026631  0.02117342  0.82620891  1
  Be  Be12  1  0.19329232  0.25009215  0.10171431  1
  Be  Be13  1  0.80670768  0.74990785  0.89828569  1
  Be  Be14  1  0.30670768  0.25009215  0.60171431  1
  Be  Be15  1  0.69329232  0.74990785  0.39828569  1
  O  O16  1  0.13646228  0.25004924  0.27508100  1
  O  O17  1  0.30758420  0.44336033  0.07066586  1
  O  O18  1  0.83668547  0.25048067  0.72217738  1
  O  O19  1  0.66331453  0.25048067  0.22217738  1
  O  O20  1  0.69220284  0.94336349  0.92870568  1
  O  O21  1  0.30779716  0.05663651  0.07129432  1
  O  O22  1  0.36353772  0.25004924  0.77508100  1
  O  O23  1  0.48169218  0.75017850  0.48974460  1
  O  O24  1  0.86353772  0.74995076  0.72491900  1
  O  O25  1  0.33668547  0.74951933  0.77782262  1
  O  O26  1  0.01830782  0.75017850  0.98974460  1
  O  O27  1  0.80758420  0.55663967  0.42933414  1
  O  O28  1  0.51830782  0.24982150  0.51025540  1
  O  O29  1  0.16331453  0.74951933  0.27782262  1
  O  O30  1  0.69241580  0.55663967  0.92933414  1
  O  O31  1  0.19241580  0.44336033  0.57066586  1
  O  O32  1  0.80779716  0.94336349  0.42870568  1
  O  O33  1  0.63646228  0.74995076  0.22491900  1
  O  O34  1  0.98169218  0.24982150  0.01025540  1
  O  O35  1  0.19220284  0.05663651  0.57129432  1
