# generated using pymatgen
data_Bi7Mo2(AsO8)3
_symmetry_space_group_name_H-M   'P 1'
_cell_length_a   5.41023783
_cell_length_b   16.34719327
_cell_length_c   24.07850951
_cell_angle_alpha   90.00000000
_cell_angle_beta   90.00000000
_cell_angle_gamma   90.00000000
_symmetry_Int_Tables_number   1
_chemical_formula_structural   Bi7Mo2(AsO8)3
_chemical_formula_sum   'Bi28 Mo8 As12 O96'
_cell_volume   2129.55643670
_cell_formula_units_Z   4
loop_
 _symmetry_equiv_pos_site_id
 _symmetry_equiv_pos_as_xyz
  1  'x, y, z'
loop_
 _atom_site_type_symbol
 _atom_site_label
 _atom_site_symmetry_multiplicity
 _atom_site_fract_x
 _atom_site_fract_y
 _atom_site_fract_z
 _atom_site_occupancy
  Bi  Bi0  1  0.19753679  0.32453446  0.81126889  1
  Bi  Bi1  1  0.69551950  0.66135448  0.94043576  1
  Bi  Bi2  1  0.76070472  0.17697864  0.05598105  1
  Bi  Bi3  1  0.73929528  0.67697864  0.55598105  1
  Bi  Bi4  1  0.69753679  0.32453446  0.18873111  1
  Bi  Bi5  1  0.30448050  0.33864552  0.05956424  1
  Bi  Bi6  1  0.25000000  0.50000000  0.31870714  1
  Bi  Bi7  1  0.75000000  0.00000000  0.18129286  1
  Bi  Bi8  1  0.19551950  0.83864552  0.55956424  1
  Bi  Bi9  1  0.23929528  0.82302136  0.94401895  1
  Bi  Bi10  1  0.23929528  0.67697864  0.44401895  1
  Bi  Bi11  1  0.19551950  0.66135448  0.05956424  1
  Bi  Bi12  1  0.73929528  0.82302136  0.05598105  1
  Bi  Bi13  1  0.26070472  0.17697864  0.94401895  1
  Bi  Bi14  1  0.30448050  0.16135448  0.55956424  1
  Bi  Bi15  1  0.80246321  0.82453446  0.68873111  1
  Bi  Bi16  1  0.25000000  0.00000000  0.81870714  1
  Bi  Bi17  1  0.30246321  0.67546554  0.81126889  1
  Bi  Bi18  1  0.69551950  0.83864552  0.44043576  1
  Bi  Bi19  1  0.26070472  0.32302136  0.44401895  1
  Bi  Bi20  1  0.30246321  0.82453446  0.31126889  1
  Bi  Bi21  1  0.76070472  0.32302136  0.55598105  1
  Bi  Bi22  1  0.19753679  0.17546554  0.31126889  1
  Bi  Bi23  1  0.80246321  0.67546554  0.18873111  1
  Bi  Bi24  1  0.75000000  0.50000000  0.68129286  1
  Bi  Bi25  1  0.69753679  0.17546554  0.68873111  1
  Bi  Bi26  1  0.80448050  0.33864552  0.94043576  1
  Bi  Bi27  1  0.80448050  0.16135448  0.44043576  1
  Mo  Mo28  1  0.75000000  0.50000000  0.42419244  1
  Mo  Mo29  1  0.25000000  0.50000000  0.17763497  1
  Mo  Mo30  1  0.25000000  0.00000000  0.67763497  1
  Mo  Mo31  1  0.75000000  0.50000000  0.82236503  1
  Mo  Mo32  1  0.75000000  0.00000000  0.92419244  1
  Mo  Mo33  1  0.75000000  0.00000000  0.32236503  1
  Mo  Mo34  1  0.25000000  0.50000000  0.57580756  1
  Mo  Mo35  1  0.25000000  0.00000000  0.07580756  1
  As  As36  1  0.75000000  0.00000000  0.57110680  1
  As  As37  1  0.25000000  0.00000000  0.42889320  1
  As  As38  1  0.25000000  0.50000000  0.92889320  1
  As  As39  1  0.25133641  0.66853068  0.67233350  1
  As  As40  1  0.24866359  0.33146932  0.67233350  1
  As  As41  1  0.75133641  0.83146932  0.82766650  1
  As  As42  1  0.24866359  0.16853068  0.17233350  1
  As  As43  1  0.75133641  0.66853068  0.32766650  1
  As  As44  1  0.75000000  0.50000000  0.07110680  1
  As  As45  1  0.25133641  0.83146932  0.17233350  1
  As  As46  1  0.74866359  0.16853068  0.82766650  1
  As  As47  1  0.74866359  0.33146932  0.32766650  1
  O  O48  1  0.09045331  0.22661522  0.12386750  1
  O  O49  1  0.53796451  0.45915510  0.77297370  1
  O  O50  1  0.47408045  0.44993897  0.39223395  1
  O  O51  1  0.40346934  0.09880739  0.65389079  1
  O  O52  1  0.61898718  0.07497808  0.52954362  1
  O  O53  1  0.45087679  0.40172108  0.64312807  1
  O  O54  1  0.39328757  0.72508446  0.89432021  1
  O  O55  1  0.90954669  0.77338478  0.87613250  1
  O  O56  1  0.36032825  0.07748910  0.03001540  1
  O  O57  1  0.45594513  0.62294853  0.71786542  1
  O  O58  1  0.39328757  0.77491554  0.39432021  1
  O  O59  1  0.40346934  0.40119261  0.15389079  1
  O  O60  1  0.89328757  0.77491554  0.60567979  1
  O  O61  1  0.58240726  0.76731110  0.78354688  1
  O  O62  1  0.99305546  0.75219314  0.49716187  1
  O  O63  1  0.95087679  0.40172108  0.35687193  1
  O  O64  1  0.09653066  0.90119261  0.65389079  1
  O  O65  1  0.95594513  0.62294853  0.28213458  1
  O  O66  1  0.97396687  0.45004873  0.11039375  1
  O  O67  1  0.45087679  0.09827892  0.14312807  1
  O  O68  1  0.52591955  0.94993897  0.10776605  1
  O  O69  1  0.88101282  0.92502192  0.52954362  1
  O  O70  1  0.58240726  0.73268890  0.28354688  1
  O  O71  1  0.47396687  0.04995127  0.38960625  1
  O  O72  1  0.47408045  0.05006103  0.89223395  1
  O  O73  1  0.95087679  0.09827892  0.85687193  1
  O  O74  1  0.99305546  0.74780686  0.99716187  1
  O  O75  1  0.00694454  0.25219314  0.00283813  1
  O  O76  1  0.63967175  0.57748910  0.46998460  1
  O  O77  1  0.59045331  0.22661522  0.87613250  1
  O  O78  1  0.13967175  0.57748910  0.53001540  1
  O  O79  1  0.38101282  0.92502192  0.47045638  1
  O  O80  1  0.00694454  0.24780686  0.50283813  1
  O  O81  1  0.97408045  0.44993897  0.60776605  1
  O  O82  1  0.41759274  0.23268890  0.21645312  1
  O  O83  1  0.53796451  0.04084490  0.27297370  1
  O  O84  1  0.50694454  0.25219314  0.99716187  1
  O  O85  1  0.52591955  0.55006103  0.60776605  1
  O  O86  1  0.97408045  0.05006103  0.10776605  1
  O  O87  1  0.54912321  0.59827892  0.35687193  1
  O  O88  1  0.54912321  0.90172108  0.85687193  1
  O  O89  1  0.90954669  0.72661522  0.37613250  1
  O  O90  1  0.10671243  0.22508446  0.39432021  1
  O  O91  1  0.97396687  0.04995127  0.61039375  1
  O  O92  1  0.54405487  0.12294853  0.78213458  1
  O  O93  1  0.11898718  0.07497808  0.47045638  1
  O  O94  1  0.04405487  0.12294853  0.21786542  1
  O  O95  1  0.95594513  0.87705147  0.78213458  1
  O  O96  1  0.09653066  0.59880739  0.15389079  1
  O  O97  1  0.04912321  0.59827892  0.64312807  1
  O  O98  1  0.02603313  0.95004873  0.38960625  1
  O  O99  1  0.04405487  0.37705147  0.71786542  1
  O  O100  1  0.52603313  0.54995127  0.11039375  1
  O  O101  1  0.13967175  0.92251090  0.03001540  1
  O  O102  1  0.96203549  0.54084490  0.77297370  1
  O  O103  1  0.40954669  0.72661522  0.62386750  1
  O  O104  1  0.59653066  0.59880739  0.84610921  1
  O  O105  1  0.47396687  0.45004873  0.88960625  1
  O  O106  1  0.90346934  0.09880739  0.34610921  1
  O  O107  1  0.08240726  0.76731110  0.21645312  1
  O  O108  1  0.60671243  0.22508446  0.60567979  1
  O  O109  1  0.90346934  0.40119261  0.84610921  1
  O  O110  1  0.09045331  0.27338478  0.62386750  1
  O  O111  1  0.59045331  0.27338478  0.37613250  1
  O  O112  1  0.63967175  0.92251090  0.96998460  1
  O  O113  1  0.52603313  0.95004873  0.61039375  1
  O  O114  1  0.91759274  0.23268890  0.78354688  1
  O  O115  1  0.40954669  0.77338478  0.12386750  1
  O  O116  1  0.88101282  0.57497808  0.02954362  1
  O  O117  1  0.10671243  0.27491554  0.89432021  1
  O  O118  1  0.61898718  0.42502192  0.02954362  1
  O  O119  1  0.41759274  0.26731110  0.71645312  1
  O  O120  1  0.02591955  0.94993897  0.89223395  1
  O  O121  1  0.89328757  0.72508446  0.10567979  1
  O  O122  1  0.46203549  0.95915510  0.72702630  1
  O  O123  1  0.36032825  0.42251090  0.53001540  1
  O  O124  1  0.08240726  0.73268890  0.71645312  1
  O  O125  1  0.60671243  0.27491554  0.10567979  1
  O  O126  1  0.46203549  0.54084490  0.22702630  1
  O  O127  1  0.50694454  0.24780686  0.49716187  1
  O  O128  1  0.86032825  0.07748910  0.96998460  1
  O  O129  1  0.03796451  0.04084490  0.72702630  1
  O  O130  1  0.96203549  0.95915510  0.27297370  1
  O  O131  1  0.91759274  0.26731110  0.28354688  1
  O  O132  1  0.49305546  0.75219314  0.50283813  1
  O  O133  1  0.49305546  0.74780686  0.00283813  1
  O  O134  1  0.38101282  0.57497808  0.97045638  1
  O  O135  1  0.02591955  0.55006103  0.39223395  1
  O  O136  1  0.03796451  0.45915510  0.22702630  1
  O  O137  1  0.86032825  0.42251090  0.46998460  1
  O  O138  1  0.54405487  0.37705147  0.28213458  1
  O  O139  1  0.04912321  0.90172108  0.14312807  1
  O  O140  1  0.02603313  0.54995127  0.88960625  1
  O  O141  1  0.11898718  0.42502192  0.97045638  1
  O  O142  1  0.59653066  0.90119261  0.34610921  1
  O  O143  1  0.45594513  0.87705147  0.21786542  1
