# generated using pymatgen
data_La3Co29(Si2B5)2
_symmetry_space_group_name_H-M   'P 1'
_cell_length_a   7.87002067
_cell_length_b   11.21246714
_cell_length_c   11.21246714
_cell_angle_alpha   90.00000000
_cell_angle_beta   90.00000000
_cell_angle_gamma   90.00000000
_symmetry_Int_Tables_number   1
_chemical_formula_structural   La3Co29(Si2B5)2
_chemical_formula_sum   'La6 Co58 Si8 B20'
_cell_volume   989.41442903
_cell_formula_units_Z   2
loop_
 _symmetry_equiv_pos_site_id
 _symmetry_equiv_pos_as_xyz
  1  'x, y, z'
loop_
 _atom_site_type_symbol
 _atom_site_label
 _atom_site_symmetry_multiplicity
 _atom_site_fract_x
 _atom_site_fract_y
 _atom_site_fract_z
 _atom_site_occupancy
  B  B0  1  0.51731797  0.93632106  0.93632106  1
  B  B1  1  0.51731797  0.56367894  0.56367894  1
  B  B2  1  0.51731797  0.93632106  0.56367894  1
  B  B3  1  0.51731797  0.56367894  0.93632106  1
  B  B4  1  0.48268203  0.43632106  0.43632106  1
  B  B5  1  0.48268203  0.06367894  0.43632106  1
  B  B6  1  0.48268203  0.43632106  0.06367894  1
  B  B7  1  0.48268203  0.06367894  0.06367894  1
  B  B8  1  0.26094641  0.00585872  0.75000000  1
  B  B9  1  0.26094641  0.49414128  0.75000000  1
  B  B10  1  0.26094641  0.75000000  0.49414128  1
  B  B11  1  0.26094641  0.75000000  0.00585872  1
  B  B12  1  0.73905359  0.25000000  0.50585872  1
  B  B13  1  0.73905359  0.99414128  0.25000000  1
  B  B14  1  0.73905359  0.50585872  0.25000000  1
  B  B15  1  0.73905359  0.25000000  0.99414128  1
  B  B16  1  0.89330337  0.75000000  0.75000000  1
  B  B17  1  0.10669663  0.25000000  0.25000000  1
  B  B18  1  0.14730906  0.75000000  0.75000000  1
  B  B19  1  0.85269094  0.25000000  0.25000000  1
  Si  Si20  1  0.82446879  0.43067769  0.75000000  1
  Si  Si21  1  0.82446879  0.06932231  0.75000000  1
  Si  Si22  1  0.82446879  0.75000000  0.06932231  1
  Si  Si23  1  0.82446879  0.75000000  0.43067769  1
  Si  Si24  1  0.17553121  0.25000000  0.93067769  1
  Si  Si25  1  0.17553121  0.56932231  0.25000000  1
  Si  Si26  1  0.17553121  0.93067769  0.25000000  1
  Si  Si27  1  0.17553121  0.25000000  0.56932231  1
  Co  Co28  1  0.33730832  0.58824158  0.07509224  1
  Co  Co29  1  0.33730832  0.91175842  0.42490776  1
  Co  Co30  1  0.33730832  0.07509224  0.91175842  1
  Co  Co31  1  0.33730832  0.42490776  0.58824158  1
  Co  Co32  1  0.66269168  0.57509224  0.08824158  1
  Co  Co33  1  0.66269168  0.41175842  0.57509224  1
  Co  Co34  1  0.66269168  0.08824158  0.92490776  1
  Co  Co35  1  0.66269168  0.92490776  0.41175842  1
  Co  Co36  1  0.66269168  0.41175842  0.92490776  1
  Co  Co37  1  0.66269168  0.08824158  0.57509224  1
  Co  Co38  1  0.66269168  0.92490776  0.08824158  1
  Co  Co39  1  0.66269168  0.57509224  0.41175842  1
  Co  Co40  1  0.33730832  0.42490776  0.91175842  1
  Co  Co41  1  0.33730832  0.58824158  0.42490776  1
  Co  Co42  1  0.33730832  0.91175842  0.07509224  1
  Co  Co43  1  0.33730832  0.07509224  0.58824158  1
  Co  Co44  1  0.30266347  0.85903217  0.85903217  1
  Co  Co45  1  0.30266347  0.64096783  0.64096783  1
  Co  Co46  1  0.30266347  0.85903217  0.64096783  1
  Co  Co47  1  0.30266347  0.64096783  0.85903217  1
  Co  Co48  1  0.69733653  0.35903217  0.35903217  1
  Co  Co49  1  0.69733653  0.14096783  0.35903217  1
  Co  Co50  1  0.69733653  0.35903217  0.14096783  1
  Co  Co51  1  0.69733653  0.14096783  0.14096783  1
  Co  Co52  1  0.74669549  0.86360381  0.86360381  1
  Co  Co53  1  0.74669549  0.63639619  0.63639619  1
  Co  Co54  1  0.74669549  0.86360381  0.63639619  1
  Co  Co55  1  0.74669549  0.63639619  0.86360381  1
  Co  Co56  1  0.25330451  0.36360381  0.36360381  1
  Co  Co57  1  0.25330451  0.13639619  0.36360381  1
  Co  Co58  1  0.25330451  0.36360381  0.13639619  1
  Co  Co59  1  0.25330451  0.13639619  0.13639619  1
  Co  Co60  1  0.02816537  0.91388750  0.75000000  1
  Co  Co61  1  0.02816537  0.58611250  0.75000000  1
  Co  Co62  1  0.02816537  0.75000000  0.58611250  1
  Co  Co63  1  0.02816537  0.75000000  0.91388750  1
  Co  Co64  1  0.97183463  0.25000000  0.41388750  1
  Co  Co65  1  0.97183463  0.08611250  0.25000000  1
  Co  Co66  1  0.97183463  0.41388750  0.25000000  1
  Co  Co67  1  0.97183463  0.25000000  0.08611250  1
  Co  Co68  1  0.52510879  0.97480400  0.75000000  1
  Co  Co69  1  0.52510879  0.52519600  0.75000000  1
  Co  Co70  1  0.52510879  0.75000000  0.52519600  1
  Co  Co71  1  0.52510879  0.75000000  0.97480400  1
  Co  Co72  1  0.47489121  0.25000000  0.47480400  1
  Co  Co73  1  0.47489121  0.02519600  0.25000000  1
  Co  Co74  1  0.47489121  0.47480400  0.25000000  1
  Co  Co75  1  0.47489121  0.25000000  0.02519600  1
  Co  Co76  1  0.11097531  0.36007775  0.75000000  1
  Co  Co77  1  0.11097531  0.13992225  0.75000000  1
  Co  Co78  1  0.11097531  0.75000000  0.13992225  1
  Co  Co79  1  0.11097531  0.75000000  0.36007775  1
  Co  Co80  1  0.88902469  0.25000000  0.86007775  1
  Co  Co81  1  0.88902469  0.63992225  0.25000000  1
  Co  Co82  1  0.88902469  0.86007775  0.25000000  1
  Co  Co83  1  0.88902469  0.25000000  0.63992225  1
  Co  Co84  1  0.53164915  0.75000000  0.75000000  1
  Co  Co85  1  0.46835085  0.25000000  0.25000000  1
  La  La86  1  0.00000000  0.50000000  0.50000000  1
  La  La87  1  0.00000000  0.00000000  0.50000000  1
  La  La88  1  0.00000000  0.50000000  0.00000000  1
  La  La89  1  0.00000000  0.00000000  0.00000000  1
  La  La90  1  0.50000000  0.75000000  0.25000000  1
  La  La91  1  0.50000000  0.25000000  0.75000000  1
