# generated using pymatgen
data_BaNaBO3
_symmetry_space_group_name_H-M   'P 1'
_cell_length_a   5.60521791
_cell_length_b   5.60521791
_cell_length_c   6.26954802
_cell_angle_alpha   82.22100818
_cell_angle_beta   82.22100819
_cell_angle_gamma   60.34316866
_symmetry_Int_Tables_number   1
_chemical_formula_structural   BaNaBO3
_chemical_formula_sum   'Ba2 Na2 B2 O6'
_cell_volume   169.06522267
_cell_formula_units_Z   2
loop_
 _symmetry_equiv_pos_site_id
 _symmetry_equiv_pos_as_xyz
  1  'x, y, z'
loop_
 _atom_site_type_symbol
 _atom_site_label
 _atom_site_symmetry_multiplicity
 _atom_site_fract_x
 _atom_site_fract_y
 _atom_site_fract_z
 _atom_site_occupancy
  B  B0  1  0.83307469  0.83307469  0.75125043  1
  B  B1  1  0.16692531  0.16692531  0.24874957  1
  O  O2  1  0.88879178  0.31554479  0.20930980  1
  O  O3  1  0.68445521  0.11120822  0.79069020  1
  O  O4  1  0.11120822  0.68445521  0.79069020  1
  O  O5  1  0.31554479  0.88879178  0.20930980  1
  O  O6  1  0.70414931  0.70414931  0.67741501  1
  O  O7  1  0.29585069  0.29585069  0.32258499  1
  Na  Na8  1  0.50000000  0.50000000  0.50000000  1
  Na  Na9  1  0.50000000  0.50000000  0.00000000  1
  Ba  Ba10  1  0.83262781  0.83262781  0.24227509  1
  Ba  Ba11  1  0.16737219  0.16737219  0.75772491  1
