# generated using pymatgen
data_SrBPO5
_symmetry_space_group_name_H-M   'P 1'
_cell_length_a   6.94216949
_cell_length_b   6.94216949
_cell_length_c   6.89612677
_cell_angle_alpha   90.00000000
_cell_angle_beta   90.00000000
_cell_angle_gamma   119.99999995
_symmetry_Int_Tables_number   1
_chemical_formula_structural   SrBPO5
_chemical_formula_sum   'Sr3 B3 P3 O15'
_cell_volume   287.82352888
_cell_formula_units_Z   3
loop_
 _symmetry_equiv_pos_site_id
 _symmetry_equiv_pos_as_xyz
  1  'x, y, z'
loop_
 _atom_site_type_symbol
 _atom_site_label
 _atom_site_symmetry_multiplicity
 _atom_site_fract_x
 _atom_site_fract_y
 _atom_site_fract_z
 _atom_site_occupancy
  B  B0  1  0.90170913  0.90170913  0.50000000  1
  B  B1  1  0.00000000  0.09829087  0.16666667  1
  B  B2  1  0.09829087  0.00000000  0.83333333  1
  O  O3  1  0.00000000  0.04326755  0.66666667  1
  O  O4  1  0.95673245  0.95673245  0.00000000  1
  O  O5  1  0.04326755  0.00000000  0.33333333  1
  O  O6  1  0.44732915  0.58601414  0.85609367  1
  O  O7  1  0.41398586  0.86131501  0.18942701  1
  O  O8  1  0.13868499  0.55267085  0.52276034  1
  O  O9  1  0.33609334  0.18730996  0.87098817  1
  O  O10  1  0.81269004  0.14878338  0.20432150  1
  O  O11  1  0.85121662  0.66390666  0.53765484  1
  O  O12  1  0.14878338  0.81269004  0.79567850  1
  O  O13  1  0.66390666  0.85121662  0.46234516  1
  O  O14  1  0.18730996  0.33609334  0.12901183  1
  O  O15  1  0.58601414  0.44732915  0.14390633  1
  O  O16  1  0.55267085  0.13868499  0.47723966  1
  O  O17  1  0.86131501  0.41398586  0.81057299  1
  P  P18  1  0.00000000  0.59624790  0.66666667  1
  P  P19  1  0.59624790  0.00000000  0.33333333  1
  P  P20  1  0.40375210  0.40375210  0.00000000  1
  Sr  Sr21  1  0.00000000  0.60672885  0.16666667  1
  Sr  Sr22  1  0.60672885  0.00000000  0.83333333  1
  Sr  Sr23  1  0.39327115  0.39327115  0.50000000  1
