# generated using pymatgen
data_Cs2PtS6(O3F)6
_symmetry_space_group_name_H-M   'P 1'
_cell_length_a   9.36696682
_cell_length_b   9.36696643
_cell_length_c   7.91688429
_cell_angle_alpha   90.00000000
_cell_angle_beta   90.00000000
_cell_angle_gamma   120.00000138
_symmetry_Int_Tables_number   1
_chemical_formula_structural   Cs2PtS6(O3F)6
_chemical_formula_sum   'Cs2 Pt1 S6 O18 F6'
_cell_volume   601.56542707
_cell_formula_units_Z   1
loop_
 _symmetry_equiv_pos_site_id
 _symmetry_equiv_pos_as_xyz
  1  'x, y, z'
loop_
 _atom_site_type_symbol
 _atom_site_label
 _atom_site_symmetry_multiplicity
 _atom_site_fract_x
 _atom_site_fract_y
 _atom_site_fract_z
 _atom_site_occupancy
  Cs  Cs0  1  0.33333300  0.66666700  0.33674537  1
  Cs  Cs1  1  0.66666700  0.33333300  0.66325463  1
  Pt  Pt2  1  0.00000000  0.00000000  0.00000000  1
  S  S3  1  0.85251017  0.19754305  0.22472653  1
  S  S4  1  0.19754305  0.85251017  0.77527347  1
  S  S5  1  0.80245695  0.65496712  0.22472653  1
  S  S6  1  0.14748983  0.34503288  0.77527347  1
  S  S7  1  0.34503288  0.14748983  0.22472653  1
  S  S8  1  0.65496712  0.80245695  0.77527347  1
  O  O9  1  0.66949548  0.66103082  0.73715490  1
  O  O10  1  0.95273757  0.81352302  0.16747779  1
  O  O11  1  0.85903213  0.57645242  0.34038421  1
  O  O12  1  0.04726243  0.86078545  0.83252221  1
  O  O13  1  0.28257971  0.42354758  0.65961579  1
  O  O14  1  0.71742029  0.14096787  0.34038421  1
  O  O15  1  0.13921455  0.18647698  0.83252221  1
  O  O16  1  0.99153534  0.33050452  0.73715490  1
  O  O17  1  0.18647698  0.13921455  0.16747779  1
  O  O18  1  0.33050452  0.99153534  0.26284510  1
  O  O19  1  0.57645242  0.85903213  0.65961579  1
  O  O20  1  0.42354758  0.28257971  0.34038421  1
  O  O21  1  0.86078545  0.04726243  0.16747779  1
  O  O22  1  0.33896918  0.00846466  0.73715490  1
  O  O23  1  0.81352302  0.95273757  0.83252221  1
  O  O24  1  0.00846466  0.33896918  0.26284510  1
  O  O25  1  0.14096787  0.71742029  0.65961579  1
  O  O26  1  0.66103082  0.66949548  0.26284510  1
  F  F27  1  0.45308231  0.20990433  0.05492125  1
  F  F28  1  0.54691769  0.75682202  0.94507875  1
  F  F29  1  0.79009567  0.24317798  0.05492125  1
  F  F30  1  0.24317798  0.79009567  0.94507875  1
  F  F31  1  0.75682202  0.54691769  0.05492125  1
  F  F32  1  0.20990433  0.45308231  0.94507875  1
