# generated using pymatgen
data_SrMgH4
_symmetry_space_group_name_H-M   'P 1'
_cell_length_a   7.05472858
_cell_length_b   7.05472858
_cell_length_c   5.61371677
_cell_angle_alpha   90.00000000
_cell_angle_beta   90.00000000
_cell_angle_gamma   32.54763921
_symmetry_Int_Tables_number   1
_chemical_formula_structural   SrMgH4
_chemical_formula_sum   'Sr2 Mg2 H8'
_cell_volume   150.31209670
_cell_formula_units_Z   2
loop_
 _symmetry_equiv_pos_site_id
 _symmetry_equiv_pos_as_xyz
  1  'x, y, z'
loop_
 _atom_site_type_symbol
 _atom_site_label
 _atom_site_symmetry_multiplicity
 _atom_site_fract_x
 _atom_site_fract_y
 _atom_site_fract_z
 _atom_site_occupancy
  Sr  Sr0  1  0.84868733  0.84868733  0.75565932  1
  Sr  Sr1  1  0.15131267  0.15131267  0.25565932  1
  Mg  Mg2  1  0.58484218  0.58484218  0.70990557  1
  Mg  Mg3  1  0.41515782  0.41515782  0.20990557  1
  H  H4  1  0.66569096  0.66569096  0.98666724  1
  H  H5  1  0.33430904  0.33430904  0.48666724  1
  H  H6  1  0.70029602  0.70029602  0.50839233  1
  H  H7  1  0.29970398  0.29970398  0.00839233  1
  H  H8  1  0.92539415  0.92539415  0.17324067  1
  H  H9  1  0.07460585  0.07460585  0.67324067  1
  H  H10  1  0.46139489  0.46139489  0.86713488  1
  H  H11  1  0.53860511  0.53860511  0.36713488  1
