# generated using pymatgen
data_GaH3NF3
_symmetry_space_group_name_H-M   'P 1'
_cell_length_a   5.58437104
_cell_length_b   5.55812374
_cell_length_c   5.55812374
_cell_angle_alpha   59.54843009
_cell_angle_beta   90.00000000
_cell_angle_gamma   90.00000000
_symmetry_Int_Tables_number   1
_chemical_formula_structural   GaH3NF3
_chemical_formula_sum   'Ga2 H6 N2 F6'
_cell_volume   148.71922152
_cell_formula_units_Z   2
loop_
 _symmetry_equiv_pos_site_id
 _symmetry_equiv_pos_as_xyz
  1  'x, y, z'
loop_
 _atom_site_type_symbol
 _atom_site_label
 _atom_site_symmetry_multiplicity
 _atom_site_fract_x
 _atom_site_fract_y
 _atom_site_fract_z
 _atom_site_occupancy
  Ga  Ga0  1  0.25012181  0.64124033  0.14124033  1
  Ga  Ga1  1  0.74987819  0.14124033  0.64124033  1
  H  H2  1  0.03463908  0.87733246  0.37733246  1
  H  H3  1  0.96536092  0.37733246  0.87733246  1
  H  H4  1  0.28840152  0.03994923  0.23608531  1
  H  H5  1  0.71159848  0.23608531  0.03994923  1
  H  H6  1  0.71159848  0.53994923  0.73608531  1
  H  H7  1  0.28840152  0.73608531  0.53994923  1
  N  N8  1  0.21205128  0.84563134  0.34563134  1
  N  N9  1  0.78794872  0.34563134  0.84563134  1
  F  F10  1  0.50000000  0.89838274  0.89838274  1
  F  F11  1  0.50000000  0.39838274  0.39838274  1
  F  F12  1  0.00000000  0.87535968  0.87535968  1
  F  F13  1  0.00000000  0.37535968  0.37535968  1
  F  F14  1  0.27412172  0.44761890  0.94761890  1
  F  F15  1  0.72587828  0.94761890  0.44761890  1
