# generated using pymatgen
data_Na2Zn(SiO3)2
_symmetry_space_group_name_H-M   'P 1'
_cell_length_a   5.22045002
_cell_length_b   5.22045001
_cell_length_c   11.41403803
_cell_angle_alpha   102.61109593
_cell_angle_beta   102.61109594
_cell_angle_gamma   92.59483566
_symmetry_Int_Tables_number   1
_chemical_formula_structural   Na2Zn(SiO3)2
_chemical_formula_sum   'Na4 Zn2 Si4 O12'
_cell_volume   294.82545716
_cell_formula_units_Z   2
loop_
 _symmetry_equiv_pos_site_id
 _symmetry_equiv_pos_as_xyz
  1  'x, y, z'
loop_
 _atom_site_type_symbol
 _atom_site_label
 _atom_site_symmetry_multiplicity
 _atom_site_fract_x
 _atom_site_fract_y
 _atom_site_fract_z
 _atom_site_occupancy
  O  O0  1  0.34001795  0.13353523  0.53588823  1
  O  O1  1  0.86646477  0.65998205  0.46411177  1
  O  O2  1  0.65235300  0.94587028  0.03588823  1
  O  O3  1  0.05412972  0.34764700  0.96411177  1
  O  O4  1  0.16240639  0.27962703  0.74088285  1
  O  O5  1  0.72037297  0.83759361  0.25911715  1
  O  O6  1  0.71125582  0.32847646  0.24088285  1
  O  O7  1  0.67152354  0.28874418  0.75911715  1
  O  O8  1  0.40955587  0.65178666  0.65630128  1
  O  O9  1  0.34821334  0.59044413  0.34369872  1
  O  O10  1  0.00325459  0.74548538  0.84369872  1
  O  O11  1  0.25451462  0.99674541  0.15630128  1
  Na  Na12  1  0.82088925  0.86722716  0.65522991  1
  Na  Na13  1  0.13277284  0.17911075  0.34477009  1
  Na  Na14  1  0.03800274  0.58434066  0.15522991  1
  Na  Na15  1  0.41565934  0.96199726  0.84477009  1
  Si  Si16  1  0.39293650  0.34639907  0.66649656  1
  Si  Si17  1  0.65360093  0.60706350  0.33350344  1
  Si  Si18  1  0.57009749  0.02356006  0.16649656  1
  Si  Si19  1  0.97643994  0.42990251  0.83350344  1
  Zn  Zn20  1  0.24856920  0.75143080  0.50000000  1
  Zn  Zn21  1  0.99856920  0.00143080  0.00000000  1
