# generated using pymatgen
data_CsFeH4Cl3O2
_symmetry_space_group_name_H-M   'P 1'
_cell_length_a   9.05840817
_cell_length_b   7.32817804
_cell_length_c   11.59416786
_cell_angle_alpha   90.00000000
_cell_angle_beta   90.00000000
_cell_angle_gamma   90.00000000
_symmetry_Int_Tables_number   1
_chemical_formula_structural   CsFeH4Cl3O2
_chemical_formula_sum   'Cs4 Fe4 H16 Cl12 O8'
_cell_volume   769.63973587
_cell_formula_units_Z   4
loop_
 _symmetry_equiv_pos_site_id
 _symmetry_equiv_pos_as_xyz
  1  'x, y, z'
loop_
 _atom_site_type_symbol
 _atom_site_label
 _atom_site_symmetry_multiplicity
 _atom_site_fract_x
 _atom_site_fract_y
 _atom_site_fract_z
 _atom_site_occupancy
  Cs  Cs0  1  0.25000000  0.00000000  0.64800878  1
  Cs  Cs1  1  0.75000000  0.00000000  0.85199122  1
  Cs  Cs2  1  0.75000000  0.00000000  0.35199122  1
  Cs  Cs3  1  0.25000000  0.00000000  0.14800878  1
  Fe  Fe4  1  0.00000000  0.52894409  0.75000000  1
  Fe  Fe5  1  0.50000000  0.47105591  0.75000000  1
  Fe  Fe6  1  0.00000000  0.47105591  0.25000000  1
  Fe  Fe7  1  0.50000000  0.52894409  0.25000000  1
  H  H8  1  0.02047718  0.31184240  0.94366686  1
  H  H9  1  0.47952282  0.68815760  0.94366686  1
  H  H10  1  0.52047718  0.68815760  0.55633314  1
  H  H11  1  0.97952282  0.31184240  0.55633314  1
  H  H12  1  0.97952282  0.68815760  0.05633314  1
  H  H13  1  0.52047718  0.31184240  0.05633314  1
  H  H14  1  0.47952282  0.31184240  0.44366686  1
  H  H15  1  0.02047718  0.68815760  0.44366686  1
  H  H16  1  0.17686373  0.30771821  0.88134959  1
  H  H17  1  0.32313627  0.69228179  0.88134959  1
  H  H18  1  0.67686373  0.69228179  0.61865041  1
  H  H19  1  0.82313627  0.30771821  0.61865041  1
  H  H20  1  0.82313627  0.69228179  0.11865041  1
  H  H21  1  0.67686373  0.30771821  0.11865041  1
  H  H22  1  0.32313627  0.30771821  0.38134959  1
  H  H23  1  0.17686373  0.69228179  0.38134959  1
  Cl  Cl24  1  0.25000000  0.50000000  0.65252984  1
  Cl  Cl25  1  0.75000000  0.50000000  0.84747016  1
  Cl  Cl26  1  0.75000000  0.50000000  0.34747016  1
  Cl  Cl27  1  0.25000000  0.50000000  0.15252984  1
  Cl  Cl28  1  0.08874050  0.76900790  0.88976937  1
  Cl  Cl29  1  0.41125950  0.23099210  0.88976937  1
  Cl  Cl30  1  0.58874050  0.23099210  0.61023063  1
  Cl  Cl31  1  0.91125950  0.76900790  0.61023063  1
  Cl  Cl32  1  0.91125950  0.23099210  0.11023063  1
  Cl  Cl33  1  0.58874050  0.76900790  0.11023063  1
  Cl  Cl34  1  0.41125950  0.76900790  0.38976937  1
  Cl  Cl35  1  0.08874050  0.23099210  0.38976937  1
  O  O36  1  0.06940432  0.31617800  0.86730358  1
  O  O37  1  0.43059568  0.68382200  0.86730358  1
  O  O38  1  0.56940432  0.68382200  0.63269642  1
  O  O39  1  0.93059568  0.31617800  0.63269642  1
  O  O40  1  0.93059568  0.68382200  0.13269642  1
  O  O41  1  0.56940432  0.31617800  0.13269642  1
  O  O42  1  0.43059568  0.31617800  0.36730358  1
  O  O43  1  0.06940432  0.68382200  0.36730358  1
