# generated using pymatgen
data_Be3Zn4Si3SO12
_symmetry_space_group_name_H-M   'P 1'
_cell_length_a   8.19780345
_cell_length_b   8.19780345
_cell_length_c   8.19780345
_cell_angle_alpha   90.00000000
_cell_angle_beta   90.00000000
_cell_angle_gamma   90.00000000
_symmetry_Int_Tables_number   1
_chemical_formula_structural   Be3Zn4Si3SO12
_chemical_formula_sum   'Be6 Zn8 Si6 S2 O24'
_cell_volume   550.92503061
_cell_formula_units_Z   2
loop_
 _symmetry_equiv_pos_site_id
 _symmetry_equiv_pos_as_xyz
  1  'x, y, z'
loop_
 _atom_site_type_symbol
 _atom_site_label
 _atom_site_symmetry_multiplicity
 _atom_site_fract_x
 _atom_site_fract_y
 _atom_site_fract_z
 _atom_site_occupancy
  Be  Be0  1  0.50000000  0.75000000  0.00000000  1
  Be  Be1  1  0.50000000  0.25000000  0.00000000  1
  Be  Be2  1  0.00000000  0.50000000  0.25000000  1
  Be  Be3  1  0.00000000  0.50000000  0.75000000  1
  Be  Be4  1  0.25000000  0.00000000  0.50000000  1
  Be  Be5  1  0.75000000  0.00000000  0.50000000  1
  O  O6  1  0.36221403  0.63809788  0.09298514  1
  O  O7  1  0.13809788  0.86221403  0.59298514  1
  O  O8  1  0.13809788  0.13778597  0.40701486  1
  O  O9  1  0.36190212  0.90701486  0.36221403  1
  O  O10  1  0.36190212  0.09298514  0.63778597  1
  O  O11  1  0.09298514  0.36221403  0.63809788  1
  O  O12  1  0.90701486  0.36221403  0.36190212  1
  O  O13  1  0.63778597  0.36190212  0.09298514  1
  O  O14  1  0.40701486  0.86190212  0.86221403  1
  O  O15  1  0.40701486  0.13809788  0.13778597  1
  O  O16  1  0.13778597  0.40701486  0.13809788  1
  O  O17  1  0.86221403  0.59298514  0.13809788  1
  O  O18  1  0.63809788  0.90701486  0.63778597  1
  O  O19  1  0.86221403  0.40701486  0.86190212  1
  O  O20  1  0.59298514  0.86190212  0.13778597  1
  O  O21  1  0.59298514  0.13809788  0.86221403  1
  O  O22  1  0.90701486  0.63778597  0.63809788  1
  O  O23  1  0.13778597  0.59298514  0.86190212  1
  O  O24  1  0.86190212  0.13778597  0.59298514  1
  O  O25  1  0.86190212  0.86221403  0.40701486  1
  O  O26  1  0.36221403  0.36190212  0.90701486  1
  O  O27  1  0.63778597  0.63809788  0.90701486  1
  O  O28  1  0.09298514  0.63778597  0.36190212  1
  O  O29  1  0.63809788  0.09298514  0.36221403  1
  Si  Si30  1  0.50000000  0.00000000  0.25000000  1
  Si  Si31  1  0.50000000  0.00000000  0.75000000  1
  Si  Si32  1  0.00000000  0.25000000  0.50000000  1
  Si  Si33  1  0.25000000  0.50000000  0.00000000  1
  Si  Si34  1  0.00000000  0.75000000  0.50000000  1
  Si  Si35  1  0.75000000  0.50000000  0.00000000  1
  S  S36  1  0.00000000  0.00000000  0.00000000  1
  S  S37  1  0.50000000  0.50000000  0.50000000  1
  Zn  Zn38  1  0.66581940  0.66581940  0.66581940  1
  Zn  Zn39  1  0.83418060  0.16581940  0.83418060  1
  Zn  Zn40  1  0.16581940  0.83418060  0.83418060  1
  Zn  Zn41  1  0.83418060  0.83418060  0.16581940  1
  Zn  Zn42  1  0.66581940  0.33418060  0.33418060  1
  Zn  Zn43  1  0.33418060  0.33418060  0.66581940  1
  Zn  Zn44  1  0.33418060  0.66581940  0.33418060  1
  Zn  Zn45  1  0.16581940  0.16581940  0.16581940  1
