# generated using pymatgen
data_Rb2PH3SeO8
_symmetry_space_group_name_H-M   'P 1'
_cell_length_a   7.74502865
_cell_length_b   7.80396890
_cell_length_c   7.92292285
_cell_angle_alpha   90.00000000
_cell_angle_beta   100.88678765
_cell_angle_gamma   90.00000000
_symmetry_Int_Tables_number   1
_chemical_formula_structural   Rb2PH3SeO8
_chemical_formula_sum   'Rb4 P2 H6 Se2 O16'
_cell_volume   470.25831907
_cell_formula_units_Z   2
loop_
 _symmetry_equiv_pos_site_id
 _symmetry_equiv_pos_as_xyz
  1  'x, y, z'
loop_
 _atom_site_type_symbol
 _atom_site_label
 _atom_site_symmetry_multiplicity
 _atom_site_fract_x
 _atom_site_fract_y
 _atom_site_fract_z
 _atom_site_occupancy
  Rb  Rb0  1  0.07744631  0.56427176  0.45488916  1
  Rb  Rb1  1  0.29724388  0.93468012  0.88232620  1
  Rb  Rb2  1  0.57744631  0.43572824  0.95488916  1
  Rb  Rb3  1  0.79724388  0.06531988  0.38232620  1
  P  P4  1  0.27699641  0.05751144  0.41814341  1
  P  P5  1  0.77699641  0.94248856  0.91814341  1
  H  H6  1  0.17939277  0.23792717  0.19162994  1
  H  H7  1  0.40702713  0.85073747  0.29078773  1
  H  H8  1  0.43937968  0.27268429  0.55416546  1
  H  H9  1  0.67939277  0.76207283  0.69162994  1
  H  H10  1  0.90702713  0.14926253  0.79078773  1
  H  H11  1  0.93937968  0.72731571  0.05416546  1
  Se  Se12  1  0.07551463  0.43677718  0.92254662  1
  Se  Se13  1  0.57551463  0.56322282  0.42254662  1
  O  O14  1  0.19895545  0.57611702  0.84029771  1
  O  O15  1  0.17093355  0.92707254  0.49165428  1
  O  O16  1  0.16285058  0.20572068  0.31925005  1
  O  O17  1  0.20637648  0.28103566  0.02601293  1
  O  O18  1  0.41273648  0.14488387  0.56918999  1
  O  O19  1  0.38811471  0.98225745  0.28582967  1
  O  O20  1  0.46609386  0.46848833  0.56144512  1
  O  O21  1  0.43053808  0.65696397  0.26460975  1
  O  O22  1  0.66285058  0.79427932  0.81925005  1
  O  O23  1  0.70637648  0.71896434  0.52601293  1
  O  O24  1  0.69895545  0.42388298  0.34029771  1
  O  O25  1  0.67093355  0.07292746  0.99165428  1
  O  O26  1  0.88811471  0.01774255  0.78582967  1
  O  O27  1  0.93053808  0.34303603  0.76460975  1
  O  O28  1  0.91273648  0.85511613  0.06918999  1
  O  O29  1  0.96609386  0.53151267  0.06144512  1
