# generated using pymatgen
data_Dy2Zr8O19
_symmetry_space_group_name_H-M   'P 1'
_cell_length_a   3.64358934
_cell_length_b   36.41750623
_cell_length_c   34.73835116
_cell_angle_alpha   5.21073766
_cell_angle_beta   58.36990646
_cell_angle_gamma   59.98330085
_symmetry_Int_Tables_number   1
_chemical_formula_structural   Dy2Zr8O19
_chemical_formula_sum   'Dy2 Zr8 O19'
_cell_volume   341.69187222
_cell_formula_units_Z   1
loop_
 _symmetry_equiv_pos_site_id
 _symmetry_equiv_pos_as_xyz
  1  'x, y, z'
loop_
 _atom_site_type_symbol
 _atom_site_label
 _atom_site_symmetry_multiplicity
 _atom_site_fract_x
 _atom_site_fract_y
 _atom_site_fract_z
 _atom_site_occupancy
  Dy  Dy0  1  0.03208431  0.02566745  0.96791569  1
  Dy  Dy1  1  0.96791569  0.07433255  0.03208431  1
  Zr  Zr2  1  0.98610611  0.18888489  0.01389389  1
  Zr  Zr3  1  0.99011537  0.29209229  0.00988463  1
  Zr  Zr4  1  0.99451305  0.39561044  0.00548695  1
  Zr  Zr5  1  0.99846443  0.49877155  0.00153557  1
  Zr  Zr6  1  0.00153557  0.60122845  0.99846443  1
  Zr  Zr7  1  0.00988463  0.80790771  0.99011537  1
  Zr  Zr8  1  0.00548695  0.70438956  0.99451305  1
  Zr  Zr9  1  0.01389389  0.91111511  0.98610611  1
  O  O10  1  0.26486976  0.01189581  0.23513024  1
  O  O11  1  0.22277120  0.07821696  0.27722880  1
  O  O12  1  0.25886008  0.20708806  0.24113992  1
  O  O13  1  0.25000000  0.30000000  0.25000000  1
  O  O14  1  0.24113992  0.39291194  0.25886008  1
  O  O15  1  0.27722880  0.52178304  0.22277120  1
  O  O16  1  0.23513024  0.58810419  0.26486976  1
  O  O17  1  0.78689462  0.12951569  0.71310538  1
  O  O18  1  0.29480431  0.73584345  0.20519569  1
  O  O19  1  0.73764036  0.19011229  0.76235964  1
  O  O20  1  0.75000000  0.30000000  0.75000000  1
  O  O21  1  0.20519569  0.86415655  0.29480431  1
  O  O22  1  0.76235964  0.40988771  0.73764036  1
  O  O23  1  0.71310538  0.47048431  0.78689462  1
  O  O24  1  0.76328827  0.61063062  0.73671173  1
  O  O25  1  0.73587303  0.68869843  0.76412697  1
  O  O26  1  0.75000000  0.80000000  0.75000000  1
  O  O27  1  0.76412697  0.91130157  0.73587303  1
  O  O28  1  0.73671173  0.98936938  0.76328827  1
