# generated using pymatgen
data_DyAlNi
_symmetry_space_group_name_H-M   'P 1'
_cell_length_a   5.28176575
_cell_length_b   5.28211032
_cell_length_c   8.62517931
_cell_angle_alpha   90.00000000
_cell_angle_beta   90.00000000
_cell_angle_gamma   61.45345996
_symmetry_Int_Tables_number   1
_chemical_formula_structural   DyAlNi
_chemical_formula_sum   'Dy4 Al4 Ni4'
_cell_volume   211.37884403
_cell_formula_units_Z   4
loop_
 _symmetry_equiv_pos_site_id
 _symmetry_equiv_pos_as_xyz
  1  'x, y, z'
loop_
 _atom_site_type_symbol
 _atom_site_label
 _atom_site_symmetry_multiplicity
 _atom_site_fract_x
 _atom_site_fract_y
 _atom_site_fract_z
 _atom_site_occupancy
  Dy  Dy0  1  0.32935552  0.32943702  0.56765470  1
  Dy  Dy1  1  0.65920849  0.65914348  0.45970705  1
  Dy  Dy2  1  0.65920849  0.65914348  0.04029295  1
  Dy  Dy3  1  0.32935552  0.32943702  0.93234530  1
  Al  Al4  1  0.85992121  0.85992608  0.75000000  1
  Al  Al5  1  0.16064216  0.66481316  0.25000000  1
  Al  Al6  1  0.66486313  0.16058919  0.25000000  1
  Al  Al7  1  0.16283001  0.16282632  0.25000000  1
  Ni  Ni8  1  0.99289373  0.99283135  0.48859736  1
  Ni  Ni9  1  0.99289373  0.99283135  0.01140264  1
  Ni  Ni10  1  0.84963207  0.33928829  0.75000000  1
  Ni  Ni11  1  0.33919594  0.84973326  0.75000000  1
