# generated using pymatgen
data_BeH2SeO4
_symmetry_space_group_name_H-M   'P 1'
_cell_length_a   5.71814677
_cell_length_b   7.62827997
_cell_length_c   7.95244798
_cell_angle_alpha   90.00000000
_cell_angle_beta   90.00000000
_cell_angle_gamma   90.00000000
_symmetry_Int_Tables_number   1
_chemical_formula_structural   BeH2SeO4
_chemical_formula_sum   'Be4 H8 Se4 O16'
_cell_volume   346.88279451
_cell_formula_units_Z   4
loop_
 _symmetry_equiv_pos_site_id
 _symmetry_equiv_pos_as_xyz
  1  'x, y, z'
loop_
 _atom_site_type_symbol
 _atom_site_label
 _atom_site_symmetry_multiplicity
 _atom_site_fract_x
 _atom_site_fract_y
 _atom_site_fract_z
 _atom_site_occupancy
  Be  Be0  1  0.11106175  0.26788059  0.26626962  1
  Be  Be1  1  0.38893825  0.73211941  0.76626962  1
  Be  Be2  1  0.61106175  0.23211941  0.73373038  1
  Be  Be3  1  0.88893825  0.76788059  0.23373038  1
  H  H4  1  0.14577629  0.90464978  0.94381731  1
  H  H5  1  0.21759817  0.96919437  0.31586047  1
  H  H6  1  0.28240183  0.03080563  0.81586047  1
  H  H7  1  0.35422371  0.09535022  0.44381731  1
  H  H8  1  0.64577629  0.59535022  0.05618269  1
  H  H9  1  0.71759817  0.53080563  0.68413953  1
  H  H10  1  0.78240183  0.46919437  0.18413953  1
  H  H11  1  0.85422371  0.40464978  0.55618269  1
  Se  Se12  1  0.21276618  0.41253853  0.92255237  1
  Se  Se13  1  0.28723382  0.58746147  0.42255237  1
  Se  Se14  1  0.71276618  0.08746147  0.07744763  1
  Se  Se15  1  0.78723382  0.91253853  0.57744763  1
  O  O16  1  0.08283812  0.41850225  0.41284307  1
  O  O17  1  0.15921166  0.74248944  0.29232495  1
  O  O18  1  0.21085950  0.66805569  0.61766325  1
  O  O19  1  0.22355803  0.09120403  0.35972117  1
  O  O20  1  0.27644197  0.90879597  0.85972117  1
  O  O21  1  0.28914050  0.33194431  0.11766325  1
  O  O22  1  0.34078834  0.25751056  0.79232495  1
  O  O23  1  0.41716188  0.58149775  0.91284307  1
  O  O24  1  0.58283812  0.08149775  0.58715693  1
  O  O25  1  0.65921166  0.75751056  0.70767505  1
  O  O26  1  0.71085950  0.83194431  0.38233675  1
  O  O27  1  0.72355803  0.40879597  0.64027883  1
  O  O28  1  0.77644197  0.59120403  0.14027883  1
  O  O29  1  0.78914050  0.16805569  0.88233675  1
  O  O30  1  0.84078834  0.24248944  0.20767505  1
  O  O31  1  0.91716188  0.91850225  0.08715693  1
