# generated using pymatgen
data_LiInSiO4
_symmetry_space_group_name_H-M   'P 1'
_cell_length_a   4.91256945
_cell_length_b   6.15251891
_cell_length_c   10.64097129
_cell_angle_alpha   90.00000000
_cell_angle_beta   90.00000000
_cell_angle_gamma   90.00000000
_symmetry_Int_Tables_number   1
_chemical_formula_structural   LiInSiO4
_chemical_formula_sum   'Li4 In4 Si4 O16'
_cell_volume   321.61991422
_cell_formula_units_Z   4
loop_
 _symmetry_equiv_pos_site_id
 _symmetry_equiv_pos_as_xyz
  1  'x, y, z'
loop_
 _atom_site_type_symbol
 _atom_site_label
 _atom_site_symmetry_multiplicity
 _atom_site_fract_x
 _atom_site_fract_y
 _atom_site_fract_z
 _atom_site_occupancy
  Li  Li0  1  0.00000000  0.00000000  0.00000000  1
  Li  Li1  1  0.50000000  0.00000000  0.50000000  1
  Li  Li2  1  0.00000000  0.50000000  0.00000000  1
  Li  Li3  1  0.50000000  0.50000000  0.50000000  1
  O  O4  1  0.77172118  0.54208240  0.33716515  1
  O  O5  1  0.22827882  0.45791760  0.66283485  1
  O  O6  1  0.72827882  0.54208240  0.83716515  1
  O  O7  1  0.77172118  0.95791760  0.33716515  1
  O  O8  1  0.27172118  0.04208240  0.16283485  1
  O  O9  1  0.75438761  0.25000000  0.09764281  1
  O  O10  1  0.27172118  0.45791760  0.16283485  1
  O  O11  1  0.22827882  0.04208240  0.66283485  1
  O  O12  1  0.24561239  0.75000000  0.90235719  1
  O  O13  1  0.74561239  0.25000000  0.59764281  1
  O  O14  1  0.70527037  0.75000000  0.05319836  1
  O  O15  1  0.25438761  0.75000000  0.40235719  1
  O  O16  1  0.79472963  0.75000000  0.55319836  1
  O  O17  1  0.20527037  0.25000000  0.44680164  1
  O  O18  1  0.29472963  0.25000000  0.94680164  1
  O  O19  1  0.72827882  0.95791760  0.83716515  1
  Si  Si20  1  0.57575043  0.75000000  0.91121537  1
  Si  Si21  1  0.92424957  0.75000000  0.41121537  1
  Si  Si22  1  0.42424957  0.25000000  0.08878463  1
  Si  Si23  1  0.07575043  0.25000000  0.58878463  1
  In  In24  1  0.02123535  0.75000000  0.72428573  1
  In  In25  1  0.47876465  0.75000000  0.22428573  1
  In  In26  1  0.97876465  0.25000000  0.27571427  1
  In  In27  1  0.52123535  0.25000000  0.77571427  1
