# generated using pymatgen
data_CeF3
_symmetry_space_group_name_H-M   'P 1'
_cell_length_a   7.17791475
_cell_length_b   7.17791448
_cell_length_c   7.11082771
_cell_angle_alpha   90.00000000
_cell_angle_beta   90.00000000
_cell_angle_gamma   120.00000127
_symmetry_Int_Tables_number   1
_chemical_formula_structural   CeF3
_chemical_formula_sum   'Ce6 F18'
_cell_volume   317.28340548
_cell_formula_units_Z   6
loop_
 _symmetry_equiv_pos_site_id
 _symmetry_equiv_pos_as_xyz
  1  'x, y, z'
loop_
 _atom_site_type_symbol
 _atom_site_label
 _atom_site_symmetry_multiplicity
 _atom_site_fract_x
 _atom_site_fract_y
 _atom_site_fract_z
 _atom_site_occupancy
  Ce  Ce0  1  0.32622866  0.32622866  0.00000000  1
  Ce  Ce1  1  1.00000000  0.32622866  0.50000000  1
  Ce  Ce2  1  0.32622866  0.00000000  0.50000000  1
  Ce  Ce3  1  0.67377134  0.00000000  0.00000000  1
  Ce  Ce4  1  0.00000000  0.67377134  0.00000000  1
  Ce  Ce5  1  0.67377134  0.67377134  0.50000000  1
  F  F6  1  0.34620820  0.00534099  0.16718924  1
  F  F7  1  0.34086721  0.34620820  0.66718924  1
  F  F8  1  0.00534099  0.65913279  0.66718924  1
  F  F9  1  0.99465901  0.34086721  0.16718924  1
  F  F10  1  0.65913279  0.65379180  0.16718924  1
  F  F11  1  0.34086721  0.99465901  0.83281076  1
  F  F12  1  0.65379180  0.65913279  0.83281076  1
  F  F13  1  0.65379180  0.99465901  0.66718924  1
  F  F14  1  0.00534099  0.34620820  0.83281076  1
  F  F15  1  0.99465901  0.65379180  0.33281076  1
  F  F16  1  0.65913279  0.00534099  0.33281076  1
  F  F17  1  0.34620820  0.34086721  0.33281076  1
  F  F18  1  0.33333300  0.66666700  0.01244593  1
  F  F19  1  0.66666700  0.33333300  0.51244593  1
  F  F20  1  0.66666700  0.33333300  0.98755407  1
  F  F21  1  0.33333300  0.66666700  0.48755407  1
  F  F22  1  0.00000000  0.00000000  0.25000000  1
  F  F23  1  0.00000000  0.00000000  0.75000000  1
