# generated using pymatgen
data_Cu4Au
_symmetry_space_group_name_H-M   'P 1'
_cell_length_a   2.70887510
_cell_length_b   2.70887509
_cell_length_c   10.61965029
_cell_angle_alpha   82.67249541
_cell_angle_beta   90.00000000
_cell_angle_gamma   119.99999991
_symmetry_Int_Tables_number   1
_chemical_formula_structural   Cu4Au
_chemical_formula_sum   'Cu4 Au1'
_cell_volume   66.75092800
_cell_formula_units_Z   1
loop_
 _symmetry_equiv_pos_site_id
 _symmetry_equiv_pos_as_xyz
  1  'x, y, z'
loop_
 _atom_site_type_symbol
 _atom_site_label
 _atom_site_symmetry_multiplicity
 _atom_site_fract_x
 _atom_site_fract_y
 _atom_site_fract_z
 _atom_site_occupancy
  Cu  Cu0  1  0.59424187  0.18848374  0.21727440  1
  Cu  Cu1  1  0.19795675  0.39591351  0.40612974  1
  Cu  Cu2  1  0.80204325  0.60408649  0.59387026  1
  Cu  Cu3  1  0.40575813  0.81151626  0.78272560  1
  Au  Au4  1  -0.00000000  -0.00000000  0.00000000  1
