# generated using pymatgen
data_LiCeSn
_symmetry_space_group_name_H-M   'P 1'
_cell_length_a   9.55322179
_cell_length_b   9.55322272
_cell_length_c   7.52898218
_cell_angle_alpha   90.00000000
_cell_angle_beta   90.00000000
_cell_angle_gamma   120.00681662
_symmetry_Int_Tables_number   1
_chemical_formula_structural   LiCeSn
_chemical_formula_sum   'Li8 Ce8 Sn8'
_cell_volume   595.02721367
_cell_formula_units_Z   8
loop_
 _symmetry_equiv_pos_site_id
 _symmetry_equiv_pos_as_xyz
  1  'x, y, z'
loop_
 _atom_site_type_symbol
 _atom_site_label
 _atom_site_symmetry_multiplicity
 _atom_site_fract_x
 _atom_site_fract_y
 _atom_site_fract_z
 _atom_site_occupancy
  Li  Li0  1  0.33335286  0.16649812  0.71293651  1
  Li  Li1  1  0.83330027  0.16669873  0.71290971  1
  Li  Li2  1  0.16669973  0.83330127  0.21291071  1
  Li  Li3  1  0.66664714  0.83350188  0.21293651  1
  Li  Li4  1  0.83350288  0.66664814  0.71293651  1
  Li  Li5  1  0.16649712  0.33335186  0.21293651  1
  Li  Li6  1  0.66679471  0.33320429  0.32989283  1
  Li  Li7  1  0.33320529  0.66679571  0.82989283  1
  Ce  Ce8  1  0.99998216  0.00001884  0.50263196  1
  Ce  Ce9  1  0.00001884  0.99998116  0.00263196  1
  Ce  Ce10  1  0.02353736  0.51180406  0.50476351  1
  Ce  Ce11  1  0.48825234  0.51174866  0.50472773  1
  Ce  Ce12  1  0.51174866  0.48825134  0.00472773  1
  Ce  Ce13  1  0.97646264  0.48819494  0.00476251  1
  Ce  Ce14  1  0.48819494  0.97646164  0.50476351  1
  Ce  Ce15  1  0.51180406  0.02353736  0.00476251  1
  Sn  Sn16  1  0.33315904  0.16640730  0.27121589  1
  Sn  Sn17  1  0.83333019  0.16666781  0.27127595  1
  Sn  Sn18  1  0.16666881  0.83333119  0.77127495  1
  Sn  Sn19  1  0.66683896  0.83359170  0.77121589  1
  Sn  Sn20  1  0.83359270  0.66683996  0.27121589  1
  Sn  Sn21  1  0.16640830  0.33316004  0.77121589  1
  Sn  Sn22  1  0.66681793  0.33318107  0.72973299  1
  Sn  Sn23  1  0.33318107  0.66681893  0.22973299  1
