# generated using pymatgen
data_PmDyRh2
_symmetry_space_group_name_H-M   'P 1'
_cell_length_a   4.93975551
_cell_length_b   4.93975548
_cell_length_c   4.93975906
_cell_angle_alpha   60.00002832
_cell_angle_beta   59.99999919
_cell_angle_gamma   60.00003935
_symmetry_Int_Tables_number   1
_chemical_formula_structural   PmDyRh2
_chemical_formula_sum   'Pm1 Dy1 Rh2'
_cell_volume   85.23184588
_cell_formula_units_Z   1
loop_
 _symmetry_equiv_pos_site_id
 _symmetry_equiv_pos_as_xyz
  1  'x, y, z'
loop_
 _atom_site_type_symbol
 _atom_site_label
 _atom_site_symmetry_multiplicity
 _atom_site_fract_x
 _atom_site_fract_y
 _atom_site_fract_z
 _atom_site_occupancy
  Pm  Pm0  1  0.75000063  0.75000146  0.75000090  1
  Dy  Dy1  1  0.25000102  0.25000118  0.25000091  1
  Rh  Rh2  1  0.00000003  -0.00000065  0.00000034  1
  Rh  Rh3  1  0.50000033  0.50000001  0.49999985  1
