# generated using pymatgen
data_SrGe4O9
_symmetry_space_group_name_H-M   'P 1'
_cell_length_a   11.50843475
_cell_length_b   11.50843475
_cell_length_c   4.83775542
_cell_angle_alpha   90.00000000
_cell_angle_beta   90.00000000
_cell_angle_gamma   119.99999998
_symmetry_Int_Tables_number   1
_chemical_formula_structural   SrGe4O9
_chemical_formula_sum   'Sr3 Ge12 O27'
_cell_volume   554.89020575
_cell_formula_units_Z   3
loop_
 _symmetry_equiv_pos_site_id
 _symmetry_equiv_pos_as_xyz
  1  'x, y, z'
loop_
 _atom_site_type_symbol
 _atom_site_label
 _atom_site_symmetry_multiplicity
 _atom_site_fract_x
 _atom_site_fract_y
 _atom_site_fract_z
 _atom_site_occupancy
  O  O0  1  0.24943583  0.51013383  0.32701228  1
  O  O1  1  0.48986617  0.73930200  0.32701228  1
  O  O2  1  0.26069800  0.75056417  0.32701228  1
  O  O3  1  0.73930200  0.48986617  0.67298772  1
  O  O4  1  0.75056417  0.26069800  0.67298772  1
  O  O5  1  0.51013383  0.24943583  0.67298772  1
  O  O6  1  0.21430307  0.32535403  0.70452361  1
  O  O7  1  0.67464597  0.88894904  0.70452361  1
  O  O8  1  0.11105096  0.78569693  0.70452361  1
  O  O9  1  0.88894904  0.67464597  0.29547639  1
  O  O10  1  0.78569693  0.11105096  0.29547639  1
  O  O11  1  0.32535403  0.21430307  0.29547639  1
  O  O12  1  0.06084407  0.15518628  0.23715328  1
  O  O13  1  0.84481372  0.90565779  0.23715328  1
  O  O14  1  0.09434221  0.93915593  0.23715328  1
  O  O15  1  0.51063584  0.00000000  0.50000000  1
  O  O16  1  0.00000000  0.51063584  0.50000000  1
  O  O17  1  0.48936416  0.48936416  0.50000000  1
  O  O18  1  0.60247472  0.42318056  0.12333894  1
  O  O19  1  0.57681944  0.17929416  0.12333894  1
  O  O20  1  0.82070584  0.39752528  0.12333894  1
  O  O21  1  0.17929416  0.57681944  0.87666106  1
  O  O22  1  0.39752528  0.82070584  0.87666106  1
  O  O23  1  0.42318056  0.60247472  0.87666106  1
  O  O24  1  0.15518628  0.06084407  0.76284672  1
  O  O25  1  0.93915593  0.09434221  0.76284672  1
  O  O26  1  0.90565779  0.84481372  0.76284672  1
  Ge  Ge27  1  0.34103817  0.49116110  0.59877978  1
  Ge  Ge28  1  0.50883890  0.84987707  0.59877978  1
  Ge  Ge29  1  0.15012293  0.65896183  0.59877978  1
  Ge  Ge30  1  0.84987707  0.50883890  0.40122022  1
  Ge  Ge31  1  0.65896183  0.15012293  0.40122022  1
  Ge  Ge32  1  0.49116110  0.34103817  0.40122022  1
  Ge  Ge33  1  0.17967630  0.17967630  0.50000000  1
  Ge  Ge34  1  0.00000000  0.82032370  0.50000000  1
  Ge  Ge35  1  0.82032370  0.00000000  0.50000000  1
  Ge  Ge36  1  0.66666667  0.33333333  0.89421974  1
  Ge  Ge37  1  0.33333333  0.66666667  0.10578026  1
  Ge  Ge38  1  0.00000000  0.00000000  0.00000000  1
  Sr  Sr39  1  0.67288546  0.67288546  0.00000000  1
  Sr  Sr40  1  0.00000000  0.32711454  0.00000000  1
  Sr  Sr41  1  0.32711454  0.00000000  0.00000000  1
