# generated using pymatgen
data_Cr(FeSe2)2
_symmetry_space_group_name_H-M   'P 1'
_cell_length_a   3.54386625
_cell_length_b   6.26339190
_cell_length_c   6.60416023
_cell_angle_alpha   117.50990662
_cell_angle_beta   74.43653546
_cell_angle_gamma   90.00000000
_symmetry_Int_Tables_number   1
_chemical_formula_structural   Cr(FeSe2)2
_chemical_formula_sum   'Cr1 Fe2 Se4'
_cell_volume   123.92355009
_cell_formula_units_Z   1
loop_
 _symmetry_equiv_pos_site_id
 _symmetry_equiv_pos_as_xyz
  1  'x, y, z'
loop_
 _atom_site_type_symbol
 _atom_site_label
 _atom_site_symmetry_multiplicity
 _atom_site_fract_x
 _atom_site_fract_y
 _atom_site_fract_z
 _atom_site_occupancy
  Cr  Cr0  1  0.75803577  0.21187012  0.48392846  1
  Fe  Fe1  1  0.49813559  0.49604504  0.00372881  1
  Fe  Fe2  1  0.24286818  0.79035170  0.51426364  1
  Se  Se3  1  0.86618444  0.47350434  0.26763112  1
  Se  Se4  1  0.13280703  0.53196970  0.73438594  1
  Se  Se5  1  0.38814901  0.94367790  0.22370198  1
  Se  Se6  1  0.61381998  0.05258121  0.77236004  1
