# generated using pymatgen
data_Sr4Li2Si4N8O
_symmetry_space_group_name_H-M   'P 1'
_cell_length_a   9.38014951
_cell_length_b   9.38014951
_cell_length_c   5.61598865
_cell_angle_alpha   90.00000000
_cell_angle_beta   90.00000000
_cell_angle_gamma   90.00000000
_symmetry_Int_Tables_number   1
_chemical_formula_structural   Sr4Li2Si4N8O
_chemical_formula_sum   'Sr8 Li4 Si8 N16 O2'
_cell_volume   494.13514367
_cell_formula_units_Z   2
loop_
 _symmetry_equiv_pos_site_id
 _symmetry_equiv_pos_as_xyz
  1  'x, y, z'
loop_
 _atom_site_type_symbol
 _atom_site_label
 _atom_site_symmetry_multiplicity
 _atom_site_fract_x
 _atom_site_fract_y
 _atom_site_fract_z
 _atom_site_occupancy
  Sr  Sr0  1  0.73462478  0.94487093  0.50000000  1
  Sr  Sr1  1  0.26537522  0.05512907  0.50000000  1
  Sr  Sr2  1  0.76537522  0.44487093  0.00000000  1
  Sr  Sr3  1  0.23462478  0.55512907  0.00000000  1
  Sr  Sr4  1  0.94487093  0.26537522  0.50000000  1
  Sr  Sr5  1  0.05512907  0.73462478  0.50000000  1
  Sr  Sr6  1  0.44487093  0.23462478  0.00000000  1
  Sr  Sr7  1  0.55512907  0.76537522  0.00000000  1
  Li  Li8  1  -0.00000000  0.00000000  0.18221392  1
  Li  Li9  1  0.50000000  0.50000000  0.68221392  1
  Li  Li10  1  -0.00000000  0.00000000  0.81778608  1
  Li  Li11  1  0.50000000  0.50000000  0.31778608  1
  Si  Si12  1  0.73087161  0.62042343  0.50000000  1
  Si  Si13  1  0.26912839  0.37957657  0.50000000  1
  Si  Si14  1  0.76912839  0.12042343  0.00000000  1
  Si  Si15  1  0.23087161  0.87957657  0.00000000  1
  Si  Si16  1  0.62042343  0.26912839  0.50000000  1
  Si  Si17  1  0.37957657  0.73087161  0.50000000  1
  Si  Si18  1  0.12042343  0.23087161  0.00000000  1
  Si  Si19  1  0.87957657  0.76912839  0.00000000  1
  N  N20  1  0.70461969  0.43698916  0.50000000  1
  N  N21  1  0.29538031  0.56301084  0.50000000  1
  N  N22  1  0.79538031  0.93698916  0.00000000  1
  N  N23  1  0.20461969  0.06301084  0.00000000  1
  N  N24  1  0.43698916  0.29538031  0.50000000  1
  N  N25  1  0.56301084  0.70461969  0.50000000  1
  N  N26  1  0.93698916  0.20461969  0.00000000  1
  N  N27  1  0.06301084  0.79538031  0.00000000  1
  N  N28  1  0.82582454  0.67417546  0.25000000  1
  N  N29  1  0.17417546  0.32582454  0.25000000  1
  N  N30  1  0.67417546  0.17417546  0.75000000  1
  N  N31  1  0.32582454  0.82582454  0.75000000  1
  N  N32  1  0.67417546  0.17417546  0.25000000  1
  N  N33  1  0.32582454  0.82582454  0.25000000  1
  N  N34  1  0.17417546  0.32582454  0.75000000  1
  N  N35  1  0.82582454  0.67417546  0.75000000  1
  O  O36  1  -0.00000000  0.00000000  0.50000000  1
  O  O37  1  0.50000000  0.50000000  0.00000000  1
