# generated using pymatgen
data_Mg(BeP)2
_symmetry_space_group_name_H-M   'P 1'
_cell_length_a   3.64684837
_cell_length_b   3.64685084
_cell_length_c   6.22406262
_cell_angle_alpha   90.00000001
_cell_angle_beta   89.99839473
_cell_angle_gamma   120.00001809
_symmetry_Int_Tables_number   1
_chemical_formula_structural   Mg(BeP)2
_chemical_formula_sum   'Mg1 Be2 P2'
_cell_volume   71.68696808
_cell_formula_units_Z   1
loop_
 _symmetry_equiv_pos_site_id
 _symmetry_equiv_pos_as_xyz
  1  'x, y, z'
loop_
 _atom_site_type_symbol
 _atom_site_label
 _atom_site_symmetry_multiplicity
 _atom_site_fract_x
 _atom_site_fract_y
 _atom_site_fract_z
 _atom_site_occupancy
  Mg  Mg0  1  0.00000000  0.00000000  0.00000000  1
  Be  Be1  1  0.66666418  0.33333209  0.37520682  1
  Be  Be2  1  0.33333582  0.66666791  0.62479318  1
  P  P3  1  0.66667109  0.33333555  0.73274748  1
  P  P4  1  0.33332891  0.66666445  0.26725252  1
