# generated using pymatgen
data_Na2Mg2P3NO9
_symmetry_space_group_name_H-M   'P 1'
_cell_length_a   9.35243630
_cell_length_b   9.35243630
_cell_length_c   9.35243630
_cell_angle_alpha   90.00000000
_cell_angle_beta   90.00000000
_cell_angle_gamma   90.00000000
_symmetry_Int_Tables_number   1
_chemical_formula_structural   Na2Mg2P3NO9
_chemical_formula_sum   'Na8 Mg8 P12 N4 O36'
_cell_volume   818.03950382
_cell_formula_units_Z   4
loop_
 _symmetry_equiv_pos_site_id
 _symmetry_equiv_pos_as_xyz
  1  'x, y, z'
loop_
 _atom_site_type_symbol
 _atom_site_label
 _atom_site_symmetry_multiplicity
 _atom_site_fract_x
 _atom_site_fract_y
 _atom_site_fract_z
 _atom_site_occupancy
  Na  Na0  1  0.46267541  0.96267541  0.53732459  1
  Na  Na1  1  0.96267541  0.53732459  0.46267541  1
  Na  Na2  1  0.53732459  0.46267541  0.96267541  1
  Na  Na3  1  0.03732459  0.03732459  0.03732459  1
  Na  Na4  1  0.70656858  0.20656858  0.29343142  1
  Na  Na5  1  0.20656858  0.29343142  0.70656858  1
  Na  Na6  1  0.29343142  0.70656858  0.20656858  1
  Na  Na7  1  0.79343142  0.79343142  0.79343142  1
  Mg  Mg8  1  0.92280545  0.42280545  0.07719455  1
  Mg  Mg9  1  0.42280545  0.07719455  0.92280545  1
  Mg  Mg10  1  0.07719455  0.92280545  0.42280545  1
  Mg  Mg11  1  0.57719455  0.57719455  0.57719455  1
  Mg  Mg12  1  0.10194819  0.60194819  0.89805181  1
  Mg  Mg13  1  0.60194819  0.89805181  0.10194819  1
  Mg  Mg14  1  0.89805181  0.10194819  0.60194819  1
  Mg  Mg15  1  0.39805181  0.39805181  0.39805181  1
  P  P16  1  0.23960161  0.65887826  0.59149709  1
  P  P17  1  0.40850291  0.73960161  0.84112174  1
  P  P18  1  0.15887826  0.90850291  0.76039839  1
  P  P19  1  0.73960161  0.84112174  0.40850291  1
  P  P20  1  0.90850291  0.76039839  0.15887826  1
  P  P21  1  0.65887826  0.59149709  0.23960161  1
  P  P22  1  0.76039839  0.15887826  0.90850291  1
  P  P23  1  0.59149709  0.23960161  0.65887826  1
  P  P24  1  0.84112174  0.40850291  0.73960161  1
  P  P25  1  0.26039839  0.34112174  0.09149709  1
  P  P26  1  0.09149709  0.26039839  0.34112174  1
  P  P27  1  0.34112174  0.09149709  0.26039839  1
  N  N28  1  0.30059997  0.80059997  0.69940003  1
  N  N29  1  0.80059997  0.69940003  0.30059997  1
  N  N30  1  0.69940003  0.30059997  0.80059997  1
  N  N31  1  0.19940003  0.19940003  0.19940003  1
  O  O32  1  0.63087457  0.77806097  0.51333720  1
  O  O33  1  0.48666280  0.13087457  0.72193903  1
  O  O34  1  0.27806097  0.98666280  0.36912543  1
  O  O35  1  0.13087457  0.72193903  0.48666280  1
  O  O36  1  0.98666280  0.36912543  0.27806097  1
  O  O37  1  0.77806097  0.51333720  0.63087457  1
  O  O38  1  0.36912543  0.27806097  0.98666280  1
  O  O39  1  0.51333720  0.63087457  0.77806097  1
  O  O40  1  0.72193903  0.48666280  0.13087457  1
  O  O41  1  0.86912543  0.22193903  0.01333720  1
  O  O42  1  0.01333720  0.86912543  0.22193903  1
  O  O43  1  0.22193903  0.01333720  0.86912543  1
  O  O44  1  0.36715778  0.60057056  0.50588936  1
  O  O45  1  0.49411064  0.86715778  0.89942944  1
  O  O46  1  0.10057056  0.99411064  0.63284222  1
  O  O47  1  0.86715778  0.89942944  0.49411064  1
  O  O48  1  0.99411064  0.63284222  0.10057056  1
  O  O49  1  0.60057056  0.50588936  0.36715778  1
  O  O50  1  0.63284222  0.10057056  0.99411064  1
  O  O51  1  0.50588936  0.36715778  0.60057056  1
  O  O52  1  0.89942944  0.49411064  0.86715778  1
  O  O53  1  0.13284222  0.39942944  0.00588936  1
  O  O54  1  0.00588936  0.13284222  0.39942944  1
  O  O55  1  0.39942944  0.00588936  0.13284222  1
  O  O56  1  0.17358042  0.54902761  0.69380456  1
  O  O57  1  0.30619544  0.67358042  0.95097239  1
  O  O58  1  0.04902761  0.80619544  0.82641958  1
  O  O59  1  0.67358042  0.95097239  0.30619544  1
  O  O60  1  0.80619544  0.82641958  0.04902761  1
  O  O61  1  0.54902761  0.69380456  0.17358042  1
  O  O62  1  0.82641958  0.04902761  0.80619544  1
  O  O63  1  0.69380456  0.17358042  0.54902761  1
  O  O64  1  0.95097239  0.30619544  0.67358042  1
  O  O65  1  0.32641958  0.45097239  0.19380456  1
  O  O66  1  0.19380456  0.32641958  0.45097239  1
  O  O67  1  0.45097239  0.19380456  0.32641958  1
