# generated using pymatgen
data_ZnSiN2
_symmetry_space_group_name_H-M   'P 1'
_cell_length_a   5.29118784
_cell_length_b   6.31269615
_cell_length_c   5.06873454
_cell_angle_alpha   90.00000000
_cell_angle_beta   90.00000000
_cell_angle_gamma   90.00000000
_symmetry_Int_Tables_number   1
_chemical_formula_structural   ZnSiN2
_chemical_formula_sum   'Zn4 Si4 N8'
_cell_volume   169.30415334
_cell_formula_units_Z   4
loop_
 _symmetry_equiv_pos_site_id
 _symmetry_equiv_pos_as_xyz
  1  'x, y, z'
loop_
 _atom_site_type_symbol
 _atom_site_label
 _atom_site_symmetry_multiplicity
 _atom_site_fract_x
 _atom_site_fract_y
 _atom_site_fract_z
 _atom_site_occupancy
  Zn  Zn0  1  0.91697351  0.37593653  0.99446223  1
  Zn  Zn1  1  0.08302649  0.62406347  0.49446223  1
  Zn  Zn2  1  0.58302649  0.87593653  0.49446223  1
  Zn  Zn3  1  0.41697351  0.12406347  0.99446223  1
  Si  Si4  1  0.57197410  0.37492532  0.49387497  1
  Si  Si5  1  0.42802590  0.62507468  0.99387497  1
  Si  Si6  1  0.92802590  0.87492532  0.99387497  1
  Si  Si7  1  0.07197410  0.12507468  0.49387497  1
  N  N8  1  0.55573087  0.40175077  0.14865057  1
  N  N9  1  0.44426913  0.59824923  0.64865057  1
  N  N10  1  0.94426913  0.90175077  0.64865057  1
  N  N11  1  0.05573087  0.09824923  0.14865057  1
  N  N12  1  0.60903681  0.84714067  0.08901222  1
  N  N13  1  0.39096319  0.15285933  0.58901222  1
  N  N14  1  0.89096319  0.34714067  0.58901222  1
  N  N15  1  0.10903681  0.65285933  0.08901222  1
