# generated using pymatgen
data_K4P2O7
_symmetry_space_group_name_H-M   'P 1'
_cell_length_a   6.00544952
_cell_length_b   6.00574869
_cell_length_c   15.10802974
_cell_angle_alpha   90.00000000
_cell_angle_beta   90.00000000
_cell_angle_gamma   119.99835220
_symmetry_Int_Tables_number   1
_chemical_formula_structural   K4P2O7
_chemical_formula_sum   'K8 P4 O14'
_cell_volume   471.90909708
_cell_formula_units_Z   2
loop_
 _symmetry_equiv_pos_site_id
 _symmetry_equiv_pos_as_xyz
  1  'x, y, z'
loop_
 _atom_site_type_symbol
 _atom_site_label
 _atom_site_symmetry_multiplicity
 _atom_site_fract_x
 _atom_site_fract_y
 _atom_site_fract_z
 _atom_site_occupancy
  K  K0  1  0.33334147  0.66668294  0.91588624  1
  K  K1  1  0.66665853  0.33331706  0.08411376  1
  K  K2  1  0.66665853  0.33331706  0.41588624  1
  K  K3  1  0.33334147  0.66668294  0.58411376  1
  K  K4  1  0.00000643  0.00001285  0.25000000  1
  K  K5  1  0.99999357  0.99998715  0.75000000  1
  K  K6  1  0.00000000  -0.00000000  0.00000000  1
  K  K7  1  0.00000000  -0.00000000  0.50000000  1
  P  P8  1  0.33332823  0.66665645  0.14281651  1
  P  P9  1  0.66667177  0.33334355  0.85718349  1
  P  P10  1  0.66667177  0.33334355  0.64281651  1
  P  P11  1  0.33332823  0.66665645  0.35718349  1
  O  O12  1  0.19153505  0.80848844  0.11481681  1
  O  O13  1  0.19152810  0.38305620  0.11480346  1
  O  O14  1  0.61695339  0.80848844  0.11481681  1
  O  O15  1  0.80846495  0.19151156  0.88518319  1
  O  O16  1  0.80847190  0.61694380  0.88519654  1
  O  O17  1  0.38304661  0.19151156  0.88518319  1
  O  O18  1  0.80846495  0.19151156  0.61481681  1
  O  O19  1  0.80847190  0.61694380  0.61480346  1
  O  O20  1  0.38304661  0.19151156  0.61481681  1
  O  O21  1  0.19153505  0.80848844  0.38518319  1
  O  O22  1  0.19152810  0.38305620  0.38519654  1
  O  O23  1  0.61695339  0.80848844  0.38518319  1
  O  O24  1  0.33330283  0.66660566  0.25000000  1
  O  O25  1  0.66669717  0.33339434  0.75000000  1
