# generated using pymatgen
data_CoNiPt2
_symmetry_space_group_name_H-M   'P 1'
_cell_length_a   2.72121784
_cell_length_b   2.72121784
_cell_length_c   8.81506597
_cell_angle_alpha   90.00000000
_cell_angle_beta   81.12087675
_cell_angle_gamma   120.00000000
_symmetry_Int_Tables_number   1
_chemical_formula_structural   CoNiPt2
_chemical_formula_sum   'Co1 Ni1 Pt2'
_cell_volume   55.62539645
_cell_formula_units_Z   1
loop_
 _symmetry_equiv_pos_site_id
 _symmetry_equiv_pos_as_xyz
  1  'x, y, z'
loop_
 _atom_site_type_symbol
 _atom_site_label
 _atom_site_symmetry_multiplicity
 _atom_site_fract_x
 _atom_site_fract_y
 _atom_site_fract_z
 _atom_site_occupancy
  Co  Co0  1  0.98965898  0.99482949  0.01551153  1
  Ni  Ni1  1  0.51155314  0.25577657  0.23267029  1
  Pt  Pt2  1  0.01171483  0.50585742  0.48242775  1
  Pt  Pt3  1  0.48707305  0.74353652  0.76939043  1
