# generated using pymatgen
data_Pr(ZnP)3
_symmetry_space_group_name_H-M   'P 1'
_cell_length_a   4.06253078
_cell_length_b   4.06253078
_cell_length_c   20.17518242
_cell_angle_alpha   90.00000000
_cell_angle_beta   90.00000000
_cell_angle_gamma   119.99999999
_symmetry_Int_Tables_number   1
_chemical_formula_structural   Pr(ZnP)3
_chemical_formula_sum   'Pr2 Zn6 P6'
_cell_volume   288.36425881
_cell_formula_units_Z   2
loop_
 _symmetry_equiv_pos_site_id
 _symmetry_equiv_pos_as_xyz
  1  'x, y, z'
loop_
 _atom_site_type_symbol
 _atom_site_label
 _atom_site_symmetry_multiplicity
 _atom_site_fract_x
 _atom_site_fract_y
 _atom_site_fract_z
 _atom_site_occupancy
  P  P0  1  0.66666667  0.33333333  0.75000000  1
  P  P1  1  0.33333333  0.66666667  0.25000000  1
  P  P2  1  0.66666667  0.33333333  0.08831037  1
  P  P3  1  0.33333333  0.66666667  0.58831037  1
  P  P4  1  0.33333333  0.66666667  0.91168963  1
  P  P5  1  0.66666667  0.33333333  0.41168963  1
  Zn  Zn6  1  0.33333333  0.66666667  0.75000000  1
  Zn  Zn7  1  0.66666667  0.33333333  0.25000000  1
  Zn  Zn8  1  0.66666667  0.33333333  0.62986269  1
  Zn  Zn9  1  0.33333333  0.66666667  0.12986269  1
  Zn  Zn10  1  0.33333333  0.66666667  0.37013731  1
  Zn  Zn11  1  0.66666667  0.33333333  0.87013731  1
  Pr  Pr12  1  0.00000000  0.00000000  0.50000000  1
  Pr  Pr13  1  0.00000000  0.00000000  0.00000000  1
