# generated using pymatgen
data_NdCu4Ag
_symmetry_space_group_name_H-M   'P 1'
_cell_length_a   5.12924190
_cell_length_b   5.12924190
_cell_length_c   5.12924190
_cell_angle_alpha   60.00000000
_cell_angle_beta   60.00000000
_cell_angle_gamma   60.00000000
_symmetry_Int_Tables_number   1
_chemical_formula_structural   NdCu4Ag
_chemical_formula_sum   'Nd1 Cu4 Ag1'
_cell_volume   95.42112799
_cell_formula_units_Z   1
loop_
 _symmetry_equiv_pos_site_id
 _symmetry_equiv_pos_as_xyz
  1  'x, y, z'
loop_
 _atom_site_type_symbol
 _atom_site_label
 _atom_site_symmetry_multiplicity
 _atom_site_fract_x
 _atom_site_fract_y
 _atom_site_fract_z
 _atom_site_occupancy
  Nd  Nd0  1  -0.00000000  0.00000000  -0.00000000  1
  Cu  Cu1  1  0.86895284  0.37701572  0.37701572  1
  Cu  Cu2  1  0.37701572  0.86895284  0.37701572  1
  Cu  Cu3  1  0.37701572  0.37701572  0.86895284  1
  Cu  Cu4  1  0.37701572  0.37701572  0.37701572  1
  Ag  Ag5  1  0.75000000  0.75000000  0.75000000  1
