# generated using pymatgen
data_Mg2ReN3
_symmetry_space_group_name_H-M   'P 1'
_cell_length_a   4.11221621
_cell_length_b   10.32286317
_cell_length_c   14.79162131
_cell_angle_alpha   90.00000000
_cell_angle_beta   97.23715228
_cell_angle_gamma   90.00000000
_symmetry_Int_Tables_number   1
_chemical_formula_structural   Mg2ReN3
_chemical_formula_sum   'Mg16 Re8 N24'
_cell_volume   622.89968030
_cell_formula_units_Z   8
loop_
 _symmetry_equiv_pos_site_id
 _symmetry_equiv_pos_as_xyz
  1  'x, y, z'
loop_
 _atom_site_type_symbol
 _atom_site_label
 _atom_site_symmetry_multiplicity
 _atom_site_fract_x
 _atom_site_fract_y
 _atom_site_fract_z
 _atom_site_occupancy
  Mg  Mg0  1  0.17045570  0.27446481  0.34693776  1
  Mg  Mg1  1  0.82954430  0.27446481  0.15306224  1
  Mg  Mg2  1  0.32954430  0.22553519  0.65306224  1
  Mg  Mg3  1  0.67045570  0.22553519  0.84693776  1
  Mg  Mg4  1  0.26621127  0.39764511  0.02822256  1
  Mg  Mg5  1  0.73378873  0.39764511  0.47177744  1
  Mg  Mg6  1  0.23378873  0.10235489  0.97177744  1
  Mg  Mg7  1  0.76621127  0.10235489  0.52822256  1
  Mg  Mg8  1  0.67045570  0.77446481  0.34693776  1
  Mg  Mg9  1  0.32954430  0.77446481  0.15306224  1
  Mg  Mg10  1  0.82954430  0.72553519  0.65306224  1
  Mg  Mg11  1  0.17045570  0.72553519  0.84693776  1
  Mg  Mg12  1  0.76621127  0.89764511  0.02822256  1
  Mg  Mg13  1  0.23378873  0.89764511  0.47177744  1
  Mg  Mg14  1  0.73378873  0.60235489  0.97177744  1
  Mg  Mg15  1  0.26621127  0.60235489  0.52822256  1
  Re  Re16  1  0.29531811  0.05978502  0.16797114  1
  Re  Re17  1  0.70468189  0.05978502  0.33202886  1
  Re  Re18  1  0.20468189  0.44021498  0.83202886  1
  Re  Re19  1  0.79531811  0.44021498  0.66797114  1
  Re  Re20  1  0.79531811  0.55978502  0.16797114  1
  Re  Re21  1  0.20468189  0.55978502  0.33202886  1
  Re  Re22  1  0.70468189  0.94021498  0.83202886  1
  Re  Re23  1  0.29531811  0.94021498  0.66797114  1
  N  N24  1  -0.00000000  0.41913735  0.25000000  1
  N  N25  1  0.50000000  0.08086265  0.75000000  1
  N  N26  1  0.33267029  0.21532593  0.10592599  1
  N  N27  1  0.66732971  0.21532593  0.39407401  1
  N  N28  1  0.16732971  0.28467407  0.89407401  1
  N  N29  1  0.83267029  0.28467407  0.60592599  1
  N  N30  1  0.27834264  0.06116457  0.56768785  1
  N  N31  1  0.72165736  0.06116457  0.93231215  1
  N  N32  1  0.22165736  0.43883543  0.43231215  1
  N  N33  1  0.77834264  0.43883543  0.06768785  1
  N  N34  1  -0.00000000  0.10949810  0.25000000  1
  N  N35  1  0.50000000  0.39050190  0.75000000  1
  N  N36  1  0.50000000  0.91913735  0.25000000  1
  N  N37  1  -0.00000000  0.58086265  0.75000000  1
  N  N38  1  0.83267029  0.71532593  0.10592599  1
  N  N39  1  0.16732971  0.71532593  0.39407401  1
  N  N40  1  0.66732971  0.78467407  0.89407401  1
  N  N41  1  0.33267029  0.78467407  0.60592599  1
  N  N42  1  0.77834264  0.56116457  0.56768785  1
  N  N43  1  0.22165736  0.56116457  0.93231215  1
  N  N44  1  0.72165736  0.93883543  0.43231215  1
  N  N45  1  0.27834264  0.93883543  0.06768785  1
  N  N46  1  0.50000000  0.60949810  0.25000000  1
  N  N47  1  -0.00000000  0.89050190  0.75000000  1
