# generated using pymatgen
data_CoH15Br2(N3O)2
_symmetry_space_group_name_H-M   'P 1'
_cell_length_a   7.25532034
_cell_length_b   7.25532034
_cell_length_c   11.48388069
_cell_angle_alpha   86.26295504
_cell_angle_beta   86.26295504
_cell_angle_gamma   78.94298202
_symmetry_Int_Tables_number   1
_chemical_formula_structural   CoH15Br2(N3O)2
_chemical_formula_sum   'Co2 H30 Br4 N12 O4'
_cell_volume   591.16759352
_cell_formula_units_Z   2
loop_
 _symmetry_equiv_pos_site_id
 _symmetry_equiv_pos_as_xyz
  1  'x, y, z'
loop_
 _atom_site_type_symbol
 _atom_site_label
 _atom_site_symmetry_multiplicity
 _atom_site_fract_x
 _atom_site_fract_y
 _atom_site_fract_z
 _atom_site_occupancy
  Co  Co0  1  0.71216089  0.28798871  0.24988030  1
  Co  Co1  1  0.28798871  0.71216089  0.74988030  1
  H  H2  1  0.03018399  0.41589172  0.27718682  1
  H  H3  1  0.58665406  0.96956183  0.22024811  1
  H  H4  1  0.96956183  0.58665406  0.72024811  1
  H  H5  1  0.41589172  0.03018399  0.77718682  1
  H  H6  1  0.91212511  0.54785954  0.17151308  1
  H  H7  1  0.45447750  0.08565472  0.32686479  1
  H  H8  1  0.08565472  0.45447750  0.82686479  1
  H  H9  1  0.54785954  0.91212511  0.67151308  1
  H  H10  1  0.74100876  0.43970428  0.03517600  1
  H  H11  1  0.56203728  0.25795229  0.46455879  1
  H  H12  1  0.25795229  0.56203728  0.96455879  1
  H  H13  1  0.43970428  0.74100876  0.53517600  1
  H  H14  1  0.84506511  0.57667949  0.31072710  1
  H  H15  1  0.42418694  0.15466023  0.18849549  1
  H  H16  1  0.15466023  0.42418694  0.68849549  1
  H  H17  1  0.57667949  0.84506511  0.81072710  1
  H  H18  1  0.59502491  0.28914325  0.03834715  1
  H  H19  1  0.71276148  0.40428815  0.46123992  1
  H  H20  1  0.40428815  0.71276148  0.96123992  1
  H  H21  1  0.28914325  0.59502491  0.53834715  1
  H  H22  1  0.82522483  0.21207972  0.02906677  1
  H  H23  1  0.79021680  0.17361063  0.46877715  1
  H  H24  1  0.17361063  0.79021680  0.96877715  1
  H  H25  1  0.21207972  0.82522483  0.52906677  1
  H  H26  1  0.98626515  0.03236311  0.17174378  1
  H  H27  1  0.03236311  0.98626515  0.67174378  1
  H  H28  1  0.89466069  0.95247923  0.29832721  1
  H  H29  1  0.95247923  0.89466069  0.79832721  1
  H  H30  1  0.03966121  0.10015531  0.29952935  1
  H  H31  1  0.10015531  0.03966121  0.79952935  1
  Br  Br32  1  0.19894881  0.20963731  0.47943633  1
  Br  Br33  1  0.78630655  0.79586355  0.00868006  1
  Br  Br34  1  0.79586355  0.78630655  0.50868006  1
  Br  Br35  1  0.20963731  0.19894881  0.97943633  1
  N  N36  1  0.49684325  0.50155170  0.24950262  1
  N  N37  1  0.50155170  0.49684325  0.74950262  1
  N  N38  1  0.89884781  0.47720480  0.25148295  1
  N  N39  1  0.52467962  0.10015033  0.24677033  1
  N  N40  1  0.10015033  0.52467962  0.74677033  1
  N  N41  1  0.47720480  0.89884781  0.75148295  1
  N  N42  1  0.93305338  0.06830286  0.25394054  1
  N  N43  1  0.06830286  0.93305338  0.75394054  1
  N  N44  1  0.72040162  0.30865301  0.06707122  1
  N  N45  1  0.69254612  0.27914105  0.43238900  1
  N  N46  1  0.27914105  0.69254612  0.93238900  1
  N  N47  1  0.30865301  0.72040162  0.56707122  1
  O  O48  1  0.36475790  0.49620950  0.18744736  1
  O  O49  1  0.50156356  0.63355033  0.31159777  1
  O  O50  1  0.63355033  0.50156356  0.81159777  1
  O  O51  1  0.49620950  0.36475790  0.68744736  1
