# generated using pymatgen
data_Rb2Au3
_symmetry_space_group_name_H-M   'P 1'
_cell_length_a   5.04576503
_cell_length_b   5.59372993
_cell_length_c   6.58707179
_cell_angle_alpha   115.12529504
_cell_angle_beta   112.51995289
_cell_angle_gamma   90.00000276
_symmetry_Int_Tables_number   1
_chemical_formula_structural   Rb2Au3
_chemical_formula_sum   'Rb2 Au3'
_cell_volume   152.52313837
_cell_formula_units_Z   1
loop_
 _symmetry_equiv_pos_site_id
 _symmetry_equiv_pos_as_xyz
  1  'x, y, z'
loop_
 _atom_site_type_symbol
 _atom_site_label
 _atom_site_symmetry_multiplicity
 _atom_site_fract_x
 _atom_site_fract_y
 _atom_site_fract_z
 _atom_site_occupancy
  Rb  Rb0  1  0.19616660  0.69616660  0.39233320  1
  Rb  Rb1  1  0.80383340  0.30383340  0.60766680  1
  Au  Au2  1  0.50000000  0.25363222  1.00000000  1
  Au  Au3  1  0.00000000  0.00000000  0.00000000  1
  Au  Au4  1  0.50000000  0.74636778  0.00000000  1
