# generated using pymatgen
data_Tb2Ge(BO4)2
_symmetry_space_group_name_H-M   'P 1'
_cell_length_a   4.43027359
_cell_length_b   9.35751704
_cell_length_c   13.54343217
_cell_angle_alpha   90.00000000
_cell_angle_beta   90.00000000
_cell_angle_gamma   90.00000000
_symmetry_Int_Tables_number   1
_chemical_formula_structural   Tb2Ge(BO4)2
_chemical_formula_sum   'Tb8 Ge4 B8 O32'
_cell_volume   561.46140794
_cell_formula_units_Z   4
loop_
 _symmetry_equiv_pos_site_id
 _symmetry_equiv_pos_as_xyz
  1  'x, y, z'
loop_
 _atom_site_type_symbol
 _atom_site_label
 _atom_site_symmetry_multiplicity
 _atom_site_fract_x
 _atom_site_fract_y
 _atom_site_fract_z
 _atom_site_occupancy
  Tb  Tb0  1  0.45920088  0.52589181  0.64005464  1
  Tb  Tb1  1  0.04079912  0.02589181  0.85994536  1
  Tb  Tb2  1  0.04079912  0.47410819  0.14005464  1
  Tb  Tb3  1  0.45920088  0.97410819  0.35994536  1
  Tb  Tb4  1  0.54079912  0.47410819  0.35994536  1
  Tb  Tb5  1  0.95920088  0.97410819  0.14005464  1
  Tb  Tb6  1  0.95920088  0.52589181  0.85994536  1
  Tb  Tb7  1  0.54079912  0.02589181  0.64005464  1
  Ge  Ge8  1  0.92382606  0.75000000  0.50000000  1
  Ge  Ge9  1  0.57617394  0.25000000  0.00000000  1
  Ge  Ge10  1  0.07617394  0.25000000  0.50000000  1
  Ge  Ge11  1  0.42382606  0.75000000  0.00000000  1
  B  B12  1  0.53021098  0.70312555  0.20050614  1
  B  B13  1  0.96978902  0.20312555  0.29949386  1
  B  B14  1  0.96978902  0.29687445  0.70050614  1
  B  B15  1  0.53021098  0.79687445  0.79949386  1
  B  B16  1  0.46978902  0.29687445  0.79949386  1
  B  B17  1  0.03021098  0.79687445  0.70050614  1
  B  B18  1  0.03021098  0.70312555  0.29949386  1
  B  B19  1  0.46978902  0.20312555  0.20050614  1
  O  O20  1  0.53744493  0.54856754  0.19255385  1
  O  O21  1  0.96255507  0.04856754  0.30744615  1
  O  O22  1  0.96255507  0.45143246  0.69255385  1
  O  O23  1  0.53744493  0.95143246  0.80744615  1
  O  O24  1  0.46255507  0.45143246  0.80744615  1
  O  O25  1  0.03744493  0.95143246  0.69255385  1
  O  O26  1  0.03744493  0.54856754  0.30744615  1
  O  O27  1  0.46255507  0.04856754  0.19255385  1
  O  O28  1  0.65993182  0.76822743  0.10727924  1
  O  O29  1  0.84006818  0.26822743  0.39272076  1
  O  O30  1  0.84006818  0.23177257  0.60727924  1
  O  O31  1  0.65993182  0.73177257  0.89272076  1
  O  O32  1  0.34006818  0.23177257  0.89272076  1
  O  O33  1  0.15993182  0.73177257  0.60727924  1
  O  O34  1  0.15993182  0.76822743  0.39272076  1
  O  O35  1  0.34006818  0.26822743  0.10727924  1
  O  O36  1  0.21575047  0.75887507  0.21497120  1
  O  O37  1  0.28424953  0.25887507  0.28502880  1
  O  O38  1  0.28424953  0.24112493  0.71497120  1
  O  O39  1  0.21575047  0.74112493  0.78502880  1
  O  O40  1  0.78424953  0.24112493  0.78502880  1
  O  O41  1  0.71575047  0.74112493  0.71497120  1
  O  O42  1  0.71575047  0.75887507  0.28502880  1
  O  O43  1  0.78424953  0.25887507  0.21497120  1
  O  O44  1  0.70128480  0.59655306  0.49532842  1
  O  O45  1  0.79871520  0.09655306  0.00467158  1
  O  O46  1  0.79871520  0.40344694  0.99532842  1
  O  O47  1  0.70128480  0.90344694  0.50467158  1
  O  O48  1  0.29871520  0.40344694  0.50467158  1
  O  O49  1  0.20128480  0.90344694  0.99532842  1
  O  O50  1  0.20128480  0.59655306  0.00467158  1
  O  O51  1  0.29871520  0.09655306  0.49532842  1
