# generated using pymatgen
data_SmCuGe
_symmetry_space_group_name_H-M   'P 1'
_cell_length_a   3.86162586
_cell_length_b   4.26958491
_cell_length_c   4.26981302
_cell_angle_alpha   119.97273571
_cell_angle_beta   90.00000000
_cell_angle_gamma   90.00000000
_symmetry_Int_Tables_number   1
_chemical_formula_structural   SmCuGe
_chemical_formula_sum   'Sm1 Cu1 Ge1'
_cell_volume   60.98381479
_cell_formula_units_Z   1
loop_
 _symmetry_equiv_pos_site_id
 _symmetry_equiv_pos_as_xyz
  1  'x, y, z'
loop_
 _atom_site_type_symbol
 _atom_site_label
 _atom_site_symmetry_multiplicity
 _atom_site_fract_x
 _atom_site_fract_y
 _atom_site_fract_z
 _atom_site_occupancy
  Sm  Sm0  1  -0.00000000  0.99993741  0.99995713  1
  Cu  Cu1  1  0.50000000  0.33323384  0.66667905  1
  Ge  Ge2  1  0.50000000  0.66672874  0.33336382  1
