# generated using pymatgen
data_Sr3Gd2(BO3)4
_symmetry_space_group_name_H-M   'P 1'
_cell_length_a   7.42484948
_cell_length_b   8.76713958
_cell_length_c   16.50026238
_cell_angle_alpha   90.00000000
_cell_angle_beta   90.00000000
_cell_angle_gamma   90.00000000
_symmetry_Int_Tables_number   1
_chemical_formula_structural   Sr3Gd2(BO3)4
_chemical_formula_sum   'Sr12 Gd8 B16 O48'
_cell_volume   1074.07949345
_cell_formula_units_Z   4
loop_
 _symmetry_equiv_pos_site_id
 _symmetry_equiv_pos_as_xyz
  1  'x, y, z'
loop_
 _atom_site_type_symbol
 _atom_site_label
 _atom_site_symmetry_multiplicity
 _atom_site_fract_x
 _atom_site_fract_y
 _atom_site_fract_z
 _atom_site_occupancy
  Sr  Sr0  1  0.02873026  0.32999440  0.45778122  1
  Sr  Sr1  1  0.97126974  0.67000560  0.95778122  1
  Sr  Sr2  1  0.52873026  0.17000560  0.45778122  1
  Sr  Sr3  1  0.47126974  0.82999440  0.95778122  1
  Sr  Sr4  1  0.17849284  0.84747360  0.41374504  1
  Sr  Sr5  1  0.82150716  0.15252640  0.91374504  1
  Sr  Sr6  1  0.67849284  0.65252640  0.41374504  1
  Sr  Sr7  1  0.32150716  0.34747360  0.91374504  1
  Sr  Sr8  1  0.31317856  0.35168272  0.66419555  1
  Sr  Sr9  1  0.68682144  0.64831728  0.16419555  1
  Sr  Sr10  1  0.81317856  0.14831728  0.66419555  1
  Sr  Sr11  1  0.18682144  0.85168272  0.16419555  1
  Gd  Gd12  1  0.31853729  0.46610386  0.28961771  1
  Gd  Gd13  1  0.68146271  0.53389614  0.78961771  1
  Gd  Gd14  1  0.81853729  0.03389614  0.28961771  1
  Gd  Gd15  1  0.18146271  0.96610386  0.78961771  1
  Gd  Gd16  1  0.03034452  0.33001252  0.11974669  1
  Gd  Gd17  1  0.96965548  0.66998748  0.61974669  1
  Gd  Gd18  1  0.53034452  0.16998748  0.11974669  1
  Gd  Gd19  1  0.46965548  0.83001252  0.61974669  1
  B  B20  1  0.17048336  0.06254957  0.99812646  1
  B  B21  1  0.82951664  0.93745043  0.49812646  1
  B  B22  1  0.67048336  0.43745043  0.99812646  1
  B  B23  1  0.32951664  0.56254957  0.49812646  1
  B  B24  1  0.00708825  0.37308709  0.78640235  1
  B  B25  1  0.99291175  0.62691291  0.28640235  1
  B  B26  1  0.50708825  0.12691291  0.78640235  1
  B  B27  1  0.49291175  0.87308709  0.28640235  1
  B  B28  1  0.16034386  0.04476772  0.58532512  1
  B  B29  1  0.83965614  0.95523228  0.08532512  1
  B  B30  1  0.66034386  0.45523228  0.58532512  1
  B  B31  1  0.33965614  0.54476772  0.08532512  1
  B  B32  1  0.21502565  0.14895054  0.28726983  1
  B  B33  1  0.78497435  0.85104946  0.78726983  1
  B  B34  1  0.71502565  0.35104946  0.28726983  1
  B  B35  1  0.28497435  0.64895054  0.78726983  1
  O  O36  1  0.24093739  0.22235711  0.21330241  1
  O  O37  1  0.75906261  0.77764289  0.71330241  1
  O  O38  1  0.74093739  0.27764289  0.21330241  1
  O  O39  1  0.25906261  0.72235711  0.71330241  1
  O  O40  1  0.09325016  0.19110562  0.58385569  1
  O  O41  1  0.90674984  0.80889438  0.08385569  1
  O  O42  1  0.59325016  0.30889438  0.58385569  1
  O  O43  1  0.40674984  0.69110562  0.08385569  1
  O  O44  1  0.09115549  0.20680207  0.00159408  1
  O  O45  1  0.90884451  0.79319793  0.50159408  1
  O  O46  1  0.59115549  0.29319793  0.00159408  1
  O  O47  1  0.40884451  0.70680207  0.50159408  1
  O  O48  1  0.12950770  0.01021377  0.29146283  1
  O  O49  1  0.87049230  0.98978623  0.79146283  1
  O  O50  1  0.62950770  0.48978623  0.29146283  1
  O  O51  1  0.37049230  0.51021377  0.79146283  1
  O  O52  1  0.19857374  0.50139522  0.03520464  1
  O  O53  1  0.80142626  0.49860478  0.53520464  1
  O  O54  1  0.69857374  0.99860478  0.03520464  1
  O  O55  1  0.30142626  0.00139522  0.53520464  1
  O  O56  1  0.11030429  0.24142863  0.78412546  1
  O  O57  1  0.88969571  0.75857137  0.28412546  1
  O  O58  1  0.61030429  0.25857137  0.78412546  1
  O  O59  1  0.38969571  0.74142863  0.28412546  1
  O  O60  1  0.04772759  0.55161561  0.21489467  1
  O  O61  1  0.95227241  0.44838439  0.71489467  1
  O  O62  1  0.54772759  0.94838439  0.21489467  1
  O  O63  1  0.45227241  0.05161561  0.71489467  1
  O  O64  1  0.26953827  0.22654685  0.35520913  1
  O  O65  1  0.73046173  0.77345315  0.85520913  1
  O  O66  1  0.76953827  0.27345315  0.35520913  1
  O  O67  1  0.23046173  0.72654685  0.85520913  1
  O  O68  1  0.38320559  0.46391314  0.43811841  1
  O  O69  1  0.61679441  0.53608686  0.93811841  1
  O  O70  1  0.88320559  0.03608686  0.43811841  1
  O  O71  1  0.11679441  0.96391314  0.93811841  1
  O  O72  1  0.40765755  0.43936306  0.14112992  1
  O  O73  1  0.59234245  0.56063694  0.64112992  1
  O  O74  1  0.90765755  0.06063694  0.14112992  1
  O  O75  1  0.09234245  0.93936306  0.64112992  1
  O  O76  1  0.30688984  0.02805049  0.05311525  1
  O  O77  1  0.69311016  0.97194951  0.55311525  1
  O  O78  1  0.80688984  0.47194951  0.05311525  1
  O  O79  1  0.19311016  0.52805049  0.55311525  1
  O  O80  1  0.05960532  0.57041511  0.35877755  1
  O  O81  1  0.94039468  0.42958489  0.85877755  1
  O  O82  1  0.55960532  0.92958489  0.35877755  1
  O  O83  1  0.44039468  0.07041511  0.85877755  1
