# generated using pymatgen
data_CoH15Br2(N3O)2
_symmetry_space_group_name_H-M   'P 1'
_cell_length_a   7.23393802
_cell_length_b   7.27192018
_cell_length_c   11.44219511
_cell_angle_alpha   86.64661098
_cell_angle_beta   86.67381814
_cell_angle_gamma   79.36359785
_symmetry_Int_Tables_number   1
_chemical_formula_structural   CoH15Br2(N3O)2
_chemical_formula_sum   'Co2 H30 Br4 N12 O4'
_cell_volume   589.87306155
_cell_formula_units_Z   2
loop_
 _symmetry_equiv_pos_site_id
 _symmetry_equiv_pos_as_xyz
  1  'x, y, z'
loop_
 _atom_site_type_symbol
 _atom_site_label
 _atom_site_symmetry_multiplicity
 _atom_site_fract_x
 _atom_site_fract_y
 _atom_site_fract_z
 _atom_site_occupancy
  Co  Co0  1  0.71186531  0.28993235  0.24967143  1
  Co  Co1  1  0.28813469  0.71006765  0.75032857  1
  H  H2  1  0.02509939  0.41967767  0.29050483  1
  H  H3  1  0.58322186  0.97814192  0.20527250  1
  H  H4  1  0.97490061  0.58032233  0.70949517  1
  H  H5  1  0.41677814  0.02185808  0.79472750  1
  H  H6  1  0.72464923  0.45042599  0.03680275  1
  H  H7  1  0.54971768  0.27459304  0.46189396  1
  H  H8  1  0.27535077  0.54957401  0.96319725  1
  H  H9  1  0.45028232  0.72540696  0.53810604  1
  H  H10  1  0.83623809  0.58389783  0.30884509  1
  H  H11  1  0.41622360  0.16429633  0.18943122  1
  H  H12  1  0.16376191  0.41610217  0.69115491  1
  H  H13  1  0.58377640  0.83570367  0.81056878  1
  H  H14  1  0.60685285  0.27507014  0.03448472  1
  H  H15  1  0.72729267  0.38939162  0.46609709  1
  H  H16  1  0.39314715  0.72492986  0.96551528  1
  H  H17  1  0.27270733  0.61060838  0.53390291  1
  H  H18  1  0.92414885  0.54107924  0.17453149  1
  H  H19  1  0.46118434  0.07434623  0.32263838  1
  H  H20  1  0.07585115  0.45892076  0.82546851  1
  H  H21  1  0.53881566  0.92565377  0.67736162  1
  H  H22  1  0.84090300  0.23351608  0.02876612  1
  H  H23  1  0.76718179  0.15665611  0.46966611  1
  H  H24  1  0.15909700  0.76648392  0.97123388  1
  H  H25  1  0.23281821  0.84334389  0.53033389  1
  H  H26  1  0.89358933  0.95043412  0.27489945  1
  H  H27  1  0.10641067  0.04956588  0.72510055  1
  H  H28  1  0.02521450  0.09688094  0.31482795  1
  H  H29  1  0.97478550  0.90311906  0.68517205  1
  H  H30  1  0.00751927  0.06517535  0.17266455  1
  H  H31  1  0.99248073  0.93482465  0.82733545  1
  Br  Br32  1  0.20010943  0.21024022  0.47757181  1
  Br  Br33  1  0.79019541  0.79909323  0.01543910  1
  Br  Br34  1  0.79989057  0.78975978  0.52242819  1
  Br  Br35  1  0.20980459  0.20090677  0.98456090  1
  N  N36  1  0.49886812  0.50199492  0.25026543  1
  N  N37  1  0.50113188  0.49800508  0.74973457  1
  N  N38  1  0.89896427  0.47880779  0.25560087  1
  N  N39  1  0.52333664  0.10213447  0.24191384  1
  N  N40  1  0.10103573  0.52119221  0.74439913  1
  N  N41  1  0.47666336  0.89786553  0.75808616  1
  N  N42  1  0.72286897  0.31400712  0.06627925  1
  N  N43  1  0.68721481  0.27547353  0.43303889  1
  N  N44  1  0.27713103  0.68599288  0.93372075  1
  N  N45  1  0.31278519  0.72452647  0.56696111  1
  N  N46  1  0.93424498  0.07594659  0.25255163  1
  N  N47  1  0.06575502  0.92405341  0.74744837  1
  O  O48  1  0.36631097  0.49736412  0.18770081  1
  O  O49  1  0.50523994  0.63308689  0.31368330  1
  O  O50  1  0.63368903  0.50263588  0.81229919  1
  O  O51  1  0.49476006  0.36691311  0.68631670  1
