# generated using pymatgen
data_CaTeO4
_symmetry_space_group_name_H-M   'P 1'
_cell_length_a   5.07112978
_cell_length_b   5.30782334
_cell_length_c   12.82293759
_cell_angle_alpha   90.00000000
_cell_angle_beta   90.00000000
_cell_angle_gamma   90.00000000
_symmetry_Int_Tables_number   1
_chemical_formula_structural   CaTeO4
_chemical_formula_sum   'Ca4 Te4 O16'
_cell_volume   345.15066422
_cell_formula_units_Z   4
loop_
 _symmetry_equiv_pos_site_id
 _symmetry_equiv_pos_as_xyz
  1  'x, y, z'
loop_
 _atom_site_type_symbol
 _atom_site_label
 _atom_site_symmetry_multiplicity
 _atom_site_fract_x
 _atom_site_fract_y
 _atom_site_fract_z
 _atom_site_occupancy
  O  O0  1  0.11561979  0.28078925  0.67374021  1
  O  O1  1  0.61561979  0.21921075  0.82625979  1
  O  O2  1  0.88438021  0.78078925  0.82625979  1
  O  O3  1  0.38438021  0.71921075  0.67374021  1
  O  O4  1  0.88438021  0.71921075  0.32625979  1
  O  O5  1  0.38438021  0.78078925  0.17374021  1
  O  O6  1  0.11561979  0.21921075  0.17374021  1
  O  O7  1  0.61561979  0.28078925  0.32625979  1
  O  O8  1  0.57146479  0.29685798  0.54413023  1
  O  O9  1  0.07146479  0.20314202  0.95586977  1
  O  O10  1  0.42853521  0.79685798  0.95586977  1
  O  O11  1  0.92853521  0.70314202  0.54413023  1
  O  O12  1  0.42853521  0.70314202  0.45586977  1
  O  O13  1  0.92853521  0.79685798  0.04413023  1
  O  O14  1  0.57146479  0.20314202  0.04413023  1
  O  O15  1  0.07146479  0.29685798  0.45586977  1
  Ca  Ca16  1  0.75000000  0.00000000  0.66973303  1
  Ca  Ca17  1  0.25000000  0.50000000  0.83026697  1
  Ca  Ca18  1  0.25000000  0.00000000  0.33026697  1
  Ca  Ca19  1  0.75000000  0.50000000  0.16973303  1
  Te  Te20  1  0.75000000  0.50000000  0.42768734  1
  Te  Te21  1  0.25000000  0.00000000  0.07231266  1
  Te  Te22  1  0.25000000  0.50000000  0.57231266  1
  Te  Te23  1  0.75000000  0.00000000  0.92768734  1
