# generated using pymatgen
data_YRhO3
_symmetry_space_group_name_H-M   'P 1'
_cell_length_a   5.29992783
_cell_length_b   5.80563332
_cell_length_c   7.67750574
_cell_angle_alpha   90.00000000
_cell_angle_beta   90.00000000
_cell_angle_gamma   90.00000000
_symmetry_Int_Tables_number   1
_chemical_formula_structural   YRhO3
_chemical_formula_sum   'Y4 Rh4 O12'
_cell_volume   236.23253382
_cell_formula_units_Z   4
loop_
 _symmetry_equiv_pos_site_id
 _symmetry_equiv_pos_as_xyz
  1  'x, y, z'
loop_
 _atom_site_type_symbol
 _atom_site_label
 _atom_site_symmetry_multiplicity
 _atom_site_fract_x
 _atom_site_fract_y
 _atom_site_fract_z
 _atom_site_occupancy
  Y  Y0  1  0.03027999  0.41658813  0.25000000  1
  Y  Y1  1  0.96972001  0.58341187  0.75000000  1
  Y  Y2  1  0.53027999  0.08341187  0.75000000  1
  Y  Y3  1  0.46972001  0.91658813  0.25000000  1
  Rh  Rh4  1  -0.00000000  0.00000000  0.00000000  1
  Rh  Rh5  1  0.50000000  0.50000000  0.00000000  1
  Rh  Rh6  1  -0.00000000  0.00000000  0.50000000  1
  Rh  Rh7  1  0.50000000  0.50000000  0.50000000  1
  O  O8  1  0.32115061  0.19131063  0.06375994  1
  O  O9  1  0.67884939  0.80868937  0.93624006  1
  O  O10  1  0.82115061  0.30868937  0.93624006  1
  O  O11  1  0.67884939  0.80868937  0.56375994  1
  O  O12  1  0.17884939  0.69131063  0.06375994  1
  O  O13  1  0.32115061  0.19131063  0.43624006  1
  O  O14  1  0.17884939  0.69131063  0.43624006  1
  O  O15  1  0.82115061  0.30868937  0.56375994  1
  O  O16  1  0.63483901  0.55319498  0.25000000  1
  O  O17  1  0.36516099  0.44680502  0.75000000  1
  O  O18  1  0.13483901  0.94680502  0.75000000  1
  O  O19  1  0.86516099  0.05319498  0.25000000  1
