# generated using pymatgen
data_Er5SbPd2
_symmetry_space_group_name_H-M   'P 1'
_cell_length_a   7.68359264
_cell_length_b   7.68359264
_cell_length_c   8.72512717
_cell_angle_alpha   116.12392223
_cell_angle_beta   116.12392223
_cell_angle_gamma   90.00000000
_symmetry_Int_Tables_number   1
_chemical_formula_structural   Er5SbPd2
_chemical_formula_sum   'Er10 Sb2 Pd4'
_cell_volume   403.05449737
_cell_formula_units_Z   2
loop_
 _symmetry_equiv_pos_site_id
 _symmetry_equiv_pos_as_xyz
  1  'x, y, z'
loop_
 _atom_site_type_symbol
 _atom_site_label
 _atom_site_symmetry_multiplicity
 _atom_site_fract_x
 _atom_site_fract_y
 _atom_site_fract_z
 _atom_site_occupancy
  Er  Er0  1  -0.00000000  -0.00000000  -0.00000000  1
  Er  Er1  1  0.50000000  0.50000000  -0.00000000  1
  Er  Er2  1  0.29892061  0.79892061  0.28538152  1
  Er  Er3  1  0.70107939  0.20107939  0.71461848  1
  Er  Er4  1  0.98646091  0.48646091  0.28538152  1
  Er  Er5  1  0.48646091  0.29892061  0.28538152  1
  Er  Er6  1  0.20107939  0.01353909  0.71461848  1
  Er  Er7  1  0.01353909  0.51353909  0.71461848  1
  Er  Er8  1  0.51353909  0.70107939  0.71461848  1
  Er  Er9  1  0.79892061  0.98646091  0.28538152  1
  Sb  Sb10  1  0.25000000  0.25000000  0.50000000  1
  Sb  Sb11  1  0.75000000  0.75000000  0.50000000  1
  Pd  Pd12  1  0.63710710  0.13710710  -0.00000000  1
  Pd  Pd13  1  0.36289290  0.86289290  -0.00000000  1
  Pd  Pd14  1  0.86289290  0.63710710  -0.00000000  1
  Pd  Pd15  1  0.13710710  0.36289290  -0.00000000  1
