# generated using pymatgen
data_Dy3SOF5
_symmetry_space_group_name_H-M   'P 1'
_cell_length_a   3.67054468
_cell_length_b   9.48485920
_cell_length_c   9.39001115
_cell_angle_alpha   119.90732217
_cell_angle_beta   90.00000000
_cell_angle_gamma   90.00000000
_symmetry_Int_Tables_number   1
_chemical_formula_structural   Dy3SOF5
_chemical_formula_sum   'Dy6 S2 O2 F10'
_cell_volume   283.37593514
_cell_formula_units_Z   2
loop_
 _symmetry_equiv_pos_site_id
 _symmetry_equiv_pos_as_xyz
  1  'x, y, z'
loop_
 _atom_site_type_symbol
 _atom_site_label
 _atom_site_symmetry_multiplicity
 _atom_site_fract_x
 _atom_site_fract_y
 _atom_site_fract_z
 _atom_site_occupancy
  Dy  Dy0  1  0.75000000  0.13408872  0.71667005  1
  Dy  Dy1  1  0.75000000  0.27105777  0.40371495  1
  Dy  Dy2  1  0.75000000  0.58558437  0.88456579  1
  Dy  Dy3  1  0.25000000  0.89681568  0.30169834  1
  Dy  Dy4  1  0.25000000  0.71496957  0.59137577  1
  Dy  Dy5  1  0.25000000  0.40243918  0.10616428  1
  S  S6  1  0.75000000  0.66715412  0.33815973  1
  S  S7  1  0.25000000  0.33872030  0.66502129  1
  O  O8  1  0.75000000  0.38734199  0.95122753  1
  O  O9  1  0.75000000  0.05213083  0.43615237  1
  F  F10  1  0.75000000  0.88007668  0.72079626  1
  F  F11  1  0.75000000  0.27309964  0.16100466  1
  F  F12  1  0.75000000  0.83723454  0.11258872  1
  F  F13  1  0.25000000  0.11706762  0.26183016  1
  F  F14  1  0.25000000  0.71432609  0.83589018  1
  F  F15  1  0.25000000  0.14912392  0.87724252  1
  F  F16  1  0.75000000  0.56689134  0.61457501  1
  F  F17  1  0.25000000  0.62600950  0.05699723  1
  F  F18  1  0.25000000  0.95295833  0.57513439  1
  F  F19  1  0.25000000  0.43290981  0.38919077  1
