# generated using pymatgen
data_Nd(BOs)4
_symmetry_space_group_name_H-M   'P 1'
_cell_length_a   4.00770763
_cell_length_b   7.62822829
_cell_length_c   7.62822829
_cell_angle_alpha   90.00000000
_cell_angle_beta   90.00000000
_cell_angle_gamma   90.00000000
_symmetry_Int_Tables_number   1
_chemical_formula_structural   Nd(BOs)4
_chemical_formula_sum   'Nd2 B8 Os8'
_cell_volume   233.20797334
_cell_formula_units_Z   2
loop_
 _symmetry_equiv_pos_site_id
 _symmetry_equiv_pos_as_xyz
  1  'x, y, z'
loop_
 _atom_site_type_symbol
 _atom_site_label
 _atom_site_symmetry_multiplicity
 _atom_site_fract_x
 _atom_site_fract_y
 _atom_site_fract_z
 _atom_site_occupancy
  B  B0  1  0.86101634  0.03058951  0.91429420  1
  B  B1  1  0.13898366  0.53058951  0.41429420  1
  B  B2  1  0.36101634  0.08570580  0.53058951  1
  B  B3  1  0.36101634  0.41429420  0.96941049  1
  B  B4  1  0.86101634  0.46941049  0.58570580  1
  B  B5  1  0.13898366  0.96941049  0.08570580  1
  B  B6  1  0.63898366  0.91429420  0.46941049  1
  B  B7  1  0.63898366  0.58570580  0.03058951  1
  Nd  Nd8  1  0.25000000  0.75000000  0.75000000  1
  Nd  Nd9  1  0.75000000  0.25000000  0.25000000  1
  Os  Os10  1  0.36225483  0.35661603  0.60387495  1
  Os  Os11  1  0.36225483  0.14338397  0.89612505  1
  Os  Os12  1  0.86225483  0.39612505  0.85661603  1
  Os  Os13  1  0.13774517  0.89612505  0.35661603  1
  Os  Os14  1  0.63774517  0.64338397  0.39612505  1
  Os  Os15  1  0.63774517  0.85661603  0.10387495  1
  Os  Os16  1  0.13774517  0.60387495  0.14338397  1
  Os  Os17  1  0.86225483  0.10387495  0.64338397  1
