# generated using pymatgen
data_CsSi
_symmetry_space_group_name_H-M   'P 1'
_cell_length_a   13.71990378
_cell_length_b   13.71990378
_cell_length_c   13.71990378
_cell_angle_alpha   90.00000000
_cell_angle_beta   90.00000000
_cell_angle_gamma   90.00000000
_symmetry_Int_Tables_number   1
_chemical_formula_structural   CsSi
_chemical_formula_sum   'Cs32 Si32'
_cell_volume   2582.57651148
_cell_formula_units_Z   32
loop_
 _symmetry_equiv_pos_site_id
 _symmetry_equiv_pos_as_xyz
  1  'x, y, z'
loop_
 _atom_site_type_symbol
 _atom_site_label
 _atom_site_symmetry_multiplicity
 _atom_site_fract_x
 _atom_site_fract_y
 _atom_site_fract_z
 _atom_site_occupancy
  Si  Si0  1  0.55855384  0.93244117  0.81186269  1
  Si  Si1  1  0.55855384  0.06755883  0.18813731  1
  Si  Si2  1  0.93244117  0.81186269  0.55855384  1
  Si  Si3  1  0.06755883  0.81186269  0.44144616  1
  Si  Si4  1  0.81186269  0.55855384  0.93244117  1
  Si  Si5  1  0.18813731  0.44144616  0.93244117  1
  Si  Si6  1  0.94144616  0.68813731  0.43244117  1
  Si  Si7  1  0.94144616  0.31186269  0.56755883  1
  Si  Si8  1  0.05855384  0.68813731  0.56755883  1
  Si  Si9  1  0.31186269  0.56755883  0.94144616  1
  Si  Si10  1  0.56755883  0.05855384  0.68813731  1
  Si  Si11  1  0.56755883  0.94144616  0.31186269  1
  Si  Si12  1  0.68813731  0.43244117  0.94144616  1
  Si  Si13  1  0.43244117  0.94144616  0.68813731  1
  Si  Si14  1  0.68813731  0.56755883  0.05855384  1
  Si  Si15  1  0.06277878  0.06277878  0.06277878  1
  Si  Si16  1  0.43244117  0.05855384  0.31186269  1
  Si  Si17  1  0.18813731  0.55855384  0.06755883  1
  Si  Si18  1  0.81186269  0.44144616  0.06755883  1
  Si  Si19  1  0.93244117  0.18813731  0.44144616  1
  Si  Si20  1  0.06755883  0.18813731  0.55855384  1
  Si  Si21  1  0.44144616  0.06755883  0.81186269  1
  Si  Si22  1  0.44144616  0.93244117  0.18813731  1
  Si  Si23  1  0.05855384  0.31186269  0.43244117  1
  Si  Si24  1  0.56277878  0.56277878  0.56277878  1
  Si  Si25  1  0.93722122  0.06277878  0.93722122  1
  Si  Si26  1  0.06277878  0.93722122  0.93722122  1
  Si  Si27  1  0.93722122  0.93722122  0.06277878  1
  Si  Si28  1  0.56277878  0.43722122  0.43722122  1
  Si  Si29  1  0.43722122  0.43722122  0.56277878  1
  Si  Si30  1  0.43722122  0.56277878  0.43722122  1
  Si  Si31  1  0.31186269  0.43244117  0.05855384  1
  Cs  Cs32  1  0.06774685  0.33849218  0.13994042  1
  Cs  Cs33  1  0.83849218  0.43225315  0.36005958  1
  Cs  Cs34  1  0.56774685  0.63994042  0.83849218  1
  Cs  Cs35  1  0.43225315  0.63994042  0.16150782  1
  Cs  Cs36  1  0.63994042  0.83849218  0.56774685  1
  Cs  Cs37  1  0.36005958  0.16150782  0.56774685  1
  Cs  Cs38  1  0.66150782  0.86005958  0.06774685  1
  Cs  Cs39  1  0.66150782  0.13994042  0.93225315  1
  Cs  Cs40  1  0.33849218  0.86005958  0.93225315  1
  Cs  Cs41  1  0.13994042  0.93225315  0.66150782  1
  Cs  Cs42  1  0.93225315  0.33849218  0.86005958  1
  Cs  Cs43  1  0.93225315  0.66150782  0.13994042  1
  Cs  Cs44  1  0.86005958  0.06774685  0.66150782  1
  Cs  Cs45  1  0.06774685  0.66150782  0.86005958  1
  Cs  Cs46  1  0.86005958  0.93225315  0.33849218  1
  Cs  Cs47  1  0.13994042  0.06774685  0.33849218  1
  Cs  Cs48  1  0.83849218  0.56774685  0.63994042  1
  Cs  Cs49  1  0.36005958  0.83849218  0.43225315  1
  Cs  Cs50  1  0.63994042  0.16150782  0.43225315  1
  Cs  Cs51  1  0.56774685  0.36005958  0.16150782  1
  Cs  Cs52  1  0.43225315  0.36005958  0.83849218  1
  Cs  Cs53  1  0.16150782  0.43225315  0.63994042  1
  Cs  Cs54  1  0.16150782  0.56774685  0.36005958  1
  Cs  Cs55  1  0.33849218  0.13994042  0.06774685  1
  Cs  Cs56  1  0.83495392  0.83495392  0.83495392  1
  Cs  Cs57  1  0.66504608  0.33495392  0.66504608  1
  Cs  Cs58  1  0.33495392  0.66504608  0.66504608  1
  Cs  Cs59  1  0.66504608  0.66504608  0.33495392  1
  Cs  Cs60  1  0.83495392  0.16504608  0.16504608  1
  Cs  Cs61  1  0.16504608  0.16504608  0.83495392  1
  Cs  Cs62  1  0.16504608  0.83495392  0.16504608  1
  Cs  Cs63  1  0.33495392  0.33495392  0.33495392  1
