# generated using pymatgen
data_CoH15N6(ClO)2
_symmetry_space_group_name_H-M   'P 1'
_cell_length_a   7.09317765
_cell_length_b   7.09317765
_cell_length_c   11.17730031
_cell_angle_alpha   85.97711822
_cell_angle_beta   85.97711822
_cell_angle_gamma   79.35463509
_symmetry_Int_Tables_number   1
_chemical_formula_structural   CoH15N6(ClO)2
_chemical_formula_sum   'Co2 H30 N12 Cl4 O4'
_cell_volume   550.38594468
_cell_formula_units_Z   2
loop_
 _symmetry_equiv_pos_site_id
 _symmetry_equiv_pos_as_xyz
  1  'x, y, z'
loop_
 _atom_site_type_symbol
 _atom_site_label
 _atom_site_symmetry_multiplicity
 _atom_site_fract_x
 _atom_site_fract_y
 _atom_site_fract_z
 _atom_site_occupancy
  Co  Co0  1  0.71438733  0.28397984  0.25036420  1
  Co  Co1  1  0.28397984  0.71438733  0.75036420  1
  H  H2  1  0.86582545  0.23944916  0.02893883  1
  H  H3  1  0.75918401  0.13638797  0.47398975  1
  H  H4  1  0.13638797  0.75918401  0.97398975  1
  H  H5  1  0.23944916  0.86582545  0.52893883  1
  H  H6  1  0.03948223  0.41848935  0.28270333  1
  H  H7  1  0.57781497  0.96072549  0.22164900  1
  H  H8  1  0.96072549  0.57781497  0.72164900  1
  H  H9  1  0.41848935  0.03948223  0.78270333  1
  H  H10  1  0.91658059  0.55564296  0.17530909  1
  H  H11  1  0.43919966  0.08988844  0.32626550  1
  H  H12  1  0.08988844  0.43919966  0.82626550  1
  H  H13  1  0.55564296  0.91658059  0.67530909  1
  H  H14  1  0.84556845  0.57729956  0.31793550  1
  H  H15  1  0.42126055  0.15393308  0.18136108  1
  H  H16  1  0.15393308  0.42126055  0.68136108  1
  H  H17  1  0.57729956  0.84556845  0.81793550  1
  H  H18  1  0.72612353  0.45259082  0.03397390  1
  H  H19  1  0.54594720  0.27518397  0.46615791  1
  H  H20  1  0.27518397  0.54594720  0.96615791  1
  H  H21  1  0.45259082  0.72612353  0.53397390  1
  H  H22  1  0.62726224  0.25870078  0.02885888  1
  H  H23  1  0.74046650  0.37414845  0.47106007  1
  H  H24  1  0.37414845  0.74046650  0.97106007  1
  H  H25  1  0.25870078  0.62726224  0.52885888  1
  H  H26  1  0.95429799  0.99032013  0.32847662  1
  H  H27  1  0.99032013  0.95429799  0.82847662  1
  H  H28  1  0.05810523  0.10293777  0.21262607  1
  H  H29  1  0.10293777  0.05810523  0.71262607  1
  H  H30  1  0.90577602  0.96278123  0.18620088  1
  H  H31  1  0.96278123  0.90577602  0.68620088  1
  N  N32  1  0.90493772  0.47887074  0.25663663  1
  N  N33  1  0.51710068  0.09667238  0.24490055  1
  N  N34  1  0.09667238  0.51710068  0.74490055  1
  N  N35  1  0.47887074  0.90493772  0.75663663  1
  N  N36  1  0.93349232  0.05918031  0.24525179  1
  N  N37  1  0.05918031  0.93349232  0.74525179  1
  N  N38  1  0.73573354  0.31093263  0.06378569  1
  N  N39  1  0.68846601  0.26518443  0.43678620  1
  N  N40  1  0.26518443  0.68846601  0.93678620  1
  N  N41  1  0.31093263  0.73573354  0.56378569  1
  N  N42  1  0.49922820  0.50124427  0.25112464  1
  N  N43  1  0.50124427  0.49922820  0.75112464  1
  Cl  Cl44  1  0.21487890  0.20636817  0.48297686  1
  Cl  Cl45  1  0.80891925  0.80379129  0.03098547  1
  Cl  Cl46  1  0.80379129  0.80891925  0.53098547  1
  Cl  Cl47  1  0.20636817  0.21487890  0.98297686  1
  O  O48  1  0.50387402  0.63524492  0.31611584  1
  O  O49  1  0.36505581  0.49908348  0.18656572  1
  O  O50  1  0.49908348  0.36505581  0.68656572  1
  O  O51  1  0.63524492  0.50387402  0.81611584  1
