# generated using pymatgen
data_Hf2V3Ru
_symmetry_space_group_name_H-M   'P 1'
_cell_length_a   5.24238794
_cell_length_b   5.24791840
_cell_length_c   8.25623019
_cell_angle_alpha   90.00000000
_cell_angle_beta   90.00000000
_cell_angle_gamma   59.96509636
_symmetry_Int_Tables_number   1
_chemical_formula_structural   Hf2V3Ru
_chemical_formula_sum   'Hf4 V6 Ru2'
_cell_volume   196.64178131
_cell_formula_units_Z   2
loop_
 _symmetry_equiv_pos_site_id
 _symmetry_equiv_pos_as_xyz
  1  'x, y, z'
loop_
 _atom_site_type_symbol
 _atom_site_label
 _atom_site_symmetry_multiplicity
 _atom_site_fract_x
 _atom_site_fract_y
 _atom_site_fract_z
 _atom_site_occupancy
  Hf  Hf0  1  0.33356122  0.33321939  0.56045823  1
  Hf  Hf1  1  0.66643878  0.66678061  0.43954177  1
  Hf  Hf2  1  0.66643878  0.66678061  0.06045823  1
  Hf  Hf3  1  0.33356122  0.33321939  0.93954177  1
  V  V4  1  0.82931671  0.34142279  0.75000000  1
  V  V5  1  0.34147558  0.82926221  0.75000000  1
  V  V6  1  0.82931671  0.82926049  0.75000000  1
  V  V7  1  0.17068329  0.65857721  0.25000000  1
  V  V8  1  0.65852442  0.17073779  0.25000000  1
  V  V9  1  0.17068329  0.17073951  0.25000000  1
  Ru  Ru10  1  -0.00000000  0.00000000  0.50000000  1
  Ru  Ru11  1  -0.00000000  0.00000000  -0.00000000  1
