# generated using pymatgen
data_ZnAg(PO3)3
_symmetry_space_group_name_H-M   'P 1'
_cell_length_a   10.15163087
_cell_length_b   10.89338838
_cell_length_c   14.17462554
_cell_angle_alpha   90.00000000
_cell_angle_beta   90.00000000
_cell_angle_gamma   90.00000000
_symmetry_Int_Tables_number   1
_chemical_formula_structural   ZnAg(PO3)3
_chemical_formula_sum   'Zn8 Ag8 P24 O72'
_cell_volume   1567.51028880
_cell_formula_units_Z   8
loop_
 _symmetry_equiv_pos_site_id
 _symmetry_equiv_pos_as_xyz
  1  'x, y, z'
loop_
 _atom_site_type_symbol
 _atom_site_label
 _atom_site_symmetry_multiplicity
 _atom_site_fract_x
 _atom_site_fract_y
 _atom_site_fract_z
 _atom_site_occupancy
  O  O0  1  0.25000000  0.53169586  0.00000000  1
  O  O1  1  0.25000000  0.46830414  0.50000000  1
  O  O2  1  0.75000000  0.46830414  0.00000000  1
  O  O3  1  0.75000000  0.53169586  0.50000000  1
  O  O4  1  0.16108802  0.56643722  0.65026018  1
  O  O5  1  0.16108802  0.43356278  0.84973982  1
  O  O6  1  0.33891198  0.56643722  0.34973982  1
  O  O7  1  0.33891198  0.43356278  0.15026018  1
  O  O8  1  0.83891198  0.43356278  0.34973982  1
  O  O9  1  0.83891198  0.56643722  0.15026018  1
  O  O10  1  0.66108802  0.43356278  0.65026018  1
  O  O11  1  0.66108802  0.56643722  0.84973982  1
  O  O12  1  0.37930247  0.55691337  0.84973977  1
  O  O13  1  0.37930247  0.44308663  0.65026023  1
  O  O14  1  0.12069753  0.55691337  0.15026023  1
  O  O15  1  0.12069753  0.44308663  0.34973977  1
  O  O16  1  0.62069753  0.44308663  0.15026023  1
  O  O17  1  0.62069753  0.55691337  0.34973977  1
  O  O18  1  0.87930247  0.44308663  0.84973977  1
  O  O19  1  0.87930247  0.55691337  0.65026023  1
  O  O20  1  0.36226395  0.65102899  0.56656645  1
  O  O21  1  0.36226395  0.34897101  0.93343355  1
  O  O22  1  0.13773605  0.65102899  0.43343355  1
  O  O23  1  0.13773605  0.34897101  0.06656645  1
  O  O24  1  0.63773605  0.34897101  0.43343355  1
  O  O25  1  0.63773605  0.65102899  0.06656645  1
  O  O26  1  0.86226395  0.34897101  0.56656645  1
  O  O27  1  0.97583107  0.31708983  0.20215831  1
  O  O28  1  0.86226395  0.65102899  0.93343355  1
  O  O29  1  0.52310022  0.17665305  0.94542003  1
  O  O30  1  0.97689978  0.82334695  0.44542003  1
  O  O31  1  0.97689978  0.17665305  0.05457997  1
  O  O32  1  0.47689978  0.17665305  0.44542003  1
  O  O33  1  0.47689978  0.82334695  0.05457997  1
  O  O34  1  0.02310022  0.17665305  0.55457997  1
  O  O35  1  0.02310022  0.82334695  0.94542003  1
  O  O36  1  0.02416893  0.68291017  0.79784169  1
  O  O37  1  0.02416893  0.31708983  0.70215831  1
  O  O38  1  0.47583107  0.68291017  0.20215831  1
  O  O39  1  0.47583107  0.31708983  0.29784169  1
  O  O40  1  0.71016061  0.00000000  0.75000000  1
  O  O41  1  0.78983939  0.00000000  0.25000000  1
  O  O42  1  0.28983939  0.00000000  0.25000000  1
  O  O43  1  0.21016061  0.00000000  0.75000000  1
  O  O44  1  0.64130821  0.91816413  0.90646068  1
  O  O45  1  0.64130821  0.08183587  0.59353932  1
  O  O46  1  0.85869179  0.91816413  0.09353932  1
  O  O47  1  0.85869179  0.08183587  0.40646068  1
  O  O48  1  0.35869179  0.08183587  0.09353932  1
  O  O49  1  0.35869179  0.91816413  0.40646068  1
  O  O50  1  0.14130821  0.08183587  0.90646068  1
  O  O51  1  0.14130821  0.91816413  0.59353932  1
  O  O52  1  0.85765897  0.95571647  0.60610802  1
  O  O53  1  0.85765897  0.04428353  0.89389198  1
  O  O54  1  0.64234103  0.95571647  0.39389198  1
  O  O55  1  0.64234103  0.04428353  0.10610802  1
  O  O56  1  0.14234103  0.04428353  0.39389198  1
  O  O57  1  0.14234103  0.95571647  0.10610802  1
  O  O58  1  0.35765897  0.04428353  0.60610802  1
  O  O59  1  0.35765897  0.95571647  0.89389198  1
  O  O60  1  0.83962454  0.83071174  0.82023899  1
  O  O61  1  0.83962454  0.16928826  0.67976101  1
  O  O62  1  0.66037546  0.83071174  0.17976101  1
  O  O63  1  0.66037546  0.16928826  0.32023899  1
  O  O64  1  0.16037546  0.16928826  0.17976101  1
  O  O65  1  0.16037546  0.83071174  0.32023899  1
  O  O66  1  0.33962454  0.16928826  0.82023899  1
  O  O67  1  0.33962454  0.83071174  0.67976101  1
  O  O68  1  0.52416893  0.68291017  0.70215831  1
  O  O69  1  0.52416893  0.31708983  0.79784169  1
  O  O70  1  0.97583107  0.68291017  0.29784169  1
  O  O71  1  0.52310022  0.82334695  0.55457997  1
  P  P72  1  0.28502164  0.52842083  0.60098420  1
  P  P73  1  0.28502164  0.47157917  0.89901580  1
  P  P74  1  0.21497836  0.52842083  0.39901580  1
  P  P75  1  0.21497836  0.47157917  0.10098420  1
  P  P76  1  0.71497836  0.47157917  0.39901580  1
  P  P77  1  0.71497836  0.52842083  0.10098420  1
  P  P78  1  0.78502164  0.47157917  0.60098420  1
  P  P79  1  0.78502164  0.52842083  0.89901580  1
  P  P80  1  0.44898632  0.74836045  0.62604806  1
  P  P81  1  0.44898632  0.25163955  0.87395194  1
  P  P82  1  0.05101368  0.74836045  0.37395194  1
  P  P83  1  0.05101368  0.25163955  0.12604806  1
  P  P84  1  0.55101368  0.25163955  0.37395194  1
  P  P85  1  0.55101368  0.74836045  0.12604806  1
  P  P86  1  0.94898632  0.25163955  0.62604806  1
  P  P87  1  0.94898632  0.74836045  0.87395194  1
  P  P88  1  0.26191470  0.95439055  0.64863579  1
  P  P89  1  0.26191470  0.04560945  0.85136421  1
  P  P90  1  0.23808530  0.95439055  0.35136421  1
  P  P91  1  0.23808530  0.04560945  0.14863579  1
  P  P92  1  0.73808530  0.04560945  0.35136421  1
  P  P93  1  0.73808530  0.95439055  0.14863579  1
  P  P94  1  0.76191470  0.04560945  0.64863579  1
  P  P95  1  0.76191470  0.95439055  0.85136421  1
  Zn  Zn96  1  0.50000000  0.00000000  0.50000000  1
  Zn  Zn97  1  0.50000000  0.00000000  0.00000000  1
  Zn  Zn98  1  0.00000000  0.00000000  0.50000000  1
  Zn  Zn99  1  0.00000000  0.00000000  0.00000000  1
  Zn  Zn100  1  0.03267914  0.50000000  0.75000000  1
  Zn  Zn101  1  0.46732086  0.50000000  0.25000000  1
  Zn  Zn102  1  0.96732086  0.50000000  0.25000000  1
  Zn  Zn103  1  0.53267914  0.50000000  0.75000000  1
  Ag  Ag104  1  0.47824383  0.75196222  0.87636958  1
  Ag  Ag105  1  0.47824383  0.24803778  0.62363042  1
  Ag  Ag106  1  0.02175617  0.75196222  0.12363042  1
  Ag  Ag107  1  0.02175617  0.24803778  0.37636958  1
  Ag  Ag108  1  0.52175617  0.24803778  0.12363042  1
  Ag  Ag109  1  0.52175617  0.75196222  0.37636958  1
  Ag  Ag110  1  0.97824383  0.24803778  0.87636958  1
  Ag  Ag111  1  0.97824383  0.75196222  0.62363042  1
