# generated using pymatgen
data_K6MnSe4
_symmetry_space_group_name_H-M   'P 1'
_cell_length_a   10.31226068
_cell_length_b   10.31226068
_cell_length_c   8.05913917
_cell_angle_alpha   90.00000000
_cell_angle_beta   90.00000000
_cell_angle_gamma   120.00000000
_symmetry_Int_Tables_number   1
_chemical_formula_structural   K6MnSe4
_chemical_formula_sum   'K12 Mn2 Se8'
_cell_volume   742.21042985
_cell_formula_units_Z   2
loop_
 _symmetry_equiv_pos_site_id
 _symmetry_equiv_pos_as_xyz
  1  'x, y, z'
loop_
 _atom_site_type_symbol
 _atom_site_label
 _atom_site_symmetry_multiplicity
 _atom_site_fract_x
 _atom_site_fract_y
 _atom_site_fract_z
 _atom_site_occupancy
  K  K0  1  0.14645284  0.85354716  0.54226055  1
  K  K1  1  0.29290568  0.14645284  0.04226055  1
  K  K2  1  0.85354716  0.70709432  0.04226055  1
  K  K3  1  0.14645284  0.29290568  0.54226055  1
  K  K4  1  0.70709432  0.85354716  0.54226055  1
  K  K5  1  0.85354716  0.14645284  0.04226055  1
  K  K6  1  0.52905191  0.47094809  0.36714311  1
  K  K7  1  0.05810382  0.52905191  0.86714311  1
  K  K8  1  0.47094809  0.94189618  0.86714311  1
  K  K9  1  0.52905191  0.05810382  0.36714311  1
  K  K10  1  0.94189618  0.47094809  0.36714311  1
  K  K11  1  0.47094809  0.52905191  0.86714311  1
  Mn  Mn12  1  0.33333333  0.66666667  0.25272418  1
  Mn  Mn13  1  0.66666667  0.33333333  0.75272418  1
  Se  Se14  1  0.33333333  0.66666667  0.57359736  1
  Se  Se15  1  0.66666667  0.33333333  0.07359736  1
  Se  Se16  1  0.19557424  0.80442576  0.15272250  1
  Se  Se17  1  0.39114849  0.19557424  0.65272250  1
  Se  Se18  1  0.80442576  0.60885151  0.65272250  1
  Se  Se19  1  0.19557424  0.39114849  0.15272250  1
  Se  Se20  1  0.60885151  0.80442576  0.15272250  1
  Se  Se21  1  0.80442576  0.19557424  0.65272250  1
