# generated using pymatgen
data_LiGaSiO4
_symmetry_space_group_name_H-M   'P 1'
_cell_length_a   8.55777982
_cell_length_b   8.55777982
_cell_length_c   8.55777982
_cell_angle_alpha   107.87820932
_cell_angle_beta   107.87820935
_cell_angle_gamma   107.87820934
_symmetry_Int_Tables_number   1
_chemical_formula_structural   LiGaSiO4
_chemical_formula_sum   'Li6 Ga6 Si6 O24'
_cell_volume   508.92850785
_cell_formula_units_Z   6
loop_
 _symmetry_equiv_pos_site_id
 _symmetry_equiv_pos_as_xyz
  1  'x, y, z'
loop_
 _atom_site_type_symbol
 _atom_site_label
 _atom_site_symmetry_multiplicity
 _atom_site_fract_x
 _atom_site_fract_y
 _atom_site_fract_z
 _atom_site_occupancy
  Li  Li0  1  0.21047606  0.43368683  0.60878913  1
  Li  Li1  1  0.72364719  0.12599298  0.89350843  1
  Li  Li2  1  0.12599298  0.89350843  0.72364719  1
  Li  Li3  1  0.89350843  0.72364719  0.12599298  1
  Li  Li4  1  0.43368683  0.60878913  0.21047606  1
  Li  Li5  1  0.60878913  0.21047606  0.43368683  1
  O  O6  1  0.70482198  0.37933677  0.69868947  1
  O  O7  1  0.35724606  0.29715693  0.63044305  1
  O  O8  1  0.63044305  0.35724606  0.29715693  1
  O  O9  1  0.00306276  0.06234874  0.73105109  1
  O  O10  1  0.06234874  0.73105109  0.00306276  1
  O  O11  1  0.73105109  0.00306276  0.06234874  1
  O  O12  1  0.99400217  0.97688908  0.31095376  1
  O  O13  1  0.97688908  0.31095376  0.99400217  1
  O  O14  1  0.31095376  0.99400217  0.97688908  1
  O  O15  1  0.29715693  0.63044305  0.35724606  1
  O  O16  1  0.69868947  0.70482198  0.37933677  1
  O  O17  1  0.37933677  0.69868947  0.70482198  1
  O  O18  1  0.60161789  0.93649978  0.63199658  1
  O  O19  1  0.63199658  0.60161789  0.93649978  1
  O  O20  1  0.93649978  0.63199658  0.60161789  1
  O  O21  1  0.35305112  0.01987205  0.30724170  1
  O  O22  1  0.30724170  0.35305112  0.01987205  1
  O  O23  1  0.01987205  0.30724170  0.35305112  1
  O  O24  1  0.08208605  0.40398168  0.76073412  1
  O  O25  1  0.76073412  0.08208605  0.40398168  1
  O  O26  1  0.40398168  0.76073412  0.08208605  1
  O  O27  1  0.90985107  0.57835104  0.26452682  1
  O  O28  1  0.26452682  0.90985107  0.57835104  1
  O  O29  1  0.57835104  0.26452682  0.90985107  1
  Si  Si30  1  0.28152770  0.87584189  0.09461618  1
  Si  Si31  1  0.87584189  0.09461618  0.28152770  1
  Si  Si32  1  0.09461618  0.28152770  0.87584189  1
  Si  Si33  1  0.56658590  0.38796716  0.79581252  1
  Si  Si34  1  0.38796716  0.79581252  0.56658590  1
  Si  Si35  1  0.79581252  0.56658590  0.38796716  1
  Ga  Ga36  1  0.23781477  0.05309169  0.45773571  1
  Ga  Ga37  1  0.05309169  0.45773571  0.23781477  1
  Ga  Ga38  1  0.45773571  0.23781477  0.05309169  1
  Ga  Ga39  1  0.76940996  0.94464736  0.53463681  1
  Ga  Ga40  1  0.94464736  0.53463681  0.76940996  1
  Ga  Ga41  1  0.53463681  0.76940996  0.94464736  1
