# generated using pymatgen
data_Ba2NbN3
_symmetry_space_group_name_H-M   'P 1'
_cell_length_a   6.25267209
_cell_length_b   6.74455224
_cell_length_c   13.38179698
_cell_angle_alpha   89.39440579
_cell_angle_beta   88.69344198
_cell_angle_gamma   62.38454896
_symmetry_Int_Tables_number   1
_chemical_formula_structural   Ba2NbN3
_chemical_formula_sum   'Ba8 Nb4 N12'
_cell_volume   499.91081984
_cell_formula_units_Z   4
loop_
 _symmetry_equiv_pos_site_id
 _symmetry_equiv_pos_as_xyz
  1  'x, y, z'
loop_
 _atom_site_type_symbol
 _atom_site_label
 _atom_site_symmetry_multiplicity
 _atom_site_fract_x
 _atom_site_fract_y
 _atom_site_fract_z
 _atom_site_occupancy
  N  N0  1  0.31203801  0.82067885  0.95096564  1
  N  N1  1  0.86728314  0.82067885  0.54903436  1
  N  N2  1  0.68796199  0.17932115  0.04903436  1
  N  N3  1  0.13271686  0.17932115  0.45096564  1
  N  N4  1  0.00506222  0.98987556  0.75000000  1
  N  N5  1  0.99493778  0.01012444  0.25000000  1
  N  N6  1  0.56413892  0.87172216  0.75000000  1
  N  N7  1  0.84339446  0.68508641  0.12804084  1
  N  N8  1  0.52848087  0.31491359  0.62804084  1
  N  N9  1  0.15660554  0.31491359  0.87195916  1
  N  N10  1  0.47151913  0.68508641  0.37195916  1
  N  N11  1  0.43586108  0.12827784  0.25000000  1
  Nb  Nb12  1  0.26391201  0.99426857  0.33411128  1
  Nb  Nb13  1  0.73608799  0.00573143  0.66588872  1
  Nb  Nb14  1  0.74181942  0.99426857  0.16588872  1
  Nb  Nb15  1  0.25818058  0.00573143  0.83411128  1
  Ba  Ba16  1  0.44723026  0.60398354  0.14225653  1
  Ba  Ba17  1  0.05121379  0.39601646  0.64225653  1
  Ba  Ba18  1  0.55276974  0.39601646  0.85774347  1
  Ba  Ba19  1  0.94878621  0.60398354  0.35774347  1
  Ba  Ba20  1  0.35400735  0.77367345  0.57721261  1
  Ba  Ba21  1  0.87231920  0.77367345  0.92278739  1
  Ba  Ba22  1  0.64599265  0.22632655  0.42278739  1
  Ba  Ba23  1  0.12768080  0.22632655  0.07721261  1
