# generated using pymatgen
data_SrTlPS4
_symmetry_space_group_name_H-M   'P 1'
_cell_length_a   6.66648437
_cell_length_b   8.80321774
_cell_length_c   12.87678883
_cell_angle_alpha   90.00000000
_cell_angle_beta   90.00000000
_cell_angle_gamma   90.00000000
_symmetry_Int_Tables_number   1
_chemical_formula_structural   SrTlPS4
_chemical_formula_sum   'Sr4 Tl4 P4 S16'
_cell_volume   755.69384111
_cell_formula_units_Z   4
loop_
 _symmetry_equiv_pos_site_id
 _symmetry_equiv_pos_as_xyz
  1  'x, y, z'
loop_
 _atom_site_type_symbol
 _atom_site_label
 _atom_site_symmetry_multiplicity
 _atom_site_fract_x
 _atom_site_fract_y
 _atom_site_fract_z
 _atom_site_occupancy
  P  P0  1  0.75000000  0.12820926  0.64743641  1
  P  P1  1  0.25000000  0.62820926  0.85256359  1
  P  P2  1  0.75000000  0.37179074  0.14743641  1
  P  P3  1  0.25000000  0.87179074  0.35256359  1
  S  S4  1  0.49549041  0.63937973  0.75516193  1
  S  S5  1  0.99549041  0.36062027  0.24483807  1
  S  S6  1  0.50450959  0.13937973  0.74483807  1
  S  S7  1  0.00450959  0.86062027  0.25516193  1
  S  S8  1  0.99549041  0.13937973  0.74483807  1
  S  S9  1  0.50450959  0.36062027  0.24483807  1
  S  S10  1  0.49549041  0.86062027  0.25516193  1
  S  S11  1  0.00450959  0.63937973  0.75516193  1
  S  S12  1  0.25000000  0.68774224  0.44947799  1
  S  S13  1  0.75000000  0.31225776  0.55052201  1
  S  S14  1  0.75000000  0.18774224  0.05052201  1
  S  S15  1  0.25000000  0.81225776  0.94947799  1
  S  S16  1  0.25000000  0.07392352  0.43168285  1
  S  S17  1  0.75000000  0.92607648  0.56831715  1
  S  S18  1  0.75000000  0.57392352  0.06831715  1
  S  S19  1  0.25000000  0.42607648  0.93168285  1
  Sr  Sr20  1  0.25000000  0.60756730  0.13540987  1
  Sr  Sr21  1  0.75000000  0.39243270  0.86459013  1
  Sr  Sr22  1  0.75000000  0.10756730  0.36459013  1
  Sr  Sr23  1  0.25000000  0.89243270  0.63540987  1
  Tl  Tl24  1  0.75000000  0.87875141  0.88882130  1
  Tl  Tl25  1  0.25000000  0.12124859  0.11117870  1
  Tl  Tl26  1  0.25000000  0.37875141  0.61117870  1
  Tl  Tl27  1  0.75000000  0.62124859  0.38882130  1
