# generated using pymatgen
data_Na4(CoO2)7
_symmetry_space_group_name_H-M   'P 1'
_cell_length_a   7.50246685
_cell_length_b   7.50246685
_cell_length_c   11.13554949
_cell_angle_alpha   90.00000000
_cell_angle_beta   90.00000000
_cell_angle_gamma   120.00000003
_symmetry_Int_Tables_number   1
_chemical_formula_structural   Na4(CoO2)7
_chemical_formula_sum   'Na8 Co14 O28'
_cell_volume   542.81326750
_cell_formula_units_Z   2
loop_
 _symmetry_equiv_pos_site_id
 _symmetry_equiv_pos_as_xyz
  1  'x, y, z'
loop_
 _atom_site_type_symbol
 _atom_site_label
 _atom_site_symmetry_multiplicity
 _atom_site_fract_x
 _atom_site_fract_y
 _atom_site_fract_z
 _atom_site_occupancy
  O  O0  1  0.33333333  0.66666667  0.59389907  1
  O  O1  1  0.66666667  0.33333333  0.09389907  1
  O  O2  1  0.66666667  0.33333333  0.40610093  1
  O  O3  1  0.33333333  0.66666667  0.90610093  1
  O  O4  1  0.09625836  0.47690367  0.41595227  1
  O  O5  1  0.61935468  0.09625836  0.91595227  1
  O  O6  1  0.47690367  0.38064532  0.91595227  1
  O  O7  1  0.52309633  0.61935468  0.41595227  1
  O  O8  1  0.38064532  0.90374164  0.41595227  1
  O  O9  1  0.90374164  0.52309633  0.91595227  1
  O  O10  1  0.90374164  0.52309633  0.58404773  1
  O  O11  1  0.38064532  0.90374164  0.08404773  1
  O  O12  1  0.52309633  0.61935468  0.08404773  1
  O  O13  1  0.47690367  0.38064532  0.58404773  1
  O  O14  1  0.61935468  0.09625836  0.58404773  1
  O  O15  1  0.09625836  0.47690367  0.08404773  1
  O  O16  1  0.23837315  0.19283780  0.41108172  1
  O  O17  1  0.04553535  0.23837315  0.91108172  1
  O  O18  1  0.19283780  0.95446465  0.91108172  1
  O  O19  1  0.80716220  0.04553535  0.41108172  1
  O  O20  1  0.95446465  0.76162685  0.41108172  1
  O  O21  1  0.76162685  0.80716220  0.91108172  1
  O  O22  1  0.23837315  0.19283780  0.08891828  1
  O  O23  1  0.04553535  0.23837315  0.58891828  1
  O  O24  1  0.19283780  0.95446465  0.58891828  1
  O  O25  1  0.80716220  0.04553535  0.08891828  1
  O  O26  1  0.95446465  0.76162685  0.08891828  1
  O  O27  1  0.76162685  0.80716220  0.58891828  1
  Na  Na28  1  0.00000000  0.00000000  0.25000000  1
  Na  Na29  1  0.00000000  0.00000000  0.75000000  1
  Na  Na30  1  0.45246758  0.41007505  0.25000000  1
  Na  Na31  1  0.04239253  0.45246758  0.75000000  1
  Na  Na32  1  0.41007505  0.95760747  0.75000000  1
  Na  Na33  1  0.58992495  0.04239253  0.25000000  1
  Na  Na34  1  0.95760747  0.54753242  0.25000000  1
  Na  Na35  1  0.54753242  0.58992495  0.75000000  1
  Co  Co36  1  0.57155306  0.85655572  0.99837679  1
  Co  Co37  1  0.42844694  0.14344428  0.49837679  1
  Co  Co38  1  0.85655572  0.28500266  0.49837679  1
  Co  Co39  1  0.28500266  0.42844694  0.99837679  1
  Co  Co40  1  0.00000000  0.00000000  0.50000000  1
  Co  Co41  1  0.00000000  0.00000000  0.00000000  1
  Co  Co42  1  0.14344428  0.71499734  0.99837679  1
  Co  Co43  1  0.71499734  0.57155306  0.49837679  1
  Co  Co44  1  0.71499734  0.57155306  0.00162321  1
  Co  Co45  1  0.14344428  0.71499734  0.50162321  1
  Co  Co46  1  0.57155306  0.85655572  0.50162321  1
  Co  Co47  1  0.42844694  0.14344428  0.00162321  1
  Co  Co48  1  0.85655572  0.28500266  0.00162321  1
  Co  Co49  1  0.28500266  0.42844694  0.50162321  1
