# generated using pymatgen
data_YVO3
_symmetry_space_group_name_H-M   'P 1'
_cell_length_a   5.34342419
_cell_length_b   5.74969530
_cell_length_c   7.65569179
_cell_angle_alpha   89.99996876
_cell_angle_beta   90.00000000
_cell_angle_gamma   90.00000000
_symmetry_Int_Tables_number   1
_chemical_formula_structural   YVO3
_chemical_formula_sum   'Y4 V4 O12'
_cell_volume   235.20628536
_cell_formula_units_Z   4
loop_
 _symmetry_equiv_pos_site_id
 _symmetry_equiv_pos_as_xyz
  1  'x, y, z'
loop_
 _atom_site_type_symbol
 _atom_site_label
 _atom_site_symmetry_multiplicity
 _atom_site_fract_x
 _atom_site_fract_y
 _atom_site_fract_z
 _atom_site_occupancy
  O  O0  1  0.80512942  0.18883503  0.44113929  1
  O  O1  1  0.30512942  0.31116497  0.55886071  1
  O  O2  1  0.19487058  0.81116497  0.55886071  1
  O  O3  1  0.69487058  0.68883503  0.44113929  1
  O  O4  1  0.19486999  0.81116574  0.94114145  1
  O  O5  1  0.69486999  0.68883426  0.05885855  1
  O  O6  1  0.80513001  0.18883426  0.05885855  1
  O  O7  1  0.30513001  0.31116574  0.94114145  1
  O  O8  1  0.88260503  0.45338495  0.75000001  1
  O  O9  1  0.38260503  0.04661505  0.24999999  1
  O  O10  1  0.11739497  0.54661505  0.24999999  1
  O  O11  1  0.61739497  0.95338495  0.75000001  1
  V  V12  1  0.00000000  0.50000000  0.50000000  1
  V  V13  1  0.50000000  0.00000000  0.50000000  1
  V  V14  1  0.00000000  0.50000000  0.00000000  1
  V  V15  1  0.50000000  0.00000000  0.00000000  1
  Y  Y16  1  0.48012680  0.56978696  0.75000081  1
  Y  Y17  1  0.98012680  0.93021304  0.24999919  1
  Y  Y18  1  0.51987320  0.43021304  0.24999919  1
  Y  Y19  1  0.01987320  0.06978696  0.75000081  1
