# generated using pymatgen
data_YNiO3
_symmetry_space_group_name_H-M   'P 1'
_cell_length_a   5.24150357
_cell_length_b   5.58471255
_cell_length_c   7.50216288
_cell_angle_alpha   90.00000000
_cell_angle_beta   90.09048393
_cell_angle_gamma   90.00000000
_symmetry_Int_Tables_number   1
_chemical_formula_structural   YNiO3
_chemical_formula_sum   'Y4 Ni4 O12'
_cell_volume   219.60521950
_cell_formula_units_Z   4
loop_
 _symmetry_equiv_pos_site_id
 _symmetry_equiv_pos_as_xyz
  1  'x, y, z'
loop_
 _atom_site_type_symbol
 _atom_site_label
 _atom_site_symmetry_multiplicity
 _atom_site_fract_x
 _atom_site_fract_y
 _atom_site_fract_z
 _atom_site_occupancy
  O  O0  1  0.69109288  0.29878186  0.44697753  1
  O  O1  1  0.80890712  0.79878186  0.05302247  1
  O  O2  1  0.30890712  0.70121814  0.55302247  1
  O  O3  1  0.19109288  0.20121814  0.94697753  1
  O  O4  1  0.19948079  0.19238489  0.55091646  1
  O  O5  1  0.30051921  0.69238489  0.94908354  1
  O  O6  1  0.80051921  0.80761511  0.44908354  1
  O  O7  1  0.69948079  0.30761511  0.05091646  1
  O  O8  1  0.10298262  0.46827752  0.24574805  1
  O  O9  1  0.39701738  0.96827752  0.25425195  1
  O  O10  1  0.89701738  0.53172248  0.75425195  1
  O  O11  1  0.60298262  0.03172248  0.74574805  1
  Ni  Ni12  1  0.00000000  0.50000000  0.00000000  1
  Ni  Ni13  1  0.50000000  0.00000000  0.50000000  1
  Ni  Ni14  1  0.00000000  0.50000000  0.50000000  1
  Ni  Ni15  1  0.50000000  0.00000000  0.00000000  1
  Y  Y16  1  0.48036747  0.42618472  0.75047826  1
  Y  Y17  1  0.01963253  0.92618472  0.74952174  1
  Y  Y18  1  0.51963253  0.57381528  0.24952174  1
  Y  Y19  1  0.98036747  0.07381528  0.25047826  1
