# generated using pymatgen
data_Rb2LiVO4
_symmetry_space_group_name_H-M   'P 1'
_cell_length_a   5.97999323
_cell_length_b   6.69720638
_cell_length_c   8.00759965
_cell_angle_alpha   90.00000000
_cell_angle_beta   90.00000000
_cell_angle_gamma   116.51642229
_symmetry_Int_Tables_number   1
_chemical_formula_structural   Rb2LiVO4
_chemical_formula_sum   'Rb4 Li2 V2 O8'
_cell_volume   286.96294771
_cell_formula_units_Z   2
loop_
 _symmetry_equiv_pos_site_id
 _symmetry_equiv_pos_as_xyz
  1  'x, y, z'
loop_
 _atom_site_type_symbol
 _atom_site_label
 _atom_site_symmetry_multiplicity
 _atom_site_fract_x
 _atom_site_fract_y
 _atom_site_fract_z
 _atom_site_occupancy
  Li  Li0  1  0.79915209  0.59830418  0.82885945  1
  Li  Li1  1  0.20084791  0.40169582  0.32885945  1
  O  O2  1  0.40854443  0.29388824  0.21730222  1
  O  O3  1  0.59145557  0.70611176  0.71730222  1
  O  O4  1  0.63525016  0.27050032  0.90919838  1
  O  O5  1  0.36474984  0.72949968  0.40919838  1
  O  O6  1  0.88534381  0.29388824  0.21730222  1
  O  O7  1  0.11465619  0.70611176  0.71730222  1
  O  O8  1  0.16399730  0.32799459  0.57771961  1
  O  O9  1  0.83600270  0.67200541  0.07771961  1
  V  V10  1  0.30873035  0.61746070  0.61069744  1
  V  V11  1  0.69126965  0.38253930  0.11069744  1
  Rb  Rb12  1  0.60445943  0.20891885  0.54914086  1
  Rb  Rb13  1  0.39554057  0.79108115  0.04914086  1
  Rb  Rb14  1  0.93624295  0.87248589  0.41107982  1
  Rb  Rb15  1  0.06375705  0.12751411  0.91107982  1
