# generated using pymatgen
data_LiVO3
_symmetry_space_group_name_H-M   'P 1'
_cell_length_a   5.79759838
_cell_length_b   7.64851135
_cell_length_c   7.64851183
_cell_angle_alpha   83.53101265
_cell_angle_beta   68.56626216
_cell_angle_gamma   68.56626458
_symmetry_Int_Tables_number   1
_chemical_formula_structural   LiVO3
_chemical_formula_sum   'Li4 V4 O12'
_cell_volume   293.78309395
_cell_formula_units_Z   4
loop_
 _symmetry_equiv_pos_site_id
 _symmetry_equiv_pos_as_xyz
  1  'x, y, z'
loop_
 _atom_site_type_symbol
 _atom_site_label
 _atom_site_symmetry_multiplicity
 _atom_site_fract_x
 _atom_site_fract_y
 _atom_site_fract_z
 _atom_site_occupancy
  Li  Li0  1  0.75833671  0.30546244  0.67601448  1
  Li  Li1  1  0.25833671  0.67601448  0.30546244  1
  Li  Li2  1  0.75819661  0.68822974  0.29335738  1
  Li  Li3  1  0.25819661  0.29335738  0.68822974  1
  V  V4  1  0.72139633  0.87327090  0.68473493  1
  V  V5  1  0.29269300  0.10817668  0.29646261  1
  V  V6  1  0.79269300  0.29646261  0.10817668  1
  V  V7  1  0.22139633  0.68473493  0.87327090  1
  O  O8  1  0.88299665  0.34995298  0.87857486  1
  O  O9  1  0.63433693  0.10296676  0.63145345  1
  O  O10  1  0.13433693  0.63145345  0.10296676  1
  O  O11  1  0.13105711  0.24588728  0.49347513  1
  O  O12  1  0.08467104  0.15414639  0.15846159  1
  O  O13  1  0.63105711  0.49347513  0.24588728  1
  O  O14  1  0.38299665  0.87857486  0.34995298  1
  O  O15  1  0.38465536  0.48782800  0.73567570  1
  O  O16  1  0.42666025  0.82532521  0.82454349  1
  O  O17  1  0.88465536  0.73567570  0.48782800  1
  O  O18  1  0.58467104  0.15846159  0.15414639  1
  O  O19  1  0.92666025  0.82454349  0.82532521  1
