# generated using pymatgen
data_KY(MoO4)2
_symmetry_space_group_name_H-M   'P 1'
_cell_length_a   5.14741412
_cell_length_b   8.10279251
_cell_length_c   18.94080886
_cell_angle_alpha   90.00000000
_cell_angle_beta   90.00000000
_cell_angle_gamma   90.00000000
_symmetry_Int_Tables_number   1
_chemical_formula_structural   KY(MoO4)2
_chemical_formula_sum   'K4 Y4 Mo8 O32'
_cell_volume   789.99137354
_cell_formula_units_Z   4
loop_
 _symmetry_equiv_pos_site_id
 _symmetry_equiv_pos_as_xyz
  1  'x, y, z'
loop_
 _atom_site_type_symbol
 _atom_site_label
 _atom_site_symmetry_multiplicity
 _atom_site_fract_x
 _atom_site_fract_y
 _atom_site_fract_z
 _atom_site_occupancy
  O  O0  1  0.59934136  0.51259823  0.18646080  1
  O  O1  1  0.09934136  0.48740177  0.31353920  1
  O  O2  1  0.90065864  0.01259823  0.31353920  1
  O  O3  1  0.40065864  0.98740177  0.18646080  1
  O  O4  1  0.40065864  0.48740177  0.81353920  1
  O  O5  1  0.90065864  0.51259823  0.68646080  1
  O  O6  1  0.09934136  0.98740177  0.68646080  1
  O  O7  1  0.59934136  0.01259823  0.81353920  1
  O  O8  1  0.75207420  0.49748150  0.03550786  1
  O  O9  1  0.25207420  0.50251850  0.46449214  1
  O  O10  1  0.74792580  0.99748150  0.46449214  1
  O  O11  1  0.24792580  0.00251850  0.03550786  1
  O  O12  1  0.24792580  0.50251850  0.96449214  1
  O  O13  1  0.74792580  0.49748150  0.53550786  1
  O  O14  1  0.25207420  0.00251850  0.53550786  1
  O  O15  1  0.75207420  0.99748150  0.96449214  1
  O  O16  1  0.26637726  0.83156800  0.90488691  1
  O  O17  1  0.76637726  0.16843200  0.59511309  1
  O  O18  1  0.23362274  0.33156800  0.59511309  1
  O  O19  1  0.73362274  0.66843200  0.90488691  1
  O  O20  1  0.73362274  0.16843200  0.09511309  1
  O  O21  1  0.23362274  0.83156800  0.40488691  1
  O  O22  1  0.76637726  0.66843200  0.40488691  1
  O  O23  1  0.26637726  0.33156800  0.09511309  1
  O  O24  1  0.25840093  0.18279519  0.90786482  1
  O  O25  1  0.75840093  0.81720481  0.59213518  1
  O  O26  1  0.24159907  0.68279519  0.59213518  1
  O  O27  1  0.74159907  0.31720481  0.90786482  1
  O  O28  1  0.74159907  0.81720481  0.09213518  1
  O  O29  1  0.24159907  0.18279519  0.40786482  1
  O  O30  1  0.75840093  0.31720481  0.40786482  1
  O  O31  1  0.25840093  0.68279519  0.09213518  1
  K  K32  1  0.00000000  0.75000000  0.22418916  1
  K  K33  1  0.50000000  0.25000000  0.27581084  1
  K  K34  1  0.00000000  0.25000000  0.77581084  1
  K  K35  1  0.50000000  0.75000000  0.72418916  1
  Y  Y36  1  0.50000000  0.75000000  0.49666181  1
  Y  Y37  1  0.00000000  0.25000000  0.00333819  1
  Y  Y38  1  0.50000000  0.25000000  0.50333819  1
  Y  Y39  1  0.00000000  0.75000000  0.99666181  1
  Mo  Mo40  1  0.47750803  0.50786372  0.09995207  1
  Mo  Mo41  1  0.97750803  0.49213628  0.40004793  1
  Mo  Mo42  1  0.02249197  0.00786372  0.40004793  1
  Mo  Mo43  1  0.52249197  0.99213628  0.09995207  1
  Mo  Mo44  1  0.52249197  0.49213628  0.90004793  1
  Mo  Mo45  1  0.02249197  0.50786372  0.59995207  1
  Mo  Mo46  1  0.97750803  0.99213628  0.59995207  1
  Mo  Mo47  1  0.47750803  0.00786372  0.90004793  1
