# generated using pymatgen
data_Ce4SnO10
_symmetry_space_group_name_H-M   'P 1'
_cell_length_a   3.81445633
_cell_length_b   5.41828762
_cell_length_c   10.15541105
_cell_angle_alpha   74.52793590
_cell_angle_beta   79.17533644
_cell_angle_gamma   90.00000000
_symmetry_Int_Tables_number   1
_chemical_formula_structural   Ce4SnO10
_chemical_formula_sum   'Ce4 Sn1 O10'
_cell_volume   198.40612863
_cell_formula_units_Z   1
loop_
 _symmetry_equiv_pos_site_id
 _symmetry_equiv_pos_as_xyz
  1  'x, y, z'
loop_
 _atom_site_type_symbol
 _atom_site_label
 _atom_site_symmetry_multiplicity
 _atom_site_fract_x
 _atom_site_fract_y
 _atom_site_fract_z
 _atom_site_occupancy
  Ce  Ce0  1  0.40217607  0.40217607  0.19564786  1
  Ce  Ce1  1  0.80133655  0.80133655  0.39732690  1
  Ce  Ce2  1  0.19866345  0.19866345  0.60267310  1
  Ce  Ce3  1  0.59782393  0.59782393  0.80435214  1
  Sn  Sn4  1  -0.00000000  0.00000000  -0.00000000  1
  O  O5  1  0.69910911  0.45055190  0.60178178  1
  O  O6  1  0.09500891  0.85152623  0.80998219  1
  O  O7  1  0.50000000  0.23472209  -0.00000000  1
  O  O8  1  0.90499109  0.66150842  0.19001781  1
  O  O9  1  0.30089089  0.05233368  0.39821822  1
  O  O10  1  0.69910911  0.94766632  0.60178178  1
  O  O11  1  0.09500891  0.33849158  0.80998219  1
  O  O12  1  0.50000000  0.76527791  -0.00000000  1
  O  O13  1  0.90499109  0.14847377  0.19001781  1
  O  O14  1  0.30089089  0.54944810  0.39821822  1
