# generated using pymatgen
data_CeGaPt4
_symmetry_space_group_name_H-M   'P 1'
_cell_length_a   4.27748906
_cell_length_b   5.50505588
_cell_length_c   5.50572933
_cell_angle_alpha   119.99451845
_cell_angle_beta   90.00000000
_cell_angle_gamma   90.00000000
_symmetry_Int_Tables_number   1
_chemical_formula_structural   CeGaPt4
_chemical_formula_sum   'Ce1 Ga1 Pt4'
_cell_volume   112.28457880
_cell_formula_units_Z   1
loop_
 _symmetry_equiv_pos_site_id
 _symmetry_equiv_pos_as_xyz
  1  'x, y, z'
loop_
 _atom_site_type_symbol
 _atom_site_label
 _atom_site_symmetry_multiplicity
 _atom_site_fract_x
 _atom_site_fract_y
 _atom_site_fract_z
 _atom_site_occupancy
  Ce  Ce0  1  -0.00000000  0.00000533  0.00004507  1
  Ga  Ga1  1  0.00000000  0.33326081  0.66661979  1
  Pt  Pt2  1  -0.00000000  0.66663998  0.33331003  1
  Pt  Pt3  1  0.50000000  0.49899162  0.99798516  1
  Pt  Pt4  1  0.50000000  0.49900151  0.50101635  1
  Pt  Pt5  1  0.50000000  0.00200075  0.50102360  1
