# generated using pymatgen
data_CaMgNiH4
_symmetry_space_group_name_H-M   'P 1'
_cell_length_a   6.72144082
_cell_length_b   6.72144082
_cell_length_c   6.72144082
_cell_angle_alpha   90.00000000
_cell_angle_beta   90.00000000
_cell_angle_gamma   90.00000000
_symmetry_Int_Tables_number   1
_chemical_formula_structural   CaMgNiH4
_chemical_formula_sum   'Ca4 Mg4 Ni4 H16'
_cell_volume   303.65968523
_cell_formula_units_Z   4
loop_
 _symmetry_equiv_pos_site_id
 _symmetry_equiv_pos_as_xyz
  1  'x, y, z'
loop_
 _atom_site_type_symbol
 _atom_site_label
 _atom_site_symmetry_multiplicity
 _atom_site_fract_x
 _atom_site_fract_y
 _atom_site_fract_z
 _atom_site_occupancy
  H  H0  1  0.44986803  0.43603168  0.73792063  1
  H  H1  1  0.94986803  0.06396832  0.26207937  1
  H  H2  1  0.55013197  0.93603168  0.76207937  1
  H  H3  1  0.06396832  0.26207937  0.94986803  1
  H  H4  1  0.76207937  0.55013197  0.93603168  1
  H  H5  1  0.26207937  0.94986803  0.06396832  1
  H  H6  1  0.43603168  0.73792063  0.44986803  1
  H  H7  1  0.73792063  0.44986803  0.43603168  1
  H  H8  1  0.93603168  0.76207937  0.55013197  1
  H  H9  1  0.56396832  0.23792063  0.05013197  1
  H  H10  1  0.23792063  0.05013197  0.56396832  1
  H  H11  1  0.05013197  0.56396832  0.23792063  1
  H  H12  1  0.91030443  0.91030443  0.91030443  1
  H  H13  1  0.58969557  0.08969557  0.41030443  1
  H  H14  1  0.41030443  0.58969557  0.08969557  1
  H  H15  1  0.08969557  0.41030443  0.58969557  1
  Mg  Mg16  1  0.33797497  0.16202503  0.83797497  1
  Mg  Mg17  1  0.16202503  0.83797497  0.33797497  1
  Mg  Mg18  1  0.83797497  0.33797497  0.16202503  1
  Mg  Mg19  1  0.66202503  0.66202503  0.66202503  1
  Ca  Ca20  1  0.67346962  0.82653038  0.17346962  1
  Ca  Ca21  1  0.82653038  0.17346962  0.67346962  1
  Ca  Ca22  1  0.17346962  0.67346962  0.82653038  1
  Ca  Ca23  1  0.32653038  0.32653038  0.32653038  1
  Ni  Ni24  1  0.95280896  0.54719104  0.45280896  1
  Ni  Ni25  1  0.54719104  0.45280896  0.95280896  1
  Ni  Ni26  1  0.45280896  0.95280896  0.54719104  1
  Ni  Ni27  1  0.04719104  0.04719104  0.04719104  1
