# generated using pymatgen
data_Th4H15
_symmetry_space_group_name_H-M   'P 1'
_cell_length_a   7.90283487
_cell_length_b   7.90283487
_cell_length_c   7.90283487
_cell_angle_alpha   109.47122064
_cell_angle_beta   109.47122063
_cell_angle_gamma   109.47122061
_symmetry_Int_Tables_number   1
_chemical_formula_structural   Th4H15
_chemical_formula_sum   'Th8 H30'
_cell_volume   379.95033479
_cell_formula_units_Z   2
loop_
 _symmetry_equiv_pos_site_id
 _symmetry_equiv_pos_as_xyz
  1  'x, y, z'
loop_
 _atom_site_type_symbol
 _atom_site_label
 _atom_site_symmetry_multiplicity
 _atom_site_fract_x
 _atom_site_fract_y
 _atom_site_fract_z
 _atom_site_occupancy
  H  H0  1  0.37364061  0.65303671  0.96967667  1
  H  H1  1  0.84696329  0.22060390  0.31663996  1
  H  H2  1  0.53032333  0.18336004  0.40396394  1
  H  H3  1  0.12635939  0.09603606  0.27939610  1
  H  H4  1  0.09603606  0.27939610  0.12635939  1
  H  H5  1  0.27939610  0.12635939  0.09603606  1
  H  H6  1  0.87364061  0.46967667  0.15303671  1
  H  H7  1  0.81663996  0.72060390  0.34696329  1
  H  H8  1  0.25000000  0.62500000  0.37500000  1
  H  H9  1  0.37500000  0.25000000  0.62500000  1
  H  H10  1  0.12500000  0.75000000  0.87500000  1
  H  H11  1  0.87500000  0.12500000  0.75000000  1
  H  H12  1  0.62500000  0.37500000  0.25000000  1
  H  H13  1  0.75000000  0.87500000  0.12500000  1
  H  H14  1  0.62635939  0.77939610  0.59603606  1
  H  H15  1  0.22060390  0.31663996  0.84696329  1
  H  H16  1  0.96967667  0.37364061  0.65303671  1
  H  H17  1  0.65303671  0.96967667  0.37364061  1
  H  H18  1  0.40396394  0.53032333  0.18336004  1
  H  H19  1  0.18336004  0.40396394  0.53032333  1
  H  H20  1  0.31663996  0.84696329  0.22060390  1
  H  H21  1  0.03032333  0.90396394  0.68336004  1
  H  H22  1  0.34696329  0.81663996  0.72060390  1
  H  H23  1  0.46967667  0.15303671  0.87364061  1
  H  H24  1  0.90396394  0.68336004  0.03032333  1
  H  H25  1  0.72060390  0.34696329  0.81663996  1
  H  H26  1  0.15303671  0.87364061  0.46967667  1
  H  H27  1  0.59603606  0.62635939  0.77939610  1
  H  H28  1  0.77939610  0.59603606  0.62635939  1
  H  H29  1  0.68336004  0.03032333  0.90396394  1
  Th  Th30  1  0.91583616  0.91583616  0.91583616  1
  Th  Th31  1  0.08416384  0.50000000  0.00000000  1
  Th  Th32  1  0.50000000  0.00000000  0.08416384  1
  Th  Th33  1  0.00000000  0.08416384  0.50000000  1
  Th  Th34  1  0.50000000  0.00000000  0.58416384  1
  Th  Th35  1  0.00000000  0.58416384  0.50000000  1
  Th  Th36  1  0.58416384  0.50000000  0.00000000  1
  Th  Th37  1  0.41583616  0.41583616  0.41583616  1
