# generated using pymatgen
data_Ti3(BiO3)4
_symmetry_space_group_name_H-M   'P 1'
_cell_length_a   5.47042459
_cell_length_b   5.53592642
_cell_length_c   16.93558584
_cell_angle_alpha   99.40666077
_cell_angle_beta   90.00000000
_cell_angle_gamma   90.00000000
_symmetry_Int_Tables_number   1
_chemical_formula_structural   Ti3(BiO3)4
_chemical_formula_sum   'Ti6 Bi8 O24'
_cell_volume   505.97850174
_cell_formula_units_Z   2
loop_
 _symmetry_equiv_pos_site_id
 _symmetry_equiv_pos_as_xyz
  1  'x, y, z'
loop_
 _atom_site_type_symbol
 _atom_site_label
 _atom_site_symmetry_multiplicity
 _atom_site_fract_x
 _atom_site_fract_y
 _atom_site_fract_z
 _atom_site_occupancy
  O  O0  1  0.70343746  0.76480829  0.24780581  1
  O  O1  1  0.29656254  0.51700248  0.75219419  1
  O  O2  1  0.79656254  0.26480829  0.24780581  1
  O  O3  1  0.20343746  0.01700248  0.75219419  1
  O  O4  1  0.22327476  0.81619101  0.21829375  1
  O  O5  1  0.77672524  0.59789725  0.78170625  1
  O  O6  1  0.27672524  0.31619101  0.21829375  1
  O  O7  1  0.72327476  0.09789725  0.78170625  1
  O  O8  1  0.43578445  0.12414781  0.35859587  1
  O  O9  1  0.56421555  0.76555194  0.64140413  1
  O  O10  1  0.06421555  0.62414781  0.35859587  1
  O  O11  1  0.93578445  0.26555194  0.64140413  1
  O  O12  1  0.57650593  0.96650491  0.11585774  1
  O  O13  1  0.42349407  0.85064716  0.88414226  1
  O  O14  1  0.75290051  0.16492715  0.97959323  1
  O  O15  1  0.24709949  0.18533392  0.02040677  1
  O  O16  1  0.74709949  0.66492715  0.97959323  1
  O  O17  1  0.25290051  0.68533392  0.02040677  1
  O  O18  1  0.75887429  0.50647360  0.49840649  1
  O  O19  1  0.24112571  0.00806711  0.50159351  1
  O  O20  1  0.74112571  0.00647360  0.49840649  1
  O  O21  1  0.25887429  0.50806711  0.50159351  1
  O  O22  1  0.07650593  0.35064716  0.88414226  1
  O  O23  1  0.92349407  0.46650491  0.11585774  1
  Ti  Ti24  1  0.50336315  0.08151361  0.25441684  1
  Ti  Ti25  1  0.49663685  0.82709677  0.74558316  1
  Ti  Ti26  1  0.99663685  0.58151361  0.25441684  1
  Ti  Ti27  1  0.00336315  0.32709677  0.74558316  1
  Ti  Ti28  1  0.50000000  0.96111500  0.00000000  1
  Ti  Ti29  1  0.00000000  0.46111500  0.00000000  1
  Bi  Bi30  1  0.02519312  0.24280478  0.42298521  1
  Bi  Bi31  1  0.97480688  0.81981956  0.57701479  1
  Bi  Bi32  1  0.47480688  0.74280478  0.42298521  1
  Bi  Bi33  1  0.52519312  0.31981956  0.57701479  1
  Bi  Bi34  1  0.00304816  0.06911944  0.13194124  1
  Bi  Bi35  1  0.99695184  0.93717821  0.86805876  1
  Bi  Bi36  1  0.49695184  0.56911944  0.13194124  1
  Bi  Bi37  1  0.50304816  0.43717821  0.86805876  1
