# generated using pymatgen
data_Ba3In2F12
_symmetry_space_group_name_H-M   'P 1'
_cell_length_a   5.72380232
_cell_length_b   9.73056016
_cell_length_c   9.73056016
_cell_angle_alpha   90.00000000
_cell_angle_beta   90.00000000
_cell_angle_gamma   90.00000000
_symmetry_Int_Tables_number   1
_chemical_formula_structural   Ba3In2F12
_chemical_formula_sum   'Ba6 In4 F24'
_cell_volume   541.95135999
_cell_formula_units_Z   2
loop_
 _symmetry_equiv_pos_site_id
 _symmetry_equiv_pos_as_xyz
  1  'x, y, z'
loop_
 _atom_site_type_symbol
 _atom_site_label
 _atom_site_symmetry_multiplicity
 _atom_site_fract_x
 _atom_site_fract_y
 _atom_site_fract_z
 _atom_site_occupancy
  F  F0  1  0.00000000  0.79175991  0.29175991  1
  F  F1  1  0.00000000  0.70824009  0.79175991  1
  F  F2  1  0.00000000  0.29175991  0.20824009  1
  F  F3  1  0.00000000  0.20824009  0.70824009  1
  F  F4  1  0.25740390  0.72635685  0.55538166  1
  F  F5  1  0.25740390  0.27364315  0.44461834  1
  F  F6  1  0.25740390  0.55538166  0.27364315  1
  F  F7  1  0.25740390  0.44461834  0.72635685  1
  F  F8  1  0.74259610  0.05538166  0.22635685  1
  F  F9  1  0.74259610  0.77364315  0.05538166  1
  F  F10  1  0.77816262  0.00000000  0.50000000  1
  F  F11  1  0.77816262  0.50000000  0.00000000  1
  F  F12  1  0.22183738  0.50000000  0.00000000  1
  F  F13  1  0.22183738  0.00000000  0.50000000  1
  F  F14  1  0.25740390  0.05538166  0.22635685  1
  F  F15  1  0.25740390  0.77364315  0.05538166  1
  F  F16  1  0.25740390  0.22635685  0.94461834  1
  F  F17  1  0.25740390  0.94461834  0.77364315  1
  F  F18  1  0.74259610  0.55538166  0.27364315  1
  F  F19  1  0.74259610  0.44461834  0.72635685  1
  F  F20  1  0.74259610  0.72635685  0.55538166  1
  F  F21  1  0.74259610  0.27364315  0.44461834  1
  F  F22  1  0.74259610  0.94461834  0.77364315  1
  F  F23  1  0.74259610  0.22635685  0.94461834  1
  In  In24  1  0.00000000  0.63313535  0.13313535  1
  In  In25  1  0.00000000  0.86686465  0.63313535  1
  In  In26  1  0.00000000  0.13313535  0.36686465  1
  In  In27  1  0.00000000  0.36686465  0.86686465  1
  Ba  Ba28  1  0.00000000  0.50000000  0.50000000  1
  Ba  Ba29  1  0.00000000  0.00000000  0.00000000  1
  Ba  Ba30  1  0.50000000  0.82054745  0.32054745  1
  Ba  Ba31  1  0.50000000  0.67945255  0.82054745  1
  Ba  Ba32  1  0.50000000  0.32054745  0.17945255  1
  Ba  Ba33  1  0.50000000  0.17945255  0.67945255  1
