# generated using pymatgen
data_CaV4(AgO6)2
_symmetry_space_group_name_H-M   'P 1'
_cell_length_a   5.08292164
_cell_length_b   10.52054250
_cell_length_c   10.52054250
_cell_angle_alpha   90.00000000
_cell_angle_beta   90.00000000
_cell_angle_gamma   90.00000000
_symmetry_Int_Tables_number   1
_chemical_formula_structural   CaV4(AgO6)2
_chemical_formula_sum   'Ca2 V8 Ag4 O24'
_cell_volume   562.58699005
_cell_formula_units_Z   2
loop_
 _symmetry_equiv_pos_site_id
 _symmetry_equiv_pos_as_xyz
  1  'x, y, z'
loop_
 _atom_site_type_symbol
 _atom_site_label
 _atom_site_symmetry_multiplicity
 _atom_site_fract_x
 _atom_site_fract_y
 _atom_site_fract_z
 _atom_site_occupancy
  O  O0  1  0.24158912  0.56091795  0.68165384  1
  O  O1  1  0.24158912  0.93908205  0.81834616  1
  O  O2  1  0.24158912  0.68165384  0.93908205  1
  O  O3  1  0.24158912  0.81834616  0.56091795  1
  O  O4  1  0.75841088  0.68165384  0.56091795  1
  O  O5  1  0.75841088  0.93908205  0.68165384  1
  O  O6  1  0.75841088  0.56091795  0.81834616  1
  O  O7  1  0.75841088  0.81834616  0.93908205  1
  O  O8  1  0.75841088  0.43908205  0.31834616  1
  O  O9  1  0.75841088  0.06091795  0.18165384  1
  O  O10  1  0.75841088  0.31834616  0.06091795  1
  O  O11  1  0.75841088  0.18165384  0.43908205  1
  O  O12  1  0.24158912  0.31834616  0.43908205  1
  O  O13  1  0.24158912  0.06091795  0.31834616  1
  O  O14  1  0.14471404  0.62944438  0.37055562  1
  O  O15  1  0.14471404  0.12944438  0.62944438  1
  O  O16  1  0.14471404  0.37055562  0.87055562  1
  O  O17  1  0.14471404  0.87055562  0.12944438  1
  O  O18  1  0.85528596  0.62944438  0.12944438  1
  O  O19  1  0.85528596  0.87055562  0.37055562  1
  O  O20  1  0.85528596  0.37055562  0.62944438  1
  O  O21  1  0.85528596  0.12944438  0.87055562  1
  O  O22  1  0.24158912  0.18165384  0.06091795  1
  O  O23  1  0.24158912  0.43908205  0.18165384  1
  Ca  Ca24  1  0.50000000  0.75000000  0.75000000  1
  Ca  Ca25  1  0.50000000  0.25000000  0.25000000  1
  V  V26  1  0.00000000  0.75000000  0.47369494  1
  V  V27  1  0.00000000  0.47369494  0.75000000  1
  V  V28  1  0.00000000  0.97369494  0.25000000  1
  V  V29  1  0.00000000  0.25000000  0.97369494  1
  V  V30  1  0.00000000  0.25000000  0.52630506  1
  V  V31  1  0.00000000  0.52630506  0.25000000  1
  V  V32  1  0.00000000  0.02630506  0.75000000  1
  V  V33  1  0.00000000  0.75000000  0.02630506  1
  Ag  Ag34  1  0.50000000  0.50000000  0.50000000  1
  Ag  Ag35  1  0.50000000  0.00000000  0.50000000  1
  Ag  Ag36  1  0.50000000  0.50000000  0.00000000  1
  Ag  Ag37  1  0.50000000  0.00000000  0.00000000  1
