# generated using pymatgen
data_CaMn2V4CuO12
_symmetry_space_group_name_H-M   'P 1'
_cell_length_a   6.46279004
_cell_length_b   6.46279004
_cell_length_c   6.46279004
_cell_angle_alpha   71.21279850
_cell_angle_beta   69.73600398
_cell_angle_gamma   109.36589024
_symmetry_Int_Tables_number   1
_chemical_formula_structural   CaMn2V4CuO12
_chemical_formula_sum   'Ca1 Mn2 V4 Cu1 O12'
_cell_volume   207.76140424
_cell_formula_units_Z   1
loop_
 _symmetry_equiv_pos_site_id
 _symmetry_equiv_pos_as_xyz
  1  'x, y, z'
loop_
 _atom_site_type_symbol
 _atom_site_label
 _atom_site_symmetry_multiplicity
 _atom_site_fract_x
 _atom_site_fract_y
 _atom_site_fract_z
 _atom_site_occupancy
  Ca  Ca0  1  -0.00000000  0.00000000  -0.00000000  1
  Mn  Mn1  1  0.50000000  0.50000000  -0.00000000  1
  Mn  Mn2  1  -0.00000000  0.50000000  0.50000000  1
  V  V3  1  -0.00000000  0.50000000  -0.00000000  1
  V  V4  1  0.50000000  0.50000000  0.50000000  1
  V  V5  1  0.50000000  0.00000000  -0.00000000  1
  V  V6  1  -0.00000000  0.00000000  0.50000000  1
  Cu  Cu7  1  0.50000000  0.00000000  0.50000000  1
  O  O8  1  0.81791975  0.52461230  0.29330745  1
  O  O9  1  0.18208025  0.47538770  0.70669255  1
  O  O10  1  0.81791975  0.11122720  0.70669255  1
  O  O11  1  0.18208025  0.88877280  0.29330745  1
  O  O12  1  0.69237296  0.18886488  0.11876216  1
  O  O13  1  0.30762704  0.81113512  0.88123784  1
  O  O14  1  0.30762704  0.18886488  0.50350809  1
  O  O15  1  0.69237296  0.81113512  0.49649191  1
  O  O16  1  0.49364401  0.30387126  0.81022724  1
  O  O17  1  0.50635599  0.69612874  0.18977276  1
  O  O18  1  0.88590150  0.69612874  0.81022724  1
  O  O19  1  0.11409850  0.30387126  0.18977276  1
