# generated using pymatgen
data_Ho(NiP)2
_symmetry_space_group_name_H-M   'P 1'
_cell_length_a   3.86284084
_cell_length_b   3.86284085
_cell_length_c   5.42005860
_cell_angle_alpha   110.87600796
_cell_angle_beta   110.87600801
_cell_angle_gamma   89.99999996
_symmetry_Int_Tables_number   1
_chemical_formula_structural   Ho(NiP)2
_chemical_formula_sum   'Ho1 Ni2 P2'
_cell_volume   69.85490507
_cell_formula_units_Z   1
loop_
 _symmetry_equiv_pos_site_id
 _symmetry_equiv_pos_as_xyz
  1  'x, y, z'
loop_
 _atom_site_type_symbol
 _atom_site_label
 _atom_site_symmetry_multiplicity
 _atom_site_fract_x
 _atom_site_fract_y
 _atom_site_fract_z
 _atom_site_occupancy
  P  P0  1  0.62248119  0.62248119  0.24496239  1
  P  P1  1  0.37751881  0.37751881  0.75503761  1
  Ni  Ni2  1  0.75000000  0.25000000  0.50000000  1
  Ni  Ni3  1  0.25000000  0.75000000  0.50000000  1
  Ho  Ho4  1  0.00000000  0.00000000  0.00000000  1
