# generated using pymatgen
data_Sr6Mg23
_symmetry_space_group_name_H-M   'P 1'
_cell_length_a   10.55061456
_cell_length_b   10.55061456
_cell_length_c   10.55061455
_cell_angle_alpha   59.99999999
_cell_angle_beta   59.99999999
_cell_angle_gamma   59.99999998
_symmetry_Int_Tables_number   1
_chemical_formula_structural   Sr6Mg23
_chemical_formula_sum   'Sr6 Mg23'
_cell_volume   830.45914848
_cell_formula_units_Z   1
loop_
 _symmetry_equiv_pos_site_id
 _symmetry_equiv_pos_as_xyz
  1  'x, y, z'
loop_
 _atom_site_type_symbol
 _atom_site_label
 _atom_site_symmetry_multiplicity
 _atom_site_fract_x
 _atom_site_fract_y
 _atom_site_fract_z
 _atom_site_occupancy
  Mg  Mg0  1  0.50000000  0.50000000  0.50000000  1
  Mg  Mg1  1  0.50000000  0.00000000  0.00000000  1
  Mg  Mg2  1  0.00000000  0.00000000  0.50000000  1
  Mg  Mg3  1  0.50000000  0.50000000  0.00000000  1
  Mg  Mg4  1  0.00000000  0.50000000  0.50000000  1
  Mg  Mg5  1  0.00000000  0.50000000  0.00000000  1
  Mg  Mg6  1  0.50000000  0.00000000  0.50000000  1
  Mg  Mg7  1  0.37790142  0.37790142  0.37790142  1
  Mg  Mg8  1  0.62209858  0.62209858  0.13370426  1
  Mg  Mg9  1  0.13370426  0.62209858  0.62209858  1
  Mg  Mg10  1  0.62209858  0.13370426  0.62209858  1
  Mg  Mg11  1  0.86629574  0.37790142  0.37790142  1
  Mg  Mg12  1  0.37790142  0.86629574  0.37790142  1
  Mg  Mg13  1  0.37790142  0.37790142  0.86629574  1
  Mg  Mg14  1  0.62209858  0.62209858  0.62209858  1
  Mg  Mg15  1  0.17457619  0.17457619  0.17457619  1
  Mg  Mg16  1  0.82542381  0.82542381  0.52372856  1
  Mg  Mg17  1  0.52372856  0.82542381  0.82542381  1
  Mg  Mg18  1  0.82542381  0.52372856  0.82542381  1
  Mg  Mg19  1  0.47627144  0.17457619  0.17457619  1
  Mg  Mg20  1  0.17457619  0.47627144  0.17457619  1
  Mg  Mg21  1  0.17457619  0.17457619  0.47627144  1
  Mg  Mg22  1  0.82542381  0.82542381  0.82542381  1
  Sr  Sr23  1  0.79282441  0.20717559  0.20717559  1
  Sr  Sr24  1  0.79282441  0.79282441  0.20717559  1
  Sr  Sr25  1  0.20717559  0.20717559  0.79282441  1
  Sr  Sr26  1  0.79282441  0.20717559  0.79282441  1
  Sr  Sr27  1  0.20717559  0.79282441  0.20717559  1
  Sr  Sr28  1  0.20717559  0.79282441  0.79282441  1
