# generated using pymatgen
data_CoH15N6(ClO)2
_symmetry_space_group_name_H-M   'P 1'
_cell_length_a   7.22224661
_cell_length_b   7.23599569
_cell_length_c   11.13404531
_cell_angle_alpha   85.68768671
_cell_angle_beta   85.12040875
_cell_angle_gamma   79.61297985
_symmetry_Int_Tables_number   1
_chemical_formula_structural   CoH15N6(ClO)2
_chemical_formula_sum   'Co2 H30 N12 Cl4 O4'
_cell_volume   569.19248917
_cell_formula_units_Z   2
loop_
 _symmetry_equiv_pos_site_id
 _symmetry_equiv_pos_as_xyz
  1  'x, y, z'
loop_
 _atom_site_type_symbol
 _atom_site_label
 _atom_site_symmetry_multiplicity
 _atom_site_fract_x
 _atom_site_fract_y
 _atom_site_fract_z
 _atom_site_occupancy
  Co  Co0  1  0.71662728  0.28584056  0.24940173  1
  Co  Co1  1  0.28337272  0.71415944  0.75059827  1
  H  H2  1  0.86862394  0.55579430  0.32609064  1
  H  H3  1  0.44464118  0.13507669  0.17326911  1
  H  H4  1  0.13137606  0.44420570  0.67390936  1
  H  H5  1  0.55535882  0.86492331  0.82673089  1
  H  H6  1  0.72047639  0.45196652  0.03112598  1
  H  H7  1  0.54560701  0.27831816  0.46764797  1
  H  H8  1  0.27952361  0.54803348  0.96887402  1
  H  H9  1  0.45439299  0.72168184  0.53235203  1
  H  H10  1  0.87355418  0.25321167  0.02630218  1
  H  H11  1  0.74635279  0.12765674  0.47156285  1
  H  H12  1  0.12644582  0.74678833  0.97369782  1
  H  H13  1  0.25364721  0.87234326  0.52843715  1
  H  H14  1  0.88373553  0.57578836  0.17613735  1
  H  H15  1  0.42548090  0.11925779  0.32246193  1
  H  H16  1  0.11626447  0.42421164  0.82386265  1
  H  H17  1  0.57451910  0.88074221  0.67753807  1
  H  H18  1  0.64311068  0.25039003  0.02594349  1
  H  H19  1  0.74525032  0.35764136  0.47522807  1
  H  H20  1  0.35688932  0.74960997  0.97405651  1
  H  H21  1  0.25474968  0.64235864  0.52477193  1
  H  H22  1  0.04108977  0.42059400  0.24973613  1
  H  H23  1  0.57885349  0.96100196  0.24620014  1
  H  H24  1  0.95891023  0.57940600  0.75026387  1
  H  H25  1  0.42114651  0.03899804  0.75379986  1
  H  H26  1  0.90124677  0.94561906  0.26104212  1
  H  H27  1  0.09875323  0.05438094  0.73895788  1
  H  H28  1  0.02363104  0.08743061  0.31903520  1
  H  H29  1  0.97636896  0.91256939  0.68096480  1
  H  H30  1  0.02262555  0.07919238  0.16902714  1
  H  H31  1  0.97737445  0.92080762  0.83097286  1
  N  N32  1  0.94110931  0.07488575  0.24957985  1
  N  N33  1  0.05889069  0.92511425  0.75042015  1
  N  N34  1  0.74066611  0.31253851  0.06178875  1
  N  N35  1  0.68596637  0.25970553  0.43733885  1
  N  N36  1  0.25933389  0.68746149  0.93821125  1
  N  N37  1  0.31403363  0.74029447  0.56266115  1
  N  N38  1  0.50423598  0.49573673  0.25036644  1
  N  N39  1  0.49576402  0.50426327  0.74963356  1
  N  N40  1  0.90127821  0.48051353  0.25042121  1
  N  N41  1  0.52173802  0.10099977  0.24759380  1
  N  N42  1  0.09872179  0.51948647  0.74957879  1
  N  N43  1  0.47826198  0.89900023  0.75240620  1
  Cl  Cl44  1  0.20322314  0.19499373  0.46904705  1
  Cl  Cl45  1  0.80899031  0.79330184  0.02021634  1
  Cl  Cl46  1  0.79677686  0.80500627  0.53095295  1
  Cl  Cl47  1  0.19100969  0.20669816  0.97978366  1
  O  O48  1  0.50534062  0.62407028  0.31824440  1
  O  O49  1  0.37605478  0.49466660  0.18339114  1
  O  O50  1  0.49465938  0.37592972  0.68175560  1
  O  O51  1  0.62394522  0.50533340  0.81660886  1
