# generated using pymatgen
data_TbNi5
_symmetry_space_group_name_H-M   'P 1'
_cell_length_a   3.94046691
_cell_length_b   4.87099578
_cell_length_c   4.87334055
_cell_angle_alpha   119.98407887
_cell_angle_beta   90.00000000
_cell_angle_gamma   90.00000000
_symmetry_Int_Tables_number   1
_chemical_formula_structural   TbNi5
_chemical_formula_sum   'Tb1 Ni5'
_cell_volume   81.02004561
_cell_formula_units_Z   1
loop_
 _symmetry_equiv_pos_site_id
 _symmetry_equiv_pos_as_xyz
  1  'x, y, z'
loop_
 _atom_site_type_symbol
 _atom_site_label
 _atom_site_symmetry_multiplicity
 _atom_site_fract_x
 _atom_site_fract_y
 _atom_site_fract_z
 _atom_site_occupancy
  Tb  Tb0  1  0.00000000  0.99998839  0.00000000  1
  Ni  Ni1  1  0.00000000  0.33331982  0.66671572  1
  Ni  Ni2  1  0.00000000  0.66660410  0.33328428  1
  Ni  Ni3  1  0.50000000  0.49999967  0.00000000  1
  Ni  Ni4  1  0.50000000  0.49999581  0.50000361  1
  Ni  Ni5  1  0.50000000  0.99999220  0.49999639  1
