# generated using pymatgen
data_Lu6Ni2Sn
_symmetry_space_group_name_H-M   'P 1'
_cell_length_a   8.22815627
_cell_length_b   8.22815628
_cell_length_c   8.22815627
_cell_angle_alpha   105.62752501
_cell_angle_beta   110.23414485
_cell_angle_gamma   112.62884665
_symmetry_Int_Tables_number   1
_chemical_formula_structural   Lu6Ni2Sn
_chemical_formula_sum   'Lu12 Ni4 Sn2'
_cell_volume   427.19493061
_cell_formula_units_Z   2
loop_
 _symmetry_equiv_pos_site_id
 _symmetry_equiv_pos_as_xyz
  1  'x, y, z'
loop_
 _atom_site_type_symbol
 _atom_site_label
 _atom_site_symmetry_multiplicity
 _atom_site_fract_x
 _atom_site_fract_y
 _atom_site_fract_z
 _atom_site_occupancy
  Ni  Ni0  1  0.84903305  0.50000000  0.34903305  1
  Ni  Ni1  1  0.15096695  0.50000000  0.65096695  1
  Ni  Ni2  1  0.00000000  0.12452419  0.12452419  1
  Ni  Ni3  1  0.00000000  0.87547581  0.87547581  1
  Sn  Sn4  1  0.50000000  0.50000000  0.00000000  1
  Sn  Sn5  1  0.50000000  0.00000000  0.50000000  1
  Lu  Lu6  1  0.19171914  0.51753147  0.32581233  1
  Lu  Lu7  1  0.19171914  0.86590680  0.67418767  1
  Lu  Lu8  1  0.60860483  0.79155383  0.81705100  1
  Lu  Lu9  1  0.97450283  0.79155383  0.18294900  1
  Lu  Lu10  1  0.02549717  0.20844617  0.81705100  1
  Lu  Lu11  1  0.39139517  0.20844617  0.18294900  1
  Lu  Lu12  1  0.80828086  0.13409320  0.32581233  1
  Lu  Lu13  1  0.80828086  0.48246853  0.67418767  1
  Lu  Lu14  1  0.29343043  0.73432363  0.02775406  1
  Lu  Lu15  1  0.70656957  0.26567637  0.97224594  1
  Lu  Lu16  1  0.29343043  0.26567637  0.55910681  1
  Lu  Lu17  1  0.70656957  0.73432363  0.44089319  1
