# generated using pymatgen
data_Sr7Au3
_symmetry_space_group_name_H-M   'P 1'
_cell_length_a   11.17269179
_cell_length_b   11.17269159
_cell_length_c   7.20690084
_cell_angle_alpha   90.00000000
_cell_angle_beta   90.00000000
_cell_angle_gamma   120.00000056
_symmetry_Int_Tables_number   1
_chemical_formula_structural   Sr7Au3
_chemical_formula_sum   'Sr14 Au6'
_cell_volume   779.10287151
_cell_formula_units_Z   2
loop_
 _symmetry_equiv_pos_site_id
 _symmetry_equiv_pos_as_xyz
  1  'x, y, z'
loop_
 _atom_site_type_symbol
 _atom_site_label
 _atom_site_symmetry_multiplicity
 _atom_site_fract_x
 _atom_site_fract_y
 _atom_site_fract_z
 _atom_site_occupancy
  Au  Au0  1  0.81171350  0.18828650  0.33136207  1
  Au  Au1  1  0.62342700  0.81171350  0.83136207  1
  Au  Au2  1  0.18828650  0.37657300  0.83136207  1
  Au  Au3  1  0.81171350  0.62342700  0.33136207  1
  Au  Au4  1  0.37657300  0.18828650  0.33136207  1
  Au  Au5  1  0.18828650  0.81171350  0.83136207  1
  Sr  Sr6  1  0.33333300  0.66666700  0.04505692  1
  Sr  Sr7  1  0.66666700  0.33333300  0.54505692  1
  Sr  Sr8  1  0.12519283  0.87480717  0.24963571  1
  Sr  Sr9  1  0.25038566  0.12519283  0.74963571  1
  Sr  Sr10  1  0.87480717  0.74961434  0.74963571  1
  Sr  Sr11  1  0.12519283  0.25038566  0.24963571  1
  Sr  Sr12  1  0.74961434  0.87480717  0.24963571  1
  Sr  Sr13  1  0.87480717  0.12519283  0.74963571  1
  Sr  Sr14  1  0.54243720  0.45756280  0.06598325  1
  Sr  Sr15  1  0.08487439  0.54243720  0.56598325  1
  Sr  Sr16  1  0.45756280  0.91512561  0.56598325  1
  Sr  Sr17  1  0.54243720  0.08487439  0.06598325  1
  Sr  Sr18  1  0.91512561  0.45756280  0.06598325  1
  Sr  Sr19  1  0.45756280  0.54243720  0.56598325  1
