# generated using pymatgen
data_Ta2CrO6
_symmetry_space_group_name_H-M   'P 1'
_cell_length_a   4.81394738
_cell_length_b   4.82481049
_cell_length_c   9.39220225
_cell_angle_alpha   90.00000000
_cell_angle_beta   91.39148267
_cell_angle_gamma   90.00000000
_symmetry_Int_Tables_number   1
_chemical_formula_structural   Ta2CrO6
_chemical_formula_sum   'Ta4 Cr2 O12'
_cell_volume   218.08256498
_cell_formula_units_Z   2
loop_
 _symmetry_equiv_pos_site_id
 _symmetry_equiv_pos_as_xyz
  1  'x, y, z'
loop_
 _atom_site_type_symbol
 _atom_site_label
 _atom_site_symmetry_multiplicity
 _atom_site_fract_x
 _atom_site_fract_y
 _atom_site_fract_z
 _atom_site_occupancy
  O  O0  1  0.20272239  0.81149178  0.17656930  1
  O  O1  1  0.71012933  0.72683449  0.31152744  1
  O  O2  1  0.21012974  0.77316655  0.81152788  1
  O  O3  1  0.28987054  0.27316481  0.68847198  1
  O  O4  1  0.31320706  0.31377269  1.00066553  1
  O  O5  1  0.18679287  0.81377233  0.49933419  1
  O  O6  1  0.79727746  0.18850751  0.82343121  1
  O  O7  1  0.81320698  0.18622696  0.50066632  1
  O  O8  1  0.29727754  0.31149213  0.32343041  1
  O  O9  1  0.78987011  0.22683484  0.18847263  1
  O  O10  1  0.70272233  0.68850716  0.67656901  1
  O  O11  1  0.68679281  0.68622660  -0.00066610  1
  Cr  Cr12  1  0.00000000  0.00000000  0.00000000  1
  Cr  Cr13  1  0.49999993  0.49999965  0.49999971  1
  Ta  Ta14  1  0.50201686  0.48879882  0.83202024  1
  Ta  Ta15  1  0.99798340  0.98879847  0.66798070  1
  Ta  Ta16  1  0.49798299  0.51120257  0.16798026  1
  Ta  Ta17  1  0.00201645  0.01120292  0.33201981  1
