# generated using pymatgen
data_K2CoO2
_symmetry_space_group_name_H-M   'P 1'
_cell_length_a   6.66165037
_cell_length_b   7.02587975
_cell_length_c   9.59817381
_cell_angle_alpha   90.00000000
_cell_angle_beta   90.00000000
_cell_angle_gamma   117.13248597
_symmetry_Int_Tables_number   1
_chemical_formula_structural   K2CoO2
_chemical_formula_sum   'K8 Co4 O8'
_cell_volume   399.79641902
_cell_formula_units_Z   4
loop_
 _symmetry_equiv_pos_site_id
 _symmetry_equiv_pos_as_xyz
  1  'x, y, z'
loop_
 _atom_site_type_symbol
 _atom_site_label
 _atom_site_symmetry_multiplicity
 _atom_site_fract_x
 _atom_site_fract_y
 _atom_site_fract_z
 _atom_site_occupancy
  O  O0  1  0.95708478  0.27126073  0.65091663  1
  O  O1  1  0.50995916  0.30765303  0.98261092  1
  O  O2  1  0.49004084  0.19234697  0.48261092  1
  O  O3  1  0.95708478  0.77126073  0.84908337  1
  O  O4  1  0.49004084  0.69234697  0.01738908  1
  O  O5  1  0.04291522  0.72873927  0.34908337  1
  O  O6  1  0.04291522  0.22873927  0.15091663  1
  O  O7  1  0.50995916  0.80765303  0.51738908  1
  K  K8  1  0.24992314  0.13545237  0.73682853  1
  K  K9  1  0.24992314  0.63545237  0.76317147  1
  K  K10  1  0.21893630  0.89594944  0.08504276  1
  K  K11  1  0.21893630  0.39594944  0.41495724  1
  K  K12  1  0.78106370  0.10405056  0.91495724  1
  K  K13  1  0.78106370  0.60405056  0.58504276  1
  K  K14  1  0.75007686  0.36454763  0.23682853  1
  K  K15  1  0.75007686  0.86454763  0.26317147  1
  Co  Co16  1  0.29911733  0.40495632  0.06883984  1
  Co  Co17  1  0.70088267  0.59504368  0.93116016  1
  Co  Co18  1  0.29911733  0.90495632  0.43116016  1
  Co  Co19  1  0.70088267  0.09504368  0.56883984  1
