# generated using pymatgen
data_Co(ClO4)2
_symmetry_space_group_name_H-M   'P 1'
_cell_length_a   8.27212953
_cell_length_b   8.27212953
_cell_length_c   8.27212952
_cell_angle_alpha   34.53029306
_cell_angle_beta   34.53029302
_cell_angle_gamma   34.53029304
_symmetry_Int_Tables_number   1
_chemical_formula_structural   Co(ClO4)2
_chemical_formula_sum   'Co1 Cl2 O8'
_cell_volume   162.26425044
_cell_formula_units_Z   1
loop_
 _symmetry_equiv_pos_site_id
 _symmetry_equiv_pos_as_xyz
  1  'x, y, z'
loop_
 _atom_site_type_symbol
 _atom_site_label
 _atom_site_symmetry_multiplicity
 _atom_site_fract_x
 _atom_site_fract_y
 _atom_site_fract_z
 _atom_site_occupancy
  O  O0  1  0.80298677  0.80298677  0.80298677  1
  O  O1  1  0.19701323  0.19701323  0.19701323  1
  O  O2  1  0.98993513  0.42688938  0.74285607  1
  O  O3  1  0.25714393  0.01006487  0.57311062  1
  O  O4  1  0.57311062  0.25714393  0.01006487  1
  O  O5  1  0.01006487  0.57311062  0.25714393  1
  O  O6  1  0.74285607  0.98993513  0.42688938  1
  O  O7  1  0.42688938  0.74285607  0.98993513  1
  Cl  Cl8  1  0.74218052  0.74218052  0.74218052  1
  Cl  Cl9  1  0.25781948  0.25781948  0.25781948  1
  Co  Co10  1  0.00000000  0.00000000  0.00000000  1
