# generated using pymatgen
data_Bi14MoO24
_symmetry_space_group_name_H-M   'P 1'
_cell_length_a   8.71110033
_cell_length_b   8.71110033
_cell_length_c   10.56018216
_cell_angle_alpha   65.64115115
_cell_angle_beta   65.64115121
_cell_angle_gamma   90.00000000
_symmetry_Int_Tables_number   1
_chemical_formula_structural   Bi14MoO24
_chemical_formula_sum   'Bi14 Mo1 O24'
_cell_volume   650.89897312
_cell_formula_units_Z   1
loop_
 _symmetry_equiv_pos_site_id
 _symmetry_equiv_pos_as_xyz
  1  'x, y, z'
loop_
 _atom_site_type_symbol
 _atom_site_label
 _atom_site_symmetry_multiplicity
 _atom_site_fract_x
 _atom_site_fract_y
 _atom_site_fract_z
 _atom_site_occupancy
  Bi  Bi0  1  0.12843401  0.72001736  0.33294289  1
  Bi  Bi1  1  0.53862311  0.94703975  0.33294289  1
  Bi  Bi2  1  0.72001736  0.53862311  0.33294289  1
  Bi  Bi3  1  0.94703975  0.12843401  0.33294289  1
  Bi  Bi4  1  0.87156599  0.27998264  0.66705711  1
  Bi  Bi5  1  0.46137689  0.05296025  0.66705711  1
  Bi  Bi6  1  0.27998264  0.46137689  0.66705711  1
  Bi  Bi7  1  0.05296025  0.87156599  0.66705711  1
  Bi  Bi8  1  0.79744787  0.43824083  1.00000000  1
  Bi  Bi9  1  0.20255213  0.56175917  0.00000000  1
  Bi  Bi10  1  0.43824083  0.20255213  0.00000000  1
  Bi  Bi11  1  0.56175917  0.79744787  1.00000000  1
  Bi  Bi12  1  0.34027594  0.34027594  0.31944811  1
  Bi  Bi13  1  0.65972406  0.65972406  0.68055189  1
  Mo  Mo14  1  -0.00000000  -0.00000000  0.00000000  1
  O  O15  1  0.61559407  0.11559407  0.76881185  1
  O  O16  1  0.11559407  0.61559407  0.76881185  1
  O  O17  1  0.38440593  0.88440593  0.23118815  1
  O  O18  1  0.88440593  0.38440593  0.23118815  1
  O  O19  1  0.17477537  0.50158965  0.49254587  1
  O  O20  1  0.33267876  0.00586448  0.49254587  1
  O  O21  1  0.50158965  0.33267876  0.49254587  1
  O  O22  1  0.00586448  0.17477537  0.49254587  1
  O  O23  1  0.82522463  0.49841035  0.50745413  1
  O  O24  1  0.66732124  0.99413552  0.50745413  1
  O  O25  1  0.49841035  0.66732124  0.50745413  1
  O  O26  1  0.99413552  0.82522463  0.50745413  1
  O  O27  1  0.76361881  0.71292051  0.83715122  1
  O  O28  1  0.39922997  0.44992827  0.83715122  1
  O  O29  1  0.71292051  0.39922997  0.83715122  1
  O  O30  1  0.44992827  0.76361881  0.83715122  1
  O  O31  1  0.23638119  0.28707949  0.16284878  1
  O  O32  1  0.60077003  0.55007173  0.16284878  1
  O  O33  1  0.28707949  0.60077003  0.16284878  1
  O  O34  1  0.55007173  0.23638119  0.16284878  1
  O  O35  1  0.98757123  0.21663521  0.00000000  1
  O  O36  1  0.01242877  0.78336479  1.00000000  1
  O  O37  1  0.21663521  0.01242877  0.00000000  1
  O  O38  1  0.78336479  0.98757123  1.00000000  1
