# generated using pymatgen
data_Cs2TiS3
_symmetry_space_group_name_H-M   'P 1'
_cell_length_a   6.58854695
_cell_length_b   7.86388154
_cell_length_c   7.86388154
_cell_angle_alpha   108.85475562
_cell_angle_beta   90.00000000
_cell_angle_gamma   90.00000000
_symmetry_Int_Tables_number   1
_chemical_formula_structural   Cs2TiS3
_chemical_formula_sum   'Cs4 Ti2 S6'
_cell_volume   385.57703367
_cell_formula_units_Z   2
loop_
 _symmetry_equiv_pos_site_id
 _symmetry_equiv_pos_as_xyz
  1  'x, y, z'
loop_
 _atom_site_type_symbol
 _atom_site_label
 _atom_site_symmetry_multiplicity
 _atom_site_fract_x
 _atom_site_fract_y
 _atom_site_fract_z
 _atom_site_occupancy
  S  S0  1  0.50588962  0.37319497  0.62613488  1
  S  S1  1  0.00588962  0.62680503  0.37386512  1
  S  S2  1  0.75702918  0.17689278  0.17689278  1
  S  S3  1  0.25702918  0.82310722  0.82310722  1
  S  S4  1  0.00588962  0.37386512  0.62680503  1
  S  S5  1  0.50588962  0.62613488  0.37319497  1
  Ti  Ti6  1  0.75615144  0.42179773  0.42179773  1
  Ti  Ti7  1  0.25615144  0.57820227  0.57820227  1
  Cs  Cs8  1  0.25602008  0.00541756  0.31785886  1
  Cs  Cs9  1  0.75602008  0.99458244  0.68214114  1
  Cs  Cs10  1  0.75602008  0.68214114  0.99458244  1
  Cs  Cs11  1  0.25602008  0.31785886  0.00541756  1
