# generated using pymatgen
data_RbAuF4
_symmetry_space_group_name_H-M   'P 1'
_cell_length_a   6.40668095
_cell_length_b   6.40668095
_cell_length_c   7.51701967
_cell_angle_alpha   115.22316087
_cell_angle_beta   115.22316080
_cell_angle_gamma   89.99999997
_symmetry_Int_Tables_number   1
_chemical_formula_structural   RbAuF4
_chemical_formula_sum   'Rb2 Au2 F8'
_cell_volume   246.21454068
_cell_formula_units_Z   2
loop_
 _symmetry_equiv_pos_site_id
 _symmetry_equiv_pos_as_xyz
  1  'x, y, z'
loop_
 _atom_site_type_symbol
 _atom_site_label
 _atom_site_symmetry_multiplicity
 _atom_site_fract_x
 _atom_site_fract_y
 _atom_site_fract_z
 _atom_site_occupancy
  F  F0  1  0.96050712  0.46050712  0.23022772  1
  F  F1  1  0.73027940  0.23027940  0.76977228  1
  F  F2  1  0.03949288  0.53949288  0.76977228  1
  F  F3  1  0.23027940  0.03949288  0.76977228  1
  F  F4  1  0.26972060  0.76972060  0.23022772  1
  F  F5  1  0.46050712  0.26972060  0.23022772  1
  F  F6  1  0.76972060  0.96050712  0.23022772  1
  F  F7  1  0.53949288  0.73027940  0.76977228  1
  Rb  Rb8  1  0.25000000  0.25000000  0.50000000  1
  Rb  Rb9  1  0.75000000  0.75000000  0.50000000  1
  Au  Au10  1  0.00000000  0.50000000  0.00000000  1
  Au  Au11  1  0.50000000  0.00000000  0.00000000  1
