# generated using pymatgen
data_H9C4NO4
_symmetry_space_group_name_H-M   'P 1'
_cell_length_a   5.64454410
_cell_length_b   10.21977994
_cell_length_c   11.95590873
_cell_angle_alpha   90.00000000
_cell_angle_beta   97.71064472
_cell_angle_gamma   90.00000000
_symmetry_Int_Tables_number   1
_chemical_formula_structural   H9C4NO4
_chemical_formula_sum   'H36 C16 N4 O16'
_cell_volume   683.45256980
_cell_formula_units_Z   4
loop_
 _symmetry_equiv_pos_site_id
 _symmetry_equiv_pos_as_xyz
  1  'x, y, z'
loop_
 _atom_site_type_symbol
 _atom_site_label
 _atom_site_symmetry_multiplicity
 _atom_site_fract_x
 _atom_site_fract_y
 _atom_site_fract_z
 _atom_site_occupancy
  H  H0  1  0.96188896  0.18845282  0.49521947  1
  H  H1  1  0.42014736  0.38269248  0.20854792  1
  H  H2  1  0.07985264  0.88269248  0.29145208  1
  H  H3  1  0.57985264  0.61730752  0.79145208  1
  H  H4  1  0.92014736  0.11730752  0.70854792  1
  H  H5  1  0.60282112  0.42981660  0.33674389  1
  H  H6  1  0.89717888  0.92981660  0.16325611  1
  H  H7  1  0.39717888  0.57018340  0.66325611  1
  H  H8  1  0.10282112  0.07018340  0.83674389  1
  H  H9  1  0.62654637  0.51600262  0.20777561  1
  H  H10  1  0.87345363  0.01600262  0.29222439  1
  H  H11  1  0.37345363  0.48399738  0.79222439  1
  H  H12  1  0.12654637  0.98399738  0.70777561  1
  H  H13  1  0.01028320  0.57305831  0.36511196  1
  H  H14  1  0.48971680  0.07305831  0.13488804  1
  H  H15  1  0.98971680  0.42694169  0.63488804  1
  H  H16  1  0.03811104  0.81154718  0.50478053  1
  H  H17  1  0.46188896  0.31154718  0.99521947  1
  H  H18  1  0.51028320  0.92694169  0.86511196  1
  H  H19  1  0.53811104  0.68845282  0.00478053  1
  H  H20  1  0.90197911  0.86037401  0.82309512  1
  H  H21  1  0.59802089  0.36037401  0.67690488  1
  H  H22  1  0.09802089  0.13962599  0.17690488  1
  H  H23  1  0.40197911  0.63962599  0.32309512  1
  H  H24  1  0.71253024  0.91160061  0.70681496  1
  H  H25  1  0.78746976  0.41160061  0.79318504  1
  H  H26  1  0.28746976  0.08839939  0.29318504  1
  H  H27  1  0.21253024  0.58839939  0.20681496  1
  H  H28  1  0.74730968  0.02427387  0.93748328  1
  H  H29  1  0.75269032  0.52427387  0.56251672  1
  H  H30  1  0.25269032  0.97572613  0.06251672  1
  H  H31  1  0.24730968  0.47572613  0.43748328  1
  H  H32  1  0.56926937  0.08766324  0.81394662  1
  H  H33  1  0.93073063  0.58766324  0.68605338  1
  H  H34  1  0.43073063  0.91233676  0.18605338  1
  H  H35  1  0.06926937  0.41233676  0.31394662  1
  C  C36  1  0.44378551  0.82486527  0.52399908  1
  C  C37  1  0.50475002  0.46505580  0.25707324  1
  C  C38  1  0.99524998  0.96505580  0.24292676  1
  C  C39  1  0.49524998  0.53494420  0.74292676  1
  C  C40  1  0.00475002  0.03494420  0.75707324  1
  C  C41  1  0.14903933  0.50082594  0.35491964  1
  C  C42  1  0.35096067  0.00082594  0.14508036  1
  C  C43  1  0.85096067  0.49917406  0.64508036  1
  C  C44  1  0.64903933  0.99917406  0.85491964  1
  C  C45  1  0.18005157  0.70885745  0.97563656  1
  C  C46  1  0.31994843  0.20885745  0.52436344  1
  C  C47  1  0.81994843  0.29114255  0.02436344  1
  C  C48  1  0.68005157  0.79114255  0.47563656  1
  C  C49  1  0.94378551  0.67513473  0.02399908  1
  C  C50  1  0.55621449  0.17513473  0.47600092  1
  C  C51  1  0.05621449  0.32486527  0.97600092  1
  N  N52  1  0.81678941  0.94185676  0.78266731  1
  N  N53  1  0.68321059  0.44185676  0.71733269  1
  N  N54  1  0.18321059  0.05814324  0.21733269  1
  N  N55  1  0.31678941  0.55814324  0.28266731  1
  O  O56  1  0.45546238  0.88759395  0.61462484  1
  O  O57  1  0.04453762  0.38759395  0.88537516  1
  O  O58  1  0.54453762  0.11240605  0.38537516  1
  O  O59  1  0.95546238  0.61240605  0.11462484  1
  O  O60  1  0.25460724  0.78144586  0.46470468  1
  O  O61  1  0.24539276  0.28144586  0.03529532  1
  O  O62  1  0.74539276  0.21855414  0.53529532  1
  O  O63  1  0.75460724  0.71855414  0.96470468  1
  O  O64  1  0.67740006  0.72598915  0.38788429  1
  O  O65  1  0.82259994  0.22598915  0.11211571  1
  O  O66  1  0.32259994  0.27401085  0.61211571  1
  O  O67  1  0.17740006  0.77401085  0.88788429  1
  O  O68  1  0.87195288  0.83523258  0.53768364  1
  O  O69  1  0.62804712  0.33523258  0.96231636  1
  O  O70  1  0.12804712  0.16476742  0.46231636  1
  O  O71  1  0.37195288  0.66476742  0.03768364  1
