# generated using pymatgen
data_Ba4(NbSe4)3
_symmetry_space_group_name_H-M   'P 1'
_cell_length_a   6.02688113
_cell_length_b   6.89387683
_cell_length_c   12.70725954
_cell_angle_alpha   90.00717785
_cell_angle_beta   89.81583933
_cell_angle_gamma   90.00463447
_symmetry_Int_Tables_number   1
_chemical_formula_structural   Ba4(NbSe4)3
_chemical_formula_sum   'Ba4 Nb3 Se12'
_cell_volume   527.96580808
_cell_formula_units_Z   1
loop_
 _symmetry_equiv_pos_site_id
 _symmetry_equiv_pos_as_xyz
  1  'x, y, z'
loop_
 _atom_site_type_symbol
 _atom_site_label
 _atom_site_symmetry_multiplicity
 _atom_site_fract_x
 _atom_site_fract_y
 _atom_site_fract_z
 _atom_site_occupancy
  Ba  Ba0  1  0.24480078  0.50003261  0.15120859  1
  Ba  Ba1  1  0.24358942  0.99999143  0.68716930  1
  Ba  Ba2  1  0.75641058  0.00000857  0.31283070  1
  Ba  Ba3  1  0.75519922  0.49996739  0.84879141  1
  Nb  Nb4  1  0.50000000  0.50000000  0.50000000  1
  Nb  Nb5  1  0.00000000  -0.00000000  0.00000000  1
  Nb  Nb6  1  0.00000000  0.50000000  0.50000000  1
  Se  Se7  1  0.74940667  0.49999936  0.32876549  1
  Se  Se8  1  0.74936949  0.99997860  0.83108485  1
  Se  Se9  1  0.74611944  0.73883137  0.08447676  1
  Se  Se10  1  0.75010605  0.23552560  0.58417413  1
  Se  Se11  1  0.74612701  0.26111276  0.08446639  1
  Se  Se12  1  0.75008737  0.76446922  0.58417270  1
  Se  Se13  1  0.25063051  0.00002140  0.16891515  1
  Se  Se14  1  0.25059333  0.50000064  0.67123451  1
  Se  Se15  1  0.24989395  0.76447440  0.41582587  1
  Se  Se16  1  0.25388056  0.26116863  0.91552324  1
  Se  Se17  1  0.24991263  0.23553078  0.41582730  1
  Se  Se18  1  0.25387299  0.73888724  0.91553361  1
