# generated using pymatgen
data_Ba2La2Fe2Cu2O11
_symmetry_space_group_name_H-M   'P 1'
_cell_length_a   5.60358383
_cell_length_b   7.93496905
_cell_length_c   5.60365341
_cell_angle_alpha   90.00000000
_cell_angle_beta   90.00000000
_cell_angle_gamma   90.00000000
_symmetry_Int_Tables_number   1
_chemical_formula_structural   Ba2La2Fe2Cu2O11
_chemical_formula_sum   'Ba2 La2 Fe2 Cu2 O11'
_cell_volume   249.16232604
_cell_formula_units_Z   1
loop_
 _symmetry_equiv_pos_site_id
 _symmetry_equiv_pos_as_xyz
  1  'x, y, z'
loop_
 _atom_site_type_symbol
 _atom_site_label
 _atom_site_symmetry_multiplicity
 _atom_site_fract_x
 _atom_site_fract_y
 _atom_site_fract_z
 _atom_site_occupancy
  Ba  Ba0  1  0.50000000  0.25023983  -0.00000000  1
  Ba  Ba1  1  0.00000000  0.25120015  0.50000000  1
  La  La2  1  0.00000000  0.75495208  0.50000000  1
  La  La3  1  0.50000000  0.75177531  -0.00000000  1
  Fe  Fe4  1  0.00000000  0.52275417  -0.00000000  1
  Fe  Fe5  1  0.50000000  0.00123215  0.50000000  1
  Cu  Cu6  1  0.00000000  0.99296530  -0.00000000  1
  Cu  Cu7  1  0.50000000  0.49805251  0.50000000  1
  O  O8  1  0.24098993  0.50750006  0.75972780  1
  O  O9  1  0.75493259  0.98594517  0.24569374  1
  O  O10  1  0.75901007  0.50750006  0.75972780  1
  O  O11  1  0.24506741  0.98594517  0.24569374  1
  O  O12  1  0.75493259  0.98594517  0.75430626  1
  O  O13  1  0.24098993  0.50750006  0.24027220  1
  O  O14  1  0.24506741  0.98594517  0.75430626  1
  O  O15  1  0.75901007  0.50750006  0.24027220  1
  O  O16  1  0.50000000  0.75004410  0.50000000  1
  O  O17  1  0.00000000  0.75068391  0.00000000  1
  O  O18  1  0.50000000  0.24531956  0.50000000  1
