# generated using pymatgen
data_CaSb10(S3O5)2
_symmetry_space_group_name_H-M   'P 1'
_cell_length_a   5.76545522
_cell_length_b   13.27253443
_cell_length_c   16.30095296
_cell_angle_alpha   70.51271963
_cell_angle_beta   79.81400231
_cell_angle_gamma   77.45566787
_symmetry_Int_Tables_number   1
_chemical_formula_structural   CaSb10(S3O5)2
_chemical_formula_sum   'Ca2 Sb20 S12 O20'
_cell_volume   1140.44805810
_cell_formula_units_Z   2
loop_
 _symmetry_equiv_pos_site_id
 _symmetry_equiv_pos_as_xyz
  1  'x, y, z'
loop_
 _atom_site_type_symbol
 _atom_site_label
 _atom_site_symmetry_multiplicity
 _atom_site_fract_x
 _atom_site_fract_y
 _atom_site_fract_z
 _atom_site_occupancy
  Sb  Sb0  1  0.05283417  0.81512761  0.08924215  1
  Sb  Sb1  1  0.95720394  0.68487239  0.41075785  1
  Sb  Sb2  1  0.94716583  0.18487239  0.91075785  1
  Sb  Sb3  1  0.04279606  0.31512761  0.58924215  1
  Sb  Sb4  1  0.49764724  0.03528112  0.08466478  1
  Sb  Sb5  1  0.61759313  0.46471888  0.41533522  1
  Sb  Sb6  1  0.50235276  0.96471888  0.91533522  1
  Sb  Sb7  1  0.38240687  0.53528112  0.58466478  1
  Sb  Sb8  1  0.20889898  0.55683941  0.24790799  1
  Sb  Sb9  1  0.01364638  0.94316059  0.25209201  1
  Sb  Sb10  1  0.79110102  0.44316059  0.75209201  1
  Sb  Sb11  1  0.98635362  0.05683941  0.74790799  1
  Sb  Sb12  1  0.45126916  0.87783688  0.45209725  1
  Sb  Sb13  1  0.78120328  0.62216312  0.04790275  1
  Sb  Sb14  1  0.54873084  0.12216312  0.54790275  1
  Sb  Sb15  1  0.21879672  0.37783688  0.95209725  1
  Sb  Sb16  1  0.67914286  0.32098502  0.13383623  1
  Sb  Sb17  1  0.13396412  0.17901498  0.36616377  1
  Sb  Sb18  1  0.32085714  0.67901498  0.86616377  1
  Sb  Sb19  1  0.86603588  0.82098502  0.63383623  1
  Ca  Ca20  1  0.54975796  0.75000000  0.25000000  1
  Ca  Ca21  1  0.45024204  0.25000000  0.75000000  1
  S  S22  1  0.22533405  0.56346244  0.02530215  1
  S  S23  1  0.81409863  0.93653756  0.47469785  1
  S  S24  1  0.77466595  0.43653756  0.97469785  1
  S  S25  1  0.18590137  0.06346244  0.52530215  1
  S  S26  1  0.39964868  0.03165182  0.31165852  1
  S  S27  1  0.74295903  0.46834818  0.18834148  1
  S  S28  1  0.60035132  0.96834818  0.68834148  1
  S  S29  1  0.25704097  0.53165182  0.81165852  1
  S  S30  1  0.41779242  0.29193717  0.35639902  1
  S  S31  1  0.06612861  0.20806283  0.14360098  1
  S  S32  1  0.58220758  0.70806283  0.64360098  1
  S  S33  1  0.93387139  0.79193717  0.85639902  1
  O  O34  1  0.64843903  0.56596463  0.48234708  1
  O  O35  1  0.69675074  0.93403537  0.01765292  1
  O  O36  1  0.35156097  0.43403537  0.51765292  1
  O  O37  1  0.30324926  0.06596463  0.98234708  1
  O  O38  1  0.66312198  0.79332960  0.37228067  1
  O  O39  1  0.82873225  0.70667040  0.12771933  1
  O  O40  1  0.33687802  0.20667040  0.62771933  1
  O  O41  1  0.17126775  0.29332960  0.87228067  1
  O  O42  1  0.39905210  0.57751424  0.33528956  1
  O  O43  1  0.31185589  0.92248576  0.16471044  1
  O  O44  1  0.60094790  0.42248576  0.66471044  1
  O  O45  1  0.68814411  0.07751424  0.83528956  1
  O  O46  1  0.28231297  0.70330568  0.17317554  1
  O  O47  1  0.15879420  0.79669432  0.32682446  1
  O  O48  1  0.71768703  0.29669432  0.82682446  1
  O  O49  1  0.84120580  0.20330568  0.67317554  1
  O  O50  1  0.84949517  0.88267992  0.17895230  1
  O  O51  1  0.91112739  0.61732008  0.32104770  1
  O  O52  1  0.15050483  0.11732008  0.82104770  1
  O  O53  1  0.08887261  0.38267992  0.67895230  1
