# generated using pymatgen
data_GdMnB4
_symmetry_space_group_name_H-M   'P 1'
_cell_length_a   3.42875635
_cell_length_b   5.93483301
_cell_length_c   11.47577916
_cell_angle_alpha   90.00000000
_cell_angle_beta   90.00000000
_cell_angle_gamma   90.00000000
_symmetry_Int_Tables_number   1
_chemical_formula_structural   GdMnB4
_chemical_formula_sum   'Gd4 Mn4 B16'
_cell_volume   233.52173604
_cell_formula_units_Z   4
loop_
 _symmetry_equiv_pos_site_id
 _symmetry_equiv_pos_as_xyz
  1  'x, y, z'
loop_
 _atom_site_type_symbol
 _atom_site_label
 _atom_site_symmetry_multiplicity
 _atom_site_fract_x
 _atom_site_fract_y
 _atom_site_fract_z
 _atom_site_occupancy
  Gd  Gd0  1  -0.00000000  0.87442117  0.84965486  1
  Gd  Gd1  1  -0.00000000  0.37442117  0.65034514  1
  Gd  Gd2  1  0.00000000  0.12557883  0.15034514  1
  Gd  Gd3  1  0.00000000  0.62557883  0.34965486  1
  Mn  Mn4  1  0.00000000  0.37211981  0.91587274  1
  Mn  Mn5  1  0.00000000  0.62788019  0.08412726  1
  Mn  Mn6  1  -0.00000000  0.12788019  0.41587274  1
  Mn  Mn7  1  0.00000000  0.87211981  0.58412726  1
  B  B8  1  0.50000000  0.71995004  0.68351553  1
  B  B9  1  0.50000000  0.52434558  0.80990344  1
  B  B10  1  0.50000000  0.78004996  0.18351553  1
  B  B11  1  0.50000000  0.61158825  0.95404512  1
  B  B12  1  0.50000000  0.02434558  0.69009656  1
  B  B13  1  0.50000000  0.97565442  0.30990344  1
  B  B14  1  0.50000000  0.47565442  0.19009656  1
  B  B15  1  0.50000000  0.63913694  0.53248467  1
  B  B16  1  0.50000000  0.36086306  0.46751533  1
  B  B17  1  0.50000000  0.11158825  0.54595488  1
  B  B18  1  0.50000000  0.13913694  0.96751533  1
  B  B19  1  0.50000000  0.38841175  0.04595488  1
  B  B20  1  0.50000000  0.86086306  0.03248467  1
  B  B21  1  0.50000000  0.88841175  0.45404512  1
  B  B22  1  0.50000000  0.21995004  0.81648447  1
  B  B23  1  0.50000000  0.28004996  0.31648447  1
