# generated using pymatgen
data_K2CrMo6H19O32
_symmetry_space_group_name_H-M   'P 1'
_cell_length_a   10.86755952
_cell_length_b   11.07093734
_cell_length_c   12.84796848
_cell_angle_alpha   101.42879604
_cell_angle_beta   94.80003847
_cell_angle_gamma   98.32665089
_symmetry_Int_Tables_number   1
_chemical_formula_structural   K2CrMo6H19O32
_chemical_formula_sum   'K4 Cr2 Mo12 H38 O64'
_cell_volume   1489.07160911
_cell_formula_units_Z   2
loop_
 _symmetry_equiv_pos_site_id
 _symmetry_equiv_pos_as_xyz
  1  'x, y, z'
loop_
 _atom_site_type_symbol
 _atom_site_label
 _atom_site_symmetry_multiplicity
 _atom_site_fract_x
 _atom_site_fract_y
 _atom_site_fract_z
 _atom_site_occupancy
  K  K0  1  0.93471259  0.97258976  0.33384599  1
  K  K1  1  0.06528741  0.02741024  0.66615401  1
  K  K2  1  0.06764791  0.42191311  0.22552022  1
  K  K3  1  0.93235209  0.57808689  0.77447978  1
  Cr  Cr4  1  0.50000000  -0.00000000  -0.00000000  1
  Cr  Cr5  1  0.50000000  0.50000000  0.50000000  1
  Mo  Mo6  1  0.76424004  0.86306650  0.00233304  1
  Mo  Mo7  1  0.23575996  0.13693350  0.99766696  1
  Mo  Mo8  1  0.47669727  0.80593047  0.57286503  1
  Mo  Mo9  1  0.52330273  0.19406953  0.42713497  1
  Mo  Mo10  1  0.75936852  0.72388634  0.53101502  1
  Mo  Mo11  1  0.24063148  0.27611366  0.46898498  1
  Mo  Mo12  1  0.78728349  0.17220684  0.09522057  1
  Mo  Mo13  1  0.21271651  0.82779316  0.90477943  1
  Mo  Mo14  1  0.21367154  0.58093161  0.53992541  1
  Mo  Mo15  1  0.78632846  0.41906839  0.46007459  1
  Mo  Mo16  1  0.52008963  0.31233276  0.07910217  1
  Mo  Mo17  1  0.47991037  0.68766724  0.92089783  1
  H  H18  1  0.37755456  0.53339631  0.21357276  1
  H  H19  1  0.62244544  0.46660369  0.78642724  1
  H  H20  1  0.58635175  0.63866026  0.68615384  1
  H  H21  1  0.41364825  0.36133974  0.31384616  1
  H  H22  1  0.22379977  0.46607272  0.00633935  1
  H  H23  1  0.77620023  0.53392728  0.99366065  1
  H  H24  1  0.14927271  0.92542799  0.13536668  1
  H  H25  1  0.85072729  0.07457201  0.86463332  1
  H  H26  1  0.94226537  0.63489124  0.13405205  1
  H  H27  1  0.05773463  0.36510876  0.86594795  1
  H  H28  1  0.19270326  0.99828525  0.25405239  1
  H  H29  1  0.80729674  0.00171475  0.74594761  1
  H  H30  1  0.57693715  0.89217327  0.82362970  1
  H  H31  1  0.42306285  0.10782673  0.17637030  1
  H  H32  1  0.67406224  0.80737387  0.25864090  1
  H  H33  1  0.32593776  0.19262613  0.74135910  1
  H  H34  1  0.21794554  0.94702211  0.46551851  1
  H  H35  1  0.78205446  0.05297789  0.53448149  1
  H  H36  1  0.12335886  0.82969781  0.46411006  1
  H  H37  1  0.87664114  0.17030219  0.53588994  1
  H  H38  1  0.62413754  0.15952617  0.90590932  1
  H  H39  1  0.37586246  0.84047383  0.09409068  1
  H  H40  1  0.63661803  0.96746412  0.17297046  1
  H  H41  1  0.36338197  0.03253588  0.82702954  1
  H  H42  1  0.32738695  0.66504121  0.23432364  1
  H  H43  1  0.67261305  0.33495879  0.76567636  1
  H  H44  1  0.62783886  0.38682414  0.62140934  1
  H  H45  1  0.37216114  0.61317586  0.37859066  1
  H  H46  1  0.11902565  0.54397893  0.00286863  1
  H  H47  1  0.88097435  0.45602107  0.99713137  1
  H  H48  1  0.61890144  0.89599857  0.34719527  1
  H  H49  1  0.38109856  0.10400143  0.65280473  1
  H  H50  1  0.63795452  0.55430824  0.34288908  1
  H  H51  1  0.36204548  0.44569176  0.65711092  1
  H  H52  1  0.04252920  0.72542816  0.21959254  1
  H  H53  1  0.95747080  0.27457184  0.78040746  1
  H  H54  1  0.65983505  0.27388224  0.26007448  1
  H  H55  1  0.34016495  0.72611776  0.73992552  1
  O  O56  1  0.15391609  0.91503846  0.21135439  1
  O  O57  1  0.84608391  0.08496154  0.78864561  1
  O  O58  1  0.34140864  0.71346693  0.63834672  1
  O  O59  1  0.65859136  0.28653307  0.36165328  1
  O  O60  1  0.86576078  0.29581144  0.04837587  1
  O  O61  1  0.13423922  0.70418856  0.95162413  1
  O  O62  1  0.66041982  0.26322500  0.17144805  1
  O  O63  1  0.33958018  0.73677500  0.82855195  1
  O  O64  1  0.67577532  0.17857355  0.79487153  1
  O  O65  1  0.32422468  0.82142645  0.20512847  1
  O  O66  1  0.13365713  0.46033815  0.00993122  1
  O  O67  1  0.86634287  0.53966185  0.99006878  1
  O  O68  1  0.60611330  0.37931570  0.54160590  1
  O  O69  1  0.39388670  0.62068430  0.45839410  1
  O  O70  1  0.54553658  0.90212444  0.69566892  1
  O  O71  1  0.45446342  0.09787556  0.30433108  1
  O  O72  1  0.70714064  0.65629102  0.25728115  1
  O  O73  1  0.29285936  0.34370898  0.74271885  1
  O  O74  1  0.58139726  0.88202077  0.89941445  1
  O  O75  1  0.41860274  0.11797923  0.10058555  1
  O  O76  1  0.60744860  0.42190101  0.02423045  1
  O  O77  1  0.39255140  0.57809899  0.97576955  1
  O  O78  1  0.64278732  0.54557906  0.41817121  1
  O  O79  1  0.35721268  0.45442094  0.58182879  1
  O  O80  1  0.98805223  0.64452200  0.20557820  1
  O  O81  1  0.01194777  0.35547800  0.79442180  1
  O  O82  1  0.58719654  0.64864731  0.61104081  1
  O  O83  1  0.41280346  0.35135269  0.38895919  1
  O  O84  1  0.13860774  0.67284015  0.46875094  1
  O  O85  1  0.86139226  0.32715985  0.53124906  1
  O  O86  1  0.86372423  0.85893448  0.11401915  1
  O  O87  1  0.13627577  0.14106552  0.88598085  1
  O  O88  1  0.84167600  0.75664653  0.42562919  1
  O  O89  1  0.15832400  0.24335347  0.57437081  1
  O  O90  1  0.82271152  0.03654239  0.98668570  1
  O  O91  1  0.17728848  0.96345761  0.01331430  1
  O  O92  1  0.12847465  0.92028601  0.46720858  1
  O  O93  1  0.87152535  0.07971399  0.53279142  1
  O  O94  1  0.37411379  0.26577028  0.97840838  1
  O  O95  1  0.62588621  0.73422972  0.02159162  1
  O  O96  1  0.65182356  0.89209738  0.27832124  1
  O  O97  1  0.34817644  0.10790262  0.72167876  1
  O  O98  1  0.12351586  0.55468737  0.64017201  1
  O  O99  1  0.87648414  0.44531263  0.35982799  1
  O  O100  1  0.64741523  0.99455191  0.10410788  1
  O  O101  1  0.35258477  0.00544809  0.89589212  1
  O  O102  1  0.39084560  0.89498529  0.50806996  1
  O  O103  1  0.60915440  0.10501471  0.49193004  1
  O  O104  1  0.60512619  0.15682022  0.98106836  1
  O  O105  1  0.39487381  0.84317978  0.01893164  1
  O  O106  1  0.17646304  0.42151912  0.43580865  1
  O  O107  1  0.82353696  0.57848088  0.56419135  1
  O  O108  1  0.87831724  0.16252106  0.20968003  1
  O  O109  1  0.12168276  0.83747894  0.79031997  1
  O  O110  1  0.61638984  0.80256492  0.48932614  1
  O  O111  1  0.38361016  0.19743508  0.51067386  1
  O  O112  1  0.82922404  0.83512538  0.64426698  1
  O  O113  1  0.17077596  0.16487462  0.35573302  1
  O  O114  1  0.32269132  0.58341229  0.25471291  1
  O  O115  1  0.67730868  0.41658771  0.74528709  1
  O  O116  1  0.46286026  0.39579872  0.19192122  1
  O  O117  1  0.53713974  0.60420128  0.80807878  1
  O  O118  1  0.82291890  0.78360762  0.89236514  1
  O  O119  1  0.17708110  0.21639238  0.10763486  1
