# generated using pymatgen
data_Ce3Ni2Sn7
_symmetry_space_group_name_H-M   'P 1'
_cell_length_a   4.61834201
_cell_length_b   4.59159556
_cell_length_c   13.84644972
_cell_angle_alpha   90.00000000
_cell_angle_beta   99.60006645
_cell_angle_gamma   90.00000000
_symmetry_Int_Tables_number   1
_chemical_formula_structural   Ce3Ni2Sn7
_chemical_formula_sum   'Ce3 Ni2 Sn7'
_cell_volume   289.50977784
_cell_formula_units_Z   1
loop_
 _symmetry_equiv_pos_site_id
 _symmetry_equiv_pos_as_xyz
  1  'x, y, z'
loop_
 _atom_site_type_symbol
 _atom_site_label
 _atom_site_symmetry_multiplicity
 _atom_site_fract_x
 _atom_site_fract_y
 _atom_site_fract_z
 _atom_site_occupancy
  Ce  Ce0  1  0.50000000  0.50000000  0.00000000  1
  Ce  Ce1  1  0.81482484  0.00000000  0.62964968  1
  Ce  Ce2  1  0.18517516  0.00000000  0.37035032  1
  Ni  Ni3  1  0.62753573  0.50000000  0.25507146  1
  Ni  Ni4  1  0.37246427  0.50000000  0.74492854  1
  Sn  Sn5  1  0.00000000  0.00000000  0.00000000  1
  Sn  Sn6  1  0.58838657  0.00000000  0.17677313  1
  Sn  Sn7  1  0.41161343  0.00000000  0.82322687  1
  Sn  Sn8  1  0.91093275  0.50000000  0.82186551  1
  Sn  Sn9  1  0.08906725  0.50000000  0.17813449  1
  Sn  Sn10  1  0.71850877  0.50000000  0.43701753  1
  Sn  Sn11  1  0.28149123  0.50000000  0.56298247  1
