# generated using pymatgen
data_TePbO3
_symmetry_space_group_name_H-M   'P 1'
_cell_length_a   4.66545637
_cell_length_b   13.82585113
_cell_length_c   18.52876217
_cell_angle_alpha   107.04071905
_cell_angle_beta   90.00000000
_cell_angle_gamma   99.71353405
_symmetry_Int_Tables_number   1
_chemical_formula_structural   TePbO3
_chemical_formula_sum   'Te12 Pb12 O36'
_cell_volume   1124.77176237
_cell_formula_units_Z   12
loop_
 _symmetry_equiv_pos_site_id
 _symmetry_equiv_pos_as_xyz
  1  'x, y, z'
loop_
 _atom_site_type_symbol
 _atom_site_label
 _atom_site_symmetry_multiplicity
 _atom_site_fract_x
 _atom_site_fract_y
 _atom_site_fract_z
 _atom_site_occupancy
  Pb  Pb0  1  0.97782513  0.36855929  0.73453541  1
  Pb  Pb1  1  0.60926584  0.63144071  0.76546459  1
  Pb  Pb2  1  0.02217487  0.63144071  0.26546459  1
  Pb  Pb3  1  0.39073416  0.36855929  0.23453541  1
  Pb  Pb4  1  0.84338131  0.13087932  0.54625349  1
  Pb  Pb5  1  0.71250200  0.86912068  0.95374651  1
  Pb  Pb6  1  0.15661869  0.86912068  0.45374651  1
  Pb  Pb7  1  0.28749800  0.13087932  0.04625349  1
  Pb  Pb8  1  0.40709086  0.32011746  0.91139609  1
  Pb  Pb9  1  0.08697341  0.67988254  0.58860391  1
  Pb  Pb10  1  0.59290914  0.67988254  0.08860391  1
  Pb  Pb11  1  0.91302659  0.32011746  0.41139609  1
  Te  Te12  1  0.28141227  0.09574606  0.37055844  1
  Te  Te13  1  0.18566621  0.90425394  0.12944156  1
  Te  Te14  1  0.71858773  0.90425394  0.62944156  1
  Te  Te15  1  0.81433379  0.09574606  0.87055844  1
  Te  Te16  1  0.32437687  0.13968780  0.70770385  1
  Te  Te17  1  0.18468907  0.86031220  0.79229615  1
  Te  Te18  1  0.67562313  0.86031220  0.29229615  1
  Te  Te19  1  0.81531093  0.13968780  0.20770385  1
  Te  Te20  1  0.51577005  0.41698653  0.59412628  1
  Te  Te21  1  0.09878352  0.58301347  0.90587372  1
  Te  Te22  1  0.48422995  0.58301347  0.40587372  1
  Te  Te23  1  0.90121648  0.41698653  0.09412628  1
  O  O24  1  0.20897523  0.04394455  0.45541439  1
  O  O25  1  0.16503068  0.95605545  0.04458561  1
  O  O26  1  0.79102477  0.95605545  0.54458561  1
  O  O27  1  0.83496932  0.04394455  0.95541439  1
  O  O28  1  0.28298277  0.23555431  0.42658040  1
  O  O29  1  0.04742846  0.76444569  0.07341960  1
  O  O30  1  0.71701723  0.76444569  0.57341960  1
  O  O31  1  0.95257154  0.23555431  0.92658040  1
  O  O32  1  0.69322962  0.11239545  0.37073564  1
  O  O33  1  0.58083417  0.88760455  0.12926436  1
  O  O34  1  0.30677038  0.88760455  0.62926436  1
  O  O35  1  0.41916583  0.11239545  0.87073564  1
  O  O36  1  0.36810372  0.27310865  0.78063766  1
  O  O37  1  0.09499507  0.72689135  0.71936234  1
  O  O38  1  0.63189628  0.72689135  0.21936234  1
  O  O39  1  0.90500493  0.27310865  0.28063766  1
  O  O40  1  0.27094400  0.18912724  0.62386148  1
  O  O41  1  0.08181676  0.81087276  0.87613852  1
  O  O42  1  0.72905600  0.81087276  0.37613852  1
  O  O43  1  0.91818324  0.18912724  0.12386148  1
  O  O44  1  0.72100615  0.13009600  0.69111434  1
  O  O45  1  0.59091014  0.86990400  0.80888566  1
  O  O46  1  0.27899385  0.86990400  0.30888566  1
  O  O47  1  0.40908986  0.13009600  0.19111434  1
  O  O48  1  0.44438765  0.44426883  0.69986067  1
  O  O49  1  1.00011882  0.55573117  0.80013933  1
  O  O50  1  0.55561235  0.55573117  0.30013933  1
  O  O51  1  -0.00011882  0.44426883  0.19986067  1
  O  O52  1  0.87220879  0.36977895  0.59921018  1
  O  O53  1  0.50242984  0.63022105  0.90078982  1
  O  O54  1  0.12779121  0.63022105  0.40078982  1
  O  O55  1  0.49757016  0.36977895  0.09921018  1
  O  O56  1  0.64946651  0.55724988  0.60253001  1
  O  O57  1  0.09221662  0.44275012  0.89746999  1
  O  O58  1  0.35053349  0.44275012  0.39746999  1
  O  O59  1  0.90778338  0.55724988  0.10253001  1
