# generated using pymatgen
data_Ba3Zn6Si4TeO20
_symmetry_space_group_name_H-M   'P 1'
_cell_length_a   5.20947666
_cell_length_b   9.98039269
_cell_length_c   9.98039338
_cell_angle_alpha   71.62812934
_cell_angle_beta   76.01378632
_cell_angle_gamma   76.01378397
_symmetry_Int_Tables_number   1
_chemical_formula_structural   Ba3Zn6Si4TeO20
_chemical_formula_sum   'Ba3 Zn6 Si4 Te1 O20'
_cell_volume   470.07768011
_cell_formula_units_Z   1
loop_
 _symmetry_equiv_pos_site_id
 _symmetry_equiv_pos_as_xyz
  1  'x, y, z'
loop_
 _atom_site_type_symbol
 _atom_site_label
 _atom_site_symmetry_multiplicity
 _atom_site_fract_x
 _atom_site_fract_y
 _atom_site_fract_z
 _atom_site_occupancy
  Ba  Ba0  1  0.74755144  0.78701700  0.78701700  1
  Ba  Ba1  1  0.25244856  0.21298300  0.21298300  1
  Ba  Ba2  1  0.00000000  0.50000000  0.50000000  1
  Zn  Zn3  1  0.50000000  0.84387592  0.15612408  1
  Zn  Zn4  1  0.50000000  0.15612408  0.84387592  1
  Zn  Zn5  1  0.82759208  0.92328907  0.36419173  1
  Zn  Zn6  1  0.17240792  0.63580827  0.07671093  1
  Zn  Zn7  1  0.17240792  0.07671093  0.63580827  1
  Zn  Zn8  1  0.82759208  0.36419173  0.92328907  1
  Si  Si9  1  0.34165864  0.78058722  0.51939708  1
  Si  Si10  1  0.65834136  0.48060292  0.21941278  1
  Si  Si11  1  0.65834136  0.21941278  0.48060292  1
  Si  Si12  1  0.34165864  0.51939708  0.78058722  1
  Te  Te13  1  0.00000000  0.00000000  0.00000000  1
  O  O14  1  0.34137698  0.88406485  0.61681108  1
  O  O15  1  0.65862302  0.38318892  0.11593515  1
  O  O16  1  0.65862302  0.11593515  0.38318892  1
  O  O17  1  0.34137698  0.61681108  0.88406485  1
  O  O18  1  0.55067188  0.81504567  0.36553542  1
  O  O19  1  0.44932812  0.63446458  0.18495433  1
  O  O20  1  0.44932812  0.18495433  0.63446458  1
  O  O21  1  0.55067188  0.36553542  0.81504567  1
  O  O22  1  0.03611936  0.77725366  0.50544600  1
  O  O23  1  0.96388064  0.49455400  0.22274634  1
  O  O24  1  0.96388064  0.22274634  0.49455400  1
  O  O25  1  0.03611936  0.50544600  0.77725366  1
  O  O26  1  0.36693977  0.92992256  0.92992256  1
  O  O27  1  0.63306023  0.07007744  0.07007744  1
  O  O28  1  0.10710150  0.95296443  0.18901002  1
  O  O29  1  0.89289850  0.81098998  0.04703557  1
  O  O30  1  0.89289850  0.04703557  0.81098998  1
  O  O31  1  0.10710150  0.18901002  0.95296443  1
  O  O32  1  0.46359201  0.61003117  0.61003117  1
  O  O33  1  0.53640799  0.38996883  0.38996883  1
