# generated using pymatgen
data_V2Co3O8
_symmetry_space_group_name_H-M   'P 1'
_cell_length_a   6.08933267
_cell_length_b   6.58409615
_cell_length_c   8.38768409
_cell_angle_alpha   90.00000000
_cell_angle_beta   90.00000000
_cell_angle_gamma   117.54385321
_symmetry_Int_Tables_number   1
_chemical_formula_structural   V2Co3O8
_chemical_formula_sum   'V4 Co6 O16'
_cell_volume   298.16980105
_cell_formula_units_Z   2
loop_
 _symmetry_equiv_pos_site_id
 _symmetry_equiv_pos_as_xyz
  1  'x, y, z'
loop_
 _atom_site_type_symbol
 _atom_site_label
 _atom_site_symmetry_multiplicity
 _atom_site_fract_x
 _atom_site_fract_y
 _atom_site_fract_z
 _atom_site_occupancy
  O  O0  1  0.65107369  0.76594106  0.49674744  1
  O  O1  1  0.88513364  0.23405994  0.50325256  1
  O  O2  1  0.84892631  0.23405994  0.99674744  1
  O  O3  1  0.61486636  0.76594106  0.00325256  1
  O  O4  1  0.34892631  0.23405994  0.50325256  1
  O  O5  1  0.11486736  0.76594106  0.49674744  1
  O  O6  1  0.15107469  0.76594106  0.00325256  1
  O  O7  1  0.38513264  0.23405994  0.99674744  1
  O  O8  1  0.49696443  0.99392887  0.74618822  1
  O  O9  1  0.50303557  0.00607113  0.25381178  1
  O  O10  1  0.24732518  0.49465035  0.77548645  1
  O  O11  1  0.75267582  0.50535065  0.22451355  1
  O  O12  1  0.25267582  0.50535065  0.27548645  1
  O  O13  1  0.00303557  0.00607113  0.24618822  1
  O  O14  1  0.99696443  0.99392887  0.75381178  1
  O  O15  1  0.74732518  0.49465035  0.72451355  1
  V  V16  1  0.87607028  0.75213955  0.61773210  1
  V  V17  1  0.12392972  0.24785945  0.38226790  1
  V  V18  1  0.62393072  0.24785945  0.11773210  1
  V  V19  1  0.37607028  0.75213955  0.88226790  1
  Co  Co20  1  0.61862007  0.73724114  0.25000000  1
  Co  Co21  1  0.88138093  0.26276086  0.75000000  1
  Co  Co22  1  0.11862007  0.73724114  0.25000000  1
  Co  Co23  1  0.38137993  0.26276086  0.75000000  1
  Co  Co24  1  0.50000000  0.00000000  0.50000000  1
  Co  Co25  1  0.00000000  0.00000000  0.00000000  1
