# generated using pymatgen
data_BaLiAlF6
_symmetry_space_group_name_H-M   'P 1'
_cell_length_a   5.42481327
_cell_length_b   8.64929233
_cell_length_c   10.32096405
_cell_angle_alpha   90.00000000
_cell_angle_beta   90.00000000
_cell_angle_gamma   90.34807586
_symmetry_Int_Tables_number   1
_chemical_formula_structural   BaLiAlF6
_chemical_formula_sum   'Ba4 Li4 Al4 F24'
_cell_volume   484.25891055
_cell_formula_units_Z   4
loop_
 _symmetry_equiv_pos_site_id
 _symmetry_equiv_pos_as_xyz
  1  'x, y, z'
loop_
 _atom_site_type_symbol
 _atom_site_label
 _atom_site_symmetry_multiplicity
 _atom_site_fract_x
 _atom_site_fract_y
 _atom_site_fract_z
 _atom_site_occupancy
  Al  Al0  1  0.23810458  0.76866434  0.91152255  1
  Al  Al1  1  0.76189542  0.73133566  0.41152255  1
  Al  Al2  1  0.76189542  0.23133566  0.08847745  1
  Al  Al3  1  0.23810458  0.26866434  0.58847745  1
  F  F4  1  0.38816415  0.74038272  0.75103918  1
  F  F5  1  0.61183585  0.75961728  0.25103918  1
  F  F6  1  0.61183585  0.25961728  0.24896082  1
  F  F7  1  0.38816415  0.24038272  0.74896082  1
  F  F8  1  0.33084115  0.96799049  0.89768416  1
  F  F9  1  0.66915885  0.53200951  0.39768416  1
  F  F10  1  0.66915885  0.03200951  0.10231584  1
  F  F11  1  0.33084115  0.46799049  0.60231584  1
  F  F12  1  0.11006924  0.79321240  0.07562832  1
  F  F13  1  0.88993076  0.70678760  0.57562832  1
  F  F14  1  0.88993076  0.20678760  0.92437168  1
  F  F15  1  0.11006924  0.29321240  0.42437168  1
  F  F16  1  0.16990706  0.55930701  0.91069151  1
  F  F17  1  0.83009294  0.94069299  0.41069151  1
  F  F18  1  0.83009294  0.44069299  0.08930849  1
  F  F19  1  0.16990706  0.05930701  0.58930849  1
  F  F20  1  0.93828158  0.80248824  0.84179561  1
  F  F21  1  0.06171842  0.69751176  0.34179561  1
  F  F22  1  0.06171842  0.19751176  0.15820439  1
  F  F23  1  0.93828158  0.30248824  0.65820439  1
  F  F24  1  0.52880798  0.70930919  0.98974379  1
  F  F25  1  0.47119202  0.79069081  0.48974379  1
  F  F26  1  0.47119202  0.29069081  0.01025621  1
  F  F27  1  0.52880798  0.20930919  0.51025621  1
  Li  Li28  1  0.23887040  0.67509234  0.58583230  1
  Li  Li29  1  0.76112960  0.82490766  0.08583230  1
  Li  Li30  1  0.76112960  0.32490766  0.41416770  1
  Li  Li31  1  0.23887040  0.17509234  0.91416770  1
  Ba  Ba32  1  0.70296730  0.99554726  0.68686080  1
  Ba  Ba33  1  0.29703270  0.50445274  0.18686080  1
  Ba  Ba34  1  0.29703270  0.00445274  0.31313920  1
  Ba  Ba35  1  0.70296730  0.49554726  0.81313920  1
