# generated using pymatgen
data_Ba4Na(RuO4)3
_symmetry_space_group_name_H-M   'P 1'
_cell_length_a   5.87708692
_cell_length_b   5.87708713
_cell_length_c   19.44966781
_cell_angle_alpha   90.00000000
_cell_angle_beta   90.00000000
_cell_angle_gamma   119.99999884
_symmetry_Int_Tables_number   1
_chemical_formula_structural   Ba4Na(RuO4)3
_chemical_formula_sum   'Ba8 Na2 Ru6 O24'
_cell_volume   581.79109258
_cell_formula_units_Z   2
loop_
 _symmetry_equiv_pos_site_id
 _symmetry_equiv_pos_as_xyz
  1  'x, y, z'
loop_
 _atom_site_type_symbol
 _atom_site_label
 _atom_site_symmetry_multiplicity
 _atom_site_fract_x
 _atom_site_fract_y
 _atom_site_fract_z
 _atom_site_occupancy
  Ba  Ba0  1  0.00000000  0.00000000  0.11732002  1
  Ba  Ba1  1  0.00000000  0.00000000  0.61732002  1
  Ba  Ba2  1  0.33333300  0.66666700  0.37263200  1
  Ba  Ba3  1  0.66666700  0.33333300  0.87263200  1
  Ba  Ba4  1  0.66666700  0.33333300  0.49720862  1
  Ba  Ba5  1  0.33333300  0.66666700  0.99720862  1
  Ba  Ba6  1  0.33333300  0.66666700  0.74580255  1
  Ba  Ba7  1  0.66666700  0.33333300  0.24580255  1
  Ru  Ru8  1  0.00000000  0.00000000  0.29905020  1
  Ru  Ru9  1  0.00000000  0.00000000  0.79905020  1
  Ru  Ru10  1  0.00000000  0.00000000  0.43591706  1
  Ru  Ru11  1  0.00000000  0.00000000  0.93591706  1
  Ru  Ru12  1  0.33333300  0.66666700  0.18332063  1
  Ru  Ru13  1  0.66666700  0.33333300  0.68332063  1
  Na  Na14  1  0.33333300  0.66666700  0.55971726  1
  Na  Na15  1  0.66666700  0.33333300  0.05971726  1
  O  O16  1  0.16537661  0.33075322  0.24450667  1
  O  O17  1  0.83462339  0.16537661  0.74450667  1
  O  O18  1  0.33075322  0.16537661  0.74450667  1
  O  O19  1  0.66924678  0.83462339  0.24450667  1
  O  O20  1  0.16537661  0.83462339  0.24450667  1
  O  O21  1  0.83462339  0.66924678  0.74450667  1
  O  O22  1  0.30446987  0.15223493  0.36431323  1
  O  O23  1  0.15223493  0.30446987  0.86431323  1
  O  O24  1  0.15223493  0.84776507  0.86431323  1
  O  O25  1  0.84776507  0.15223493  0.36431323  1
  O  O26  1  0.84776507  0.69553013  0.36431323  1
  O  O27  1  0.69553013  0.84776507  0.86431323  1
  O  O28  1  0.15639702  0.31279404  0.48844810  1
  O  O29  1  0.84360298  0.15639702  0.98844810  1
  O  O30  1  0.31279404  0.15639702  0.98844810  1
  O  O31  1  0.68720596  0.84360298  0.48844810  1
  O  O32  1  0.15639702  0.84360298  0.48844810  1
  O  O33  1  0.84360298  0.68720596  0.98844810  1
  O  O34  1  0.51348543  0.48651457  0.62840257  1
  O  O35  1  0.02697085  0.51348543  0.12840257  1
  O  O36  1  0.48651457  0.97302915  0.12840257  1
  O  O37  1  0.51348543  0.02697085  0.62840257  1
  O  O38  1  0.97302915  0.48651457  0.62840257  1
  O  O39  1  0.48651457  0.51348543  0.12840257  1
