# generated using pymatgen
data_VP2O7
_symmetry_space_group_name_H-M   'P 1'
_cell_length_a   5.20155633
_cell_length_b   6.73439742
_cell_length_c   8.20841218
_cell_angle_alpha   69.97316777
_cell_angle_beta   88.44026426
_cell_angle_gamma   88.92804861
_symmetry_Int_Tables_number   1
_chemical_formula_structural   VP2O7
_chemical_formula_sum   'V2 P4 O14'
_cell_volume   270.03515666
_cell_formula_units_Z   2
loop_
 _symmetry_equiv_pos_site_id
 _symmetry_equiv_pos_as_xyz
  1  'x, y, z'
loop_
 _atom_site_type_symbol
 _atom_site_label
 _atom_site_symmetry_multiplicity
 _atom_site_fract_x
 _atom_site_fract_y
 _atom_site_fract_z
 _atom_site_occupancy
  O  O0  1  0.02978026  0.95819245  0.76501938  1
  O  O1  1  0.07016459  0.62637757  0.25777468  1
  O  O2  1  0.21145749  0.28240568  0.48808014  1
  O  O3  1  0.27787900  0.34203891  0.16961627  1
  O  O4  1  0.27473682  0.13707934  0.97278239  1
  O  O5  1  0.45193111  0.96597180  0.27288714  1
  O  O6  1  0.45334544  0.46122840  0.69267067  1
  O  O7  1  0.54665456  0.53877260  0.30732933  1
  O  O8  1  0.54806889  0.03402820  0.72711386  1
  O  O9  1  0.72526518  0.86292166  0.02721761  1
  O  O10  1  0.97021974  0.04180755  0.23498062  1
  O  O11  1  0.78854451  0.71759332  0.51191986  1
  O  O12  1  0.92983441  0.37362343  0.74222432  1
  O  O13  1  0.72212000  0.65796209  0.83038373  1
  P  P14  1  0.24297294  0.10757977  0.16619376  1
  P  P15  1  0.27549130  0.45620188  0.31240072  1
  P  P16  1  0.72450870  0.54379712  0.68760128  1
  P  P17  1  0.75702606  0.89242123  0.83380624  1
  V  V18  1  0.24180198  0.20787898  0.73099199  1
  V  V19  1  0.75819702  0.79212002  0.26900801  1
