# generated using pymatgen
data_Lu5Sb3
_symmetry_space_group_name_H-M   'P 1'
_cell_length_a   7.94554066
_cell_length_b   9.16377913
_cell_length_c   11.59378524
_cell_angle_alpha   90.00000000
_cell_angle_beta   90.00000000
_cell_angle_gamma   90.00000000
_symmetry_Int_Tables_number   1
_chemical_formula_structural   Lu5Sb3
_chemical_formula_sum   'Lu20 Sb12'
_cell_volume   844.15718024
_cell_formula_units_Z   4
loop_
 _symmetry_equiv_pos_site_id
 _symmetry_equiv_pos_as_xyz
  1  'x, y, z'
loop_
 _atom_site_type_symbol
 _atom_site_label
 _atom_site_symmetry_multiplicity
 _atom_site_fract_x
 _atom_site_fract_y
 _atom_site_fract_z
 _atom_site_occupancy
  Lu  Lu0  1  0.19437952  0.56189921  0.43933808  1
  Lu  Lu1  1  0.69437952  0.93810079  0.06066192  1
  Lu  Lu2  1  0.80562048  0.06189921  0.56066192  1
  Lu  Lu3  1  0.30562048  0.43810079  0.93933808  1
  Lu  Lu4  1  0.80562048  0.43810079  0.56066192  1
  Lu  Lu5  1  0.30562048  0.06189921  0.93933808  1
  Lu  Lu6  1  0.19437952  0.93810079  0.43933808  1
  Lu  Lu7  1  0.69437952  0.56189921  0.06066192  1
  Lu  Lu8  1  0.02716079  0.75000000  0.99032149  1
  Lu  Lu9  1  0.52716079  0.75000000  0.50967851  1
  Lu  Lu10  1  0.97283921  0.25000000  0.00967851  1
  Lu  Lu11  1  0.47283921  0.25000000  0.49032149  1
  Lu  Lu12  1  0.18639858  0.75000000  0.71902596  1
  Lu  Lu13  1  0.68639858  0.75000000  0.78097404  1
  Lu  Lu14  1  0.81360142  0.25000000  0.28097404  1
  Lu  Lu15  1  0.31360142  0.25000000  0.21902596  1
  Lu  Lu16  1  0.85526536  0.75000000  0.28495258  1
  Lu  Lu17  1  0.35526536  0.75000000  0.21504742  1
  Lu  Lu18  1  0.14473464  0.25000000  0.71504742  1
  Lu  Lu19  1  0.64473464  0.25000000  0.78495258  1
  Sb  Sb20  1  0.93376014  0.49695611  0.82640302  1
  Sb  Sb21  1  0.43376014  0.00304389  0.67359698  1
  Sb  Sb22  1  0.06623986  0.99695611  0.17359698  1
  Sb  Sb23  1  0.56623986  0.50304389  0.32640302  1
  Sb  Sb24  1  0.06623986  0.50304389  0.17359698  1
  Sb  Sb25  1  0.56623986  0.99695611  0.32640302  1
  Sb  Sb26  1  0.93376014  0.00304389  0.82640302  1
  Sb  Sb27  1  0.43376014  0.49695611  0.67359698  1
  Sb  Sb28  1  0.91027427  0.75000000  0.54113337  1
  Sb  Sb29  1  0.41027427  0.75000000  0.95886663  1
  Sb  Sb30  1  0.08972573  0.25000000  0.45886663  1
  Sb  Sb31  1  0.58972573  0.25000000  0.04113337  1
