# generated using pymatgen
data_Tl2CO3
_symmetry_space_group_name_H-M   'P 1'
_cell_length_a   5.50409192
_cell_length_b   7.07001966
_cell_length_c   7.49020468
_cell_angle_alpha   64.04457299
_cell_angle_beta   68.47894655
_cell_angle_gamma   67.10348148
_symmetry_Int_Tables_number   1
_chemical_formula_structural   Tl2CO3
_chemical_formula_sum   'Tl4 C2 O6'
_cell_volume   234.52904816
_cell_formula_units_Z   2
loop_
 _symmetry_equiv_pos_site_id
 _symmetry_equiv_pos_as_xyz
  1  'x, y, z'
loop_
 _atom_site_type_symbol
 _atom_site_label
 _atom_site_symmetry_multiplicity
 _atom_site_fract_x
 _atom_site_fract_y
 _atom_site_fract_z
 _atom_site_occupancy
  Tl  Tl0  1  0.90533939  0.88235429  0.30725661  1
  Tl  Tl1  1  0.09466061  0.11764571  0.69274339  1
  Tl  Tl2  1  0.36109212  0.50582525  0.77187241  1
  Tl  Tl3  1  0.63890788  0.49417475  0.22812759  1
  C  C4  1  0.33503849  0.13559730  0.19451954  1
  C  C5  1  0.66496151  0.86440270  0.80548046  1
  O  O6  1  0.33321299  0.97051333  0.36343832  1
  O  O7  1  0.66678701  0.02948667  0.63656168  1
  O  O8  1  0.54167546  0.22003663  0.10687082  1
  O  O9  1  0.86851359  0.77984134  0.89308690  1
  O  O10  1  0.45832454  0.77996337  0.89312918  1
  O  O11  1  0.13148641  0.22015866  0.10691310  1
