# generated using pymatgen
data_CsScP2(HO4)2
_symmetry_space_group_name_H-M   'P 1'
_cell_length_a   5.42667712
_cell_length_b   9.32447862
_cell_length_c   14.93989553
_cell_angle_alpha   90.00000000
_cell_angle_beta   94.40640384
_cell_angle_gamma   90.00000000
_symmetry_Int_Tables_number   1
_chemical_formula_structural   CsScP2(HO4)2
_chemical_formula_sum   'Cs4 Sc4 P8 H8 O32'
_cell_volume   753.73815318
_cell_formula_units_Z   4
loop_
 _symmetry_equiv_pos_site_id
 _symmetry_equiv_pos_as_xyz
  1  'x, y, z'
loop_
 _atom_site_type_symbol
 _atom_site_label
 _atom_site_symmetry_multiplicity
 _atom_site_fract_x
 _atom_site_fract_y
 _atom_site_fract_z
 _atom_site_occupancy
  Cs  Cs0  1  0.26853283  0.49628503  0.11159235  1
  Cs  Cs1  1  0.73146717  0.99628503  0.38840765  1
  Cs  Cs2  1  0.73146717  0.50371497  0.88840765  1
  Cs  Cs3  1  0.26853283  0.00371497  0.61159235  1
  Sc  Sc4  1  0.25167034  0.03599475  0.15059648  1
  Sc  Sc5  1  0.74832966  0.53599475  0.34940352  1
  Sc  Sc6  1  0.74832966  0.96400525  0.84940352  1
  Sc  Sc7  1  0.25167034  0.46400525  0.65059648  1
  P  P8  1  0.72175040  0.84857014  0.06115971  1
  P  P9  1  0.27824960  0.34857014  0.43884029  1
  P  P10  1  0.27824960  0.15142986  0.93884029  1
  P  P11  1  0.72175040  0.65142986  0.56115971  1
  P  P12  1  0.22679947  0.75452379  0.30690300  1
  P  P13  1  0.77320053  0.25452379  0.19309700  1
  P  P14  1  0.77320053  0.24547621  0.69309700  1
  P  P15  1  0.22679947  0.74547621  0.80690300  1
  O  O16  1  0.91144550  0.95497927  0.10282711  1
  O  O17  1  0.08855450  0.45497927  0.39717289  1
  O  O18  1  0.08855450  0.04502073  0.89717289  1
  O  O19  1  0.91144550  0.54502073  0.60282711  1
  O  O20  1  0.74328525  0.82570298  0.96048262  1
  O  O21  1  0.25671475  0.32570298  0.53951738  1
  O  O22  1  0.25671475  0.17429702  0.03951738  1
  O  O23  1  0.74328525  0.67429702  0.46048262  1
  O  O24  1  0.45470789  0.88603153  0.08107641  1
  O  O25  1  0.54529211  0.38603153  0.41892359  1
  O  O26  1  0.54529211  0.11396847  0.91892359  1
  O  O27  1  0.45470789  0.61396847  0.58107641  1
  O  O28  1  0.21696642  0.19225574  0.39571919  1
  O  O29  1  0.78303358  0.69225574  0.10428081  1
  O  O30  1  0.78303358  0.80774426  0.60428081  1
  O  O31  1  0.21696642  0.30774426  0.89571919  1
  H  H32  1  0.16607752  0.19780691  0.32968230  1
  H  H33  1  0.83392248  0.69780691  0.17031770  1
  H  H34  1  0.83392248  0.80219309  0.67031770  1
  H  H35  1  0.16607752  0.30219309  0.82968230  1
  O  O36  1  0.26158870  0.90116149  0.26383843  1
  O  O37  1  0.73841130  0.40116149  0.23616157  1
  O  O38  1  0.73841130  0.09883851  0.73616157  1
  O  O39  1  0.26158870  0.59883851  0.76383843  1
  O  O40  1  0.43509510  0.64874328  0.29150658  1
  O  O41  1  0.56490490  0.14874328  0.20849342  1
  O  O42  1  0.56490490  0.35125672  0.70849342  1
  O  O43  1  0.43509510  0.85125672  0.79150658  1
  O  O44  1  0.96820304  0.69169931  0.27913418  1
  O  O45  1  0.03179696  0.19169931  0.22086582  1
  O  O46  1  0.03179696  0.30830069  0.72086582  1
  O  O47  1  0.96820304  0.80830069  0.77913418  1
  O  O48  1  0.23724891  0.79512780  0.41287580  1
  O  O49  1  0.76275109  0.29512780  0.08712420  1
  O  O50  1  0.76275109  0.20487220  0.58712420  1
  O  O51  1  0.23724891  0.70487220  0.91287580  1
  H  H52  1  0.25396078  0.71038040  0.45205486  1
  H  H53  1  0.74603922  0.21038040  0.04794514  1
  H  H54  1  0.74603922  0.28961960  0.54794514  1
  H  H55  1  0.25396078  0.78961960  0.95205486  1
