# generated using pymatgen
data_Na2Ti6O13
_symmetry_space_group_name_H-M   'P 1'
_cell_length_a   3.76050091
_cell_length_b   7.86588541
_cell_length_c   9.29199212
_cell_angle_alpha   98.79177249
_cell_angle_beta   90.00000000
_cell_angle_gamma   103.82980639
_symmetry_Int_Tables_number   1
_chemical_formula_structural   Na2Ti6O13
_chemical_formula_sum   'Na2 Ti6 O13'
_cell_volume   263.55899345
_cell_formula_units_Z   1
loop_
 _symmetry_equiv_pos_site_id
 _symmetry_equiv_pos_as_xyz
  1  'x, y, z'
loop_
 _atom_site_type_symbol
 _atom_site_label
 _atom_site_symmetry_multiplicity
 _atom_site_fract_x
 _atom_site_fract_y
 _atom_site_fract_z
 _atom_site_occupancy
  O  O0  1  0.83761745  0.67523490  0.08780919  1
  O  O1  1  0.16238255  0.32476510  0.91219081  1
  O  O2  1  0.64410781  0.28821562  0.11750725  1
  O  O3  1  0.35589219  0.71178438  0.88249275  1
  O  O4  1  0.87355282  0.74710563  0.38623120  1
  O  O5  1  0.12644718  0.25289437  0.61376880  1
  O  O6  1  0.70240196  0.40480393  0.42904605  1
  O  O7  1  0.29759804  0.59519607  0.57095395  1
  O  O8  1  0.00000000  0.00000000  0.00000000  1
  O  O9  1  0.24068564  0.48137129  0.24589810  1
  O  O10  1  0.75931436  0.51862871  0.75410190  1
  O  O11  1  0.07007806  0.14015611  0.29196598  1
  O  O12  1  0.92992194  0.85984389  0.70803402  1
  Na  Na13  1  0.46255422  0.92510843  0.26969626  1
  Na  Na14  1  0.53744578  0.07489157  0.73030374  1
  Ti  Ti15  1  0.83418736  0.66837473  0.56469619  1
  Ti  Ti16  1  0.16581264  0.33162527  0.43530381  1
  Ti  Ti17  1  0.88520347  0.77040693  0.90481874  1
  Ti  Ti18  1  0.11479653  0.22959307  0.09518126  1
  Ti  Ti19  1  0.22686356  0.45372712  0.76954630  1
  Ti  Ti20  1  0.77313644  0.54627288  0.23045370  1
