# generated using pymatgen
data_Pr3SbO7
_symmetry_space_group_name_H-M   'P 1'
_cell_length_a   6.73327244
_cell_length_b   6.73327244
_cell_length_c   7.77662515
_cell_angle_alpha   90.00000000
_cell_angle_beta   90.00000000
_cell_angle_gamma   110.54244885
_symmetry_Int_Tables_number   1
_chemical_formula_structural   Pr3SbO7
_chemical_formula_sum   'Pr6 Sb2 O14'
_cell_volume   330.14956548
_cell_formula_units_Z   2
loop_
 _symmetry_equiv_pos_site_id
 _symmetry_equiv_pos_as_xyz
  1  'x, y, z'
loop_
 _atom_site_type_symbol
 _atom_site_label
 _atom_site_symmetry_multiplicity
 _atom_site_fract_x
 _atom_site_fract_y
 _atom_site_fract_z
 _atom_site_occupancy
  O  O0  1  0.57939661  0.57939661  0.75000000  1
  O  O1  1  0.42060339  0.42060339  0.25000000  1
  O  O2  1  0.11206536  0.84835365  0.75000000  1
  O  O3  1  0.88793464  0.15164635  0.25000000  1
  O  O4  1  0.84835365  0.11206536  0.75000000  1
  O  O5  1  0.15164635  0.88793464  0.25000000  1
  O  O6  1  0.18840901  0.44004893  0.96691737  1
  O  O7  1  0.81159099  0.55995107  0.46691737  1
  O  O8  1  0.44004893  0.18840901  0.96691737  1
  O  O9  1  0.55995107  0.81159099  0.46691737  1
  O  O10  1  0.18840901  0.44004893  0.53308263  1
  O  O11  1  0.81159099  0.55995107  0.03308263  1
  O  O12  1  0.55995107  0.81159099  0.03308263  1
  O  O13  1  0.44004893  0.18840901  0.53308263  1
  Sb  Sb14  1  0.50000000  0.50000000  0.50000000  1
  Sb  Sb15  1  0.50000000  0.50000000  0.00000000  1
  Pr  Pr16  1  0.93526698  0.48140985  0.75000000  1
  Pr  Pr17  1  0.06473302  0.51859015  0.25000000  1
  Pr  Pr18  1  0.48140985  0.93526698  0.75000000  1
  Pr  Pr19  1  0.51859015  0.06473302  0.25000000  1
  Pr  Pr20  1  0.00000000  0.00000000  0.50000000  1
  Pr  Pr21  1  0.00000000  0.00000000  0.00000000  1
