# generated using pymatgen
data_K2ZrF6
_symmetry_space_group_name_H-M   'P 1'
_cell_length_a   6.66664716
_cell_length_b   6.72325504
_cell_length_c   7.08658682
_cell_angle_alpha   89.98276424
_cell_angle_beta   89.96523577
_cell_angle_gamma   60.27813320
_symmetry_Int_Tables_number   1
_chemical_formula_structural   K2ZrF6
_chemical_formula_sum   'K4 Zr2 F12'
_cell_volume   275.84498210
_cell_formula_units_Z   2
loop_
 _symmetry_equiv_pos_site_id
 _symmetry_equiv_pos_as_xyz
  1  'x, y, z'
loop_
 _atom_site_type_symbol
 _atom_site_label
 _atom_site_symmetry_multiplicity
 _atom_site_fract_x
 _atom_site_fract_y
 _atom_site_fract_z
 _atom_site_occupancy
  F  F0  1  0.93879454  0.19649729  0.04439563  1
  F  F1  1  0.86470816  0.19649729  0.45560437  1
  F  F2  1  0.06120546  0.80350271  0.95560437  1
  F  F3  1  0.13529184  0.80350271  0.54439563  1
  F  F4  1  0.61877568  0.38164232  0.77646222  1
  F  F5  1  0.99958200  0.38164232  0.72353778  1
  F  F6  1  0.69493659  0.03036093  0.21357208  1
  F  F7  1  0.27470249  0.03036093  0.28642792  1
  F  F8  1  0.30506341  0.96963907  0.78642792  1
  F  F9  1  0.72529751  0.96963907  0.71357208  1
  F  F10  1  0.00041800  0.61835768  0.27646222  1
  F  F11  1  0.38122432  0.61835768  0.22353778  1
  K  K12  1  0.63958329  0.68325954  0.50309542  1
  K  K13  1  0.67715717  0.68325954  0.99690458  1
  K  K14  1  0.36041671  0.31674046  0.49690458  1
  K  K15  1  0.32284283  0.31674046  0.00309542  1
  Zr  Zr16  1  0.95378654  0.09242691  0.75000000  1
  Zr  Zr17  1  0.04621346  0.90757309  0.25000000  1
