# generated using pymatgen
data_Y2Fe14B
_symmetry_space_group_name_H-M   'P 1'
_cell_length_a   8.73603825
_cell_length_b   8.73603825
_cell_length_c   11.91957844
_cell_angle_alpha   90.00000000
_cell_angle_beta   90.00000000
_cell_angle_gamma   90.00000000
_symmetry_Int_Tables_number   1
_chemical_formula_structural   Y2Fe14B
_chemical_formula_sum   'Y8 Fe56 B4'
_cell_volume   909.68272975
_cell_formula_units_Z   4
loop_
 _symmetry_equiv_pos_site_id
 _symmetry_equiv_pos_as_xyz
  1  'x, y, z'
loop_
 _atom_site_type_symbol
 _atom_site_label
 _atom_site_symmetry_multiplicity
 _atom_site_fract_x
 _atom_site_fract_y
 _atom_site_fract_z
 _atom_site_occupancy
  B  B0  1  0.62456686  0.62456686  0.00000000  1
  B  B1  1  0.87543314  0.12456686  0.50000000  1
  B  B2  1  0.12456686  0.87543314  0.50000000  1
  B  B3  1  0.37543314  0.37543314  0.00000000  1
  Fe  Fe4  1  0.14096623  0.46317673  0.32511942  1
  Fe  Fe5  1  0.85903377  0.53682327  0.32511942  1
  Fe  Fe6  1  0.46317673  0.14096623  0.67488058  1
  Fe  Fe7  1  0.96317673  0.35903377  0.82511942  1
  Fe  Fe8  1  0.03682327  0.64096623  0.82511942  1
  Fe  Fe9  1  0.35903377  0.96317673  0.17488058  1
  Fe  Fe10  1  0.64096623  0.03682327  0.17488058  1
  Fe  Fe11  1  0.53682327  0.85903377  0.67488058  1
  Fe  Fe12  1  0.85903377  0.53682327  0.67488058  1
  Fe  Fe13  1  0.14096623  0.46317673  0.67488058  1
  Fe  Fe14  1  0.53682327  0.85903377  0.32511942  1
  Fe  Fe15  1  0.03682327  0.64096623  0.17488058  1
  Fe  Fe16  1  0.96317673  0.35903377  0.17488058  1
  Fe  Fe17  1  0.64096623  0.03682327  0.82511942  1
  Fe  Fe18  1  0.35903377  0.96317673  0.82511942  1
  Fe  Fe19  1  0.46317673  0.14096623  0.32511942  1
  Fe  Fe20  1  0.06616174  0.72458893  0.37365599  1
  Fe  Fe21  1  0.93383826  0.27541107  0.37365599  1
  Fe  Fe22  1  0.72458893  0.06616174  0.62634401  1
  Fe  Fe23  1  0.22458893  0.43383826  0.87365599  1
  Fe  Fe24  1  0.77541107  0.56616174  0.87365599  1
  Fe  Fe25  1  0.43383826  0.22458893  0.12634401  1
  Fe  Fe26  1  0.56616174  0.77541107  0.12634401  1
  Fe  Fe27  1  0.27541107  0.93383826  0.62634401  1
  Fe  Fe28  1  0.93383826  0.27541107  0.62634401  1
  Fe  Fe29  1  0.06616174  0.72458893  0.62634401  1
  Fe  Fe30  1  0.27541107  0.93383826  0.37365599  1
  Fe  Fe31  1  0.77541107  0.56616174  0.12634401  1
  Fe  Fe32  1  0.22458893  0.43383826  0.12634401  1
  Fe  Fe33  1  0.56616174  0.77541107  0.87365599  1
  Fe  Fe34  1  0.43383826  0.22458893  0.87365599  1
  Fe  Fe35  1  0.72458893  0.06616174  0.37365599  1
  Fe  Fe36  1  0.59738489  0.59738489  0.70096973  1
  Fe  Fe37  1  0.40261511  0.40261511  0.70096973  1
  Fe  Fe38  1  0.59738489  0.59738489  0.29903027  1
  Fe  Fe39  1  0.09738489  0.90261511  0.20096973  1
  Fe  Fe40  1  0.90261511  0.09738489  0.20096973  1
  Fe  Fe41  1  0.90261511  0.09738489  0.79903027  1
  Fe  Fe42  1  0.09738489  0.90261511  0.79903027  1
  Fe  Fe43  1  0.40261511  0.40261511  0.29903027  1
  Fe  Fe44  1  0.81705737  0.81705737  0.74588009  1
  Fe  Fe45  1  0.18294263  0.18294263  0.74588009  1
  Fe  Fe46  1  0.81705737  0.81705737  0.25411991  1
  Fe  Fe47  1  0.31705737  0.68294263  0.24588009  1
  Fe  Fe48  1  0.68294263  0.31705737  0.24588009  1
  Fe  Fe49  1  0.68294263  0.31705737  0.75411991  1
  Fe  Fe50  1  0.31705737  0.68294263  0.75411991  1
  Fe  Fe51  1  0.18294263  0.18294263  0.25411991  1
  Fe  Fe52  1  0.00000000  0.00000000  0.61575213  1
  Fe  Fe53  1  0.50000000  0.50000000  0.11575213  1
  Fe  Fe54  1  0.50000000  0.50000000  0.88424787  1
  Fe  Fe55  1  0.00000000  0.00000000  0.38424787  1
  Fe  Fe56  1  0.50000000  0.00000000  0.00000000  1
  Fe  Fe57  1  0.50000000  0.00000000  0.50000000  1
  Fe  Fe58  1  0.00000000  0.50000000  0.50000000  1
  Fe  Fe59  1  0.00000000  0.50000000  0.00000000  1
  Y  Y60  1  0.73318717  0.26681283  0.00000000  1
  Y  Y61  1  0.23318717  0.23318717  0.50000000  1
  Y  Y62  1  0.76681283  0.76681283  0.50000000  1
  Y  Y63  1  0.26681283  0.73318717  0.00000000  1
  Y  Y64  1  0.85668169  0.85668169  0.00000000  1
  Y  Y65  1  0.64331831  0.35668169  0.50000000  1
  Y  Y66  1  0.35668169  0.64331831  0.50000000  1
  Y  Y67  1  0.14331831  0.14331831  0.00000000  1
