# generated using pymatgen
data_Ca2Cu(BrO)2
_symmetry_space_group_name_H-M   'P 1'
_cell_length_a   3.88489714
_cell_length_b   3.88489675
_cell_length_c   9.26575395
_cell_angle_alpha   102.10110401
_cell_angle_beta   102.10110258
_cell_angle_gamma   90.00000251
_symmetry_Int_Tables_number   1
_chemical_formula_structural   Ca2Cu(BrO)2
_chemical_formula_sum   'Ca2 Cu1 Br2 O2'
_cell_volume   133.55557654
_cell_formula_units_Z   1
loop_
 _symmetry_equiv_pos_site_id
 _symmetry_equiv_pos_as_xyz
  1  'x, y, z'
loop_
 _atom_site_type_symbol
 _atom_site_label
 _atom_site_symmetry_multiplicity
 _atom_site_fract_x
 _atom_site_fract_y
 _atom_site_fract_z
 _atom_site_occupancy
  Ca  Ca0  1  0.41112332  0.41112332  0.82224664  1
  Br  Br1  1  0.82966408  0.82966408  0.65932817  1
  Cu  Cu2  1  -0.00000172  -0.00000172  -0.00000345  1
  Ca  Ca3  1  0.58887679  0.58887679  0.17775359  1
  Br  Br4  1  0.17033667  0.17033667  0.34067335  1
  O  O5  1  0.50000043  1.00000043  1.00000085  1
  O  O6  1  1.00000043  0.50000043  1.00000085  1
