# generated using pymatgen
data_K6Ti2O7
_symmetry_space_group_name_H-M   'P 1'
_cell_length_a   6.64230638
_cell_length_b   9.38530821
_cell_length_c   9.59597956
_cell_angle_alpha   90.00000000
_cell_angle_beta   91.90415399
_cell_angle_gamma   90.00000000
_symmetry_Int_Tables_number   1
_chemical_formula_structural   K6Ti2O7
_chemical_formula_sum   'K12 Ti4 O14'
_cell_volume   597.88392626
_cell_formula_units_Z   2
loop_
 _symmetry_equiv_pos_site_id
 _symmetry_equiv_pos_as_xyz
  1  'x, y, z'
loop_
 _atom_site_type_symbol
 _atom_site_label
 _atom_site_symmetry_multiplicity
 _atom_site_fract_x
 _atom_site_fract_y
 _atom_site_fract_z
 _atom_site_occupancy
  O  O0  1  0.50000000  0.00000000  0.00000000  1
  O  O1  1  0.00000000  0.50000000  0.50000000  1
  O  O2  1  0.82985656  0.82542227  0.86756113  1
  O  O3  1  0.67014344  0.32542227  0.63243887  1
  O  O4  1  0.42684498  0.69886357  0.92748785  1
  O  O5  1  0.07315502  0.19886357  0.57251215  1
  O  O6  1  0.57315502  0.30113643  0.07251215  1
  O  O7  1  0.92684498  0.80113643  0.42748785  1
  O  O8  1  0.45991408  0.90317914  0.69509988  1
  O  O9  1  0.04008592  0.40317914  0.80490012  1
  O  O10  1  0.54008592  0.09682086  0.30490012  1
  O  O11  1  0.95991408  0.59682086  0.19509988  1
  O  O12  1  0.32985656  0.67457773  0.36756113  1
  O  O13  1  0.17014344  0.17457773  0.13243887  1
  K  K14  1  0.75023919  0.02769043  0.54331319  1
  K  K15  1  0.74976081  0.52769043  0.95668681  1
  K  K16  1  0.12471009  0.84361695  0.06641694  1
  K  K17  1  0.37528991  0.34361695  0.43358306  1
  K  K18  1  0.87528991  0.15638305  0.93358306  1
  K  K19  1  0.62471009  0.65638305  0.56641694  1
  K  K20  1  0.62932293  0.79520658  0.22122388  1
  K  K21  1  0.87067707  0.29520658  0.27877612  1
  K  K22  1  0.37067707  0.20479342  0.77877612  1
  K  K23  1  0.12932293  0.70479342  0.72122388  1
  K  K24  1  0.24976081  0.97230957  0.45668681  1
  K  K25  1  0.25023919  0.47230957  0.04331319  1
  Ti  Ti26  1  0.44118889  0.14446241  0.13243972  1
  Ti  Ti27  1  0.05881111  0.64446241  0.36756028  1
  Ti  Ti28  1  0.55881111  0.85553759  0.86756028  1
  Ti  Ti29  1  0.94118889  0.35553759  0.63243972  1
