# generated using pymatgen
data_PdSeO3
_symmetry_space_group_name_H-M   'P 1'
_cell_length_a   4.03054123
_cell_length_b   6.26215957
_cell_length_c   6.56547609
_cell_angle_alpha   90.00191142
_cell_angle_beta   89.99722653
_cell_angle_gamma   95.91008798
_symmetry_Int_Tables_number   1
_chemical_formula_structural   PdSeO3
_chemical_formula_sum   'Pd2 Se2 O6'
_cell_volume   164.83110146
_cell_formula_units_Z   2
loop_
 _symmetry_equiv_pos_site_id
 _symmetry_equiv_pos_as_xyz
  1  'x, y, z'
loop_
 _atom_site_type_symbol
 _atom_site_label
 _atom_site_symmetry_multiplicity
 _atom_site_fract_x
 _atom_site_fract_y
 _atom_site_fract_z
 _atom_site_occupancy
  Se  Se0  1  0.44601810  0.67798132  0.74996069  1
  O  O1  1  0.29903717  0.28158206  0.04095378  1
  O  O2  1  0.28017910  0.94261727  0.74999872  1
  O  O3  1  0.70097233  0.71842050  0.95905061  1
  O  O4  1  0.70092581  0.71840676  0.54097640  1
  Se  Se5  1  0.55396661  0.32201245  0.25004139  1
  Pd  Pd6  1  0.00000046  0.00000107  -0.00000050  1
  O  O7  1  0.71982144  0.05738375  0.25000077  1
  O  O8  1  0.29907932  0.28159484  0.45901886  1
  Pd  Pd9  1  0.99999964  0.99999998  0.49999928  1
