# generated using pymatgen
data_BaSbClO2
_symmetry_space_group_name_H-M   'P 1'
_cell_length_a   5.59924507
_cell_length_b   5.95254389
_cell_length_c   7.20193496
_cell_angle_alpha   114.40608146
_cell_angle_beta   89.99995954
_cell_angle_gamma   89.99999107
_symmetry_Int_Tables_number   1
_chemical_formula_structural   BaSbClO2
_chemical_formula_sum   'Ba2 Sb2 Cl2 O4'
_cell_volume   218.58880176
_cell_formula_units_Z   2
loop_
 _symmetry_equiv_pos_site_id
 _symmetry_equiv_pos_as_xyz
  1  'x, y, z'
loop_
 _atom_site_type_symbol
 _atom_site_label
 _atom_site_symmetry_multiplicity
 _atom_site_fract_x
 _atom_site_fract_y
 _atom_site_fract_z
 _atom_site_occupancy
  O  O0  1  0.49999197  0.71695364  1.00001160  1
  Sb  Sb1  1  0.24999955  0.43145932  0.86292056  1
  Ba  Ba2  1  0.24999971  0.12781711  0.25562980  1
  Sb  Sb3  1  0.75000046  0.56854039  0.13707929  1
  Cl  Cl4  1  0.74999921  0.24697791  0.49395228  1
  O  O5  1  0.99999178  0.28304645  -0.00001147  1
  O  O6  1  0.00000798  0.71695386  1.00001181  1
  Cl  Cl7  1  0.25000036  0.75302222  0.50604758  1
  Ba  Ba8  1  0.75000075  0.87218275  0.74436981  1
  O  O9  1  0.50000821  0.28304635  -0.00001125  1
