# generated using pymatgen
data_Er3(CuSi)4
_symmetry_space_group_name_H-M   'P 1'
_cell_length_a   4.10243033
_cell_length_b   6.52404880
_cell_length_c   7.81090605
_cell_angle_alpha   114.68615272
_cell_angle_beta   105.22493454
_cell_angle_gamma   90.00000004
_symmetry_Int_Tables_number   1
_chemical_formula_structural   Er3(CuSi)4
_chemical_formula_sum   'Er3 Si4 Cu4'
_cell_volume   181.84234093
_cell_formula_units_Z   1
loop_
 _symmetry_equiv_pos_site_id
 _symmetry_equiv_pos_as_xyz
  1  'x, y, z'
loop_
 _atom_site_type_symbol
 _atom_site_label
 _atom_site_symmetry_multiplicity
 _atom_site_fract_x
 _atom_site_fract_y
 _atom_site_fract_z
 _atom_site_occupancy
  Si  Si0  1  0.49999372  0.81478822  -0.00001256  1
  Si  Si1  1  0.50000628  0.18521178  1.00001256  1
  Si  Si2  1  0.78368503  0.28370350  0.56737005  1
  Si  Si3  1  0.21631497  0.71629650  0.43262995  1
  Cu  Cu4  1  0.33105332  0.52238579  0.66210665  1
  Cu  Cu5  1  0.66892709  0.86019038  0.33785417  1
  Cu  Cu6  1  0.33107291  0.13980962  0.66214583  1
  Cu  Cu7  1  0.66894668  0.47761421  0.33789335  1
  Er  Er8  1  0.87061355  0.87062685  0.74122711  1
  Er  Er9  1  0.12938645  0.12937315  0.25877289  1
  Er  Er10  1  0.00000000  0.50000000  0.00000000  1
