# generated using pymatgen
data_Pr2BiO2
_symmetry_space_group_name_H-M   'P 1'
_cell_length_a   4.05929107
_cell_length_b   4.05929087
_cell_length_c   7.64399067
_cell_angle_alpha   105.39795807
_cell_angle_beta   105.39795728
_cell_angle_gamma   89.99999221
_symmetry_Int_Tables_number   1
_chemical_formula_structural   Pr2BiO2
_chemical_formula_sum   'Pr2 Bi1 O2'
_cell_volume   116.73905955
_cell_formula_units_Z   1
loop_
 _symmetry_equiv_pos_site_id
 _symmetry_equiv_pos_as_xyz
  1  'x, y, z'
loop_
 _atom_site_type_symbol
 _atom_site_label
 _atom_site_symmetry_multiplicity
 _atom_site_fract_x
 _atom_site_fract_y
 _atom_site_fract_z
 _atom_site_occupancy
  Pr  Pr0  1  0.33456678  0.33456678  0.66913356  1
  Bi  Bi1  1  -0.00000001  -0.00000001  -0.00000002  1
  Pr  Pr2  1  0.66543326  0.66543326  0.33086652  1
  O  O3  1  0.74999999  0.24999999  0.49999997  1
  O  O4  1  0.24999999  0.74999999  0.49999997  1
