# generated using pymatgen
data_Al2CuSi2O8F
_symmetry_space_group_name_H-M   'P 1'
_cell_length_a   4.88336691
_cell_length_b   8.99819201
_cell_length_c   14.10333804
_cell_angle_alpha   90.00000000
_cell_angle_beta   89.64970529
_cell_angle_gamma   90.00000000
_symmetry_Int_Tables_number   1
_chemical_formula_structural   Al2CuSi2O8F
_chemical_formula_sum   'Al8 Cu4 Si8 O32 F4'
_cell_volume   619.70986664
_cell_formula_units_Z   4
loop_
 _symmetry_equiv_pos_site_id
 _symmetry_equiv_pos_as_xyz
  1  'x, y, z'
loop_
 _atom_site_type_symbol
 _atom_site_label
 _atom_site_symmetry_multiplicity
 _atom_site_fract_x
 _atom_site_fract_y
 _atom_site_fract_z
 _atom_site_occupancy
  Al  Al0  1  0.39970142  0.36711407  0.54683453  1
  Al  Al1  1  0.10029858  0.86711407  0.95316547  1
  Al  Al2  1  0.60010297  0.63257670  0.04789602  1
  Al  Al3  1  0.89989703  0.13257670  0.45210398  1
  Al  Al4  1  0.60029858  0.63288593  0.45316547  1
  Al  Al5  1  0.89970142  0.13288593  0.04683453  1
  Al  Al6  1  0.39989703  0.36742330  0.95210398  1
  Al  Al7  1  0.10010297  0.86742330  0.54789602  1
  Cu  Cu8  1  0.35741081  0.35297076  0.74945073  1
  Cu  Cu9  1  0.14258919  0.85297076  0.75054927  1
  Cu  Cu10  1  0.64258919  0.64702924  0.25054927  1
  Cu  Cu11  1  0.85741081  0.14702924  0.24945073  1
  Si  Si12  1  0.59448316  0.05926623  0.64525596  1
  Si  Si13  1  0.90551684  0.55926623  0.85474404  1
  Si  Si14  1  0.40892258  0.93918898  0.14705981  1
  Si  Si15  1  0.09107742  0.43918898  0.35294019  1
  Si  Si16  1  0.40551684  0.94073377  0.35474404  1
  Si  Si17  1  0.09448316  0.44073377  0.14525596  1
  Si  Si18  1  0.59107742  0.06081102  0.85294019  1
  Si  Si19  1  0.90892258  0.56081102  0.64705981  1
  O  O20  1  0.80655999  0.00896714  0.56046691  1
  O  O21  1  0.69344001  0.50896714  0.93953309  1
  O  O22  1  0.19886081  0.98205960  0.06052538  1
  O  O23  1  0.30113919  0.48205960  0.43947462  1
  O  O24  1  0.19344001  0.99103286  0.43953309  1
  O  O25  1  0.30655999  0.49103286  0.06046691  1
  O  O26  1  0.80113919  0.01794040  0.93947462  1
  O  O27  1  0.69886081  0.51794040  0.56052538  1
  O  O28  1  0.19722352  0.46670557  0.85447393  1
  O  O29  1  0.30277648  0.96670557  0.64552607  1
  O  O30  1  0.80379156  0.53656182  0.35613681  1
  O  O31  1  0.69620844  0.03656182  0.14386319  1
  O  O32  1  0.80277648  0.53329443  0.14552607  1
  O  O33  1  0.69722352  0.03329443  0.35447393  1
  O  O34  1  0.19620844  0.46343818  0.64386319  1
  O  O35  1  0.30379156  0.96343818  0.85613681  1
  O  O36  1  0.73821452  0.02455228  0.74942401  1
  O  O37  1  0.76178548  0.52455228  0.75057599  1
  O  O38  1  0.26178548  0.97544772  0.25057599  1
  O  O39  1  0.23821452  0.47544772  0.24942401  1
  O  O40  1  0.53068507  0.24249926  0.64659413  1
  O  O41  1  0.96931493  0.74249926  0.85340587  1
  O  O42  1  0.47929752  0.75865157  0.14863998  1
  O  O43  1  0.02070248  0.25865157  0.35136002  1
  O  O44  1  0.46931493  0.75750074  0.35340587  1
  O  O45  1  0.03068507  0.25750074  0.14659413  1
  O  O46  1  0.52070248  0.24134843  0.85136002  1
  O  O47  1  0.97929752  0.74134843  0.64863998  1
  O  O48  1  0.60494718  0.24473010  0.47794034  1
  O  O49  1  0.89505282  0.74473010  0.02205966  1
  O  O50  1  0.39505282  0.75526990  0.52205966  1
  O  O51  1  0.10494718  0.25526990  0.97794034  1
  F  F52  1  0.39838784  0.74568618  0.96633689  1
  F  F53  1  0.10161216  0.24568618  0.53366311  1
  F  F54  1  0.60161216  0.25431382  0.03366311  1
  F  F55  1  0.89838784  0.75431382  0.46633689  1
