# generated using pymatgen
data_Ba2TaBiO6
_symmetry_space_group_name_H-M   'P 1'
_cell_length_a   6.10668069
_cell_length_b   6.10526158
_cell_length_c   6.13553588
_cell_angle_alpha   60.50311864
_cell_angle_beta   60.15544596
_cell_angle_gamma   59.99230388
_symmetry_Int_Tables_number   1
_chemical_formula_structural   Ba2TaBiO6
_chemical_formula_sum   'Ba2 Ta1 Bi1 O6'
_cell_volume   162.53884499
_cell_formula_units_Z   1
loop_
 _symmetry_equiv_pos_site_id
 _symmetry_equiv_pos_as_xyz
  1  'x, y, z'
loop_
 _atom_site_type_symbol
 _atom_site_label
 _atom_site_symmetry_multiplicity
 _atom_site_fract_x
 _atom_site_fract_y
 _atom_site_fract_z
 _atom_site_occupancy
  Ba  Ba0  1  0.75092954  0.75320504  0.74493623  1
  O  O1  1  0.30057565  0.23947430  0.69472952  1
  O  O2  1  0.69942435  0.76052569  0.30527043  1
  O  O3  1  0.76522034  0.23947424  0.69472970  1
  Ta  Ta4  1  0.50000006  0.49999998  0.49999994  1
  O  O5  1  0.72913661  0.33111843  0.21060856  1
  O  O6  1  0.23477969  0.76052566  0.30527031  1
  Ba  Ba7  1  0.24907032  0.24679527  0.25506380  1
  O  O8  1  0.27086347  0.66888144  0.78939144  1
  Bi  Bi9  1  -0.00000004  -0.00000005  0.00000007  1
