# generated using pymatgen
data_Cd3Se4
_symmetry_space_group_name_H-M   'P 1'
_cell_length_a   8.52338541
_cell_length_b   13.58698154
_cell_length_c   8.95310447
_cell_angle_alpha   119.67189334
_cell_angle_beta   90.00000000
_cell_angle_gamma   108.27993848
_symmetry_Int_Tables_number   1
_chemical_formula_structural   Cd3Se4
_chemical_formula_sum   'Cd12 Se16'
_cell_volume   840.12914125
_cell_formula_units_Z   4
loop_
 _symmetry_equiv_pos_site_id
 _symmetry_equiv_pos_as_xyz
  1  'x, y, z'
loop_
 _atom_site_type_symbol
 _atom_site_label
 _atom_site_symmetry_multiplicity
 _atom_site_fract_x
 _atom_site_fract_y
 _atom_site_fract_z
 _atom_site_occupancy
  Cd  Cd0  1  0.17096423  0.46311794  0.32550375  1
  Cd  Cd1  1  0.07464704  0.42584658  0.78022497  1
  Cd  Cd2  1  0.35982141  0.76860880  0.29669035  1
  Cd  Cd3  1  0.25619373  0.78577484  0.81224150  1
  Cd  Cd4  1  0.53612776  0.10422162  0.28068200  1
  Cd  Cd5  1  0.46342237  0.11694644  0.81622690  1
  Cd  Cd6  1  0.62548771  0.46311794  0.32550375  1
  Cd  Cd7  1  0.68453355  0.42584658  0.78022497  1
  Cd  Cd8  1  0.90142786  0.10422162  0.28068200  1
  Cd  Cd9  1  0.98685807  0.11694644  0.81622690  1
  Cd  Cd10  1  0.74212039  0.76860880  0.29669035  1
  Cd  Cd11  1  0.86291411  0.78577484  0.81224150  1
  Se  Se12  1  0.12691221  0.22734363  0.15085726  1
  Se  Se13  1  0.12247170  0.21387909  0.63027446  1
  Se  Se14  1  0.09482198  0.55302063  0.13930232  1
  Se  Se15  1  0.23401676  0.56120973  0.65937744  1
  Se  Se16  1  0.11305635  0.89277970  0.67550567  1
  Se  Se17  1  0.43376442  0.22734363  0.15085726  1
  Se  Se18  1  0.42474039  0.21387909  0.63027446  1
  Se  Se19  1  0.44614848  0.55896496  0.16601897  1
  Se  Se20  1  0.32278590  0.88808159  0.15373249  1
  Se  Se21  1  0.45834518  0.89148734  0.65041947  1
  Se  Se22  1  0.77730226  0.22127052  0.15046681  1
  Se  Se23  1  0.77506569  0.21679737  0.62388679  1
  Se  Se24  1  0.79153165  0.55302063  0.13930232  1
  Se  Se25  1  0.66052597  0.56120973  0.65937744  1
  Se  Se26  1  0.89862868  0.88808159  0.15373249  1
  Se  Se27  1  0.76647516  0.89148734  0.65041947  1
