# generated using pymatgen
data_BaEu2CoO5
_symmetry_space_group_name_H-M   'P 1'
_cell_length_a   3.77247054
_cell_length_b   5.97652844
_cell_length_c   6.86774825
_cell_angle_alpha   115.83120990
_cell_angle_beta   105.94661691
_cell_angle_gamma   89.98251177
_symmetry_Int_Tables_number   1
_chemical_formula_structural   BaEu2CoO5
_chemical_formula_sum   'Ba1 Eu2 Co1 O5'
_cell_volume   132.72573021
_cell_formula_units_Z   1
loop_
 _symmetry_equiv_pos_site_id
 _symmetry_equiv_pos_as_xyz
  1  'x, y, z'
loop_
 _atom_site_type_symbol
 _atom_site_label
 _atom_site_symmetry_multiplicity
 _atom_site_fract_x
 _atom_site_fract_y
 _atom_site_fract_z
 _atom_site_occupancy
  Ba  Ba0  1  0.00000000  0.00000000  0.00000000  1
  Eu  Eu1  1  0.20656204  0.70649441  0.41308881  1
  Eu  Eu2  1  0.79343796  0.29350559  0.58691119  1
  Co  Co3  1  0.50000000  0.50000000  0.00000000  1
  O  O4  1  0.35936416  0.11891182  0.71854912  1
  O  O5  1  0.64063584  0.88108818  0.28145088  1
  O  O6  1  0.64068873  0.40061234  0.28147465  1
  O  O7  1  0.35931127  0.59938766  0.71852535  1
  O  O8  1  0.00000000  0.50000000  0.00000000  1
