# generated using pymatgen
data_SrBiClO2
_symmetry_space_group_name_H-M   'P 1'
_cell_length_a   5.68054358
_cell_length_b   5.79314462
_cell_length_c   6.98743949
_cell_angle_alpha   114.48794249
_cell_angle_beta   89.99995928
_cell_angle_gamma   89.99997497
_symmetry_Int_Tables_number   1
_chemical_formula_structural   SrBiClO2
_chemical_formula_sum   'Sr2 Bi2 Cl2 O4'
_cell_volume   209.26031484
_cell_formula_units_Z   2
loop_
 _symmetry_equiv_pos_site_id
 _symmetry_equiv_pos_as_xyz
  1  'x, y, z'
loop_
 _atom_site_type_symbol
 _atom_site_label
 _atom_site_symmetry_multiplicity
 _atom_site_fract_x
 _atom_site_fract_y
 _atom_site_fract_z
 _atom_site_occupancy
  Cl  Cl0  1  0.74999973  0.74442244  0.48880727  1
  Bi  Bi1  1  0.74999956  0.08079595  0.16146259  1
  Bi  Bi2  1  0.24999999  0.91920413  0.83853724  1
  Sr  Sr3  1  0.25000054  0.60799496  0.21599471  1
  O  O4  1  0.49998076  0.23543625  -0.00000352  1
  O  O5  1  0.00001892  0.23543612  -0.00000329  1
  O  O6  1  0.99998092  0.76456396  1.00000360  1
  Sr  Sr7  1  0.75000083  0.39200525  0.78400569  1
  Cl  Cl8  1  0.24999978  0.25557718  0.51119264  1
  O  O9  1  0.50001895  0.76456377  1.00000306  1
