# generated using pymatgen
data_Li3B3(H8N)2
_symmetry_space_group_name_H-M   'P 1'
_cell_length_a   7.13099689
_cell_length_b   7.86301598
_cell_length_c   7.51485017
_cell_angle_alpha   92.78228372
_cell_angle_beta   90.00000000
_cell_angle_gamma   90.00000000
_symmetry_Int_Tables_number   1
_chemical_formula_structural   Li3B3(H8N)2
_chemical_formula_sum   'Li6 B6 H32 N4'
_cell_volume   420.86952583
_cell_formula_units_Z   2
loop_
 _symmetry_equiv_pos_site_id
 _symmetry_equiv_pos_as_xyz
  1  'x, y, z'
loop_
 _atom_site_type_symbol
 _atom_site_label
 _atom_site_symmetry_multiplicity
 _atom_site_fract_x
 _atom_site_fract_y
 _atom_site_fract_z
 _atom_site_occupancy
  Li  Li0  1  0.92186214  0.25457599  0.17799284  1
  Li  Li1  1  0.42186214  0.74542401  0.82200716  1
  Li  Li2  1  0.64832101  0.20162289  0.78510645  1
  Li  Li3  1  0.14832101  0.79837711  0.21489355  1
  Li  Li4  1  0.15997132  0.31744995  0.58123338  1
  Li  Li5  1  0.65997132  0.68255005  0.41876662  1
  B  B6  1  0.00080631  0.26493656  0.86609092  1
  B  B7  1  0.50080631  0.73506344  0.13390908  1
  B  B8  1  0.13287079  0.08663318  0.35246682  1
  B  B9  1  0.63287079  0.91336682  0.64753318  1
  B  B10  1  0.97987281  0.56243436  0.38165044  1
  B  B11  1  0.47987281  0.43756564  0.61834956  1
  H  H12  1  0.91111948  0.15025371  0.93103112  1
  H  H13  1  0.41111948  0.84974629  0.06896888  1
  H  H14  1  0.91299395  0.31676492  0.73928597  1
  H  H15  1  0.41299395  0.68323508  0.26071403  1
  H  H16  1  0.15279487  0.20642090  0.81790819  1
  H  H17  1  0.65279487  0.79357910  0.18209181  1
  H  H18  1  0.02639331  0.38349605  0.97584015  1
  H  H19  1  0.52639331  0.61650395  0.02415985  1
  H  H20  1  0.09586016  0.08514367  0.51105903  1
  H  H21  1  0.59586016  0.91485633  0.48894097  1
  H  H22  1  0.99588722  0.02867311  0.27039913  1
  H  H23  1  0.49588722  0.97132689  0.72960087  1
  H  H24  1  0.27330276  0.00192088  0.32139101  1
  H  H25  1  0.77330276  0.99807912  0.67860899  1
  H  H26  1  0.16781153  0.23166589  0.30640665  1
  H  H27  1  0.66781153  0.76833411  0.69359335  1
  H  H28  1  0.99744008  0.50076701  0.52687249  1
  H  H29  1  0.49744008  0.49923299  0.47312751  1
  H  H30  1  0.85398664  0.48780437  0.29699922  1
  H  H31  1  0.35398664  0.51219563  0.70300078  1
  H  H32  1  0.12598747  0.55558260  0.29706322  1
  H  H33  1  0.62598747  0.44441740  0.70293678  1
  H  H34  1  0.93415975  0.71241421  0.41164341  1
  H  H35  1  0.43415975  0.28758579  0.58835659  1
  H  H36  1  0.57350924  0.22951619  0.30802416  1
  H  H37  1  0.07350924  0.77048381  0.69197584  1
  H  H38  1  0.62348049  0.06026872  0.18237371  1
  H  H39  1  0.12348049  0.93973128  0.81762629  1
  H  H40  1  0.54189703  0.38353186  0.05234970  1
  H  H41  1  0.04189703  0.61646814  0.94765030  1
  H  H42  1  0.39255582  0.22669017  0.05639338  1
  H  H43  1  0.89255582  0.77330983  0.94360662  1
  N  N44  1  0.63754866  0.19068003  0.19084989  1
  N  N45  1  0.13754866  0.80931997  0.80915011  1
  N  N46  1  0.53286714  0.25317815  0.04120552  1
  N  N47  1  0.03286714  0.74682185  0.95879448  1
