# generated using pymatgen
data_Na5NbO5
_symmetry_space_group_name_H-M   'P 1'
_cell_length_a   6.08048959
_cell_length_b   6.08048960
_cell_length_c   10.14117151
_cell_angle_alpha   98.55544364
_cell_angle_beta   98.55544366
_cell_angle_gamma   116.87925446
_symmetry_Int_Tables_number   1
_chemical_formula_structural   Na5NbO5
_chemical_formula_sum   'Na10 Nb2 O10'
_cell_volume   320.64098911
_cell_formula_units_Z   2
loop_
 _symmetry_equiv_pos_site_id
 _symmetry_equiv_pos_as_xyz
  1  'x, y, z'
loop_
 _atom_site_type_symbol
 _atom_site_label
 _atom_site_symmetry_multiplicity
 _atom_site_fract_x
 _atom_site_fract_y
 _atom_site_fract_z
 _atom_site_occupancy
  O  O0  1  0.09303400  0.90696600  0.75000000  1
  O  O1  1  0.90696600  0.09303400  0.25000000  1
  O  O2  1  0.96159889  0.30443477  0.61879669  1
  O  O3  1  0.69556523  0.03840111  0.88120331  1
  O  O4  1  0.81056603  0.59573492  0.10398912  1
  O  O5  1  0.40426508  0.18943397  0.39601088  1
  O  O6  1  0.18943397  0.40426508  0.89601088  1
  O  O7  1  0.59573492  0.81056603  0.60398912  1
  O  O8  1  0.03840111  0.69556523  0.38120331  1
  O  O9  1  0.30443477  0.96159889  0.11879669  1
  Na  Na10  1  0.00385340  0.32118575  0.07706057  1
  Na  Na11  1  0.67881425  0.99614660  0.42293943  1
  Na  Na12  1  0.44359822  0.21559168  0.94922433  1
  Na  Na13  1  0.78440832  0.55640178  0.55077567  1
  Na  Na14  1  0.55640178  0.78440832  0.05077567  1
  Na  Na15  1  0.21559168  0.44359822  0.44922433  1
  Na  Na16  1  0.66747221  0.33252779  0.25000000  1
  Na  Na17  1  0.33252779  0.66747221  0.75000000  1
  Na  Na18  1  0.32118575  0.00385340  0.57706057  1
  Na  Na19  1  0.99614660  0.67881425  0.92293943  1
  Nb  Nb20  1  0.09239792  0.90760208  0.25000000  1
  Nb  Nb21  1  0.90760208  0.09239792  0.75000000  1
