# generated using pymatgen
data_PrSi2Ni
_symmetry_space_group_name_H-M   'P 1'
_cell_length_a   4.08677461
_cell_length_b   4.17879182
_cell_length_c   8.49143674
_cell_angle_alpha   104.24443622
_cell_angle_beta   90.00000000
_cell_angle_gamma   90.00000000
_symmetry_Int_Tables_number   1
_chemical_formula_structural   PrSi2Ni
_chemical_formula_sum   'Pr2 Si4 Ni2'
_cell_volume   140.55638040
_cell_formula_units_Z   2
loop_
 _symmetry_equiv_pos_site_id
 _symmetry_equiv_pos_as_xyz
  1  'x, y, z'
loop_
 _atom_site_type_symbol
 _atom_site_label
 _atom_site_symmetry_multiplicity
 _atom_site_fract_x
 _atom_site_fract_y
 _atom_site_fract_z
 _atom_site_occupancy
  Si  Si0  1  0.25000000  0.24997889  0.49995778  1
  Si  Si1  1  0.75000000  0.75002111  0.50004222  1
  Si  Si2  1  0.75000000  0.45926050  0.91852100  1
  Si  Si3  1  0.25000000  0.54073950  0.08147900  1
  Ni  Ni4  1  0.75000000  0.31815828  0.63631657  1
  Ni  Ni5  1  0.25000000  0.68184172  0.36368343  1
  Pr  Pr6  1  0.25000000  0.89340178  0.78680356  1
  Pr  Pr7  1  0.75000000  0.10659822  0.21319644  1
