# generated using pymatgen
data_TlPd3O4
_symmetry_space_group_name_H-M   'P 1'
_cell_length_a   6.90046641
_cell_length_b   6.90046641
_cell_length_c   6.90046641
_cell_angle_alpha   60.00000003
_cell_angle_beta   60.00000004
_cell_angle_gamma   60.00000002
_symmetry_Int_Tables_number   1
_chemical_formula_structural   TlPd3O4
_chemical_formula_sum   'Tl2 Pd6 O8'
_cell_volume   232.33805035
_cell_formula_units_Z   2
loop_
 _symmetry_equiv_pos_site_id
 _symmetry_equiv_pos_as_xyz
  1  'x, y, z'
loop_
 _atom_site_type_symbol
 _atom_site_label
 _atom_site_symmetry_multiplicity
 _atom_site_fract_x
 _atom_site_fract_y
 _atom_site_fract_z
 _atom_site_occupancy
  O  O0  1  0.85831695  0.85831695  0.85831695  1
  O  O1  1  0.14168305  0.14168305  0.57495086  1
  O  O2  1  0.14168305  0.57495086  0.14168305  1
  O  O3  1  0.57495086  0.14168305  0.14168305  1
  O  O4  1  0.85831695  0.42504914  0.85831695  1
  O  O5  1  0.42504914  0.85831695  0.85831695  1
  O  O6  1  0.14168305  0.14168305  0.14168305  1
  O  O7  1  0.85831695  0.85831695  0.42504914  1
  Pd  Pd8  1  0.00000000  0.00000000  0.50000000  1
  Pd  Pd9  1  0.00000000  0.50000000  0.00000000  1
  Pd  Pd10  1  0.00000000  0.50000000  0.50000000  1
  Pd  Pd11  1  0.50000000  0.50000000  0.00000000  1
  Pd  Pd12  1  0.50000000  0.00000000  0.00000000  1
  Pd  Pd13  1  0.50000000  0.00000000  0.50000000  1
  Tl  Tl14  1  0.50000000  0.50000000  0.50000000  1
  Tl  Tl15  1  0.00000000  0.00000000  0.00000000  1
