# generated using pymatgen
data_Cs2U2O7
_symmetry_space_group_name_H-M   'P 1'
_cell_length_a   4.35941545
_cell_length_b   7.71132557
_cell_length_c   7.62749098
_cell_angle_alpha   112.24073951
_cell_angle_beta   106.60338861
_cell_angle_gamma   90.00370068
_symmetry_Int_Tables_number   1
_chemical_formula_structural   Cs2U2O7
_chemical_formula_sum   'Cs2 U2 O7'
_cell_volume   225.74111452
_cell_formula_units_Z   1
loop_
 _symmetry_equiv_pos_site_id
 _symmetry_equiv_pos_as_xyz
  1  'x, y, z'
loop_
 _atom_site_type_symbol
 _atom_site_label
 _atom_site_symmetry_multiplicity
 _atom_site_fract_x
 _atom_site_fract_y
 _atom_site_fract_z
 _atom_site_occupancy
  O  O0  1  0.19918830  0.25789664  0.39820823  1
  U  U1  1  0.85260417  0.00742624  0.70523250  1
  O  O2  1  0.69116765  0.99644012  0.38236856  1
  Cs  Cs3  1  0.60379096  0.41779471  0.20744287  1
  O  O4  1  0.91108123  0.27258182  0.82223231  1
  O  O5  1  -0.00001012  -0.00000378  -0.00001381  1
  Cs  Cs6  1  0.39622671  0.58224956  0.79257144  1
  O  O7  1  0.30883671  0.00355133  0.61764521  1
  U  U8  1  0.14738569  0.99254492  0.29475322  1
  O  O9  1  0.08891407  0.72739846  0.17776076  1
  O  O10  1  0.80081462  0.74211997  0.60179872  1
