# generated using pymatgen
data_Cs4Mg3F10
_symmetry_space_group_name_H-M   'P 1'
_cell_length_a   6.23314961
_cell_length_b   8.01340629
_cell_length_c   13.89973451
_cell_angle_alpha   90.00000000
_cell_angle_beta   90.00000000
_cell_angle_gamma   112.88732174
_symmetry_Int_Tables_number   1
_chemical_formula_structural   Cs4Mg3F10
_chemical_formula_sum   'Cs8 Mg6 F20'
_cell_volume   639.61530770
_cell_formula_units_Z   2
loop_
 _symmetry_equiv_pos_site_id
 _symmetry_equiv_pos_as_xyz
  1  'x, y, z'
loop_
 _atom_site_type_symbol
 _atom_site_label
 _atom_site_symmetry_multiplicity
 _atom_site_fract_x
 _atom_site_fract_y
 _atom_site_fract_z
 _atom_site_occupancy
  F  F0  1  0.80571805  0.19248854  0.45971608  1
  F  F1  1  0.61322951  0.80751146  0.54028392  1
  F  F2  1  0.69428195  0.80751146  0.95971608  1
  F  F3  1  0.88677049  0.19248854  0.04028392  1
  F  F4  1  0.19428195  0.80751146  0.54028392  1
  F  F5  1  0.38677049  0.19248854  0.45971608  1
  F  F6  1  0.30571805  0.19248854  0.04028392  1
  F  F7  1  0.11322951  0.80751146  0.95971608  1
  F  F8  1  0.52596266  0.05192533  0.64272703  1
  F  F9  1  0.47403734  0.94807467  0.35727297  1
  F  F10  1  0.97403734  0.94807467  0.14272703  1
  F  F11  1  0.02596266  0.05192533  0.85727297  1
  F  F12  1  0.25182328  0.50364655  0.64983225  1
  F  F13  1  0.74817672  0.49635345  0.35016775  1
  F  F14  1  0.14034010  0.78068020  0.75000000  1
  F  F15  1  0.35965990  0.21931980  0.25000000  1
  F  F16  1  0.85965990  0.21931980  0.25000000  1
  F  F17  1  0.64034010  0.78068020  0.75000000  1
  F  F18  1  0.75182328  0.50364655  0.85016775  1
  F  F19  1  0.24817672  0.49635345  0.14983225  1
  Mg  Mg20  1  0.38321953  0.76643907  0.65756977  1
  Mg  Mg21  1  0.61678047  0.23356093  0.34243023  1
  Mg  Mg22  1  0.11678047  0.23356093  0.15756977  1
  Mg  Mg23  1  0.88321953  0.76643907  0.84243023  1
  Mg  Mg24  1  0.50000000  0.00000000  0.50000000  1
  Mg  Mg25  1  0.00000000  0.00000000  0.00000000  1
  Cs  Cs26  1  0.74704750  0.49409501  0.60781705  1
  Cs  Cs27  1  0.25295250  0.50590499  0.39218295  1
  Cs  Cs28  1  0.75295250  0.50590499  0.10781705  1
  Cs  Cs29  1  0.24704750  0.49409501  0.89218295  1
  Cs  Cs30  1  0.05095771  0.10191542  0.63861886  1
  Cs  Cs31  1  0.94904229  0.89808458  0.36138114  1
  Cs  Cs32  1  0.44904229  0.89808458  0.13861886  1
  Cs  Cs33  1  0.55095771  0.10191542  0.86138114  1
