# generated using pymatgen
data_KNb4O5F
_symmetry_space_group_name_H-M   'P 1'
_cell_length_a   4.20901196
_cell_length_b   4.20901219
_cell_length_c   8.53965997
_cell_angle_alpha   90.00000000
_cell_angle_beta   90.00000000
_cell_angle_gamma   90.00000000
_symmetry_Int_Tables_number   1
_chemical_formula_structural   KNb4O5F
_chemical_formula_sum   'K1 Nb4 O5 F1'
_cell_volume   151.28675991
_cell_formula_units_Z   1
loop_
 _symmetry_equiv_pos_site_id
 _symmetry_equiv_pos_as_xyz
  1  'x, y, z'
loop_
 _atom_site_type_symbol
 _atom_site_label
 _atom_site_symmetry_multiplicity
 _atom_site_fract_x
 _atom_site_fract_y
 _atom_site_fract_z
 _atom_site_occupancy
  O  O0  1  0.00000000  0.50000000  0.24860459  1
  O  O1  1  0.00000000  0.50000000  0.75138889  1
  O  O2  1  0.50000000  0.00000000  0.24860439  1
  Nb  Nb3  1  0.50000000  0.50000000  0.23630308  1
  O  O4  1  0.00000000  0.00000000  -0.00000392  1
  O  O5  1  0.50000000  0.00000000  0.75138794  1
  Nb  Nb6  1  0.50000000  0.50000000  0.76369118  1
  Nb  Nb7  1  0.50000000  0.00000000  1.00000723  1
  Nb  Nb8  1  0.00000000  0.50000000  1.00000111  1
  K  K9  1  0.00000000  0.00000000  0.50001741  1
  F  F10  1  0.50000000  0.50000000  0.49999810  1
