# generated using pymatgen
data_Sr2Cu(IO)2
_symmetry_space_group_name_H-M   'P 1'
_cell_length_a   4.05924191
_cell_length_b   4.05924176
_cell_length_c   10.73303809
_cell_angle_alpha   100.90028978
_cell_angle_beta   100.90028936
_cell_angle_gamma   89.99999491
_symmetry_Int_Tables_number   1
_chemical_formula_structural   Sr2Cu(IO)2
_chemical_formula_sum   'Sr2 Cu1 I2 O2'
_cell_volume   170.41165163
_cell_formula_units_Z   1
loop_
 _symmetry_equiv_pos_site_id
 _symmetry_equiv_pos_as_xyz
  1  'x, y, z'
loop_
 _atom_site_type_symbol
 _atom_site_label
 _atom_site_symmetry_multiplicity
 _atom_site_fract_x
 _atom_site_fract_y
 _atom_site_fract_z
 _atom_site_occupancy
  Sr  Sr0  1  0.41873194  0.41873194  0.83746388  1
  Cu  Cu1  1  0.00003178  0.00003178  0.00006355  1
  I  I2  1  0.16654205  0.16654205  0.33308410  1
  Sr  Sr3  1  0.58125294  0.58125294  0.16250588  1
  O  O4  1  0.49999769  0.99999769  0.99999538  1
  O  O5  1  0.99999769  0.49999769  0.99999538  1
  I  I6  1  0.83344592  0.83344592  0.66689184  1
