# generated using pymatgen
data_Sm4Se3O4
_symmetry_space_group_name_H-M   'P 1'
_cell_length_a   3.97209277
_cell_length_b   6.71990216
_cell_length_c   8.43478928
_cell_angle_alpha   89.99985735
_cell_angle_beta   90.00000000
_cell_angle_gamma   107.19033592
_symmetry_Int_Tables_number   1
_chemical_formula_structural   Sm4Se3O4
_chemical_formula_sum   'Sm4 Se3 O4'
_cell_volume   215.08453256
_cell_formula_units_Z   1
loop_
 _symmetry_equiv_pos_site_id
 _symmetry_equiv_pos_as_xyz
  1  'x, y, z'
loop_
 _atom_site_type_symbol
 _atom_site_label
 _atom_site_symmetry_multiplicity
 _atom_site_fract_x
 _atom_site_fract_y
 _atom_site_fract_z
 _atom_site_occupancy
  Sm  Sm0  1  0.68163938  0.36327876  0.23717353  1
  Sm  Sm1  1  0.68163953  0.36327905  0.76282613  1
  Sm  Sm2  1  0.01804163  0.03608325  0.49999998  1
  Sm  Sm3  1  0.00127598  0.00255197  -0.00000026  1
  O  O4  1  0.61576049  0.23152099  0.50000001  1
  Se  Se5  1  0.31240162  0.62480324  1.00000006  1
  Se  Se6  1  0.35510507  0.71021015  0.64932656  1
  O  O7  1  0.08697172  0.17394344  0.75590195  1
  O  O8  1  0.58765808  0.17531616  1.00000051  1
  O  O9  1  0.08697168  0.17394336  0.24409856  1
  Se  Se10  1  0.35510482  0.71020964  0.35067298  1
