# generated using pymatgen
data_YCu2Bi2(SeO2)2
_symmetry_space_group_name_H-M   'P 1'
_cell_length_a   3.90321163
_cell_length_b   3.90332166
_cell_length_c   12.78886162
_cell_angle_alpha   98.77798933
_cell_angle_beta   98.77774214
_cell_angle_gamma   90.00000468
_symmetry_Int_Tables_number   1
_chemical_formula_structural   YCu2Bi2(SeO2)2
_chemical_formula_sum   'Y1 Cu2 Bi2 Se2 O4'
_cell_volume   190.25293672
_cell_formula_units_Z   1
loop_
 _symmetry_equiv_pos_site_id
 _symmetry_equiv_pos_as_xyz
  1  'x, y, z'
loop_
 _atom_site_type_symbol
 _atom_site_label
 _atom_site_symmetry_multiplicity
 _atom_site_fract_x
 _atom_site_fract_y
 _atom_site_fract_z
 _atom_site_occupancy
  O  O0  1  0.55575064  0.05575064  0.11150128  1
  O  O1  1  0.94429109  0.44429109  0.88858219  1
  Bi  Bi2  1  0.39906350  0.39906350  0.79812700  1
  Bi  Bi3  1  0.60097776  0.60097776  0.20195551  1
  Se  Se4  1  0.81054013  0.81054013  0.62108025  1
  Se  Se5  1  0.18944338  0.18944338  0.37888676  1
  O  O6  1  0.05574951  0.55574951  0.11149903  1
  Y  Y7  1  1.00002226  1.00002226  1.00004452  1
  Cu  Cu8  1  0.24998256  0.74998256  0.49996511  1
  Cu  Cu9  1  0.74988832  0.24988832  0.49977665  1
  O  O10  1  0.44429086  0.94429086  0.88858172  1
