# generated using pymatgen
data_Th(TiH3)2
_symmetry_space_group_name_H-M   'P 1'
_cell_length_a   6.20866657
_cell_length_b   6.20866668
_cell_length_c   10.01917871
_cell_angle_alpha   90.00000000
_cell_angle_beta   90.00000000
_cell_angle_gamma   119.99999946
_symmetry_Int_Tables_number   1
_chemical_formula_structural   Th(TiH3)2
_chemical_formula_sum   'Th4 Ti8 H24'
_cell_volume   334.47174756
_cell_formula_units_Z   4
loop_
 _symmetry_equiv_pos_site_id
 _symmetry_equiv_pos_as_xyz
  1  'x, y, z'
loop_
 _atom_site_type_symbol
 _atom_site_label
 _atom_site_symmetry_multiplicity
 _atom_site_fract_x
 _atom_site_fract_y
 _atom_site_fract_z
 _atom_site_occupancy
  Th  Th0  1  0.33333300  0.66666700  0.43964946  1
  Th  Th1  1  0.66666700  0.33333300  0.93964946  1
  Th  Th2  1  0.66666700  0.33333300  0.56035054  1
  Th  Th3  1  0.33333300  0.66666700  0.06035054  1
  Ti  Ti4  1  0.16692042  0.33384085  0.75000000  1
  Ti  Ti5  1  0.83307958  0.16692042  0.25000000  1
  Ti  Ti6  1  0.33384085  0.16692042  0.25000000  1
  Ti  Ti7  1  0.66615915  0.83307958  0.75000000  1
  Ti  Ti8  1  0.16692042  0.83307958  0.75000000  1
  Ti  Ti9  1  0.83307958  0.66615915  0.25000000  1
  Ti  Ti10  1  -0.00000000  -0.00000000  0.50000000  1
  Ti  Ti11  1  -0.00000000  -0.00000000  -0.00000000  1
  H  H12  1  0.15423935  0.84576065  0.56757493  1
  H  H13  1  0.15423935  0.30847870  0.56757493  1
  H  H14  1  0.69152130  0.84576065  0.56757493  1
  H  H15  1  0.30847870  0.15423935  0.06757493  1
  H  H16  1  0.84576065  0.69152130  0.43242507  1
  H  H17  1  0.84576065  0.15423935  0.06757493  1
  H  H18  1  0.84576065  0.69152130  0.06757493  1
  H  H19  1  0.15423935  0.84576065  0.93242507  1
  H  H20  1  0.69152130  0.84576065  0.93242507  1
  H  H21  1  0.30847870  0.15423935  0.43242507  1
  H  H22  1  0.84576065  0.15423935  0.43242507  1
  H  H23  1  0.15423935  0.30847870  0.93242507  1
  H  H24  1  0.54189490  0.08378980  0.35262560  1
  H  H25  1  0.45810510  0.54189490  0.85262560  1
  H  H26  1  0.08378980  0.54189490  0.85262560  1
  H  H27  1  0.91621020  0.45810510  0.35262560  1
  H  H28  1  0.54189490  0.45810510  0.35262560  1
  H  H29  1  0.45810510  0.91621020  0.64737440  1
  H  H30  1  0.45810510  0.54189490  0.64737440  1
  H  H31  1  0.45810510  0.91621020  0.85262560  1
  H  H32  1  0.08378980  0.54189490  0.64737440  1
  H  H33  1  0.91621020  0.45810510  0.14737440  1
  H  H34  1  0.54189490  0.08378980  0.14737440  1
  H  H35  1  0.54189490  0.45810510  0.14737440  1
