# generated using pymatgen
data_Ba3Si6N4O9
_symmetry_space_group_name_H-M   'P 1'
_cell_length_a   7.32366958
_cell_length_b   7.32366963
_cell_length_c   6.88519919
_cell_angle_alpha   90.00000000
_cell_angle_beta   90.00000000
_cell_angle_gamma   119.99999978
_symmetry_Int_Tables_number   1
_chemical_formula_structural   Ba3Si6N4O9
_chemical_formula_sum   'Ba3 Si6 N4 O9'
_cell_volume   319.81927102
_cell_formula_units_Z   1
loop_
 _symmetry_equiv_pos_site_id
 _symmetry_equiv_pos_as_xyz
  1  'x, y, z'
loop_
 _atom_site_type_symbol
 _atom_site_label
 _atom_site_symmetry_multiplicity
 _atom_site_fract_x
 _atom_site_fract_y
 _atom_site_fract_z
 _atom_site_occupancy
  Ba  Ba0  1  0.33333300  0.66666700  0.68638875  1
  Ba  Ba1  1  0.00000000  0.00000000  0.56023143  1
  Ba  Ba2  1  0.66666700  0.33333300  0.74777491  1
  Si  Si3  1  0.45092389  0.07448932  0.25571917  1
  Si  Si4  1  0.03970335  0.78671987  0.04469934  1
  Si  Si5  1  0.21328013  0.25298348  0.04469934  1
  Si  Si6  1  0.74701652  0.96029665  0.04469934  1
  Si  Si7  1  0.62356543  0.54907611  0.25571917  1
  Si  Si8  1  0.92551068  0.37643457  0.25571917  1
  N  N9  1  0.00000000  0.00000000  0.09397695  1
  N  N10  1  0.86926605  0.57455694  0.19165211  1
  N  N11  1  0.42544306  0.29470911  0.19165211  1
  N  N12  1  0.70529089  0.13073395  0.19165211  1
  O  O13  1  0.29163449  0.88199297  0.10487800  1
  O  O14  1  0.59035848  0.70836551  0.10487800  1
  O  O15  1  0.00968678  0.72032009  0.81804106  1
  O  O16  1  0.27967991  0.28936669  0.81804106  1
  O  O17  1  0.62385011  0.60759486  0.48150964  1
  O  O18  1  0.71063331  0.99031322  0.81804106  1
  O  O19  1  0.39240514  0.01625525  0.48150964  1
  O  O20  1  0.98374475  0.37614989  0.48150964  1
  O  O21  1  0.11800703  0.40964152  0.10487800  1
