# generated using pymatgen
data_CdGe(BiO3)2
_symmetry_space_group_name_H-M   'P 1'
_cell_length_a   5.70901739
_cell_length_b   10.35137545
_cell_length_c   10.58609873
_cell_angle_alpha   90.00000000
_cell_angle_beta   90.00000000
_cell_angle_gamma   90.00000000
_symmetry_Int_Tables_number   1
_chemical_formula_structural   CdGe(BiO3)2
_chemical_formula_sum   'Cd4 Ge4 Bi8 O24'
_cell_volume   625.59802203
_cell_formula_units_Z   4
loop_
 _symmetry_equiv_pos_site_id
 _symmetry_equiv_pos_as_xyz
  1  'x, y, z'
loop_
 _atom_site_type_symbol
 _atom_site_label
 _atom_site_symmetry_multiplicity
 _atom_site_fract_x
 _atom_site_fract_y
 _atom_site_fract_z
 _atom_site_occupancy
  Cd  Cd0  1  0.25000000  0.38611340  0.50000000  1
  Cd  Cd1  1  0.75000000  0.61388660  0.50000000  1
  Cd  Cd2  1  0.75000000  0.11388660  0.00000000  1
  Cd  Cd3  1  0.25000000  0.88611340  0.00000000  1
  Ge  Ge4  1  0.25000000  0.84635428  0.50000000  1
  Ge  Ge5  1  0.75000000  0.65364572  0.00000000  1
  Ge  Ge6  1  0.75000000  0.15364572  0.50000000  1
  Ge  Ge7  1  0.25000000  0.34635428  0.00000000  1
  Bi  Bi8  1  0.21494285  0.60741269  0.75882227  1
  Bi  Bi9  1  0.78505715  0.39258731  0.24117773  1
  Bi  Bi10  1  0.71494285  0.39258731  0.75882227  1
  Bi  Bi11  1  0.21494285  0.10741269  0.74117773  1
  Bi  Bi12  1  0.28505715  0.60741269  0.24117773  1
  Bi  Bi13  1  0.78505715  0.89258731  0.25882227  1
  Bi  Bi14  1  0.28505715  0.10741269  0.25882227  1
  Bi  Bi15  1  0.71494285  0.89258731  0.74117773  1
  O  O16  1  0.12503545  0.94419247  0.37818756  1
  O  O17  1  0.96499979  0.24962897  0.42151395  1
  O  O18  1  0.01346157  0.47035746  0.64659771  1
  O  O19  1  0.03500021  0.75037103  0.57848605  1
  O  O20  1  0.62503545  0.05580753  0.37818756  1
  O  O21  1  0.98653843  0.02964254  0.14659771  1
  O  O22  1  0.51346157  0.02964254  0.85340229  1
  O  O23  1  0.48653843  0.97035746  0.14659771  1
  O  O24  1  0.87496455  0.55580753  0.87818756  1
  O  O25  1  0.37496455  0.94419247  0.62181244  1
  O  O26  1  0.53500021  0.24962897  0.57848605  1
  O  O27  1  0.98653843  0.52964254  0.35340229  1
  O  O28  1  0.46499979  0.75037103  0.42151395  1
  O  O29  1  0.48653843  0.47035746  0.35340229  1
  O  O30  1  0.87496455  0.05580753  0.62181244  1
  O  O31  1  0.46499979  0.25037103  0.07848605  1
  O  O32  1  0.03500021  0.25037103  0.92151395  1
  O  O33  1  0.01346157  0.97035746  0.85340229  1
  O  O34  1  0.51346157  0.52964254  0.64659771  1
  O  O35  1  0.37496455  0.44419247  0.87818756  1
  O  O36  1  0.12503545  0.44419247  0.12181244  1
  O  O37  1  0.96499979  0.74962897  0.07848605  1
  O  O38  1  0.62503545  0.55580753  0.12181244  1
  O  O39  1  0.53500021  0.74962897  0.92151395  1
