# generated using pymatgen
data_CsGeBiS4
_symmetry_space_group_name_H-M   'P 1'
_cell_length_a   6.70322707
_cell_length_b   7.03109639
_cell_length_c   18.12825275
_cell_angle_alpha   90.00000000
_cell_angle_beta   88.76702484
_cell_angle_gamma   90.00000000
_symmetry_Int_Tables_number   1
_chemical_formula_structural   CsGeBiS4
_chemical_formula_sum   'Cs4 Ge4 Bi4 S16'
_cell_volume   854.20550282
_cell_formula_units_Z   4
loop_
 _symmetry_equiv_pos_site_id
 _symmetry_equiv_pos_as_xyz
  1  'x, y, z'
loop_
 _atom_site_type_symbol
 _atom_site_label
 _atom_site_symmetry_multiplicity
 _atom_site_fract_x
 _atom_site_fract_y
 _atom_site_fract_z
 _atom_site_occupancy
  Cs  Cs0  1  0.75883296  0.75508147  0.53531564  1
  Cs  Cs1  1  0.24116704  0.24491853  0.46468436  1
  Cs  Cs2  1  0.25883296  0.74491853  0.03531564  1
  Cs  Cs3  1  0.74116704  0.25508147  0.96468436  1
  Ge  Ge4  1  0.46332026  0.77828096  0.33798975  1
  Ge  Ge5  1  0.96332026  0.72171904  0.83798975  1
  Ge  Ge6  1  0.03667974  0.27828096  0.16201025  1
  Ge  Ge7  1  0.53667974  0.22171904  0.66201025  1
  Bi  Bi8  1  0.03649871  0.30658502  0.72438007  1
  Bi  Bi9  1  0.46350129  0.80658502  0.77561993  1
  Bi  Bi10  1  0.96350129  0.69341498  0.27561993  1
  Bi  Bi11  1  0.53649871  0.19341498  0.22438007  1
  S  S12  1  0.34172533  0.97588654  0.63856850  1
  S  S13  1  0.68570741  0.75513095  0.90598146  1
  S  S14  1  0.65522909  0.51912074  0.34845458  1
  S  S15  1  0.86912173  0.66062168  0.72121414  1
  S  S16  1  0.84172533  0.52411346  0.13856850  1
  S  S17  1  0.81429259  0.25513095  0.59401854  1
  S  S18  1  0.18570741  0.74486905  0.40598146  1
  S  S19  1  0.63087827  0.16062168  0.77878586  1
  S  S20  1  0.31429259  0.24486905  0.09401854  1
  S  S21  1  0.65827467  0.02411346  0.36143150  1
  S  S22  1  0.36912173  0.83937832  0.22121414  1
  S  S23  1  0.13087827  0.33937832  0.27878586  1
  S  S24  1  0.15827467  0.47588654  0.86143150  1
  S  S25  1  0.34477091  0.48087926  0.65154542  1
  S  S26  1  0.15522909  0.98087926  0.84845458  1
  S  S27  1  0.84477091  0.01912074  0.15154542  1
