# generated using pymatgen
data_Th3Sb4
_symmetry_space_group_name_H-M   'P 1'
_cell_length_a   8.18583645
_cell_length_b   8.18583646
_cell_length_c   8.18583645
_cell_angle_alpha   109.47122062
_cell_angle_beta   109.47122063
_cell_angle_gamma   109.47122063
_symmetry_Int_Tables_number   1
_chemical_formula_structural   Th3Sb4
_chemical_formula_sum   'Th6 Sb8'
_cell_volume   422.24770701
_cell_formula_units_Z   2
loop_
 _symmetry_equiv_pos_site_id
 _symmetry_equiv_pos_as_xyz
  1  'x, y, z'
loop_
 _atom_site_type_symbol
 _atom_site_label
 _atom_site_symmetry_multiplicity
 _atom_site_fract_x
 _atom_site_fract_y
 _atom_site_fract_z
 _atom_site_occupancy
  Sb  Sb0  1  0.65981546  0.65981546  0.65981546  1
  Sb  Sb1  1  0.34018454  0.50000000  0.00000000  1
  Sb  Sb2  1  0.50000000  0.00000000  0.34018454  1
  Sb  Sb3  1  0.00000000  0.34018454  0.50000000  1
  Sb  Sb4  1  0.50000000  0.00000000  0.84018454  1
  Sb  Sb5  1  0.00000000  0.84018454  0.50000000  1
  Sb  Sb6  1  0.15981546  0.15981546  0.15981546  1
  Sb  Sb7  1  0.84018454  0.50000000  0.00000000  1
  Th  Th8  1  0.75000000  0.87500000  0.12500000  1
  Th  Th9  1  0.62500000  0.37500000  0.25000000  1
  Th  Th10  1  0.87500000  0.12500000  0.75000000  1
  Th  Th11  1  0.12500000  0.75000000  0.87500000  1
  Th  Th12  1  0.37500000  0.25000000  0.62500000  1
  Th  Th13  1  0.25000000  0.62500000  0.37500000  1
