# generated using pymatgen
data_Pr2Ti2S2O5
_symmetry_space_group_name_H-M   'P 1'
_cell_length_a   3.88886202
_cell_length_b   3.88885925
_cell_length_c   12.02598019
_cell_angle_alpha   99.30476322
_cell_angle_beta   99.30476681
_cell_angle_gamma   90.00000370
_symmetry_Int_Tables_number   1
_chemical_formula_structural   Pr2Ti2S2O5
_chemical_formula_sum   'Pr2 Ti2 S2 O5'
_cell_volume   177.05337015
_cell_formula_units_Z   1
loop_
 _symmetry_equiv_pos_site_id
 _symmetry_equiv_pos_as_xyz
  1  'x, y, z'
loop_
 _atom_site_type_symbol
 _atom_site_label
 _atom_site_symmetry_multiplicity
 _atom_site_fract_x
 _atom_site_fract_y
 _atom_site_fract_z
 _atom_site_occupancy
  O  O0  1  0.59604156  0.09604156  0.19208312  1
  Pr  Pr1  1  0.66570376  0.66570376  0.33140752  1
  O  O2  1  0.40395827  0.90395827  0.80791654  1
  S  S3  1  0.79670436  0.79670436  0.59340872  1
  Pr  Pr4  1  0.33429786  0.33429786  0.66859572  1
  Ti  Ti5  1  0.07736419  0.07736419  0.15472838  1
  O  O6  1  0.00000448  0.00000448  0.00000896  1
  S  S7  1  0.20329419  0.20329419  0.40658839  1
  O  O8  1  0.90395845  0.40395845  0.80791691  1
  Ti  Ti9  1  0.92263104  0.92263104  0.84526208  1
  O  O10  1  0.09604184  0.59604184  0.19208367  1
