# generated using pymatgen
data_K9Eu3Si12(O16F)2
_symmetry_space_group_name_H-M   'P 1'
_cell_length_a   6.99416424
_cell_length_b   11.58452457
_cell_length_c   11.66484920
_cell_angle_alpha   87.82303474
_cell_angle_beta   89.68711256
_cell_angle_gamma   79.83142310
_symmetry_Int_Tables_number   1
_chemical_formula_structural   K9Eu3Si12(O16F)2
_chemical_formula_sum   'K9 Eu3 Si12 O32 F2'
_cell_volume   929.61575668
_cell_formula_units_Z   1
loop_
 _symmetry_equiv_pos_site_id
 _symmetry_equiv_pos_as_xyz
  1  'x, y, z'
loop_
 _atom_site_type_symbol
 _atom_site_label
 _atom_site_symmetry_multiplicity
 _atom_site_fract_x
 _atom_site_fract_y
 _atom_site_fract_z
 _atom_site_occupancy
  Eu  Eu0  1  0.51422301  0.51205867  0.66643950  1
  Eu  Eu1  1  0.48577699  0.48794133  0.33356050  1
  Eu  Eu2  1  0.00000000  0.00000000  0.50000000  1
  K  K3  1  0.98633754  0.66999140  0.49109978  1
  K  K4  1  0.73042349  0.38342715  0.98238496  1
  K  K5  1  0.83174972  0.15073033  0.78670726  1
  K  K6  1  0.83021061  0.18950785  0.22175287  1
  K  K7  1  0.26957651  0.61657285  0.01761504  1
  K  K8  1  0.01366246  0.33000860  0.50890022  1
  K  K9  1  0.16825028  0.84926967  0.21329274  1
  K  K10  1  0.50000000  0.00000000  0.00000000  1
  K  K11  1  0.16978939  0.81049215  0.77824713  1
  Si  Si12  1  0.33818065  0.13628505  0.31030921  1
  Si  Si13  1  0.66181935  0.86371495  0.68969079  1
  Si  Si14  1  0.55165440  0.23140742  0.51064896  1
  Si  Si15  1  0.69070392  0.69620733  0.15777743  1
  Si  Si16  1  0.34389968  0.09095224  0.69634966  1
  Si  Si17  1  0.44834560  0.76859258  0.48935104  1
  Si  Si18  1  0.01638268  0.51348736  0.74353029  1
  Si  Si19  1  0.30929608  0.30379267  0.84222257  1
  Si  Si20  1  0.71623064  0.66768139  0.88170509  1
  Si  Si21  1  0.28376936  0.33231861  0.11829491  1
  Si  Si22  1  0.65610032  0.90904776  0.30365034  1
  Si  Si23  1  0.98361732  0.48651264  0.25646971  1
  O  O24  1  0.45642128  0.39683792  0.15598890  1
  O  O25  1  0.52822111  0.37310826  0.51581632  1
  O  O26  1  0.71164668  0.69122956  0.01854741  1
  O  O27  1  0.93407515  0.58552414  0.86115051  1
  O  O28  1  0.15732266  0.03378543  0.67031404  1
  O  O29  1  0.68884464  0.83606494  0.18348618  1
  O  O30  1  0.50897999  0.79379680  0.62442325  1
  O  O31  1  0.15681909  0.48897771  0.34723611  1
  O  O32  1  0.31115536  0.16393506  0.81651382  1
  O  O33  1  0.71426501  0.79696217  0.81652401  1
  O  O34  1  0.84318091  0.51102229  0.65276389  1
  O  O35  1  0.49736803  0.35070861  0.79341530  1
  O  O36  1  0.28835332  0.30877044  0.98145259  1
  O  O37  1  0.50263197  0.64929139  0.20658470  1
  O  O38  1  0.18708146  0.57489207  0.68763104  1
  O  O39  1  0.54296116  0.99416834  0.72505416  1
  O  O40  1  0.38528729  0.18360043  0.59298998  1
  O  O41  1  0.54357872  0.60316208  0.84401110  1
  O  O42  1  0.06592485  0.41447586  0.13884949  1
  O  O43  1  0.90035330  0.62468968  0.21097488  1
  O  O44  1  0.23185496  0.83607864  0.45812964  1
  O  O45  1  0.81291854  0.42510793  0.31236896  1
  O  O46  1  0.28573499  0.20303783  0.18347599  1
  O  O47  1  0.49102001  0.20620320  0.37557675  1
  O  O48  1  0.45703884  0.00583166  0.27494584  1
  O  O49  1  0.84267734  0.96621457  0.32968596  1
  O  O50  1  0.14408342  0.12761146  0.38005947  1
  O  O51  1  0.61471271  0.81639957  0.40701002  1
  O  O52  1  0.09964670  0.37531032  0.78902512  1
  O  O53  1  0.85591658  0.87238854  0.61994053  1
  O  O54  1  0.47177889  0.62689174  0.48418368  1
  O  O55  1  0.76814504  0.16392136  0.54187036  1
  F  F56  1  0.24450632  0.84442916  0.99557479  1
  F  F57  1  0.75549368  0.15557084  0.00442521  1
