# generated using pymatgen
data_Er3CuGeS7
_symmetry_space_group_name_H-M   'P 1'
_cell_length_a   9.77367474
_cell_length_b   9.77367433
_cell_length_c   5.86099277
_cell_angle_alpha   90.00000000
_cell_angle_beta   90.00000000
_cell_angle_gamma   120.00000141
_symmetry_Int_Tables_number   1
_chemical_formula_structural   Er3CuGeS7
_chemical_formula_sum   'Er6 Cu2 Ge2 S14'
_cell_volume   484.86133954
_cell_formula_units_Z   2
loop_
 _symmetry_equiv_pos_site_id
 _symmetry_equiv_pos_as_xyz
  1  'x, y, z'
loop_
 _atom_site_type_symbol
 _atom_site_label
 _atom_site_symmetry_multiplicity
 _atom_site_fract_x
 _atom_site_fract_y
 _atom_site_fract_z
 _atom_site_occupancy
  Er  Er0  1  0.22155009  0.35808331  0.75555806  1
  Er  Er1  1  0.77844991  0.64191669  0.25555806  1
  Er  Er2  1  0.86346678  0.22155009  0.25555806  1
  Er  Er3  1  0.13653322  0.77844991  0.75555806  1
  Er  Er4  1  0.64191669  0.86346678  0.75555806  1
  Er  Er5  1  0.35808331  0.13653322  0.25555806  1
  Cu  Cu6  1  0.00000000  0.00000000  0.67273486  1
  Cu  Cu7  1  0.00000000  0.00000000  0.17273486  1
  Ge  Ge8  1  0.66666700  0.33333300  0.83574300  1
  Ge  Ge9  1  0.33333300  0.66666700  0.33574300  1
  S  S10  1  0.51972377  0.42357155  0.00001847  1
  S  S11  1  0.73869064  0.89604357  0.20375146  1
  S  S12  1  0.57642845  0.09615222  0.00001847  1
  S  S13  1  0.09615222  0.51972377  0.50001847  1
  S  S14  1  0.84264707  0.73869064  0.70375146  1
  S  S15  1  0.10395643  0.84264707  0.20375146  1
  S  S16  1  0.89604357  0.15735293  0.70375146  1
  S  S17  1  0.33333300  0.66666700  0.95803817  1
  S  S18  1  0.90384778  0.48027623  0.00001847  1
  S  S19  1  0.66666700  0.33333300  0.45803817  1
  S  S20  1  0.26130936  0.10395643  0.70375146  1
  S  S21  1  0.48027623  0.57642845  0.50001847  1
  S  S22  1  0.15735293  0.26130936  0.20375146  1
  S  S23  1  0.42357155  0.90384778  0.50001847  1
