# generated using pymatgen
data_CsLi5(BO3)2
_symmetry_space_group_name_H-M   'P 1'
_cell_length_a   7.63089892
_cell_length_b   7.63089862
_cell_length_c   7.68897283
_cell_angle_alpha   110.34273446
_cell_angle_beta   115.45439296
_cell_angle_gamma   102.51269338
_symmetry_Int_Tables_number   1
_chemical_formula_structural   CsLi5(BO3)2
_chemical_formula_sum   'Cs2 Li10 B4 O12'
_cell_volume   341.79028255
_cell_formula_units_Z   2
loop_
 _symmetry_equiv_pos_site_id
 _symmetry_equiv_pos_as_xyz
  1  'x, y, z'
loop_
 _atom_site_type_symbol
 _atom_site_label
 _atom_site_symmetry_multiplicity
 _atom_site_fract_x
 _atom_site_fract_y
 _atom_site_fract_z
 _atom_site_occupancy
  Cs  Cs0  1  0.94172090  0.69172090  0.25000000  1
  Cs  Cs1  1  0.05827910  0.30827910  0.75000000  1
  Li  Li2  1  0.50457388  0.52989920  0.77077042  1
  Li  Li3  1  0.46895872  0.70380028  0.53952893  1
  Li  Li4  1  0.49542612  0.47010080  0.22922958  1
  Li  Li5  1  0.25912877  0.73380346  0.72922958  1
  Li  Li6  1  0.00000000  0.00000000  0.00000000  1
  Li  Li7  1  0.53104128  0.29619972  0.46047107  1
  Li  Li8  1  0.74087123  0.26619654  0.27077042  1
  Li  Li9  1  0.33572865  0.07057021  0.03952893  1
  Li  Li10  1  0.50000000  0.00000000  0.50000000  1
  Li  Li11  1  0.66427135  0.92942979  0.96047107  1
  B  B12  1  0.50050148  0.83146387  0.18863720  1
  B  B13  1  0.85717332  0.68813572  0.68863720  1
  B  B14  1  0.49949852  0.16853613  0.81136280  1
  B  B15  1  0.14282668  0.31186428  0.31136280  1
  O  O16  1  0.93167986  0.16709587  0.20172071  1
  O  O17  1  0.54929715  0.04433052  0.28432120  1
  O  O18  1  0.45070285  0.95566948  0.71567880  1
  O  O19  1  0.53462484  0.27004085  0.70172071  1
  O  O20  1  0.73999068  0.73502406  0.78432120  1
  O  O21  1  0.26000932  0.26497594  0.21567880  1
  O  O22  1  0.76242107  0.50477571  0.49302187  1
  O  O23  1  0.06832014  0.83290413  0.79827929  1
  O  O24  1  0.48824616  0.73060080  0.99302187  1
  O  O25  1  0.51175384  0.26939920  0.00697813  1
  O  O26  1  0.23757893  0.49522429  0.50697813  1
  O  O27  1  0.46537516  0.72995915  0.29827929  1
