# generated using pymatgen
data_Ba3SrSb2O9
_symmetry_space_group_name_H-M   'P 1'
_cell_length_a   6.17291131
_cell_length_b   6.18029586
_cell_length_c   15.37468851
_cell_angle_alpha   91.14029191
_cell_angle_beta   91.88898009
_cell_angle_gamma   119.41923486
_symmetry_Int_Tables_number   1
_chemical_formula_structural   Ba3SrSb2O9
_chemical_formula_sum   'Ba6 Sr2 Sb4 O18'
_cell_volume   510.19780864
_cell_formula_units_Z   2
loop_
 _symmetry_equiv_pos_site_id
 _symmetry_equiv_pos_as_xyz
  1  'x, y, z'
loop_
 _atom_site_type_symbol
 _atom_site_label
 _atom_site_symmetry_multiplicity
 _atom_site_fract_x
 _atom_site_fract_y
 _atom_site_fract_z
 _atom_site_occupancy
  Ba  Ba0  1  0.31900192  0.64740467  0.40679222  1
  Ba  Ba1  1  0.68099808  0.35259533  0.59320778  1
  Ba  Ba2  1  0.65596174  0.33084084  0.90279375  1
  Ba  Ba3  1  0.97958210  0.00202683  0.25044688  1
  Ba  Ba4  1  0.02041790  0.99797317  0.74955312  1
  Ba  Ba5  1  0.34403826  0.66915916  0.09720625  1
  Sr  Sr6  1  0.00000000  0.00000000  0.00000000  1
  Sr  Sr7  1  0.00000000  0.00000000  0.50000000  1
  Sb  Sb8  1  0.30086512  0.63957891  0.84392805  1
  Sb  Sb9  1  0.63678766  0.30515787  0.34324625  1
  Sb  Sb10  1  0.36321234  0.69484213  0.65675375  1
  Sb  Sb11  1  0.69913488  0.36042109  0.15607195  1
  O  O12  1  0.22392173  0.41971906  0.56868169  1
  O  O13  1  0.89405351  0.22628805  0.10240318  1
  O  O14  1  0.25950557  0.90718649  0.59580147  1
  O  O15  1  0.77607827  0.58028094  0.43131831  1
  O  O16  1  0.56941023  0.75524191  0.93447632  1
  O  O17  1  0.46417500  0.50819380  0.75297711  1
  O  O18  1  0.90114679  0.69338709  0.11132650  1
  O  O19  1  0.43058977  0.24475809  0.06552368  1
  O  O20  1  0.09885321  0.30661291  0.88867350  1
  O  O21  1  0.69913689  0.85305853  0.61294687  1
  O  O22  1  0.10594649  0.77371195  0.89759682  1
  O  O23  1  0.05092259  0.53606368  0.72918431  1
  O  O24  1  0.53582500  0.49180620  0.24702289  1
  O  O25  1  0.94907741  0.46393632  0.27081569  1
  O  O26  1  0.74049443  0.09281351  0.40419853  1
  O  O27  1  0.30086311  0.14694147  0.38705313  1
  O  O28  1  0.51648677  0.05323094  0.23172439  1
  O  O29  1  0.48351323  0.94676906  0.76827561  1
