# generated using pymatgen
data_La3As2ClO7
_symmetry_space_group_name_H-M   'P 1'
_cell_length_a   5.64513098
_cell_length_b   13.09564601
_cell_length_c   13.09564601
_cell_angle_alpha   90.00000000
_cell_angle_beta   90.00000000
_cell_angle_gamma   90.00000000
_symmetry_Int_Tables_number   1
_chemical_formula_structural   La3As2ClO7
_chemical_formula_sum   'La12 As8 Cl4 O28'
_cell_volume   968.11706879
_cell_formula_units_Z   4
loop_
 _symmetry_equiv_pos_site_id
 _symmetry_equiv_pos_as_xyz
  1  'x, y, z'
loop_
 _atom_site_type_symbol
 _atom_site_label
 _atom_site_symmetry_multiplicity
 _atom_site_fract_x
 _atom_site_fract_y
 _atom_site_fract_z
 _atom_site_occupancy
  La  La0  1  0.00000000  0.73101812  0.73101812  1
  La  La1  1  0.50000000  0.05183556  0.36345082  1
  La  La2  1  0.50000000  0.23101812  0.76898188  1
  La  La3  1  0.50000000  0.76898188  0.23101812  1
  La  La4  1  0.50000000  0.63654918  0.94816444  1
  La  La5  1  0.00000000  0.55183556  0.13654918  1
  La  La6  1  0.00000000  0.26898188  0.26898188  1
  La  La7  1  0.00000000  0.86345082  0.44816444  1
  La  La8  1  0.50000000  0.36345082  0.05183556  1
  La  La9  1  0.50000000  0.94816444  0.63654918  1
  La  La10  1  0.00000000  0.13654918  0.55183556  1
  La  La11  1  0.00000000  0.44816444  0.86345082  1
  As  As12  1  0.00000000  0.20861777  0.98004385  1
  As  As13  1  0.50000000  0.70861777  0.51995615  1
  As  As14  1  0.50000000  0.48004385  0.29138223  1
  As  As15  1  0.00000000  0.01995615  0.79138223  1
  As  As16  1  0.00000000  0.79138223  0.01995615  1
  As  As17  1  0.50000000  0.51995615  0.70861777  1
  As  As18  1  0.00000000  0.98004385  0.20861777  1
  As  As19  1  0.50000000  0.29138223  0.48004385  1
  Cl  Cl20  1  0.50000000  0.16734563  0.16734563  1
  Cl  Cl21  1  0.00000000  0.33265437  0.66734563  1
  Cl  Cl22  1  0.50000000  0.83265437  0.83265437  1
  Cl  Cl23  1  0.00000000  0.66734563  0.33265437  1
  O  O24  1  0.26172250  0.58505767  0.77655538  1
  O  O25  1  0.00000000  0.91112664  0.70949006  1
  O  O26  1  0.73827750  0.41494233  0.22344462  1
  O  O27  1  0.50000000  0.79050994  0.41112664  1
  O  O28  1  0.73827750  0.58505767  0.77655538  1
  O  O29  1  0.00000000  0.08887336  0.29050994  1
  O  O30  1  0.73827750  0.77655538  0.58505767  1
  O  O31  1  0.23827750  0.91494233  0.27655538  1
  O  O32  1  0.76172250  0.08505767  0.72344462  1
  O  O33  1  0.23827750  0.72344462  0.08505767  1
  O  O34  1  0.26172250  0.22344462  0.41494233  1
  O  O35  1  0.26172250  0.77655538  0.58505767  1
  O  O36  1  0.23827750  0.08505767  0.72344462  1
  O  O37  1  0.26172250  0.41494233  0.22344462  1
  O  O38  1  0.23827750  0.27655538  0.91494233  1
  O  O39  1  0.50000000  0.41112664  0.79050994  1
  O  O40  1  0.25000000  0.50000000  0.00000000  1
  O  O41  1  0.50000000  0.20949006  0.58887336  1
  O  O42  1  0.76172250  0.91494233  0.27655538  1
  O  O43  1  0.76172250  0.72344462  0.08505767  1
  O  O44  1  0.73827750  0.22344462  0.41494233  1
  O  O45  1  0.50000000  0.58887336  0.20949006  1
  O  O46  1  0.76172250  0.27655538  0.91494233  1
  O  O47  1  0.00000000  0.70949006  0.91112664  1
  O  O48  1  0.00000000  0.29050994  0.08887336  1
  O  O49  1  0.75000000  0.50000000  0.00000000  1
  O  O50  1  0.75000000  0.00000000  0.50000000  1
  O  O51  1  0.25000000  0.00000000  0.50000000  1
