# generated using pymatgen
data_TcSb(OF4)2
_symmetry_space_group_name_H-M   'P 1'
_cell_length_a   7.55426629
_cell_length_b   9.70802534
_cell_length_c   10.73213871
_cell_angle_alpha   90.00000000
_cell_angle_beta   90.00000000
_cell_angle_gamma   93.02986479
_symmetry_Int_Tables_number   1
_chemical_formula_structural   TcSb(OF4)2
_chemical_formula_sum   'Tc4 Sb4 O8 F32'
_cell_volume   785.96272856
_cell_formula_units_Z   4
loop_
 _symmetry_equiv_pos_site_id
 _symmetry_equiv_pos_as_xyz
  1  'x, y, z'
loop_
 _atom_site_type_symbol
 _atom_site_label
 _atom_site_symmetry_multiplicity
 _atom_site_fract_x
 _atom_site_fract_y
 _atom_site_fract_z
 _atom_site_occupancy
  Tc  Tc0  1  0.63092545  0.16239441  0.32721260  1
  Tc  Tc1  1  0.86907455  0.33760559  0.82721260  1
  Tc  Tc2  1  0.36907455  0.83760559  0.67278740  1
  Tc  Tc3  1  0.13092545  0.66239441  0.17278740  1
  Sb  Sb4  1  0.71703580  0.81272512  0.97803840  1
  Sb  Sb5  1  0.78296420  0.68727488  0.47803840  1
  Sb  Sb6  1  0.21703580  0.31272512  0.52196160  1
  Sb  Sb7  1  0.28296420  0.18727488  0.02196160  1
  O  O8  1  0.71599080  0.19024005  0.46999938  1
  O  O9  1  0.28400920  0.80975995  0.53000062  1
  O  O10  1  0.21368860  0.92542524  0.74523955  1
  O  O11  1  0.21599080  0.69024005  0.03000062  1
  O  O12  1  0.71368860  0.42542524  0.75476045  1
  O  O13  1  0.78400920  0.30975995  0.96999938  1
  O  O14  1  0.28631140  0.57457476  0.24523955  1
  O  O15  1  0.78631140  0.07457476  0.25476045  1
  F  F16  1  0.78393777  0.00341520  0.98684473  1
  F  F17  1  0.46631738  0.01971781  0.36201164  1
  F  F18  1  0.83025948  0.16611583  0.75574620  1
  F  F19  1  0.35005999  0.37847740  0.03016912  1
  F  F20  1  0.28393777  0.50341520  0.51315527  1
  F  F21  1  0.53368262  0.98028219  0.63798836  1
  F  F22  1  0.85005999  0.87847740  0.46983088  1
  F  F23  1  0.04137591  0.35092347  0.65304765  1
  F  F24  1  0.88951757  0.77660120  0.11226617  1
  F  F25  1  0.33025948  0.66611583  0.74425380  1
  F  F26  1  0.14994001  0.12152260  0.53016912  1
  F  F27  1  0.16974052  0.83388417  0.24425380  1
  F  F28  1  0.04239620  0.33701009  0.39789381  1
  F  F29  1  0.71606223  0.49658480  0.48684473  1
  F  F30  1  0.61048243  0.72339880  0.61226617  1
  F  F31  1  0.38951757  0.27660120  0.38773383  1
  F  F32  1  0.39350616  0.28732873  0.64422199  1
  F  F33  1  0.64994001  0.62152260  0.96983088  1
  F  F34  1  0.10649384  0.21267127  0.14422199  1
  F  F35  1  0.95760380  0.66298991  0.60210619  1
  F  F36  1  0.21606223  0.99658480  0.01315527  1
  F  F37  1  0.54137591  0.85092347  0.84695235  1
  F  F38  1  0.03368262  0.48028219  0.86201164  1
  F  F39  1  0.45760380  0.16298991  0.89789381  1
  F  F40  1  0.60649384  0.71267127  0.35577801  1
  F  F41  1  0.11048243  0.22339880  0.88773383  1
  F  F42  1  0.45862409  0.14907653  0.15304765  1
  F  F43  1  0.66974052  0.33388417  0.25574620  1
  F  F44  1  0.89350616  0.78732873  0.85577801  1
  F  F45  1  0.96631738  0.51971781  0.13798836  1
  F  F46  1  0.54239620  0.83701009  0.10210619  1
  F  F47  1  0.95862409  0.64907653  0.34695235  1
