# generated using pymatgen
data_Nd2As4O9
_symmetry_space_group_name_H-M   'P 1'
_cell_length_a   6.97709961
_cell_length_b   7.75732842
_cell_length_c   9.79664520
_cell_angle_alpha   96.24429745
_cell_angle_beta   103.43046928
_cell_angle_gamma   104.60455443
_symmetry_Int_Tables_number   1
_chemical_formula_structural   Nd2As4O9
_chemical_formula_sum   'Nd4 As8 O18'
_cell_volume   491.11591927
_cell_formula_units_Z   2
loop_
 _symmetry_equiv_pos_site_id
 _symmetry_equiv_pos_as_xyz
  1  'x, y, z'
loop_
 _atom_site_type_symbol
 _atom_site_label
 _atom_site_symmetry_multiplicity
 _atom_site_fract_x
 _atom_site_fract_y
 _atom_site_fract_z
 _atom_site_occupancy
  Nd  Nd0  1  0.74838872  0.94311686  0.12029670  1
  Nd  Nd1  1  0.77883302  0.46912695  0.09516566  1
  Nd  Nd2  1  0.25161128  0.05688314  0.87970330  1
  Nd  Nd3  1  0.22116698  0.53087305  0.90483434  1
  As  As4  1  0.82211786  0.22857169  0.43733653  1
  As  As5  1  0.31966112  0.23999673  0.57977324  1
  As  As6  1  0.68033888  0.76000327  0.42022676  1
  As  As7  1  0.17788214  0.77142831  0.56266347  1
  As  As8  1  0.69533697  0.64885601  0.79562298  1
  As  As9  1  0.30466303  0.35114399  0.20437702  1
  As  As10  1  0.24636221  0.92047401  0.21228618  1
  As  As11  1  0.75363779  0.07952599  0.78771382  1
  O  O12  1  0.86651329  0.89622112  0.85547925  1
  O  O13  1  0.12505789  0.45863986  0.12542074  1
  O  O14  1  0.63094231  0.66271152  0.24083276  1
  O  O15  1  0.65824398  0.12943485  0.93981758  1
  O  O16  1  0.10285800  0.32018422  0.49381323  1
  O  O17  1  0.87494211  0.54136014  0.87457926  1
  O  O18  1  0.00472122  0.22411701  0.82768196  1
  O  O19  1  0.13348671  0.10377888  0.14452075  1
  O  O20  1  0.59208428  0.66702421  0.94898118  1
  O  O21  1  0.81393234  0.98566467  0.38468555  1
  O  O22  1  0.36905769  0.33728848  0.75916724  1
  O  O23  1  0.99527878  0.77588299  0.17231804  1
  O  O24  1  0.22507495  0.74824303  0.74358379  1
  O  O25  1  0.40791572  0.33297579  0.05101882  1
  O  O26  1  0.18606766  0.01433533  0.61531445  1
  O  O27  1  0.34175602  0.87056515  0.06018242  1
  O  O28  1  0.77492505  0.25175697  0.25641621  1
  O  O29  1  0.89714200  0.67981578  0.50618677  1
