# generated using pymatgen
data_NaAlCdF6
_symmetry_space_group_name_H-M   'P 1'
_cell_length_a   3.69908561
_cell_length_b   10.11562123
_cell_length_c   12.69617663
_cell_angle_alpha   90.00000000
_cell_angle_beta   90.00000000
_cell_angle_gamma   90.00000000
_symmetry_Int_Tables_number   1
_chemical_formula_structural   NaAlCdF6
_chemical_formula_sum   'Na4 Al4 Cd4 F24'
_cell_volume   475.07250643
_cell_formula_units_Z   4
loop_
 _symmetry_equiv_pos_site_id
 _symmetry_equiv_pos_as_xyz
  1  'x, y, z'
loop_
 _atom_site_type_symbol
 _atom_site_label
 _atom_site_symmetry_multiplicity
 _atom_site_fract_x
 _atom_site_fract_y
 _atom_site_fract_z
 _atom_site_occupancy
  Na  Na0  1  0.25000000  0.17429097  0.91483381  1
  Na  Na1  1  0.25000000  0.32570903  0.41483381  1
  Na  Na2  1  0.75000000  0.82570903  0.08516619  1
  Na  Na3  1  0.75000000  0.67429097  0.58516619  1
  Al  Al4  1  0.25000000  0.82003319  0.83565654  1
  Al  Al5  1  0.75000000  0.17996681  0.16434346  1
  Al  Al6  1  0.25000000  0.67996681  0.33565654  1
  Al  Al7  1  0.75000000  0.32003319  0.66434346  1
  Cd  Cd8  1  0.75000000  0.00006906  0.37967066  1
  Cd  Cd9  1  0.75000000  0.49993094  0.87967066  1
  Cd  Cd10  1  0.25000000  0.99993094  0.62032934  1
  Cd  Cd11  1  0.25000000  0.50006906  0.12032934  1
  F  F12  1  0.75000000  0.13967178  0.64359931  1
  F  F13  1  0.25000000  0.09813153  0.45754709  1
  F  F14  1  0.75000000  0.36032822  0.14359931  1
  F  F15  1  0.75000000  0.14489822  0.02688904  1
  F  F16  1  0.75000000  0.00468286  0.19920979  1
  F  F17  1  0.75000000  0.28663220  0.80724259  1
  F  F18  1  0.25000000  0.86032822  0.35640069  1
  F  F19  1  0.75000000  0.90186847  0.54245291  1
  F  F20  1  0.25000000  0.63967178  0.85640069  1
  F  F21  1  0.75000000  0.81361135  0.83385305  1
  F  F22  1  0.75000000  0.35510178  0.52688904  1
  F  F23  1  0.75000000  0.68638865  0.33385305  1
  F  F24  1  0.25000000  0.18638865  0.16614695  1
  F  F25  1  0.25000000  0.78663220  0.69275741  1
  F  F26  1  0.25000000  0.64489822  0.47311096  1
  F  F27  1  0.75000000  0.59813153  0.04245291  1
  F  F28  1  0.25000000  0.40186847  0.95754709  1
  F  F29  1  0.25000000  0.99531714  0.80079021  1
  F  F30  1  0.25000000  0.71336780  0.19275741  1
  F  F31  1  0.75000000  0.49531714  0.69920979  1
  F  F32  1  0.25000000  0.31361135  0.66614695  1
  F  F33  1  0.25000000  0.50468286  0.30079021  1
  F  F34  1  0.25000000  0.85510178  0.97311096  1
  F  F35  1  0.75000000  0.21336780  0.30724259  1
