# generated using pymatgen
data_BaBe2(BO3)2
_symmetry_space_group_name_H-M   'P 1'
_cell_length_a   6.43615382
_cell_length_b   6.74717204
_cell_length_c   7.27290543
_cell_angle_alpha   77.81674407
_cell_angle_beta   63.73810966
_cell_angle_gamma   61.51348411
_symmetry_Int_Tables_number   1
_chemical_formula_structural   BaBe2(BO3)2
_chemical_formula_sum   'Ba2 Be4 B4 O12'
_cell_volume   248.94103471
_cell_formula_units_Z   2
loop_
 _symmetry_equiv_pos_site_id
 _symmetry_equiv_pos_as_xyz
  1  'x, y, z'
loop_
 _atom_site_type_symbol
 _atom_site_label
 _atom_site_symmetry_multiplicity
 _atom_site_fract_x
 _atom_site_fract_y
 _atom_site_fract_z
 _atom_site_occupancy
  Ba  Ba0  1  0.37500000  0.25000000  0.25000000  1
  Ba  Ba1  1  0.62500000  0.75000000  0.75000000  1
  Be  Be2  1  0.21752950  0.75000000  0.56494101  1
  Be  Be3  1  0.78247050  0.25000000  0.43505899  1
  Be  Be4  1  0.96752950  0.25000000  0.06494101  1
  Be  Be5  1  0.03247050  0.75000000  0.93505899  1
  B  B6  1  0.33907895  0.32184209  0.75000000  1
  B  B7  1  0.08907895  0.82184209  0.25000000  1
  B  B8  1  0.91092105  0.17815791  0.75000000  1
  B  B9  1  0.66092105  0.67815791  0.25000000  1
  O  O10  1  0.02765170  0.94469660  0.75000000  1
  O  O11  1  0.46859059  0.79436849  0.42764830  1
  O  O12  1  0.89623889  0.29436849  0.57235170  1
  O  O13  1  0.19060738  0.70563151  0.07235170  1
  O  O14  1  0.53140941  0.20563151  0.57235170  1
  O  O15  1  0.73704092  0.79436849  0.07235170  1
  O  O16  1  0.22234830  0.55530340  0.75000000  1
  O  O17  1  0.77765170  0.44469660  0.25000000  1
  O  O18  1  0.80939262  0.29436849  0.92764830  1
  O  O19  1  0.26295908  0.20563151  0.92764830  1
  O  O20  1  0.97234830  0.05530340  0.25000000  1
  O  O21  1  0.10376111  0.70563151  0.42764830  1
