# generated using pymatgen
data_PrS2
_symmetry_space_group_name_H-M   'P 1'
_cell_length_a   4.08582361
_cell_length_b   8.12174766
_cell_length_c   8.19180662
_cell_angle_alpha   90.09765201
_cell_angle_beta   90.00000000
_cell_angle_gamma   90.00000000
_symmetry_Int_Tables_number   1
_chemical_formula_structural   PrS2
_chemical_formula_sum   'Pr4 S8'
_cell_volume   271.83674823
_cell_formula_units_Z   4
loop_
 _symmetry_equiv_pos_site_id
 _symmetry_equiv_pos_as_xyz
  1  'x, y, z'
loop_
 _atom_site_type_symbol
 _atom_site_label
 _atom_site_symmetry_multiplicity
 _atom_site_fract_x
 _atom_site_fract_y
 _atom_site_fract_z
 _atom_site_occupancy
  Pr  Pr0  1  0.21172792  0.12959924  0.27611796  1
  Pr  Pr1  1  0.28827208  0.62959924  0.27611796  1
  Pr  Pr2  1  0.78827208  0.87040076  0.72388204  1
  Pr  Pr3  1  0.71172792  0.37040076  0.72388204  1
  S  S4  1  0.73830783  0.37450136  0.36615484  1
  S  S5  1  0.84487319  0.60698272  0.00246537  1
  S  S6  1  0.23830783  0.12549864  0.63384516  1
  S  S7  1  0.26169217  0.62549864  0.63384516  1
  S  S8  1  0.76169217  0.87450136  0.36615484  1
  S  S9  1  0.34487319  0.89301728  0.99753463  1
  S  S10  1  0.65512681  0.10698272  0.00246537  1
  S  S11  1  0.15512681  0.39301728  0.99753463  1
