# generated using pymatgen
data_Na2Er2B2O7
_symmetry_space_group_name_H-M   'P 1'
_cell_length_a   6.22533788
_cell_length_b   10.26998332
_cell_length_c   10.62234178
_cell_angle_alpha   117.73331453
_cell_angle_beta   90.00000000
_cell_angle_gamma   90.00000000
_symmetry_Int_Tables_number   1
_chemical_formula_structural   Na2Er2B2O7
_chemical_formula_sum   'Na8 Er8 B8 O28'
_cell_volume   601.11374442
_cell_formula_units_Z   4
loop_
 _symmetry_equiv_pos_site_id
 _symmetry_equiv_pos_as_xyz
  1  'x, y, z'
loop_
 _atom_site_type_symbol
 _atom_site_label
 _atom_site_symmetry_multiplicity
 _atom_site_fract_x
 _atom_site_fract_y
 _atom_site_fract_z
 _atom_site_occupancy
  Na  Na0  1  0.44322586  0.23636134  0.47587192  1
  Na  Na1  1  0.05677414  0.73636134  0.47587192  1
  Na  Na2  1  0.75915660  0.45204595  0.38841527  1
  Na  Na3  1  0.24084340  0.54795405  0.61158473  1
  Na  Na4  1  0.55677414  0.76363866  0.52412808  1
  Na  Na5  1  0.25915660  0.04795405  0.61158473  1
  Na  Na6  1  0.94322586  0.26363866  0.52412808  1
  Na  Na7  1  0.74084340  0.95204595  0.38841527  1
  Er  Er8  1  0.54062919  0.81619662  0.01468684  1
  Er  Er9  1  0.04062919  0.68380338  0.98531316  1
  Er  Er10  1  0.58206188  0.41515855  0.81915488  1
  Er  Er11  1  0.08206188  0.08484145  0.18084512  1
  Er  Er12  1  0.45937081  0.18380338  0.98531316  1
  Er  Er13  1  0.95937081  0.31619662  0.01468684  1
  Er  Er14  1  0.41793812  0.58484145  0.18084512  1
  Er  Er15  1  0.91793812  0.91515855  0.81915488  1
  B  B16  1  0.84673153  0.64768880  0.20568597  1
  B  B17  1  0.74843377  0.08258467  0.68691386  1
  B  B18  1  0.75156623  0.58258467  0.68691386  1
  B  B19  1  0.24843377  0.41741533  0.31308614  1
  B  B20  1  0.34673153  0.85231120  0.79431403  1
  B  B21  1  0.15326847  0.35231120  0.79431403  1
  B  B22  1  0.65326847  0.14768880  0.20568597  1
  B  B23  1  0.25156623  0.91741533  0.31308614  1
  O  O24  1  0.74279586  0.72865777  0.14743347  1
  O  O25  1  0.33699672  0.55394805  0.39595816  1
  O  O26  1  0.74837412  0.13386489  0.31434288  1
  O  O27  1  0.24279586  0.77134223  0.85256653  1
  O  O28  1  0.24837412  0.36613511  0.68565712  1
  O  O29  1  0.16300328  0.05394805  0.39595816  1
  O  O30  1  0.23654274  0.86703632  0.16422913  1
  O  O31  1  0.25162588  0.86613511  0.68565712  1
  O  O32  1  0.64829505  0.16718448  0.63535002  1
  O  O33  1  0.26345726  0.36703632  0.16422913  1
  O  O34  1  0.45603490  0.08582567  0.14713855  1
  O  O35  1  0.04396510  0.58582567  0.14713855  1
  O  O36  1  0.14829505  0.33281552  0.36464998  1
  O  O37  1  0.85170495  0.66718448  0.63535002  1
  O  O38  1  0.62465512  0.40291625  0.02555898  1
  O  O39  1  0.75162588  0.63386489  0.31434288  1
  O  O40  1  0.83699672  0.94605195  0.60404184  1
  O  O41  1  0.73654274  0.63296368  0.83577087  1
  O  O42  1  0.87534488  0.90291625  0.02555898  1
  O  O43  1  0.54396510  0.91417433  0.85286145  1
  O  O44  1  0.25720414  0.27134223  0.85256653  1
  O  O45  1  0.76345726  0.13296368  0.83577087  1
  O  O46  1  0.95603490  0.41417433  0.85286145  1
  O  O47  1  0.35170495  0.83281552  0.36464998  1
  O  O48  1  0.66300328  0.44605195  0.60404184  1
  O  O49  1  0.12465512  0.09708375  0.97444102  1
  O  O50  1  0.37534488  0.59708375  0.97444102  1
  O  O51  1  0.75720414  0.22865777  0.14743347  1
