# generated using pymatgen
data_Rb2Na2IrO4
_symmetry_space_group_name_H-M   'P 1'
_cell_length_a   6.31147642
_cell_length_b   9.23199427
_cell_length_c   11.25611880
_cell_angle_alpha   90.00000000
_cell_angle_beta   90.00000000
_cell_angle_gamma   103.40232114
_symmetry_Int_Tables_number   1
_chemical_formula_structural   Rb2Na2IrO4
_chemical_formula_sum   'Rb8 Na8 Ir4 O16'
_cell_volume   638.00452613
_cell_formula_units_Z   4
loop_
 _symmetry_equiv_pos_site_id
 _symmetry_equiv_pos_as_xyz
  1  'x, y, z'
loop_
 _atom_site_type_symbol
 _atom_site_label
 _atom_site_symmetry_multiplicity
 _atom_site_fract_x
 _atom_site_fract_y
 _atom_site_fract_z
 _atom_site_occupancy
  Rb  Rb0  1  0.87982322  0.22201893  0.13323389  1
  Rb  Rb1  1  0.67137317  0.99642229  0.86461131  1
  Rb  Rb2  1  0.82862683  0.50357771  0.36461131  1
  Rb  Rb3  1  0.17137317  0.49642229  0.63538869  1
  Rb  Rb4  1  0.62017678  0.27798107  0.63323389  1
  Rb  Rb5  1  0.12017678  0.77798107  0.86676611  1
  Rb  Rb6  1  0.37982322  0.72201893  0.36676611  1
  Rb  Rb7  1  0.32862683  0.00357771  0.13538869  1
  Na  Na8  1  0.96854028  0.90557536  0.38851510  1
  Na  Na9  1  0.65445784  0.09017590  0.39112232  1
  Na  Na10  1  0.15445784  0.59017590  0.10887768  1
  Na  Na11  1  0.46854028  0.40557536  0.11148490  1
  Na  Na12  1  0.84554216  0.40982410  0.89112232  1
  Na  Na13  1  0.53145972  0.59442464  0.88851510  1
  Na  Na14  1  0.34554216  0.90982410  0.60887768  1
  Na  Na15  1  0.03145972  0.09442464  0.61148490  1
  Ir  Ir16  1  0.75371612  0.76343444  0.13256609  1
  Ir  Ir17  1  0.25371612  0.26343444  0.36743391  1
  Ir  Ir18  1  0.74628388  0.73656556  0.63256609  1
  Ir  Ir19  1  0.24628388  0.23656556  0.86743391  1
  O  O20  1  0.79645214  0.59173162  0.04216977  1
  O  O21  1  0.01123513  0.74021381  0.54473299  1
  O  O22  1  0.48522745  0.73948387  0.72219883  1
  O  O23  1  0.21329836  0.42830963  0.27065271  1
  O  O24  1  0.78670164  0.57169037  0.72934729  1
  O  O25  1  0.29645214  0.09173162  0.45783023  1
  O  O26  1  0.01477255  0.76051613  0.22219883  1
  O  O27  1  0.71329836  0.92830963  0.22934729  1
  O  O28  1  0.48876487  0.75978619  0.04473299  1
  O  O29  1  0.28670164  0.07169037  0.77065271  1
  O  O30  1  0.20354786  0.40826838  0.95783023  1
  O  O31  1  0.98522745  0.23948387  0.77780117  1
  O  O32  1  0.98876487  0.25978619  0.45526701  1
  O  O33  1  0.51123513  0.24021381  0.95526701  1
  O  O34  1  0.51477255  0.26051613  0.27780117  1
  O  O35  1  0.70354786  0.90826838  0.54216977  1
