# generated using pymatgen
data_Tb3Si2Cl5O6
_symmetry_space_group_name_H-M   'P 1'
_cell_length_a   7.48273430
_cell_length_b   7.48273418
_cell_length_c   11.77357732
_cell_angle_alpha   80.62261819
_cell_angle_beta   80.62261832
_cell_angle_gamma   88.81400728
_symmetry_Int_Tables_number   1
_chemical_formula_structural   Tb3Si2Cl5O6
_chemical_formula_sum   'Tb6 Si4 Cl10 O12'
_cell_volume   641.70533081
_cell_formula_units_Z   2
loop_
 _symmetry_equiv_pos_site_id
 _symmetry_equiv_pos_as_xyz
  1  'x, y, z'
loop_
 _atom_site_type_symbol
 _atom_site_label
 _atom_site_symmetry_multiplicity
 _atom_site_fract_x
 _atom_site_fract_y
 _atom_site_fract_z
 _atom_site_occupancy
  Tb  Tb0  1  0.91816804  0.41604636  0.33039970  1
  Tb  Tb1  1  0.08183196  0.58395364  0.66960030  1
  Tb  Tb2  1  0.50000000  0.00000000  0.00000000  1
  Tb  Tb3  1  0.41604636  0.91816804  0.33039970  1
  Tb  Tb4  1  0.00000000  0.50000000  0.00000000  1
  Tb  Tb5  1  0.58395364  0.08183196  0.66960030  1
  Si  Si6  1  0.89020122  0.18207003  0.85592764  1
  Si  Si7  1  0.10979878  0.81792997  0.14407236  1
  Si  Si8  1  0.18207003  0.89020122  0.85592764  1
  Si  Si9  1  0.81792997  0.10979878  0.14407236  1
  Cl  Cl10  1  0.21934571  0.21934571  0.33872916  1
  Cl  Cl11  1  0.31414068  0.31414068  0.99823464  1
  Cl  Cl12  1  0.78065429  0.78065429  0.66127084  1
  Cl  Cl13  1  0.11630895  0.67257144  0.42085444  1
  Cl  Cl14  1  0.38083833  0.38083833  0.64596553  1
  Cl  Cl15  1  0.88369105  0.32742856  0.57914556  1
  Cl  Cl16  1  0.67257144  0.11630895  0.42085444  1
  Cl  Cl17  1  0.68585932  0.68585932  0.00176536  1
  Cl  Cl18  1  0.61916167  0.61916167  0.35403447  1
  Cl  Cl19  1  0.32742856  0.88369105  0.57914556  1
  O  O20  1  0.86876469  0.30685587  0.17192916  1
  O  O21  1  0.13123531  0.69314413  0.82807084  1
  O  O22  1  0.69314413  0.13123531  0.82807084  1
  O  O23  1  0.95237760  0.95237760  0.19339950  1
  O  O24  1  0.39256948  0.95643321  0.82798136  1
  O  O25  1  0.30685587  0.86876469  0.17192916  1
  O  O26  1  0.95643321  0.39256948  0.82798136  1
  O  O27  1  0.85610822  0.14389178  1.00000000  1
  O  O28  1  0.60743052  0.04356679  0.17201864  1
  O  O29  1  0.04356679  0.60743052  0.17201864  1
  O  O30  1  0.04762240  0.04762240  0.80660050  1
  O  O31  1  0.14389178  0.85610822  0.00000000  1
