# generated using pymatgen
data_KAu(NO3)4
_symmetry_space_group_name_H-M   'P 1'
_cell_length_a   7.34531164
_cell_length_b   8.66038452
_cell_length_c   9.54895192
_cell_angle_alpha   110.62172329
_cell_angle_beta   90.00000000
_cell_angle_gamma   90.00000000
_symmetry_Int_Tables_number   1
_chemical_formula_structural   KAu(NO3)4
_chemical_formula_sum   'K2 Au2 N8 O24'
_cell_volume   568.51856729
_cell_formula_units_Z   2
loop_
 _symmetry_equiv_pos_site_id
 _symmetry_equiv_pos_as_xyz
  1  'x, y, z'
loop_
 _atom_site_type_symbol
 _atom_site_label
 _atom_site_symmetry_multiplicity
 _atom_site_fract_x
 _atom_site_fract_y
 _atom_site_fract_z
 _atom_site_occupancy
  K  K0  1  0.50000000  0.50000000  0.00000000  1
  K  K1  1  0.00000000  0.00000000  0.50000000  1
  Au  Au2  1  0.00000000  0.00000000  0.00000000  1
  Au  Au3  1  0.50000000  0.50000000  0.50000000  1
  N  N4  1  0.75581904  0.14151480  0.83849820  1
  N  N5  1  0.60762847  0.16241369  0.32896415  1
  N  N6  1  0.10762847  0.33758631  0.17103585  1
  N  N7  1  0.39237153  0.83758631  0.67103585  1
  N  N8  1  0.74418096  0.64151480  0.33849820  1
  N  N9  1  0.25581904  0.35848520  0.66150180  1
  N  N10  1  0.24418096  0.85848520  0.16150180  1
  N  N11  1  0.89237153  0.66241369  0.82896415  1
  O  O12  1  0.01597608  0.67945317  0.74917597  1
  O  O13  1  0.19634738  0.34055351  0.77554281  1
  O  O14  1  0.70374479  0.21306883  0.96816309  1
  O  O15  1  0.64910756  0.28868762  0.45869468  1
  O  O16  1  0.70415623  0.03920130  0.30672177  1
  O  O17  1  0.48402392  0.17945317  0.24917597  1
  O  O18  1  0.29584377  0.96079870  0.69327823  1
  O  O19  1  0.30365262  0.84055351  0.27554281  1
  O  O20  1  0.85089244  0.78868762  0.95869468  1
  O  O21  1  0.51597608  0.82054683  0.75082403  1
  O  O22  1  0.14910756  0.21131238  0.04130532  1
  O  O23  1  0.98402392  0.32054683  0.25082403  1
  O  O24  1  0.39392904  0.46954552  0.68730460  1
  O  O25  1  0.20374479  0.28693117  0.53183691  1
  O  O26  1  0.89392904  0.03045448  0.81269540  1
  O  O27  1  0.10607096  0.96954552  0.18730460  1
  O  O28  1  0.69634738  0.15944649  0.72445719  1
  O  O29  1  0.35089244  0.71131238  0.54130532  1
  O  O30  1  0.80365262  0.65944649  0.22445719  1
  O  O31  1  0.29625521  0.78693117  0.03183691  1
  O  O32  1  0.20415623  0.46079870  0.19327823  1
  O  O33  1  0.60607096  0.53045448  0.31269540  1
  O  O34  1  0.79584377  0.53920130  0.80672177  1
  O  O35  1  0.79625521  0.71306883  0.46816309  1
