# generated using pymatgen
data_Ba5Re3NO18
_symmetry_space_group_name_H-M   'P 1'
_cell_length_a   11.46720634
_cell_length_b   11.46720652
_cell_length_c   7.81434988
_cell_angle_alpha   90.00000000
_cell_angle_beta   90.00000000
_cell_angle_gamma   119.99999948
_symmetry_Int_Tables_number   1
_chemical_formula_structural   Ba5Re3NO18
_chemical_formula_sum   'Ba10 Re6 N2 O36'
_cell_volume   889.89496133
_cell_formula_units_Z   2
loop_
 _symmetry_equiv_pos_site_id
 _symmetry_equiv_pos_as_xyz
  1  'x, y, z'
loop_
 _atom_site_type_symbol
 _atom_site_label
 _atom_site_symmetry_multiplicity
 _atom_site_fract_x
 _atom_site_fract_y
 _atom_site_fract_z
 _atom_site_occupancy
  Ba  Ba0  1  0.27926917  0.27926917  0.25213696  1
  Ba  Ba1  1  0.00000000  0.72073083  0.25213696  1
  Ba  Ba2  1  0.66666700  0.33333300  0.50327121  1
  Ba  Ba3  1  0.72073083  0.00000000  0.25213696  1
  Ba  Ba4  1  1.00000000  0.27926917  0.75213696  1
  Ba  Ba5  1  0.33333300  0.66666700  0.50327121  1
  Ba  Ba6  1  0.66666700  0.33333300  0.00327121  1
  Ba  Ba7  1  0.27926917  0.00000000  0.75213696  1
  Ba  Ba8  1  0.33333300  0.66666700  0.00327121  1
  Ba  Ba9  1  0.72073083  0.72073083  0.75213696  1
  Re  Re10  1  0.39562786  0.39562786  0.80235477  1
  Re  Re11  1  0.00000000  0.39562786  0.30235477  1
  Re  Re12  1  0.39562786  0.00000000  0.30235477  1
  Re  Re13  1  0.60437214  0.00000000  0.80235477  1
  Re  Re14  1  1.00000000  0.60437214  0.80235477  1
  Re  Re15  1  0.60437214  0.60437214  0.30235477  1
  N  N16  1  0.00000000  0.00000000  0.43876889  1
  N  N17  1  0.00000000  0.00000000  0.93876889  1
  O  O18  1  0.69509069  0.00000000  0.62006448  1
  O  O19  1  0.44960304  0.87238369  0.26103679  1
  O  O20  1  0.87097568  0.26807198  0.44426203  1
  O  O21  1  0.39709631  0.26807198  0.94426203  1
  O  O22  1  0.88949351  0.88949351  0.43674238  1
  O  O23  1  0.42278065  0.55039696  0.26103679  1
  O  O24  1  0.00000000  0.88949351  0.93674238  1
  O  O25  1  1.00000000  0.11050649  0.43674238  1
  O  O26  1  0.57721935  0.12761631  0.26103679  1
  O  O27  1  0.73192802  0.12902432  0.94426203  1
  O  O28  1  0.87238369  0.42278065  0.76103679  1
  O  O29  1  0.44960304  0.57721935  0.76103679  1
  O  O30  1  0.69509069  0.69509069  0.12006448  1
  O  O31  1  0.12761631  0.57721935  0.26103679  1
  O  O32  1  0.00000000  0.69509069  0.62006448  1
  O  O33  1  0.12902432  0.73192802  0.94426203  1
  O  O34  1  0.88949351  0.00000000  0.93674238  1
  O  O35  1  0.87238369  0.44960304  0.26103679  1
  O  O36  1  0.12761631  0.55039696  0.76103679  1
  O  O37  1  0.26807198  0.39709631  0.94426203  1
  O  O38  1  0.26807198  0.87097568  0.44426203  1
  O  O39  1  0.12902432  0.39709631  0.44426203  1
  O  O40  1  0.30490931  0.00000000  0.12006448  1
  O  O41  1  0.39709631  0.12902432  0.44426203  1
  O  O42  1  0.60290369  0.73192802  0.44426203  1
  O  O43  1  0.42278065  0.87238369  0.76103679  1
  O  O44  1  0.11050649  0.00000000  0.43674238  1
  O  O45  1  0.57721935  0.44960304  0.76103679  1
  O  O46  1  0.60290369  0.87097568  0.94426203  1
  O  O47  1  0.55039696  0.42278065  0.26103679  1
  O  O48  1  0.11050649  0.11050649  0.93674238  1
  O  O49  1  1.00000000  0.30490931  0.12006448  1
  O  O50  1  0.55039696  0.12761631  0.76103679  1
  O  O51  1  0.73192802  0.60290369  0.44426203  1
  O  O52  1  0.87097568  0.60290369  0.94426203  1
  O  O53  1  0.30490931  0.30490931  0.62006448  1
