# generated using pymatgen
data_NbBiO4
_symmetry_space_group_name_H-M   'P 1'
_cell_length_a   5.58110941
_cell_length_b   7.77786586
_cell_length_c   8.05124048
_cell_angle_alpha   78.54377221
_cell_angle_beta   89.84862955
_cell_angle_gamma   92.78158392
_symmetry_Int_Tables_number   1
_chemical_formula_structural   NbBiO4
_chemical_formula_sum   'Nb4 Bi4 O16'
_cell_volume   342.10363670
_cell_formula_units_Z   4
loop_
 _symmetry_equiv_pos_site_id
 _symmetry_equiv_pos_as_xyz
  1  'x, y, z'
loop_
 _atom_site_type_symbol
 _atom_site_label
 _atom_site_symmetry_multiplicity
 _atom_site_fract_x
 _atom_site_fract_y
 _atom_site_fract_z
 _atom_site_occupancy
  Nb  Nb0  1  0.24631669  0.32629759  0.82351484  1
  Nb  Nb1  1  0.75368331  0.67370241  0.17648516  1
  Nb  Nb2  1  0.77897201  0.65439355  0.67690942  1
  Nb  Nb3  1  0.22102799  0.34560645  0.32309058  1
  Bi  Bi4  1  0.76504032  0.11990912  0.62641128  1
  Bi  Bi5  1  0.28765092  0.83437528  0.87276067  1
  Bi  Bi6  1  0.71234908  0.16562472  0.12723933  1
  Bi  Bi7  1  0.23495968  0.88009088  0.37358872  1
  O  O8  1  0.99371793  0.10556228  0.32262650  1
  O  O9  1  0.91824846  0.44556878  0.22054017  1
  O  O10  1  0.68768116  0.67255987  0.94949474  1
  O  O11  1  0.46272402  0.15697830  0.35770165  1
  O  O12  1  0.53727598  0.84302170  0.64229835  1
  O  O13  1  0.00628207  0.89443772  0.67737350  1
  O  O14  1  0.43616669  0.54623048  0.28649085  1
  O  O15  1  0.44389332  0.10841341  0.82043132  1
  O  O16  1  0.56383331  0.45376952  0.71350915  1
  O  O17  1  0.95874973  0.17468114  0.86311306  1
  O  O18  1  0.08175154  0.55443122  0.77945983  1
  O  O19  1  0.85242004  0.67770920  0.44640844  1
  O  O20  1  0.55610668  0.89158659  0.17956868  1
  O  O21  1  0.04125027  0.82531886  0.13688694  1
  O  O22  1  0.14757996  0.32229080  0.55359156  1
  O  O23  1  0.31231884  0.32744013  0.05050526  1
