# generated using pymatgen
data_Na3Eu(CO3)3
_symmetry_space_group_name_H-M   'P 1'
_cell_length_a   6.68036022
_cell_length_b   6.68036026
_cell_length_c   10.14457392
_cell_angle_alpha   90.00000000
_cell_angle_beta   90.00000000
_cell_angle_gamma   113.62829685
_symmetry_Int_Tables_number   1
_chemical_formula_structural   Na3Eu(CO3)3
_chemical_formula_sum   'Na6 Eu2 C6 O18'
_cell_volume   414.76989206
_cell_formula_units_Z   2
loop_
 _symmetry_equiv_pos_site_id
 _symmetry_equiv_pos_as_xyz
  1  'x, y, z'
loop_
 _atom_site_type_symbol
 _atom_site_label
 _atom_site_symmetry_multiplicity
 _atom_site_fract_x
 _atom_site_fract_y
 _atom_site_fract_z
 _atom_site_occupancy
  Eu  Eu0  1  0.22686137  0.77268208  0.25000000  1
  Eu  Eu1  1  0.77268208  0.22686137  0.75000000  1
  Na  Na2  1  0.40475108  0.37123579  0.25000000  1
  Na  Na3  1  0.06565122  0.06565122  0.50000000  1
  Na  Na4  1  0.20927684  0.79736265  0.75000000  1
  Na  Na5  1  0.37123579  0.40475108  0.75000000  1
  Na  Na6  1  0.06565122  0.06565122  0.00000000  1
  Na  Na7  1  0.79736265  0.20927684  0.25000000  1
  C  C8  1  0.75930836  0.78170157  0.75000000  1
  C  C9  1  0.78170157  0.75930836  0.25000000  1
  C  C10  1  0.12499914  0.52896345  0.49901925  1
  C  C11  1  0.52896345  0.12499914  0.50098075  1
  C  C12  1  0.52896345  0.12499914  0.99901925  1
  C  C13  1  0.12499914  0.52896345  0.00098075  1
  O  O14  1  0.10723269  0.43263978  0.61189325  1
  O  O15  1  0.43728985  0.15469264  0.89152034  1
  O  O16  1  0.11852009  0.71894072  0.49074989  1
  O  O17  1  0.15469264  0.43728985  0.10847966  1
  O  O18  1  0.57735391  0.80688941  0.75000000  1
  O  O19  1  0.80688941  0.57735391  0.25000000  1
  O  O20  1  0.71894072  0.11852009  0.99074989  1
  O  O21  1  0.43263978  0.10723269  0.38810675  1
  O  O22  1  0.94327736  0.95819430  0.75000000  1
  O  O23  1  0.95819430  0.94327736  0.25000000  1
  O  O24  1  0.15469264  0.43728985  0.39152034  1
  O  O25  1  0.43263978  0.10723269  0.11189325  1
  O  O26  1  0.76396394  0.59088217  0.75000000  1
  O  O27  1  0.71894072  0.11852009  0.50925011  1
  O  O28  1  0.59088217  0.76396394  0.25000000  1
  O  O29  1  0.10723269  0.43263978  0.88810675  1
  O  O30  1  0.11852009  0.71894072  0.00925011  1
  O  O31  1  0.43728985  0.15469264  0.60847966  1
