# generated using pymatgen
data_SrLi4Ca(SiO4)2
_symmetry_space_group_name_H-M   'P 1'
_cell_length_a   5.03492751
_cell_length_b   10.03938185
_cell_length_c   14.22996973
_cell_angle_alpha   90.00000000
_cell_angle_beta   90.00000000
_cell_angle_gamma   90.00000000
_symmetry_Int_Tables_number   1
_chemical_formula_structural   SrLi4Ca(SiO4)2
_chemical_formula_sum   'Sr4 Li16 Ca4 Si8 O32'
_cell_volume   719.29024673
_cell_formula_units_Z   4
loop_
 _symmetry_equiv_pos_site_id
 _symmetry_equiv_pos_as_xyz
  1  'x, y, z'
loop_
 _atom_site_type_symbol
 _atom_site_label
 _atom_site_symmetry_multiplicity
 _atom_site_fract_x
 _atom_site_fract_y
 _atom_site_fract_z
 _atom_site_occupancy
  Sr  Sr0  1  0.05540728  0.26826593  0.25000000  1
  Sr  Sr1  1  0.94459272  0.73173407  0.75000000  1
  Sr  Sr2  1  0.05540728  0.23173407  0.75000000  1
  Sr  Sr3  1  0.94459272  0.76826593  0.25000000  1
  Li  Li4  1  0.51746013  0.22460212  0.87228064  1
  Li  Li5  1  0.95883336  0.99674397  0.62759000  1
  Li  Li6  1  0.04116664  0.00325603  0.12759000  1
  Li  Li7  1  0.48253987  0.72460212  0.87228064  1
  Li  Li8  1  0.04116664  0.00325603  0.37241000  1
  Li  Li9  1  0.51746013  0.27539788  0.12771936  1
  Li  Li10  1  0.95883336  0.50325603  0.37241000  1
  Li  Li11  1  0.95883336  0.99674397  0.87241000  1
  Li  Li12  1  0.51746013  0.22460212  0.62771936  1
  Li  Li13  1  0.95883336  0.50325603  0.12759000  1
  Li  Li14  1  0.48253987  0.72460212  0.62771936  1
  Li  Li15  1  0.04116664  0.49674397  0.87241000  1
  Li  Li16  1  0.51746013  0.27539788  0.37228064  1
  Li  Li17  1  0.48253987  0.77539788  0.37228064  1
  Li  Li18  1  0.48253987  0.77539788  0.12771936  1
  Li  Li19  1  0.04116664  0.49674397  0.62759000  1
  Ca  Ca20  1  0.50000000  0.00000000  0.50000000  1
  Ca  Ca21  1  0.50000000  0.50000000  0.00000000  1
  Ca  Ca22  1  0.50000000  0.00000000  0.00000000  1
  Ca  Ca23  1  0.50000000  0.50000000  0.50000000  1
  Si  Si24  1  0.47405852  0.97576721  0.75000000  1
  Si  Si25  1  0.52594148  0.47576721  0.75000000  1
  Si  Si26  1  0.47405852  0.52423279  0.25000000  1
  Si  Si27  1  0.52594148  0.02423279  0.25000000  1
  Si  Si28  1  0.98259876  0.75000000  0.00000000  1
  Si  Si29  1  0.01740124  0.25000000  0.50000000  1
  Si  Si30  1  0.98259876  0.75000000  0.50000000  1
  Si  Si31  1  0.01740124  0.25000000  0.00000000  1
  O  O32  1  0.66525666  0.54505330  0.65557488  1
  O  O33  1  0.58149485  0.31237603  0.75000000  1
  O  O34  1  0.21046286  0.33516511  0.57284892  1
  O  O35  1  0.21046286  0.16483489  0.07284892  1
  O  O36  1  0.33474334  0.04505330  0.65557488  1
  O  O37  1  0.33474334  0.45494670  0.34442512  1
  O  O38  1  0.66525666  0.95494670  0.15557488  1
  O  O39  1  0.78953714  0.83516511  0.57284892  1
  O  O40  1  0.17858615  0.65036876  0.56090382  1
  O  O41  1  0.79747345  0.49991906  0.25000000  1
  O  O42  1  0.79747345  0.00008094  0.75000000  1
  O  O43  1  0.82141385  0.15036876  0.56090382  1
  O  O44  1  0.17858615  0.84963124  0.06090382  1
  O  O45  1  0.66525666  0.54505330  0.84442512  1
  O  O46  1  0.58149485  0.18762397  0.25000000  1
  O  O47  1  0.66525666  0.95494670  0.34442512  1
  O  O48  1  0.17858615  0.84963124  0.43909618  1
  O  O49  1  0.20252655  0.50008094  0.75000000  1
  O  O50  1  0.82141385  0.34963124  0.06090382  1
  O  O51  1  0.82141385  0.15036876  0.93909618  1
  O  O52  1  0.20252655  0.99991906  0.25000000  1
  O  O53  1  0.17858615  0.65036876  0.93909618  1
  O  O54  1  0.21046286  0.16483489  0.42715108  1
  O  O55  1  0.78953714  0.83516511  0.92715108  1
  O  O56  1  0.33474334  0.04505330  0.84442512  1
  O  O57  1  0.33474334  0.45494670  0.15557488  1
  O  O58  1  0.41850515  0.68762397  0.25000000  1
  O  O59  1  0.21046286  0.33516511  0.92715108  1
  O  O60  1  0.41850515  0.81237603  0.75000000  1
  O  O61  1  0.78953714  0.66483489  0.42715108  1
  O  O62  1  0.78953714  0.66483489  0.07284892  1
  O  O63  1  0.82141385  0.34963124  0.43909618  1
