# generated using pymatgen
data_Ba5Si(Cl3O2)2
_symmetry_space_group_name_H-M   'P 1'
_cell_length_a   8.91534293
_cell_length_b   8.91534310
_cell_length_c   11.84409610
_cell_angle_alpha   97.68978051
_cell_angle_beta   97.68978065
_cell_angle_gamma   114.48668675
_symmetry_Int_Tables_number   1
_chemical_formula_structural   Ba5Si(Cl3O2)2
_chemical_formula_sum   'Ba10 Si2 Cl12 O8'
_cell_volume   830.12378493
_cell_formula_units_Z   2
loop_
 _symmetry_equiv_pos_site_id
 _symmetry_equiv_pos_as_xyz
  1  'x, y, z'
loop_
 _atom_site_type_symbol
 _atom_site_label
 _atom_site_symmetry_multiplicity
 _atom_site_fract_x
 _atom_site_fract_y
 _atom_site_fract_z
 _atom_site_occupancy
  Ba  Ba0  1  0.57150371  0.31638295  0.52027017  1
  Ba  Ba1  1  0.79839642  0.20160358  0.25000000  1
  Ba  Ba2  1  0.07710325  0.23313679  0.63379876  1
  Ba  Ba3  1  0.76686321  0.92289675  0.86620124  1
  Ba  Ba4  1  0.42849629  0.68361705  0.47972983  1
  Ba  Ba5  1  0.20160358  0.79839642  0.75000000  1
  Ba  Ba6  1  0.23313679  0.07710325  0.13379876  1
  Ba  Ba7  1  0.92289675  0.76686321  0.36620124  1
  Ba  Ba8  1  0.31638295  0.57150371  0.02027017  1
  Ba  Ba9  1  0.68361705  0.42849629  0.97972983  1
  Si  Si10  1  0.42262676  0.57737324  0.75000000  1
  Si  Si11  1  0.57737324  0.42262676  0.25000000  1
  Cl  Cl12  1  0.85610883  0.79769882  0.63381123  1
  Cl  Cl13  1  0.28023071  0.98094574  0.54896873  1
  Cl  Cl14  1  0.98094574  0.28023071  0.04896873  1
  Cl  Cl15  1  0.14389117  0.20230118  0.36618877  1
  Cl  Cl16  1  0.20230118  0.14389117  0.86618877  1
  Cl  Cl17  1  0.75821498  0.24178502  0.75000000  1
  Cl  Cl18  1  0.71976929  0.01905426  0.45103127  1
  Cl  Cl19  1  0.79769882  0.85610883  0.13381123  1
  Cl  Cl20  1  0.24178502  0.75821498  0.25000000  1
  Cl  Cl21  1  0.50000000  0.00000000  0.00000000  1
  Cl  Cl22  1  0.01905426  0.71976929  0.95103127  1
  Cl  Cl23  1  0.00000000  0.50000000  0.50000000  1
  O  O24  1  0.55742898  0.59785988  0.86771470  1
  O  O25  1  0.47691328  0.76411226  0.71395688  1
  O  O26  1  0.40214012  0.44257102  0.63228530  1
  O  O27  1  0.76411226  0.47691328  0.21395688  1
  O  O28  1  0.23588774  0.52308672  0.78604312  1
  O  O29  1  0.59785988  0.55742898  0.36771470  1
  O  O30  1  0.52308672  0.23588774  0.28604312  1
  O  O31  1  0.44257102  0.40214012  0.13228530  1
