# generated using pymatgen
data_Na2SbSO4F3
_symmetry_space_group_name_H-M   'P 1'
_cell_length_a   7.32537232
_cell_length_b   8.46568228
_cell_length_c   11.25367329
_cell_angle_alpha   90.00000000
_cell_angle_beta   90.00000000
_cell_angle_gamma   115.63591920
_symmetry_Int_Tables_number   1
_chemical_formula_structural   Na2SbSO4F3
_chemical_formula_sum   'Na8 Sb4 S4 O16 F12'
_cell_volume   629.18928007
_cell_formula_units_Z   4
loop_
 _symmetry_equiv_pos_site_id
 _symmetry_equiv_pos_as_xyz
  1  'x, y, z'
loop_
 _atom_site_type_symbol
 _atom_site_label
 _atom_site_symmetry_multiplicity
 _atom_site_fract_x
 _atom_site_fract_y
 _atom_site_fract_z
 _atom_site_occupancy
  Na  Na0  1  0.46978352  0.50000000  0.75000000  1
  Na  Na1  1  0.38197042  0.76394085  0.00000000  1
  Na  Na2  1  0.53021648  0.50000000  0.25000000  1
  Na  Na3  1  0.61802958  0.23605915  0.00000000  1
  Na  Na4  1  0.88197042  0.76394085  0.50000000  1
  Na  Na5  1  0.03021648  0.50000000  0.25000000  1
  Na  Na6  1  0.96978352  0.50000000  0.75000000  1
  Na  Na7  1  0.11802958  0.23605915  0.50000000  1
  Sb  Sb8  1  0.11254069  0.00000000  0.83716052  1
  Sb  Sb9  1  0.38745931  0.00000000  0.33716052  1
  Sb  Sb10  1  0.88745931  0.00000000  0.16283948  1
  Sb  Sb11  1  0.61254069  0.00000000  0.66283948  1
  S  S12  1  0.68292646  0.36585292  0.50000000  1
  S  S13  1  0.18292646  0.36585292  0.00000000  1
  S  S14  1  0.31707354  0.63414708  0.50000000  1
  S  S15  1  0.81707354  0.63414708  0.00000000  1
  O  O16  1  0.27346953  0.47790104  0.10559648  1
  O  O17  1  0.79556849  0.52209896  0.10559648  1
  O  O18  1  0.96290272  0.24956329  0.02350400  1
  O  O19  1  0.53709728  0.75043671  0.52350400  1
  O  O20  1  0.70443151  0.47790104  0.60559648  1
  O  O21  1  0.20443151  0.47790104  0.89440352  1
  O  O22  1  0.22653047  0.52209896  0.60559648  1
  O  O23  1  0.77346953  0.47790104  0.39440352  1
  O  O24  1  0.78666058  0.24956329  0.52350400  1
  O  O25  1  0.03709728  0.75043671  0.97649600  1
  O  O26  1  0.71333942  0.75043671  0.02350400  1
  O  O27  1  0.29556849  0.52209896  0.39440352  1
  O  O28  1  0.46290272  0.24956329  0.47649600  1
  O  O29  1  0.21333942  0.75043671  0.47649600  1
  O  O30  1  0.72653047  0.52209896  0.89440352  1
  O  O31  1  0.28666058  0.24956329  0.97649600  1
  F  F32  1  0.72029565  0.81617186  0.28077401  1
  F  F33  1  0.37690145  0.00000000  0.88394072  1
  F  F34  1  0.09587620  0.81617186  0.71922599  1
  F  F35  1  0.87690145  0.00000000  0.61605928  1
  F  F36  1  0.40412380  0.18382814  0.21922599  1
  F  F37  1  0.62309855  0.00000000  0.11605928  1
  F  F38  1  0.90412380  0.18382814  0.28077401  1
  F  F39  1  0.59587620  0.81617186  0.78077401  1
  F  F40  1  0.22029565  0.81617186  0.21922599  1
  F  F41  1  0.12309855  0.00000000  0.38394072  1
  F  F42  1  0.27970435  0.18382814  0.71922599  1
  F  F43  1  0.77970435  0.18382814  0.78077401  1
