# generated using pymatgen
data_Sb8Cl2O11
_symmetry_space_group_name_H-M   'P 1'
_cell_length_a   10.69974174
_cell_length_b   11.55225414
_cell_length_c   14.24612063
_cell_angle_alpha   78.35051426
_cell_angle_beta   76.41378419
_cell_angle_gamma   72.83365321
_symmetry_Int_Tables_number   1
_chemical_formula_structural   Sb8Cl2O11
_chemical_formula_sum   'Sb32 Cl8 O44'
_cell_volume   1618.63064504
_cell_formula_units_Z   4
loop_
 _symmetry_equiv_pos_site_id
 _symmetry_equiv_pos_as_xyz
  1  'x, y, z'
loop_
 _atom_site_type_symbol
 _atom_site_label
 _atom_site_symmetry_multiplicity
 _atom_site_fract_x
 _atom_site_fract_y
 _atom_site_fract_z
 _atom_site_occupancy
  Sb  Sb0  1  0.36238901  0.88845674  0.72929716  1
  Sb  Sb1  1  0.29661016  0.62717807  0.39143576  1
  Sb  Sb2  1  0.99317146  0.37933702  0.81284003  1
  Sb  Sb3  1  0.30947428  0.86053976  0.13449384  1
  Sb  Sb4  1  0.83976536  0.85033144  0.68330684  1
  Sb  Sb5  1  0.30948686  0.12697504  0.85994862  1
  Sb  Sb6  1  0.27587833  0.37690718  0.63867970  1
  Sb  Sb7  1  0.36934585  0.65028676  0.97432467  1
  Sb  Sb8  1  0.01837919  0.61361699  0.55831540  1
  Sb  Sb9  1  0.69052572  0.13946024  0.86550616  1
  Sb  Sb10  1  0.17529047  0.91159279  0.55852358  1
  Sb  Sb11  1  0.84179379  0.57900002  0.96846704  1
  Sb  Sb12  1  0.15820621  0.42099998  0.03153296  1
  Sb  Sb13  1  0.01151359  0.10070824  0.06811157  1
  Sb  Sb14  1  0.96857717  0.14899208  0.68930285  1
  Sb  Sb15  1  0.66039384  0.85703818  0.50543059  1
  Sb  Sb16  1  0.66512634  0.59760621  0.75384476  1
  Sb  Sb17  1  0.00682854  0.62066298  0.18715997  1
  Sb  Sb18  1  0.98848641  0.89929176  0.93188843  1
  Sb  Sb19  1  0.33960616  0.14296182  0.49456941  1
  Sb  Sb20  1  0.69051314  0.87302496  0.14005138  1
  Sb  Sb21  1  0.70338984  0.37282193  0.60856424  1
  Sb  Sb22  1  0.63065415  0.34971324  0.02567533  1
  Sb  Sb23  1  0.98162081  0.38638301  0.44168460  1
  Sb  Sb24  1  0.18790169  0.66623865  0.79795152  1
  Sb  Sb25  1  0.72412167  0.62309282  0.36132030  1
  Sb  Sb26  1  0.03142283  0.85100792  0.31069715  1
  Sb  Sb27  1  0.33487366  0.40239379  0.24615524  1
  Sb  Sb28  1  0.82470953  0.08840721  0.44147642  1
  Sb  Sb29  1  0.81209831  0.33376135  0.20204848  1
  Sb  Sb30  1  0.63761099  0.11154326  0.27070284  1
  Sb  Sb31  1  0.16023464  0.14966856  0.31669316  1
  Cl  Cl32  1  0.53008061  0.81617862  0.91299366  1
  Cl  Cl33  1  0.49201280  0.89436442  0.35103128  1
  Cl  Cl34  1  0.50798720  0.10563558  0.64896872  1
  Cl  Cl35  1  0.49936251  0.63843265  0.16796854  1
  Cl  Cl36  1  0.49114893  0.36952216  0.40306180  1
  Cl  Cl37  1  0.50063749  0.36156735  0.83203146  1
  Cl  Cl38  1  0.46991939  0.18382138  0.08700634  1
  Cl  Cl39  1  0.50885107  0.63047784  0.59693820  1
  O  O40  1  0.21516583  0.27077012  0.57215491  1
  O  O41  1  0.99041807  0.23960287  0.14080183  1
  O  O42  1  0.78791958  0.17300188  0.29900478  1
  O  O43  1  0.23848866  0.01272433  0.81025930  1
  O  O44  1  0.76151134  0.98727567  0.18974070  1
  O  O45  1  0.22252354  0.53559466  0.32244602  1
  O  O46  1  0.18478313  0.09363474  0.45688185  1
  O  O47  1  0.98200108  0.26401218  0.35778838  1
  O  O48  1  0.21689348  0.57293598  0.96344978  1
  O  O49  1  0.82685655  0.86273239  0.01792732  1
  O  O50  1  0.77747646  0.46440534  0.67755398  1
  O  O51  1  0.79561389  0.71821023  0.21051845  1
  O  O52  1  0.90214408  0.27224845  0.56822725  1
  O  O53  1  0.00958193  0.76039713  0.85919817  1
  O  O54  1  0.97396858  0.52852847  0.08892036  1
  O  O55  1  0.78310652  0.42706402  0.03655022  1
  O  O56  1  0.00913283  0.99648721  0.37850320  1
  O  O57  1  0.78483417  0.72922988  0.42784509  1
  O  O58  1  0.92175230  0.53168540  0.31163194  1
  O  O59  1  0.25695605  0.27179827  0.33500299  1
  O  O60  1  0.76710077  0.20260661  0.72691774  1
  O  O61  1  0.74304395  0.72820173  0.66499701  1
  O  O62  1  0.69500385  0.25734472  0.14970522  1
  O  O63  1  0.10999387  0.97101708  0.16121766  1
  O  O64  1  0.24330941  0.76733135  0.06051991  1
  O  O65  1  0.23289923  0.79739339  0.27308226  1
  O  O66  1  0.09785592  0.72775155  0.43177275  1
  O  O67  1  0.20438611  0.28178977  0.78948155  1
  O  O68  1  0.78147607  0.46069529  0.46783031  1
  O  O69  1  0.99086717  0.00351279  0.62149680  1
  O  O70  1  0.21208042  0.82699812  0.70099522  1
  O  O71  1  0.30499615  0.74265528  0.85029478  1
  O  O72  1  0.07824770  0.46831460  0.68836806  1
  O  O73  1  0.18111712  0.45511687  0.16807244  1
  O  O74  1  0.75669059  0.23266865  0.93948009  1
  O  O75  1  0.81521687  0.90636526  0.54311815  1
  O  O76  1  0.81888288  0.54488313  0.83192756  1
  O  O77  1  0.70860071  -0.00017511  0.40004715  1
  O  O78  1  0.29139929  1.00017511  0.59995285  1
  O  O79  1  0.01799892  0.73598782  0.64221162  1
  O  O80  1  0.02603142  0.47147153  0.91107964  1
  O  O81  1  0.17314345  0.13726761  0.98207268  1
  O  O82  1  0.21852393  0.53930471  0.53216969  1
  O  O83  1  0.89000613  0.02898292  0.83878234  1
