# generated using pymatgen
data_RbErSeCl2O3
_symmetry_space_group_name_H-M   'P 1'
_cell_length_a   6.60624599
_cell_length_b   7.01547305
_cell_length_c   17.07649776
_cell_angle_alpha   90.00000000
_cell_angle_beta   96.61000990
_cell_angle_gamma   90.00000000
_symmetry_Int_Tables_number   1
_chemical_formula_structural   RbErSeCl2O3
_chemical_formula_sum   'Rb4 Er4 Se4 Cl8 O12'
_cell_volume   786.16548148
_cell_formula_units_Z   4
loop_
 _symmetry_equiv_pos_site_id
 _symmetry_equiv_pos_as_xyz
  1  'x, y, z'
loop_
 _atom_site_type_symbol
 _atom_site_label
 _atom_site_symmetry_multiplicity
 _atom_site_fract_x
 _atom_site_fract_y
 _atom_site_fract_z
 _atom_site_occupancy
  Rb  Rb0  1  0.17838032  0.19954179  0.94285247  1
  Rb  Rb1  1  0.67838032  0.30045821  0.44285247  1
  Rb  Rb2  1  0.82161968  0.80045821  0.05714753  1
  Rb  Rb3  1  0.32161968  0.69954179  0.55714753  1
  Er  Er4  1  0.87942071  0.65508444  0.74077894  1
  Er  Er5  1  0.62057929  0.15508444  0.75922106  1
  Er  Er6  1  0.12057929  0.34491556  0.25922106  1
  Er  Er7  1  0.37942071  0.84491556  0.24077894  1
  Se  Se8  1  0.92397054  0.84083232  0.29412875  1
  Se  Se9  1  0.42397054  0.65916768  0.79412875  1
  Se  Se10  1  0.57602946  0.34083232  0.20587125  1
  Se  Se11  1  0.07602946  0.15916768  0.70587125  1
  Cl  Cl12  1  0.17250846  0.36085030  0.41500066  1
  Cl  Cl13  1  0.50503080  0.83987420  0.39286235  1
  Cl  Cl14  1  0.82749154  0.63914970  0.58499934  1
  Cl  Cl15  1  0.32749154  0.86085030  0.08499934  1
  Cl  Cl16  1  0.00503080  0.66012580  0.89286235  1
  Cl  Cl17  1  0.99496920  0.33987420  0.10713765  1
  Cl  Cl18  1  0.49496920  0.16012580  0.60713765  1
  Cl  Cl19  1  0.67250846  0.13914970  0.91500066  1
  O  O20  1  0.42131450  0.16838909  0.24275452  1
  O  O21  1  0.71851342  0.84734270  0.22423992  1
  O  O22  1  0.91914628  0.97847548  0.73496454  1
  O  O23  1  0.41914628  0.52152452  0.23496454  1
  O  O24  1  0.92131450  0.33161091  0.74275452  1
  O  O25  1  0.57868550  0.83161091  0.75724548  1
  O  O26  1  0.08085372  0.02152452  0.26503546  1
  O  O27  1  0.21851342  0.65265730  0.72423992  1
  O  O28  1  0.07868550  0.66838909  0.25724548  1
  O  O29  1  0.58085372  0.47847548  0.76503546  1
  O  O30  1  0.28148658  0.15265730  0.77576008  1
  O  O31  1  0.78148658  0.34734270  0.27576008  1
