# generated using pymatgen
data_Sr9Zn4(CuO7)2
_symmetry_space_group_name_H-M   'P 1'
_cell_length_a   3.64857652
_cell_length_b   11.34001124
_cell_length_c   11.43249827
_cell_angle_alpha   98.48169157
_cell_angle_beta   90.00000000
_cell_angle_gamma   99.25750345
_symmetry_Int_Tables_number   1
_chemical_formula_structural   Sr9Zn4(CuO7)2
_chemical_formula_sum   'Sr9 Zn4 Cu2 O14'
_cell_volume   461.61511514
_cell_formula_units_Z   1
loop_
 _symmetry_equiv_pos_site_id
 _symmetry_equiv_pos_as_xyz
  1  'x, y, z'
loop_
 _atom_site_type_symbol
 _atom_site_label
 _atom_site_symmetry_multiplicity
 _atom_site_fract_x
 _atom_site_fract_y
 _atom_site_fract_z
 _atom_site_occupancy
  Sr  Sr0  1  0.30644965  0.61289931  0.42980118  1
  Sr  Sr1  1  0.31275109  0.62550217  0.10220478  1
  Sr  Sr2  1  0.31352897  0.62705795  0.77485324  1
  Sr  Sr3  1  0.68647103  0.37294205  0.22514676  1
  Sr  Sr4  1  0.49053267  0.98106534  0.19242319  1
  Sr  Sr5  1  0.50000000  0.00000000  0.50000000  1
  Sr  Sr6  1  0.69355035  0.38710069  0.57019882  1
  Sr  Sr7  1  0.50946733  0.01893466  0.80757681  1
  Sr  Sr8  1  0.68724891  0.37449783  0.89779522  1
  Zn  Zn9  1  0.11033727  0.22067453  0.70268374  1
  Zn  Zn10  1  0.10253173  0.20506346  0.03898175  1
  Zn  Zn11  1  0.89746827  0.79493654  0.96101825  1
  Zn  Zn12  1  0.88966273  0.77932547  0.29731626  1
  Cu  Cu13  1  0.89352782  0.78705564  0.62404673  1
  Cu  Cu14  1  0.10647218  0.21294436  0.37595327  1
  O  O15  1  0.79696661  0.59393321  0.26889624  1
  O  O16  1  0.19717154  0.39434309  0.07008198  1
  O  O17  1  0.02484184  0.04968368  0.35027219  1
  O  O18  1  0.91196771  0.82393543  0.13553760  1
  O  O19  1  0.19045683  0.38091366  0.40148615  1
  O  O20  1  0.40623006  0.81246011  0.35935455  1
  O  O21  1  0.80282846  0.60565691  0.92991802  1
  O  O22  1  0.20303339  0.40606679  0.73110376  1
  O  O23  1  0.58100540  0.16201080  0.09403052  1
  O  O24  1  0.80954317  0.61908634  0.59851385  1
  O  O25  1  0.97515816  0.95031632  0.64972781  1
  O  O26  1  0.41899460  0.83798920  0.90596948  1
  O  O27  1  0.08803229  0.17606457  0.86446240  1
  O  O28  1  0.59376994  0.18753989  0.64064545  1
