# generated using pymatgen
data_TmNbO4
_symmetry_space_group_name_H-M   'P 1'
_cell_length_a   5.10467826
_cell_length_b   5.28195654
_cell_length_c   6.52469591
_cell_angle_alpha   112.03294899
_cell_angle_beta   111.13247994
_cell_angle_gamma   94.34355969
_symmetry_Int_Tables_number   1
_chemical_formula_structural   TmNbO4
_chemical_formula_sum   'Tm2 Nb2 O8'
_cell_volume   147.51033101
_cell_formula_units_Z   2
loop_
 _symmetry_equiv_pos_site_id
 _symmetry_equiv_pos_as_xyz
  1  'x, y, z'
loop_
 _atom_site_type_symbol
 _atom_site_label
 _atom_site_symmetry_multiplicity
 _atom_site_fract_x
 _atom_site_fract_y
 _atom_site_fract_z
 _atom_site_occupancy
  Tm  Tm0  1  0.12133354  0.87133354  0.24266707  1
  Tm  Tm1  1  0.87866646  0.12866646  0.75733293  1
  Nb  Nb2  1  0.35734605  0.60734605  0.71469209  1
  Nb  Nb3  1  0.64265395  0.39265395  0.28530791  1
  O  O4  1  0.28542634  0.12604130  0.07680011  1
  O  O5  1  0.71457366  0.87395870  0.92319989  1
  O  O6  1  0.79137377  0.45075881  0.07680011  1
  O  O7  1  0.50723055  0.71925670  0.43613904  1
  O  O8  1  0.49276945  0.28074330  0.56386096  1
  O  O9  1  0.20862623  0.54924119  0.92319989  1
  O  O10  1  0.07109151  0.78311765  0.56386096  1
  O  O11  1  0.92890849  0.21688235  0.43613904  1
