# generated using pymatgen
data_Cs2Li3GaO4
_symmetry_space_group_name_H-M   'P 1'
_cell_length_a   5.09120619
_cell_length_b   8.26040714
_cell_length_c   8.26040672
_cell_angle_alpha   75.62309835
_cell_angle_beta   72.05106178
_cell_angle_gamma   72.05106659
_symmetry_Int_Tables_number   1
_chemical_formula_structural   Cs2Li3GaO4
_chemical_formula_sum   'Cs4 Li6 Ga2 O8'
_cell_volume   309.85842454
_cell_formula_units_Z   2
loop_
 _symmetry_equiv_pos_site_id
 _symmetry_equiv_pos_as_xyz
  1  'x, y, z'
loop_
 _atom_site_type_symbol
 _atom_site_label
 _atom_site_symmetry_multiplicity
 _atom_site_fract_x
 _atom_site_fract_y
 _atom_site_fract_z
 _atom_site_occupancy
  Cs  Cs0  1  0.23858104  0.37245643  0.62754357  1
  Cs  Cs1  1  0.76141896  0.62754357  0.37245643  1
  Cs  Cs2  1  0.26141896  0.87245643  0.12754357  1
  Cs  Cs3  1  0.73858104  0.12754357  0.87245643  1
  Li  Li4  1  0.25000000  0.49026842  0.00973158  1
  Li  Li5  1  0.75000000  0.99026842  0.50973158  1
  Li  Li6  1  0.25000000  0.00973158  0.49026842  1
  Li  Li7  1  0.25000000  0.25000000  0.25000000  1
  Li  Li8  1  0.75000000  0.50973158  0.99026842  1
  Li  Li9  1  0.75000000  0.75000000  0.75000000  1
  Ga  Ga10  1  0.25000000  0.75000000  0.75000000  1
  Ga  Ga11  1  0.75000000  0.25000000  0.25000000  1
  O  O12  1  0.59203101  0.05831657  0.29329446  1
  O  O13  1  0.90796899  0.20670554  0.44168343  1
  O  O14  1  0.09203101  0.79329446  0.55831657  1
  O  O15  1  0.55635796  0.55831657  0.79329446  1
  O  O16  1  0.40796899  0.94168343  0.70670554  1
  O  O17  1  0.94364204  0.70670554  0.94168343  1
  O  O18  1  0.44364204  0.44168343  0.20670554  1
  O  O19  1  0.05635796  0.29329446  0.05831657  1
