# generated using pymatgen
data_Li3Sc(BO3)2
_symmetry_space_group_name_H-M   'P 1'
_cell_length_a   4.82328668
_cell_length_b   6.00037429
_cell_length_c   8.24524625
_cell_angle_alpha   90.00000000
_cell_angle_beta   90.66689721
_cell_angle_gamma   90.00000000
_symmetry_Int_Tables_number   1
_chemical_formula_structural   Li3Sc(BO3)2
_chemical_formula_sum   'Li6 Sc2 B4 O12'
_cell_volume   238.61383912
_cell_formula_units_Z   2
loop_
 _symmetry_equiv_pos_site_id
 _symmetry_equiv_pos_as_xyz
  1  'x, y, z'
loop_
 _atom_site_type_symbol
 _atom_site_label
 _atom_site_symmetry_multiplicity
 _atom_site_fract_x
 _atom_site_fract_y
 _atom_site_fract_z
 _atom_site_occupancy
  Li  Li0  1  0.51553899  0.25036665  0.20277903  1
  Li  Li1  1  0.01553899  0.24963335  0.70277903  1
  Li  Li2  1  0.98446101  0.75036665  0.29722097  1
  Li  Li3  1  0.48446101  0.74963335  0.79722097  1
  Li  Li4  1  0.00000000  0.50000000  0.00000000  1
  Li  Li5  1  0.50000000  0.00000000  0.50000000  1
  Sc  Sc6  1  0.50000000  0.50000000  0.50000000  1
  Sc  Sc7  1  0.00000000  0.00000000  0.00000000  1
  B  B8  1  0.01492105  0.80498072  0.62529121  1
  B  B9  1  0.48507895  0.30498072  0.87470879  1
  B  B10  1  0.98507895  0.19501928  0.37470879  1
  B  B11  1  0.51492105  0.69501928  0.12529121  1
  O  O12  1  0.62679180  0.58647690  0.26011079  1
  O  O13  1  0.12679180  0.91352310  0.76011079  1
  O  O14  1  0.80948526  0.25329078  0.50099362  1
  O  O15  1  0.69051474  0.75329078  0.99900638  1
  O  O16  1  0.26591389  0.23770106  0.39003549  1
  O  O17  1  0.37320820  0.41352310  0.73988921  1
  O  O18  1  0.19051474  0.74670922  0.49900638  1
  O  O19  1  0.30948526  0.24670922  0.00099362  1
  O  O20  1  0.87320820  0.08647690  0.23988921  1
  O  O21  1  0.76591389  0.26229894  0.89003549  1
  O  O22  1  0.23408611  0.73770106  0.10996451  1
  O  O23  1  0.73408611  0.76229894  0.60996451  1
