# generated using pymatgen
data_Ta9Pb12O20F29
_symmetry_space_group_name_H-M   'P 1'
_cell_length_a   3.92941047
_cell_length_b   16.63961064
_cell_length_c   16.63961077
_cell_angle_alpha   89.20118508
_cell_angle_beta   83.21904017
_cell_angle_gamma   83.21903792
_symmetry_Int_Tables_number   1
_chemical_formula_structural   Ta9Pb12O20F29
_chemical_formula_sum   'Ta9 Pb12 O20 F29'
_cell_volume   1072.79419406
_cell_formula_units_Z   1
loop_
 _symmetry_equiv_pos_site_id
 _symmetry_equiv_pos_as_xyz
  1  'x, y, z'
loop_
 _atom_site_type_symbol
 _atom_site_label
 _atom_site_symmetry_multiplicity
 _atom_site_fract_x
 _atom_site_fract_y
 _atom_site_fract_z
 _atom_site_occupancy
  Ta  Ta0  1  0.86982051  0.23107607  0.02928292  1
  Ta  Ta1  1  0.89910342  0.97071708  0.23107607  1
  Ta  Ta2  1  0.02818569  0.74006065  0.20356797  1
  Ta  Ta3  1  0.13017949  0.76892393  0.97071708  1
  Ta  Ta4  1  0.10089658  0.02928292  0.76892393  1
  Ta  Ta5  1  0.76824634  0.20356797  0.25993935  1
  Ta  Ta6  1  0.00000000  0.00000000  0.00000000  1
  Ta  Ta7  1  0.97181431  0.25993935  0.79643203  1
  Ta  Ta8  1  0.23175366  0.79643203  0.74006065  1
  Pb  Pb9  1  0.60187863  0.18750889  0.60873386  1
  Pb  Pb10  1  0.25404240  0.07365730  0.41825790  1
  Pb  Pb11  1  0.21061248  0.39126614  0.18750889  1
  Pb  Pb12  1  0.78938752  0.60873386  0.81249111  1
  Pb  Pb13  1  0.45247468  0.44598740  0.64906323  1
  Pb  Pb14  1  0.89846209  0.64906323  0.55401260  1
  Pb  Pb15  1  0.74595760  0.92634270  0.58174210  1
  Pb  Pb16  1  0.67230030  0.58174210  0.07365730  1
  Pb  Pb17  1  0.39812137  0.81249111  0.39126614  1
  Pb  Pb18  1  0.32769970  0.41825790  0.92634270  1
  Pb  Pb19  1  0.54752532  0.55401260  0.35093677  1
  Pb  Pb20  1  0.10153791  0.35093677  0.44598740  1
  O  O21  1  0.80707051  0.23628473  0.14957426  1
  O  O22  1  0.47011322  0.27388951  0.78588405  1
  O  O23  1  0.06829397  0.88426591  0.97914614  1
  O  O24  1  0.60660926  0.02968906  0.75709242  1
  O  O25  1  0.04744012  0.02085386  0.88426591  1
  O  O26  1  0.95255988  0.97914614  0.11573409  1
  O  O27  1  0.39339074  0.97031094  0.24290758  1
  O  O28  1  0.93170603  0.11573409  0.02085386  1
  O  O29  1  0.04335523  0.14957426  0.76371527  1
  O  O30  1  0.19292949  0.76371527  0.85042574  1
  O  O31  1  0.95664477  0.85042574  0.23628473  1
  O  O32  1  0.92020666  0.24976145  0.90982523  1
  O  O33  1  0.74400273  0.78588405  0.72611049  1
  O  O34  1  0.16996811  0.90982523  0.75023855  1
  O  O35  1  0.52988678  0.72611049  0.21411595  1
  O  O36  1  0.83003189  0.09017477  0.24976145  1
  O  O37  1  0.36370168  0.24290758  0.02968906  1
  O  O38  1  0.25599727  0.21411595  0.27388951  1
  O  O39  1  0.07979334  0.75023855  0.09017477  1
  O  O40  1  0.63629832  0.75709242  0.97031094  1
  F  F41  1  0.19588050  0.64144325  0.96679576  1
  F  F42  1  0.11409418  0.46364069  0.30817094  1
  F  F43  1  0.97984656  0.71255077  0.32775612  1
  F  F44  1  0.88590582  0.53635931  0.69182906  1
  F  F45  1  0.28640633  0.81264120  0.61454614  1
  F  F46  1  0.85232702  0.81836171  0.47698424  1
  F  F47  1  0.32931127  0.52301576  0.81836171  1
  F  F48  1  0.71494545  0.06093935  0.50916975  1
  F  F49  1  0.56622486  0.43776246  0.42978782  1
  F  F50  1  0.77588480  0.50916975  0.93906065  1
  F  F51  1  0.57773487  0.30817094  0.53635931  1
  F  F52  1  0.80411950  0.35855675  0.03320424  1
  F  F53  1  0.14767298  0.18163829  0.52301576  1
  F  F54  1  0.90095247  0.38545386  0.81264120  1
  F  F55  1  0.67068873  0.47698424  0.18163829  1
  F  F56  1  0.02015344  0.28744923  0.67224388  1
  F  F57  1  0.28505455  0.93906065  0.49083025  1
  F  F58  1  0.09904753  0.61454614  0.18735880  1
  F  F59  1  0.00398732  0.42978782  0.56223754  1
  F  F60  1  0.50000000  0.00000000  0.00000000  1
  F  F61  1  0.16267626  0.03320424  0.64144325  1
  F  F62  1  0.42226513  0.69182906  0.46364069  1
  F  F63  1  0.30760267  0.67224388  0.71255077  1
  F  F64  1  0.22411520  0.49083025  0.06093935  1
  F  F65  1  0.69239733  0.32775612  0.28744923  1
  F  F66  1  0.99601268  0.57021218  0.43776246  1
  F  F67  1  0.43377514  0.56223754  0.57021218  1
  F  F68  1  0.71359367  0.18735880  0.38545386  1
  F  F69  1  0.83732374  0.96679576  0.35855675  1
