# generated using pymatgen
data_UOF4
_symmetry_space_group_name_H-M   'P 1'
_cell_length_a   5.86756385
_cell_length_b   8.88267772
_cell_length_c   8.88267772
_cell_angle_alpha   83.73738676
_cell_angle_beta   70.71415274
_cell_angle_gamma   70.71415275
_symmetry_Int_Tables_number   1
_chemical_formula_structural   UOF4
_chemical_formula_sum   'U4 O4 F16'
_cell_volume   412.45973848
_cell_formula_units_Z   4
loop_
 _symmetry_equiv_pos_site_id
 _symmetry_equiv_pos_as_xyz
  1  'x, y, z'
loop_
 _atom_site_type_symbol
 _atom_site_label
 _atom_site_symmetry_multiplicity
 _atom_site_fract_x
 _atom_site_fract_y
 _atom_site_fract_z
 _atom_site_occupancy
  O  O0  1  0.35505523  0.01994477  0.51994477  1
  O  O1  1  0.89494477  0.98005523  0.48005523  1
  O  O2  1  0.62500000  0.48005523  0.01994477  1
  O  O3  1  0.12500000  0.51994477  0.98005523  1
  F  F4  1  0.50942243  0.60645116  0.73500303  1
  F  F5  1  0.75557454  0.73500303  0.39354884  1
  F  F6  1  0.88412640  0.26499697  0.60645116  1
  F  F7  1  0.85087663  0.39354884  0.26499697  1
  F  F8  1  0.11803688  0.91962669  0.78976755  1
  F  F9  1  0.09219557  0.78976755  0.08037331  1
  F  F10  1  0.96233643  0.21023245  0.91962669  1
  F  F11  1  0.82743111  0.08037331  0.21023245  1
  F  F12  1  0.13196312  0.71023245  0.58037331  1
  F  F13  1  0.42256889  0.28976755  0.41962669  1
  F  F14  1  0.28766357  0.58037331  0.28976755  1
  F  F15  1  0.15780443  0.41962669  0.71023245  1
  F  F16  1  0.49442546  0.10645116  0.76499697  1
  F  F17  1  0.74057757  0.76499697  0.89354884  1
  F  F18  1  0.39912337  0.23500303  0.10645116  1
  F  F19  1  0.36587360  0.89354884  0.23500303  1
  U  U20  1  0.04832628  0.82667372  0.32667372  1
  U  U21  1  0.62500000  0.32667372  0.17332628  1
  U  U22  1  0.12500000  0.67332628  0.82667372  1
  U  U23  1  0.20167372  0.17332628  0.67332628  1
