# generated using pymatgen
data_NbO2
_symmetry_space_group_name_H-M   'P 1'
_cell_length_a   6.08831133
_cell_length_b   7.56892074
_cell_length_c   7.56892078
_cell_angle_alpha   80.69104708
_cell_angle_beta   66.28474623
_cell_angle_gamma   66.28474793
_symmetry_Int_Tables_number   1
_chemical_formula_structural   NbO2
_chemical_formula_sum   'Nb8 O16'
_cell_volume   292.37092089
_cell_formula_units_Z   8
loop_
 _symmetry_equiv_pos_site_id
 _symmetry_equiv_pos_as_xyz
  1  'x, y, z'
loop_
 _atom_site_type_symbol
 _atom_site_label
 _atom_site_symmetry_multiplicity
 _atom_site_fract_x
 _atom_site_fract_y
 _atom_site_fract_z
 _atom_site_occupancy
  Nb  Nb0  1  0.23170447  0.75626254  0.73215523  1
  Nb  Nb1  1  0.79083108  0.72919979  0.24647688  1
  Nb  Nb2  1  0.21385970  0.76784477  0.25626254  1
  Nb  Nb3  1  0.72012223  0.24373746  0.26784477  1
  Nb  Nb4  1  0.23796700  0.23215523  0.74373746  1
  Nb  Nb5  1  0.28730796  0.25352312  0.22919979  1
  Nb  Nb6  1  0.76650775  0.27080021  0.75352312  1
  Nb  Nb7  1  0.77003087  0.74647688  0.77080021  1
  O  O8  1  0.13115217  0.52807074  0.74479935  1
  O  O9  1  0.60249837  0.02549788  0.24366692  1
  O  O10  1  0.41206335  0.95208378  0.74666966  1
  O  O11  1  0.40402225  0.47192926  0.25520065  1
  O  O12  1  0.90922291  0.24479935  0.97192926  1
  O  O13  1  0.59539769  0.74542217  0.05020082  1
  O  O14  1  0.39102067  0.25457783  0.94979918  1
  O  O15  1  0.87166317  0.97450212  0.75633308  1
  O  O16  1  0.12595152  0.75520065  0.02807074  1
  O  O17  1  0.09616529  0.25633308  0.52549788  1
  O  O18  1  0.61414713  0.24666966  0.54791622  1
  O  O19  1  0.89559851  0.44979918  0.24542217  1
  O  O20  1  0.87799626  0.74366692  0.47450212  1
  O  O21  1  0.59081985  0.55020082  0.75457783  1
  O  O22  1  0.11081679  0.04791622  0.25333034  1
  O  O23  1  0.40873301  0.75333034  0.45208378  1
