# generated using pymatgen
data_Rb2Be2Si2O7
_symmetry_space_group_name_H-M   'P 1'
_cell_length_a   5.19992627
_cell_length_b   8.43910102
_cell_length_c   9.01388703
_cell_angle_alpha   90.00000000
_cell_angle_beta   90.00000000
_cell_angle_gamma   90.00000000
_symmetry_Int_Tables_number   1
_chemical_formula_structural   Rb2Be2Si2O7
_chemical_formula_sum   'Rb4 Be4 Si4 O14'
_cell_volume   395.55372822
_cell_formula_units_Z   2
loop_
 _symmetry_equiv_pos_site_id
 _symmetry_equiv_pos_as_xyz
  1  'x, y, z'
loop_
 _atom_site_type_symbol
 _atom_site_label
 _atom_site_symmetry_multiplicity
 _atom_site_fract_x
 _atom_site_fract_y
 _atom_site_fract_z
 _atom_site_occupancy
  Rb  Rb0  1  0.50000000  0.00000000  0.44097160  1
  Rb  Rb1  1  0.00000000  0.00000000  0.00173880  1
  Rb  Rb2  1  0.00000000  0.50000000  0.94097160  1
  Rb  Rb3  1  0.50000000  0.50000000  0.50173880  1
  Be  Be4  1  0.50451561  0.24079336  0.81197589  1
  Be  Be5  1  0.99548439  0.74079336  0.31197589  1
  Be  Be6  1  0.00451561  0.25920664  0.31197589  1
  Be  Be7  1  0.49548439  0.75920664  0.81197589  1
  Si  Si8  1  0.99629553  0.80374756  0.64191809  1
  Si  Si9  1  0.00370447  0.19625244  0.64191809  1
  Si  Si10  1  0.50370447  0.30374756  0.14191809  1
  Si  Si11  1  0.49629553  0.69625244  0.14191809  1
  O  O12  1  0.28099199  0.74704754  0.69506296  1
  O  O13  1  0.07368003  0.26453119  0.47780098  1
  O  O14  1  0.27875403  0.74658538  0.26315173  1
  O  O15  1  0.72124597  0.25341462  0.26315173  1
  O  O16  1  0.71900801  0.25295246  0.69506296  1
  O  O17  1  0.00000000  0.00000000  0.62827030  1
  O  O18  1  0.77875403  0.75341462  0.76315173  1
  O  O19  1  0.92631997  0.73546881  0.47780098  1
  O  O20  1  0.50000000  0.50000000  0.12827030  1
  O  O21  1  0.57368003  0.23546881  0.97780098  1
  O  O22  1  0.21900801  0.24704754  0.19506296  1
  O  O23  1  0.22124597  0.24658538  0.76315173  1
  O  O24  1  0.42631997  0.76453119  0.97780098  1
  O  O25  1  0.78099199  0.75295246  0.19506296  1
