# generated using pymatgen
data_NaZnPO4
_symmetry_space_group_name_H-M   'P 1'
_cell_length_a   5.28175821
_cell_length_b   7.45311109
_cell_length_c   10.13877133
_cell_angle_alpha   90.00000000
_cell_angle_beta   90.00000000
_cell_angle_gamma   90.29921226
_symmetry_Int_Tables_number   1
_chemical_formula_structural   NaZnPO4
_chemical_formula_sum   'Na4 Zn4 P4 O16'
_cell_volume   399.11267150
_cell_formula_units_Z   4
loop_
 _symmetry_equiv_pos_site_id
 _symmetry_equiv_pos_as_xyz
  1  'x, y, z'
loop_
 _atom_site_type_symbol
 _atom_site_label
 _atom_site_symmetry_multiplicity
 _atom_site_fract_x
 _atom_site_fract_y
 _atom_site_fract_z
 _atom_site_occupancy
  Na  Na0  1  0.21718620  0.51748731  0.11717492  1
  Na  Na1  1  0.71718620  0.01748731  0.38282508  1
  Na  Na2  1  0.28281380  0.98251269  0.61717492  1
  Na  Na3  1  0.78281380  0.48251269  0.88282508  1
  Zn  Zn4  1  0.20506830  0.00877384  0.16871835  1
  Zn  Zn5  1  0.70506830  0.50877384  0.33128165  1
  Zn  Zn6  1  0.79493170  0.99122616  0.83128165  1
  Zn  Zn7  1  0.29493170  0.49122616  0.66871835  1
  P  P8  1  0.20192580  0.28139752  0.40087232  1
  P  P9  1  0.29807420  0.21860248  0.90087232  1
  P  P10  1  0.70192580  0.78139752  0.09912768  1
  P  P11  1  0.79807420  0.71860248  0.59912768  1
  O  O12  1  0.91367126  0.29968506  0.37323827  1
  O  O13  1  0.28148845  0.08844876  0.35440976  1
  O  O14  1  0.65343533  0.56929617  0.67412185  1
  O  O15  1  0.58632874  0.20031494  0.87323827  1
  O  O16  1  0.08632874  0.70031494  0.62676173  1
  O  O17  1  0.84656467  0.93070383  0.17412185  1
  O  O18  1  0.25997369  0.28424765  0.55081175  1
  O  O19  1  0.41367126  0.79968506  0.12676173  1
  O  O20  1  0.78148845  0.58844876  0.14559024  1
  O  O21  1  0.21851155  0.41155124  0.85440976  1
  O  O22  1  0.75997369  0.78424765  0.94918825  1
  O  O23  1  0.15343533  0.06929617  0.82587815  1
  O  O24  1  0.74002631  0.71575235  0.44918825  1
  O  O25  1  0.71851155  0.91155124  0.64559024  1
  O  O26  1  0.24002631  0.21575235  0.05081175  1
  O  O27  1  0.34656467  0.43070383  0.32587815  1
