# generated using pymatgen
data_RbSnS4
_symmetry_space_group_name_H-M   'P 1'
_cell_length_a   10.12741118
_cell_length_b   14.19249528
_cell_length_c   20.13546760
_cell_angle_alpha   90.00000000
_cell_angle_beta   90.00000000
_cell_angle_gamma   90.00000000
_symmetry_Int_Tables_number   1
_chemical_formula_structural   RbSnS4
_chemical_formula_sum   'Rb16 Sn16 S64'
_cell_volume   2894.13590385
_cell_formula_units_Z   16
loop_
 _symmetry_equiv_pos_site_id
 _symmetry_equiv_pos_as_xyz
  1  'x, y, z'
loop_
 _atom_site_type_symbol
 _atom_site_label
 _atom_site_symmetry_multiplicity
 _atom_site_fract_x
 _atom_site_fract_y
 _atom_site_fract_z
 _atom_site_occupancy
  Rb  Rb0  1  0.86044690  0.47415840  0.18878497  1
  Rb  Rb1  1  0.27280835  0.96287972  0.92947766  1
  Rb  Rb2  1  0.36044690  0.52584160  0.31121503  1
  Rb  Rb3  1  0.27280835  0.46287972  0.07052234  1
  Rb  Rb4  1  0.77280835  0.03712028  0.57052234  1
  Rb  Rb5  1  0.13955310  0.52584160  0.81121503  1
  Rb  Rb6  1  0.36044690  0.02584160  0.68878497  1
  Rb  Rb7  1  0.22719165  0.96287972  0.42947766  1
  Rb  Rb8  1  0.63955310  0.47415840  0.68878497  1
  Rb  Rb9  1  0.72719165  0.53712028  0.92947766  1
  Rb  Rb10  1  0.77280835  0.53712028  0.42947766  1
  Rb  Rb11  1  0.22719165  0.46287972  0.57052234  1
  Rb  Rb12  1  0.63955310  0.97415840  0.31121503  1
  Rb  Rb13  1  0.86044690  0.97415840  0.81121503  1
  Rb  Rb14  1  0.13955310  0.02584160  0.18878497  1
  Rb  Rb15  1  0.72719165  0.03712028  0.07052234  1
  Sn  Sn16  1  0.82505168  0.73106298  0.67388226  1
  Sn  Sn17  1  0.32505168  0.76893702  0.17388226  1
  Sn  Sn18  1  0.00000000  0.75000000  0.08335887  1
  Sn  Sn19  1  0.67494832  0.23106298  0.82611774  1
  Sn  Sn20  1  0.50000000  0.25000000  0.41664113  1
  Sn  Sn21  1  0.82505168  0.23106298  0.32611774  1
  Sn  Sn22  1  0.50000000  0.25000000  0.22972049  1
  Sn  Sn23  1  0.17494832  0.26893702  0.32611774  1
  Sn  Sn24  1  0.17494832  0.76893702  0.67388226  1
  Sn  Sn25  1  0.50000000  0.75000000  0.77027951  1
  Sn  Sn26  1  0.00000000  0.25000000  0.91664113  1
  Sn  Sn27  1  0.00000000  0.75000000  0.27027951  1
  Sn  Sn28  1  0.50000000  0.75000000  0.58335887  1
  Sn  Sn29  1  0.32505168  0.26893702  0.82611774  1
  Sn  Sn30  1  0.00000000  0.25000000  0.72972049  1
  Sn  Sn31  1  0.67494832  0.73106298  0.17388226  1
  S  S32  1  0.43752491  0.62212152  0.86025563  1
  S  S33  1  0.56432146  0.87557792  0.49181461  1
  S  S34  1  0.15606568  0.70585811  0.92170186  1
  S  S35  1  0.85961662  0.30261207  0.56223039  1
  S  S36  1  0.72216542  0.16098622  0.42328259  1
  S  S37  1  0.53683298  0.37129220  0.83049303  1
  S  S38  1  0.23183247  0.83115495  0.27694569  1
  S  S39  1  0.76816753  0.66884505  0.27694569  1
  S  S40  1  0.03683298  0.12870780  0.33049303  1
  S  S41  1  0.03683298  0.62870780  0.66950697  1
  S  S42  1  0.93567854  0.37557792  0.00818539  1
  S  S43  1  0.56247509  0.37787848  0.13974437  1
  S  S44  1  0.34393432  0.20585811  0.57829814  1
  S  S45  1  0.39808065  0.64581260  0.67643960  1
  S  S46  1  0.35961662  0.69738793  0.93776961  1
  S  S47  1  0.60191935  0.35418740  0.32356040  1
  S  S48  1  0.89808065  0.35418740  0.82356040  1
  S  S49  1  0.93752491  0.37787848  0.63974437  1
  S  S50  1  0.14038338  0.19738793  0.56223039  1
  S  S51  1  0.35961662  0.19738793  0.06223039  1
  S  S52  1  0.77783458  0.16098622  0.92328259  1
  S  S53  1  0.77783458  0.66098622  0.07671741  1
  S  S54  1  0.76816753  0.16884505  0.72305431  1
  S  S55  1  0.93752491  0.87787848  0.36025563  1
  S  S56  1  0.10191935  0.14581260  0.82356040  1
  S  S57  1  0.27783458  0.83901378  0.57671741  1
  S  S58  1  0.93567854  0.87557792  0.99181461  1
  S  S59  1  0.64038338  0.30261207  0.06223039  1
  S  S60  1  0.43752491  0.12212152  0.13974437  1
  S  S61  1  0.39808065  0.14581260  0.32356040  1
  S  S62  1  0.46316702  0.12870780  0.83049303  1
  S  S63  1  0.64038338  0.80261207  0.93776961  1
  S  S64  1  0.26816753  0.33115495  0.22305431  1
  S  S65  1  0.56247509  0.87787848  0.86025563  1
  S  S66  1  0.96316702  0.87129220  0.66950697  1
  S  S67  1  0.73183247  0.16884505  0.22305431  1
  S  S68  1  0.26816753  0.83115495  0.77694569  1
  S  S69  1  0.46316702  0.62870780  0.16950697  1
  S  S70  1  0.72216542  0.66098622  0.57671741  1
  S  S71  1  0.22216542  0.33901378  0.92328259  1
  S  S72  1  0.15606568  0.20585811  0.07829814  1
  S  S73  1  0.27783458  0.33901378  0.42328259  1
  S  S74  1  0.06432146  0.62442208  0.99181461  1
  S  S75  1  0.10191935  0.64581260  0.17643960  1
  S  S76  1  0.65606568  0.79414189  0.42170186  1
  S  S77  1  0.53683298  0.87129220  0.16950697  1
  S  S78  1  0.23183247  0.33115495  0.72305431  1
  S  S79  1  0.85961662  0.80261207  0.43776961  1
  S  S80  1  0.89808065  0.85418740  0.17643960  1
  S  S81  1  0.56432146  0.37557792  0.50818539  1
  S  S82  1  0.84393432  0.79414189  0.92170186  1
  S  S83  1  0.43567854  0.12442208  0.50818539  1
  S  S84  1  0.60191935  0.85418740  0.67643960  1
  S  S85  1  0.73183247  0.66884505  0.77694569  1
  S  S86  1  0.84393432  0.29414189  0.07829814  1
  S  S87  1  0.06247509  0.62212152  0.36025563  1
  S  S88  1  0.96316702  0.37129220  0.33049303  1
  S  S89  1  0.65606568  0.29414189  0.57829814  1
  S  S90  1  0.14038338  0.69738793  0.43776961  1
  S  S91  1  0.43567854  0.62442208  0.49181461  1
  S  S92  1  0.06247509  0.12212152  0.63974437  1
  S  S93  1  0.22216542  0.83901378  0.07671741  1
  S  S94  1  0.06432146  0.12442208  0.00818539  1
  S  S95  1  0.34393432  0.70585811  0.42170186  1
