# generated using pymatgen
data_NbVF6
_symmetry_space_group_name_H-M   'P 1'
_cell_length_a   5.78855014
_cell_length_b   5.78855014
_cell_length_c   5.78855013
_cell_angle_alpha   57.39888145
_cell_angle_beta   57.39888147
_cell_angle_gamma   57.39888145
_symmetry_Int_Tables_number   1
_chemical_formula_structural   NbVF6
_chemical_formula_sum   'Nb1 V1 F6'
_cell_volume   128.94040164
_cell_formula_units_Z   1
loop_
 _symmetry_equiv_pos_site_id
 _symmetry_equiv_pos_as_xyz
  1  'x, y, z'
loop_
 _atom_site_type_symbol
 _atom_site_label
 _atom_site_symmetry_multiplicity
 _atom_site_fract_x
 _atom_site_fract_y
 _atom_site_fract_z
 _atom_site_occupancy
  F  F0  1  0.82678762  0.25727042  0.66368535  1
  F  F1  1  0.25727042  0.66368535  0.82678762  1
  F  F2  1  0.33631465  0.17321238  0.74272958  1
  F  F3  1  0.74272958  0.33631465  0.17321238  1
  F  F4  1  0.17321238  0.74272958  0.33631465  1
  F  F5  1  0.66368535  0.82678762  0.25727042  1
  V  V6  1  0.00000000  0.00000000  0.00000000  1
  Nb  Nb7  1  0.50000000  0.50000000  0.50000000  1
