# generated using pymatgen
data_Yb(ClO4)3
_symmetry_space_group_name_H-M   'P 1'
_cell_length_a   9.58253763
_cell_length_b   9.58253753
_cell_length_c   9.58253721
_cell_angle_alpha   51.98284367
_cell_angle_beta   51.98284416
_cell_angle_gamma   51.98284382
_symmetry_Int_Tables_number   1
_chemical_formula_structural   Yb(ClO4)3
_chemical_formula_sum   'Yb2 Cl6 O24'
_cell_volume   504.91230168
_cell_formula_units_Z   2
loop_
 _symmetry_equiv_pos_site_id
 _symmetry_equiv_pos_as_xyz
  1  'x, y, z'
loop_
 _atom_site_type_symbol
 _atom_site_label
 _atom_site_symmetry_multiplicity
 _atom_site_fract_x
 _atom_site_fract_y
 _atom_site_fract_z
 _atom_site_occupancy
  Yb  Yb0  1  0.05975195  0.05975195  0.05975195  1
  Yb  Yb1  1  0.55975195  0.55975195  0.55975195  1
  Cl  Cl2  1  0.34012410  0.96712040  0.69214165  1
  Cl  Cl3  1  0.69214165  0.34012410  0.96712040  1
  Cl  Cl4  1  0.96712040  0.69214165  0.34012410  1
  Cl  Cl5  1  0.84012410  0.19214165  0.46712040  1
  Cl  Cl6  1  0.46712040  0.84012410  0.19214165  1
  Cl  Cl7  1  0.19214165  0.46712040  0.84012410  1
  O  O8  1  0.25041389  0.57770864  0.63279594  1
  O  O9  1  0.88134237  0.20057438  0.28806095  1
  O  O10  1  0.91968740  0.83608922  0.39352918  1
  O  O11  1  0.13279594  0.07770864  0.75041389  1
  O  O12  1  0.28806095  0.88134237  0.20057438  1
  O  O13  1  0.63279594  0.25041389  0.57770864  1
  O  O14  1  0.07770864  0.75041389  0.13279594  1
  O  O15  1  0.00459573  0.57394951  0.94441471  1
  O  O16  1  0.57770864  0.63279594  0.25041389  1
  O  O17  1  0.38134237  0.78806095  0.70057438  1
  O  O18  1  0.89352918  0.33608922  0.41968740  1
  O  O19  1  0.70057438  0.38134237  0.78806095  1
  O  O20  1  0.44441471  0.07394951  0.50459573  1
  O  O21  1  0.39352918  0.91968740  0.83608922  1
  O  O22  1  0.57394951  0.94441471  0.00459573  1
  O  O23  1  0.33608922  0.41968740  0.89352918  1
  O  O24  1  0.07394951  0.50459573  0.44441471  1
  O  O25  1  0.78806095  0.70057438  0.38134237  1
  O  O26  1  0.50459573  0.44441471  0.07394951  1
  O  O27  1  0.83608922  0.39352918  0.91968740  1
  O  O28  1  0.41968740  0.89352918  0.33608922  1
  O  O29  1  0.94441471  0.00459573  0.57394951  1
  O  O30  1  0.20057438  0.28806095  0.88134237  1
  O  O31  1  0.75041389  0.13279594  0.07770864  1
