# generated using pymatgen
data_Rb2Zn3(P2O7)2
_symmetry_space_group_name_H-M   'P 1'
_cell_length_a   7.30905647
_cell_length_b   7.34317430
_cell_length_c   13.43130596
_cell_angle_alpha   90.00000000
_cell_angle_beta   92.22989343
_cell_angle_gamma   90.00000000
_symmetry_Int_Tables_number   1
_chemical_formula_structural   Rb2Zn3(P2O7)2
_chemical_formula_sum   'Rb4 Zn6 P8 O28'
_cell_volume   720.33481103
_cell_formula_units_Z   2
loop_
 _symmetry_equiv_pos_site_id
 _symmetry_equiv_pos_as_xyz
  1  'x, y, z'
loop_
 _atom_site_type_symbol
 _atom_site_label
 _atom_site_symmetry_multiplicity
 _atom_site_fract_x
 _atom_site_fract_y
 _atom_site_fract_z
 _atom_site_occupancy
  Rb  Rb0  1  0.94631435  0.24950769  0.41660997  1
  Rb  Rb1  1  0.05368565  0.74950769  0.58339003  1
  Rb  Rb2  1  0.38888625  0.00670814  0.09333724  1
  Rb  Rb3  1  0.61111375  0.50670814  0.90666276  1
  Zn  Zn4  1  0.20819761  0.37959229  0.73681357  1
  Zn  Zn5  1  0.79044740  1.00008110  0.90152623  1
  Zn  Zn6  1  0.54836076  0.91080940  0.61327171  1
  Zn  Zn7  1  0.79180239  0.87959229  0.26318643  1
  Zn  Zn8  1  0.20955260  0.50008110  0.09847377  1
  Zn  Zn9  1  0.45163924  0.41080940  0.38672829  1
  P  P10  1  0.56709410  0.48776717  0.61194181  1
  P  P11  1  0.36436287  0.01361539  0.81620453  1
  P  P12  1  0.63563713  0.51361539  0.18379547  1
  P  P13  1  0.16523762  0.71206371  0.31006832  1
  P  P14  1  0.83476238  0.21206371  0.68993168  1
  P  P15  1  0.11158253  0.72430454  0.89205494  1
  P  P16  1  0.43290590  0.98776717  0.38805819  1
  P  P17  1  0.88841747  0.22430454  0.10794506  1
  O  O18  1  0.23373651  0.65354653  0.97912089  1
  O  O19  1  0.65738294  0.72030852  0.16838885  1
  O  O20  1  0.34261706  0.22030852  0.83161115  1
  O  O21  1  0.33889789  0.85013215  0.30547038  1
  O  O22  1  0.66110211  0.35013215  0.69452962  1
  O  O23  1  0.52939335  0.93376440  0.87531982  1
  O  O24  1  0.22323747  0.55334676  0.37853839  1
  O  O25  1  0.87715035  0.10950386  0.20182840  1
  O  O26  1  0.99705919  0.31435487  0.64650313  1
  O  O27  1  0.35213162  0.95939426  0.70625273  1
  O  O28  1  0.33728255  0.17041111  0.36725650  1
  O  O29  1  0.63590798  0.98895721  0.36524582  1
  O  O30  1  0.81302907  0.42833067  0.13163995  1
  O  O31  1  0.08648107  0.26393156  0.07958619  1
  O  O32  1  0.64786838  0.45939426  0.29374727  1
  O  O33  1  0.47060665  0.43376440  0.12468018  1
  O  O34  1  0.12284965  0.60950386  0.79817160  1
  O  O35  1  0.66271745  0.67041111  0.63274350  1
  O  O36  1  0.91351893  0.76393156  0.92041381  1
  O  O37  1  0.39259705  0.91071425  0.49083622  1
  O  O38  1  0.36409202  0.48895721  0.63475418  1
  O  O39  1  0.77676253  0.05334676  0.62146161  1
  O  O40  1  0.00294081  0.81435487  0.35349687  1
  O  O41  1  0.12680279  0.66465445  0.20080741  1
  O  O42  1  0.60740295  0.41071425  0.50916378  1
  O  O43  1  0.18697093  0.92833067  0.86836005  1
  O  O44  1  0.76626349  0.15354653  0.02087911  1
  O  O45  1  0.87319721  0.16465445  0.79919259  1
