# generated using pymatgen
data_SiH17S3N5
_symmetry_space_group_name_H-M   'P 1'
_cell_length_a   6.43318702
_cell_length_b   6.56491802
_cell_length_c   13.14081582
_cell_angle_alpha   96.51153321
_cell_angle_beta   92.39494270
_cell_angle_gamma   95.17420891
_symmetry_Int_Tables_number   1
_chemical_formula_structural   SiH17S3N5
_chemical_formula_sum   'Si2 H34 S6 N10'
_cell_volume   548.39430741
_cell_formula_units_Z   2
loop_
 _symmetry_equiv_pos_site_id
 _symmetry_equiv_pos_as_xyz
  1  'x, y, z'
loop_
 _atom_site_type_symbol
 _atom_site_label
 _atom_site_symmetry_multiplicity
 _atom_site_fract_x
 _atom_site_fract_y
 _atom_site_fract_z
 _atom_site_occupancy
  Si  Si0  1  0.11434894  0.68444363  0.19328521  1
  Si  Si1  1  0.88565106  0.31555637  0.80671479  1
  H  H2  1  0.71109441  0.82814209  0.30368748  1
  H  H3  1  0.76866545  0.53866632  0.95931702  1
  H  H4  1  0.28890559  0.17185791  0.69631252  1
  H  H5  1  0.89483045  0.04093203  0.12834730  1
  H  H6  1  0.57506253  0.47325629  0.86788084  1
  H  H7  1  0.22315138  0.73464193  0.87468166  1
  H  H8  1  0.37284339  0.96464636  0.87127387  1
  H  H9  1  0.62715661  0.03535364  0.12872613  1
  H  H10  1  0.23133455  0.46133368  0.04068298  1
  H  H11  1  0.29360586  0.13355144  0.56466217  1
  H  H12  1  0.64234782  0.06069596  0.36191145  1
  H  H13  1  0.83914814  0.96851727  0.60406533  1
  H  H14  1  0.48035102  0.83304881  0.35742505  1
  H  H15  1  0.10516955  0.95906797  0.87165270  1
  H  H16  1  0.77565029  0.42405103  0.34413197  1
  H  H17  1  0.67171843  0.38828460  0.45301335  1
  H  H18  1  0.24359250  0.91788277  0.97859811  1
  H  H19  1  0.81316244  0.71323728  0.59427283  1
  H  H20  1  0.16085186  0.03148273  0.39593467  1
  H  H21  1  0.18683756  0.28676272  0.40572717  1
  H  H22  1  0.35765218  0.93930404  0.63808855  1
  H  H23  1  0.22434971  0.57594897  0.65586803  1
  H  H24  1  0.01234412  0.16977789  0.47059010  1
  H  H25  1  0.75640750  0.08211723  0.02140189  1
  H  H26  1  0.23887774  0.34015451  0.14627089  1
  H  H27  1  0.32828157  0.61171540  0.54698665  1
  H  H28  1  0.76112226  0.65984549  0.85372911  1
  H  H29  1  0.42493747  0.52674371  0.13211916  1
  H  H30  1  0.70639414  0.86644856  0.43533783  1
  H  H31  1  0.48027730  0.60142968  0.64912253  1
  H  H32  1  0.77684862  0.26535807  0.12531834  1
  H  H33  1  0.51972270  0.39857032  0.35087747  1
  H  H34  1  0.98765588  0.83022211  0.52940990  1
  H  H35  1  0.51964898  0.16695119  0.64257495  1
  S  S36  1  0.80215830  0.60433788  0.13765387  1
  S  S37  1  0.17325315  0.64116623  0.34567375  1
  S  S38  1  0.75240209  0.03663870  0.85221934  1
  S  S39  1  0.19784170  0.39566212  0.86234613  1
  S  S40  1  0.24759791  0.96336130  0.14778066  1
  S  S41  1  0.82674685  0.35883377  0.65432625  1
  N  N42  1  0.26638085  0.48259151  0.12001080  1
  N  N43  1  0.16104435  0.16311613  0.44658267  1
  N  N44  1  0.23735892  0.89476329  0.89755326  1
  N  N45  1  0.34502880  0.65660388  0.62440528  1
  N  N46  1  0.36407120  0.10148883  0.63580089  1
  N  N47  1  0.76264108  0.10523671  0.10244674  1
  N  N48  1  0.65497120  0.34339612  0.37559472  1
  N  N49  1  0.73361915  0.51740849  0.87998920  1
  N  N50  1  0.63592880  0.89851117  0.36419911  1
  N  N51  1  0.83895565  0.83688387  0.55341733  1
