# generated using pymatgen
data_MnAs2F12
_symmetry_space_group_name_H-M   'P 1'
_cell_length_a   7.68811013
_cell_length_b   7.68811012
_cell_length_c   9.50635856
_cell_angle_alpha   113.85144884
_cell_angle_beta   113.85144884
_cell_angle_gamma   90.00000002
_symmetry_Int_Tables_number   1
_chemical_formula_structural   MnAs2F12
_chemical_formula_sum   'Mn2 As4 F24'
_cell_volume   460.94900520
_cell_formula_units_Z   2
loop_
 _symmetry_equiv_pos_site_id
 _symmetry_equiv_pos_as_xyz
  1  'x, y, z'
loop_
 _atom_site_type_symbol
 _atom_site_label
 _atom_site_symmetry_multiplicity
 _atom_site_fract_x
 _atom_site_fract_y
 _atom_site_fract_z
 _atom_site_occupancy
  F  F0  1  0.74149175  0.86598757  0.40890350  1
  F  F1  1  0.66741174  0.54291593  0.40890350  1
  F  F2  1  0.79291593  0.41741174  0.90890350  1
  F  F3  1  0.13401243  0.33258826  0.59109650  1
  F  F4  1  0.45708407  0.25850825  0.59109650  1
  F  F5  1  0.50850825  0.20708407  0.09109650  1
  F  F6  1  0.26666815  0.64889298  0.22998317  1
  F  F7  1  0.41890981  0.73333185  0.77001683  1
  F  F8  1  0.35110702  0.03668498  0.77001683  1
  F  F9  1  0.28668498  0.10110702  0.27001683  1
  F  F10  1  0.98333185  0.16890981  0.27001683  1
  F  F11  1  0.96331502  0.58109019  0.22998317  1
  F  F12  1  0.83109019  0.71331502  0.72998317  1
  F  F13  1  0.89889298  0.01666815  0.72998317  1
  F  F14  1  0.08544194  0.30143844  0.06373665  1
  F  F15  1  0.23770179  0.91455806  0.93626335  1
  F  F16  1  0.69856156  0.02170528  0.93626335  1
  F  F17  1  0.27170528  0.44856156  0.43626335  1
  F  F18  1  0.16455806  0.98770179  0.43626335  1
  F  F19  1  0.97829472  0.76229821  0.06373665  1
  F  F20  1  0.01229821  0.72829472  0.56373665  1
  F  F21  1  0.55143844  0.83544194  0.56373665  1
  F  F22  1  0.11598757  0.49149175  0.90890350  1
  F  F23  1  0.58258826  0.88401243  0.09109650  1
  Mn  Mn24  1  0.25000000  0.75000000  0.50000000  1
  Mn  Mn25  1  0.00000000  0.00000000  0.00000000  1
  As  As26  1  0.77924976  0.77924976  0.55849952  1
  As  As27  1  0.22075024  0.22075024  0.44150048  1
  As  As28  1  0.47075024  0.97075024  0.94150048  1
  As  As29  1  0.02924976  0.52924976  0.05849952  1
