# generated using pymatgen
data_ScZnMo3O8
_symmetry_space_group_name_H-M   'P 1'
_cell_length_a   6.31806036
_cell_length_b   6.31806017
_cell_length_c   9.61882219
_cell_angle_alpha   90.00000000
_cell_angle_beta   90.00000000
_cell_angle_gamma   120.00000102
_symmetry_Int_Tables_number   1
_chemical_formula_structural   ScZnMo3O8
_chemical_formula_sum   'Sc2 Zn2 Mo6 O16'
_cell_volume   332.52174566
_cell_formula_units_Z   2
loop_
 _symmetry_equiv_pos_site_id
 _symmetry_equiv_pos_as_xyz
  1  'x, y, z'
loop_
 _atom_site_type_symbol
 _atom_site_label
 _atom_site_symmetry_multiplicity
 _atom_site_fract_x
 _atom_site_fract_y
 _atom_site_fract_z
 _atom_site_occupancy
  Sc  Sc0  1  0.66666700  0.33333300  0.03178852  1
  Sc  Sc1  1  0.33333300  0.66666700  0.53178852  1
  Zn  Zn2  1  0.66666700  0.33333300  0.41998706  1
  Zn  Zn3  1  0.33333300  0.66666700  0.91998706  1
  Mo  Mo4  1  0.32907164  0.16453632  0.74549057  1
  Mo  Mo5  1  0.16453632  0.83546368  0.24549057  1
  Mo  Mo6  1  0.83546368  0.67092836  0.74549057  1
  Mo  Mo7  1  0.16453632  0.32907164  0.24549057  1
  Mo  Mo8  1  0.67092836  0.83546368  0.24549057  1
  Mo  Mo9  1  0.83546368  0.16453632  0.74549057  1
  O  O10  1  0.83004050  0.16995950  0.14735594  1
  O  O11  1  0.66007900  0.83004050  0.64735594  1
  O  O12  1  0.16995950  0.33992100  0.64735594  1
  O  O13  1  0.83004050  0.66007900  0.14735594  1
  O  O14  1  0.33992100  0.16995950  0.14735594  1
  O  O15  1  0.16995950  0.83004050  0.64735594  1
  O  O16  1  0.51784129  0.48215871  0.87629989  1
  O  O17  1  0.03568158  0.51784129  0.37629989  1
  O  O18  1  0.48215871  0.96431842  0.37629989  1
  O  O19  1  0.51784129  0.03568158  0.87629989  1
  O  O20  1  0.00000000  0.00000000  0.35499457  1
  O  O21  1  0.00000000  0.00000000  0.85499457  1
  O  O22  1  0.33333300  0.66666700  0.12898866  1
  O  O23  1  0.66666700  0.33333300  0.62898866  1
  O  O24  1  0.48215871  0.51784129  0.37629989  1
  O  O25  1  0.96431842  0.48215871  0.87629989  1
