# generated using pymatgen
data_Na2CaPO4F
_symmetry_space_group_name_H-M   'P 1'
_cell_length_a   7.16915124
_cell_length_b   10.77983182
_cell_length_c   13.45994986
_cell_angle_alpha   113.65325992
_cell_angle_beta   90.00000000
_cell_angle_gamma   90.00000000
_symmetry_Int_Tables_number   1
_chemical_formula_structural   Na2CaPO4F
_chemical_formula_sum   'Na16 Ca8 P8 O32 F8'
_cell_volume   952.82685695
_cell_formula_units_Z   8
loop_
 _symmetry_equiv_pos_site_id
 _symmetry_equiv_pos_as_xyz
  1  'x, y, z'
loop_
 _atom_site_type_symbol
 _atom_site_label
 _atom_site_symmetry_multiplicity
 _atom_site_fract_x
 _atom_site_fract_y
 _atom_site_fract_z
 _atom_site_occupancy
  Na  Na0  1  0.74611194  0.17686563  0.08996489  1
  Na  Na1  1  0.72725618  0.58886782  0.41239627  1
  Na  Na2  1  0.01884728  0.23726969  0.66945171  1
  Na  Na3  1  0.77274382  0.08886782  0.41239627  1
  Na  Na4  1  0.51884728  0.26273031  0.33054829  1
  Na  Na5  1  0.75388806  0.67686563  0.08996489  1
  Na  Na6  1  0.24611194  0.32313437  0.91003511  1
  Na  Na7  1  0.47658357  0.04569480  0.83596898  1
  Na  Na8  1  0.52341643  0.95430520  0.16403102  1
  Na  Na9  1  0.27274382  0.41113218  0.58760373  1
  Na  Na10  1  0.48115272  0.73726969  0.66945171  1
  Na  Na11  1  0.98115272  0.76273031  0.33054829  1
  Na  Na12  1  0.22725618  0.91113218  0.58760373  1
  Na  Na13  1  0.02341643  0.54569480  0.83596898  1
  Na  Na14  1  0.97658357  0.45430520  0.16403102  1
  Na  Na15  1  0.25388806  0.82313437  0.91003511  1
  Ca  Ca16  1  0.98771846  0.30208242  0.33097256  1
  Ca  Ca17  1  0.50604447  0.44986252  0.17275003  1
  Ca  Ca18  1  0.99395553  0.94986252  0.17275003  1
  Ca  Ca19  1  0.51228154  0.80208242  0.33097256  1
  Ca  Ca20  1  0.00604447  0.05013748  0.82724997  1
  Ca  Ca21  1  0.49395553  0.55013748  0.82724997  1
  Ca  Ca22  1  0.01228154  0.69791758  0.66902744  1
  Ca  Ca23  1  0.48771846  0.19791758  0.66902744  1
  P  P24  1  0.74058697  0.94139067  0.58668922  1
  P  P25  1  0.24058697  0.55860933  0.41331078  1
  P  P26  1  0.25618883  0.64488422  0.08420626  1
  P  P27  1  0.24381117  0.14488422  0.08420626  1
  P  P28  1  0.75941303  0.44139067  0.58668922  1
  P  P29  1  0.75618883  0.85511578  0.91579374  1
  P  P30  1  0.74381117  0.35511578  0.91579374  1
  P  P31  1  0.25941303  0.05860933  0.41331078  1
  O  O32  1  0.73181461  0.83233701  0.46857821  1
  O  O33  1  0.55010234  0.95095911  0.64540967  1
  O  O34  1  0.44989766  0.04904089  0.35459033  1
  O  O35  1  0.07761304  0.72402228  0.14041923  1
  O  O36  1  0.05010234  0.54904089  0.35459033  1
  O  O37  1  0.23181461  0.66766299  0.53142179  1
  O  O38  1  0.57761304  0.77597772  0.85958077  1
  O  O39  1  0.93252208  0.77980219  0.85210609  1
  O  O40  1  0.94989766  0.45095911  0.64540967  1
  O  O41  1  0.40012175  0.59530956  0.35040028  1
  O  O42  1  0.06747792  0.22019781  0.14789391  1
  O  O43  1  0.76818539  0.33233701  0.46857821  1
  O  O44  1  0.22474876  0.91536194  0.41382663  1
  O  O45  1  0.56747792  0.27980219  0.85210609  1
  O  O46  1  0.76759965  0.86843803  0.03512243  1
  O  O47  1  0.77525124  0.08463806  0.58617337  1
  O  O48  1  0.59987825  0.40469044  0.64959972  1
  O  O49  1  0.42238696  0.22402228  0.14041923  1
  O  O50  1  0.72474876  0.58463806  0.58617337  1
  O  O51  1  0.92238696  0.27597772  0.85958077  1
  O  O52  1  0.90012175  0.90469044  0.64959972  1
  O  O53  1  0.23240035  0.13156197  0.96487757  1
  O  O54  1  0.09987825  0.09530956  0.35040028  1
  O  O55  1  0.24884078  0.99968268  0.08476316  1
  O  O56  1  0.43252208  0.72019781  0.14789391  1
  O  O57  1  0.26818539  0.16766299  0.53142179  1
  O  O58  1  0.26759965  0.63156197  0.96487757  1
  O  O59  1  0.27525124  0.41536194  0.41382663  1
  O  O60  1  0.73240035  0.36843803  0.03512243  1
  O  O61  1  0.74884078  0.50031732  0.91523684  1
  O  O62  1  0.25115922  0.49968268  0.08476316  1
  O  O63  1  0.75115922  0.00031732  0.91523684  1
  F  F64  1  0.76967850  0.87931270  0.26355226  1
  F  F65  1  0.27380747  0.38014701  0.75861772  1
  F  F66  1  0.72619253  0.61985299  0.24138228  1
  F  F67  1  0.23032150  0.12068730  0.73644774  1
  F  F68  1  0.73032150  0.37931270  0.26355226  1
  F  F69  1  0.77380747  0.11985299  0.24138228  1
  F  F70  1  0.26967850  0.62068730  0.73644774  1
  F  F71  1  0.22619253  0.88014701  0.75861772  1
