# generated using pymatgen
data_YMnGe
_symmetry_space_group_name_H-M   'P 1'
_cell_length_a   4.09852490
_cell_length_b   7.07172717
_cell_length_c   8.03111322
_cell_angle_alpha   90.00000000
_cell_angle_beta   90.00000000
_cell_angle_gamma   90.00000000
_symmetry_Int_Tables_number   1
_chemical_formula_structural   YMnGe
_chemical_formula_sum   'Y4 Mn4 Ge4'
_cell_volume   232.77097381
_cell_formula_units_Z   4
loop_
 _symmetry_equiv_pos_site_id
 _symmetry_equiv_pos_as_xyz
  1  'x, y, z'
loop_
 _atom_site_type_symbol
 _atom_site_label
 _atom_site_symmetry_multiplicity
 _atom_site_fract_x
 _atom_site_fract_y
 _atom_site_fract_z
 _atom_site_occupancy
  Mn  Mn0  1  0.75000000  0.36847616  0.55402027  1
  Mn  Mn1  1  0.25000000  0.13152384  0.05402027  1
  Mn  Mn2  1  0.75000000  0.86847616  0.94597973  1
  Mn  Mn3  1  0.25000000  0.63152384  0.44597973  1
  Ge  Ge4  1  0.25000000  0.27486038  0.38118027  1
  Ge  Ge5  1  0.75000000  0.22513962  0.88118027  1
  Ge  Ge6  1  0.25000000  0.77486038  0.11881973  1
  Ge  Ge7  1  0.75000000  0.72513962  0.61881973  1
  Y  Y8  1  0.25000000  0.52575782  0.81933947  1
  Y  Y9  1  0.75000000  0.47424218  0.18066053  1
  Y  Y10  1  0.25000000  0.02575782  0.68066053  1
  Y  Y11  1  0.75000000  0.97424218  0.31933947  1
