# generated using pymatgen
data_Na2CoGeO4
_symmetry_space_group_name_H-M   'P 1'
_cell_length_a   5.40377424
_cell_length_b   5.68361878
_cell_length_c   7.22957909
_cell_angle_alpha   90.00005682
_cell_angle_beta   89.96586934
_cell_angle_gamma   89.99988466
_symmetry_Int_Tables_number   1
_chemical_formula_structural   Na2CoGeO4
_chemical_formula_sum   'Na4 Co2 Ge2 O8'
_cell_volume   222.04197060
_cell_formula_units_Z   2
loop_
 _symmetry_equiv_pos_site_id
 _symmetry_equiv_pos_as_xyz
  1  'x, y, z'
loop_
 _atom_site_type_symbol
 _atom_site_label
 _atom_site_symmetry_multiplicity
 _atom_site_fract_x
 _atom_site_fract_y
 _atom_site_fract_z
 _atom_site_occupancy
  Co  Co0  1  0.49785838  0.18620993  0.49960161  1
  O  O1  1  0.07990912  0.15342571  0.95595155  1
  O  O2  1  0.13418412  0.20538763  0.54840312  1
  O  O3  1  0.16529301  0.70747918  0.22782138  1
  Ge  Ge4  1  0.49336671  0.68513052  0.25362531  1
  Na  Na5  1  0.01147752  0.32292695  0.25098643  1
  O  O6  1  0.07659678  0.61805562  0.77964888  1
  Na  Na7  1  0.50721860  0.17794230  0.00716122  1
  O  O8  1  0.57659780  0.38194458  0.27964927  1
  O  O9  1  0.57990846  0.84657457  0.45595082  1
  Na  Na10  1  0.00721446  0.82205782  0.50716332  1
  Co  Co11  1  0.99785815  0.81379072  0.99960238  1
  O  O12  1  0.66529372  0.29252052  0.72782101  1
  O  O13  1  0.63418376  0.79461292  0.04840203  1
  Na  Na14  1  0.51147410  0.67707243  0.75098677  1
  Ge  Ge15  1  0.99336531  0.31486860  0.75362489  1
