# generated using pymatgen
data_CsKTeH6SO10
_symmetry_space_group_name_H-M   'P 1'
_cell_length_a   6.70884298
_cell_length_b   12.71474581
_cell_length_c   12.93661993
_cell_angle_alpha   106.58499329
_cell_angle_beta   90.00000000
_cell_angle_gamma   90.00000000
_symmetry_Int_Tables_number   1
_chemical_formula_structural   CsKTeH6SO10
_chemical_formula_sum   'Cs4 K4 Te4 H24 S4 O40'
_cell_volume   1057.60072809
_cell_formula_units_Z   4
loop_
 _symmetry_equiv_pos_site_id
 _symmetry_equiv_pos_as_xyz
  1  'x, y, z'
loop_
 _atom_site_type_symbol
 _atom_site_label
 _atom_site_symmetry_multiplicity
 _atom_site_fract_x
 _atom_site_fract_y
 _atom_site_fract_z
 _atom_site_occupancy
  Cs  Cs0  1  0.02063304  0.26933004  0.27291300  1
  Cs  Cs1  1  0.52330069  0.49956274  0.49833690  1
  Cs  Cs2  1  0.47669931  -0.00043726  0.99833690  1
  Cs  Cs3  1  0.97936696  0.76933004  0.77291300  1
  K  K4  1  0.04069562  0.01119805  0.47848942  1
  K  K5  1  0.95930438  0.51119805  0.97848942  1
  K  K6  1  0.53720347  0.74957091  0.28865247  1
  K  K7  1  0.46279653  0.24957091  0.78865247  1
  Te  Te8  1  0.50666488  0.40617933  0.11882225  1
  Te  Te9  1  0.99554871  0.85956181  0.15024470  1
  Te  Te10  1  0.00445129  0.35956181  0.65024470  1
  Te  Te11  1  0.49333512  0.90617933  0.61882225  1
  H  H12  1  0.50891615  0.25429173  0.20585348  1
  H  H13  1  0.54666466  0.06983298  0.54584333  1
  H  H14  1  0.98429327  0.01377144  0.06711054  1
  H  H15  1  0.74448223  0.76143542  0.01269737  1
  H  H16  1  0.18745608  0.32046501  0.02710147  1
  H  H17  1  0.25551777  0.26143542  0.51269737  1
  H  H18  1  0.27156424  0.45900706  0.77228624  1
  H  H19  1  0.77452155  0.24821300  0.50486601  1
  H  H20  1  0.81254392  0.82046501  0.52710147  1
  H  H21  1  0.68803378  0.44657217  0.74408106  1
  H  H22  1  0.49108385  0.75429173  0.70585348  1
  H  H23  1  0.94852871  0.19496641  0.72054019  1
  H  H24  1  0.05147129  0.69496641  0.22054019  1
  H  H25  1  0.28425007  0.52074422  0.26658947  1
  H  H26  1  0.71574993  0.02074422  0.76658947  1
  H  H27  1  0.22547845  0.74821300  0.00486601  1
  H  H28  1  0.23167990  0.80319242  0.49547637  1
  H  H29  1  0.31196622  0.94657217  0.24408106  1
  H  H30  1  0.76832010  0.30319242  0.99547637  1
  H  H31  1  0.45333534  0.56983298  0.04584333  1
  H  H32  1  0.23465457  0.00253914  0.75148172  1
  H  H33  1  0.72843576  0.95900706  0.27228624  1
  H  H34  1  0.01570673  0.51377144  0.56711054  1
  H  H35  1  0.76534543  0.50253914  0.25148172  1
  S  S36  1  0.99757186  0.12856036  0.90505779  1
  S  S37  1  0.00242814  0.62856036  0.40505779  1
  S  S38  1  0.49804325  0.13711163  0.36332805  1
  S  S39  1  0.50195675  0.63711163  0.86332805  1
  O  O40  1  0.01413622  0.73049158  0.49867191  1
  O  O41  1  0.05258869  0.53071233  0.44123164  1
  O  O42  1  0.94741131  0.03071233  0.94123164  1
  O  O43  1  0.34457164  0.85063936  0.48418926  1
  O  O44  1  0.98586378  0.23049158  -0.00132809  1
  O  O45  1  0.23259437  0.87911171  0.24128020  1
  O  O46  1  0.99323646  0.51103290  0.64301079  1
  O  O47  1  0.36583421  0.45244855  0.25656008  1
  O  O48  1  0.65542836  0.35063936  0.98418926  1
  O  O49  1  0.45228902  0.73621693  0.82914457  1
  O  O50  1  0.76740563  0.37911171  0.74128020  1
  O  O51  1  0.83767293  0.90906276  0.28266520  1
  O  O52  1  0.29061211  0.14567193  0.40678760  1
  O  O53  1  0.51376282  0.03598776  0.26902523  1
  O  O54  1  0.01178513  0.20724820  0.65488564  1
  O  O55  1  0.54771098  0.23621693  0.32914457  1
  O  O56  1  0.76233303  0.43015551  0.19419667  1
  O  O57  1  0.48949655  0.25605698  0.12930529  1
  O  O58  1  0.35707004  0.62780314  0.94917209  1
  O  O59  1  0.14961843  0.63818583  0.32023029  1
  O  O60  1  0.85163796  0.31806172  0.51594544  1
  O  O61  1  0.25345295  0.33461352  0.56893136  1
  O  O62  1  0.14836204  0.81806172  0.01594544  1
  O  O63  1  0.98821487  0.70724820  0.15488564  1
  O  O64  1  0.79685513  0.61804818  0.35915025  1
  O  O65  1  0.23766697  0.93015551  0.69419667  1
  O  O66  1  0.74654705  0.83461352  0.06893136  1
  O  O67  1  0.16232707  0.40906276  0.78266520  1
  O  O68  1  0.51989289  0.55713527  0.11060543  1
  O  O69  1  0.73659514  0.88970997  0.53310924  1
  O  O70  1  0.70938789  0.64567193  0.90678760  1
  O  O71  1  0.63416579  0.95244855  0.75656008  1
  O  O72  1  0.48623718  0.53598776  0.76902523  1
  O  O73  1  0.00676354  0.01103290  0.14301079  1
  O  O74  1  0.64292996  0.12780314  0.44917209  1
  O  O75  1  0.48010711  0.05713527  0.61060543  1
  O  O76  1  0.85038157  0.13818583  0.82023029  1
  O  O77  1  0.26340486  0.38970997  0.03310924  1
  O  O78  1  0.20314487  0.11804818  0.85915025  1
  O  O79  1  0.51050345  0.75605698  0.62930529  1
