# generated using pymatgen
data_Sr4B14O25
_symmetry_space_group_name_H-M   'P 1'
_cell_length_a   7.85254543
_cell_length_b   9.12864574
_cell_length_c   14.79188563
_cell_angle_alpha   90.00000000
_cell_angle_beta   90.00000000
_cell_angle_gamma   115.47419980
_symmetry_Int_Tables_number   1
_chemical_formula_structural   Sr4B14O25
_chemical_formula_sum   'Sr8 B28 O50'
_cell_volume   957.24217349
_cell_formula_units_Z   2
loop_
 _symmetry_equiv_pos_site_id
 _symmetry_equiv_pos_as_xyz
  1  'x, y, z'
loop_
 _atom_site_type_symbol
 _atom_site_label
 _atom_site_symmetry_multiplicity
 _atom_site_fract_x
 _atom_site_fract_y
 _atom_site_fract_z
 _atom_site_occupancy
  Sr  Sr0  1  0.43007609  0.86015218  0.24229886  1
  Sr  Sr1  1  0.80475806  0.60951613  0.92148155  1
  Sr  Sr2  1  0.82375495  0.64750990  0.33407364  1
  Sr  Sr3  1  0.94425149  0.88850298  0.65552872  1
  Sr  Sr4  1  0.56992391  0.13984782  0.74229886  1
  Sr  Sr5  1  0.19524194  0.39048387  0.42148155  1
  Sr  Sr6  1  0.17624505  0.35249010  0.83407364  1
  Sr  Sr7  1  0.05574851  0.11149702  0.15552872  1
  B  B8  1  0.98574756  0.43526883  0.05427834  1
  B  B9  1  0.02182862  0.69369316  0.13216169  1
  B  B10  1  0.16579752  0.98932674  0.86715748  1
  B  B11  1  0.01425244  0.56473117  0.55427834  1
  B  B12  1  0.77193072  0.20843093  0.95618541  1
  B  B13  1  0.71841187  0.94081177  0.02675417  1
  B  B14  1  0.83420248  0.01067326  0.36715748  1
  B  B15  1  0.40331041  0.46964555  0.21944885  1
  B  B16  1  0.22239990  0.94081177  0.02675417  1
  B  B17  1  0.56349979  0.79156907  0.45618541  1
  B  B18  1  0.67186454  0.69369316  0.13216169  1
  B  B19  1  0.06633514  0.46964555  0.21944885  1
  B  B20  1  0.43650021  0.20843093  0.95618541  1
  B  B21  1  0.77760010  0.05918823  0.52675417  1
  B  B22  1  0.78286570  0.23602526  0.29045193  1
  B  B23  1  0.45315956  0.23602526  0.29045193  1
  B  B24  1  0.97817138  0.30630684  0.63216169  1
  B  B25  1  0.44952128  0.43526883  0.05427834  1
  B  B26  1  0.93366486  0.53035445  0.71944885  1
  B  B27  1  0.59668959  0.53035445  0.71944885  1
  B  B28  1  0.17647078  0.01067326  0.36715748  1
  B  B29  1  0.28158813  0.05918823  0.52675417  1
  B  B30  1  0.82352922  0.98932674  0.86715748  1
  B  B31  1  0.55047872  0.56473117  0.55427834  1
  B  B32  1  0.54684044  0.76397474  0.79045193  1
  B  B33  1  0.21713430  0.76397474  0.79045193  1
  B  B34  1  0.22806928  0.79156907  0.45618541  1
  B  B35  1  0.32813546  0.30630684  0.63216169  1
  O  O36  1  0.73124403  0.88177520  0.78474174  1
  O  O37  1  0.14635826  0.29271651  0.66488881  1
  O  O38  1  0.22490084  0.44980167  0.26036352  1
  O  O39  1  0.22324315  0.87262194  0.37065572  1
  O  O40  1  0.89856076  0.39819810  0.28626978  1
  O  O41  1  0.99268711  0.62897805  0.63521250  1
  O  O42  1  0.49963734  0.39819810  0.28626978  1
  O  O43  1  0.35759938  0.09671709  0.03366123  1
  O  O44  1  0.63629093  0.62897805  0.63521250  1
  O  O45  1  0.02547259  0.05094518  0.85644134  1
  O  O46  1  0.01282141  0.41355707  0.55223058  1
  O  O47  1  0.82916019  0.13973168  0.60877315  1
  O  O48  1  0.89470300  0.36210156  0.70617158  1
  O  O49  1  0.38793449  0.35272694  0.97299537  1
  O  O50  1  0.73911772  0.09671709  0.03366123  1
  O  O51  1  0.64240062  0.90328291  0.53366123  1
  O  O52  1  0.26875597  0.11822480  0.28474174  1
  O  O53  1  0.40073566  0.41355707  0.55223058  1
  O  O54  1  0.98717859  0.58644293  0.05223058  1
  O  O55  1  0.41219332  0.82438664  0.79948966  1
  O  O56  1  0.46739856  0.36210156  0.70617158  1
  O  O57  1  0.68942851  0.86026832  0.10877315  1
  O  O58  1  0.25231124  0.12268487  0.44655364  1
  O  O59  1  0.64117920  0.28235840  0.95102755  1
  O  O60  1  0.50036266  0.60180190  0.78626978  1
  O  O61  1  0.97452741  0.94905482  0.35644134  1
  O  O62  1  0.35062121  0.12737806  0.87065572  1
  O  O63  1  0.58780668  0.17561336  0.29948966  1
  O  O64  1  0.53260144  0.63789844  0.20617158  1
  O  O65  1  0.84946884  0.11822480  0.28474174  1
  O  O66  1  0.10529700  0.63789844  0.20617158  1
  O  O67  1  0.15053116  0.88177520  0.78474174  1
  O  O68  1  0.77675685  0.12737806  0.87065572  1
  O  O69  1  0.85364174  0.70728349  0.16488881  1
  O  O70  1  0.00731289  0.37102195  0.13521250  1
  O  O71  1  0.59926434  0.58644293  0.05223058  1
  O  O72  1  0.96479245  0.35272694  0.97299537  1
  O  O73  1  0.26088228  0.90328291  0.53366123  1
  O  O74  1  0.36370907  0.37102195  0.13521250  1
  O  O75  1  0.17083981  0.86026832  0.10877315  1
  O  O76  1  0.12962638  0.87731513  0.94655364  1
  O  O77  1  0.03520755  0.64727306  0.47299537  1
  O  O78  1  0.61206551  0.64727306  0.47299537  1
  O  O79  1  0.74768876  0.87731513  0.94655364  1
  O  O80  1  0.31057149  0.13973168  0.60877315  1
  O  O81  1  0.35882080  0.71764160  0.45102755  1
  O  O82  1  0.87037362  0.12268487  0.44655364  1
  O  O83  1  0.77509916  0.55019833  0.76036352  1
  O  O84  1  0.64937879  0.87262194  0.37065572  1
  O  O85  1  0.10143924  0.60180190  0.78626978  1
