# generated using pymatgen
data_Zr2H12(N2O7)5
_symmetry_space_group_name_H-M   'P 1'
_cell_length_a   10.54590384
_cell_length_b   10.54590341
_cell_length_c   15.00515758
_cell_angle_alpha   90.00000000
_cell_angle_beta   90.00000000
_cell_angle_gamma   120.00000133
_symmetry_Int_Tables_number   1
_chemical_formula_structural   Zr2H12(N2O7)5
_chemical_formula_sum   'Zr4 H24 N20 O70'
_cell_volume   1445.23603971
_cell_formula_units_Z   2
loop_
 _symmetry_equiv_pos_site_id
 _symmetry_equiv_pos_as_xyz
  1  'x, y, z'
loop_
 _atom_site_type_symbol
 _atom_site_label
 _atom_site_symmetry_multiplicity
 _atom_site_fract_x
 _atom_site_fract_y
 _atom_site_fract_z
 _atom_site_occupancy
  Zr  Zr0  1  0.33333300  0.66666700  0.03710783  1
  Zr  Zr1  1  0.33333300  0.66666700  0.53710783  1
  Zr  Zr2  1  0.66666700  0.33333300  0.46289217  1
  Zr  Zr3  1  0.66666700  0.33333300  0.96289217  1
  H  H4  1  0.45688428  0.56688113  0.67595109  1
  H  H5  1  0.81656484  0.56002212  0.33332470  1
  H  H6  1  0.89000314  0.43311887  0.82404891  1
  H  H7  1  0.18343516  0.43997788  0.66667530  1
  H  H8  1  0.43997788  0.25654272  0.33332470  1
  H  H9  1  0.25654272  0.81656484  0.66667530  1
  H  H10  1  0.74345728  0.18343516  0.33332470  1
  H  H11  1  0.56002212  0.81656484  0.16667530  1
  H  H12  1  0.45688428  0.89000314  0.17595109  1
  H  H13  1  0.54311572  0.10999686  0.82404891  1
  H  H14  1  0.25654272  0.43997788  0.16667530  1
  H  H15  1  0.56688113  0.45688428  0.82404891  1
  H  H16  1  0.43997788  0.18343516  0.83332470  1
  H  H17  1  0.43311887  0.54311572  0.17595109  1
  H  H18  1  0.18343516  0.74345728  0.16667530  1
  H  H19  1  0.56688113  0.10999686  0.32404891  1
  H  H20  1  0.56002212  0.74345728  0.66667530  1
  H  H21  1  0.43311887  0.89000314  0.67595109  1
  H  H22  1  0.10999686  0.54311572  0.67595109  1
  H  H23  1  0.54311572  0.43311887  0.32404891  1
  H  H24  1  0.89000314  0.45688428  0.32404891  1
  H  H25  1  0.81656484  0.25654272  0.83332470  1
  H  H26  1  0.10999686  0.56688113  0.17595109  1
  H  H27  1  0.74345728  0.56002212  0.83332470  1
  N  N28  1  0.68950842  0.68950842  0.25000000  1
  N  N29  1  0.00000000  0.31049158  0.25000000  1
  N  N30  1  0.22977526  0.40241757  0.45347179  1
  N  N31  1  0.77022474  0.17264231  0.04652821  1
  N  N32  1  0.17264231  0.40241757  0.95347179  1
  N  N33  1  0.40241757  0.17264231  0.54652821  1
  N  N34  1  0.31049158  0.00000000  0.25000000  1
  N  N35  1  0.17264231  0.77022474  0.45347179  1
  N  N36  1  0.59758243  0.77022474  0.95347179  1
  N  N37  1  0.77022474  0.59758243  0.54652821  1
  N  N38  1  0.00000000  0.00000000  0.75000000  1
  N  N39  1  0.40241757  0.22977526  0.04652821  1
  N  N40  1  0.22977526  0.82735769  0.95347179  1
  N  N41  1  1.00000000  0.68950842  0.75000000  1
  N  N42  1  0.31049158  0.31049158  0.75000000  1
  N  N43  1  0.82735769  0.22977526  0.54652821  1
  N  N44  1  0.59758243  0.82735769  0.45347179  1
  N  N45  1  0.68950842  0.00000000  0.75000000  1
  N  N46  1  0.00000000  0.00000000  0.25000000  1
  N  N47  1  0.82735769  0.59758243  0.04652821  1
  O  O48  1  0.10481273  0.80250093  0.71563907  1
  O  O49  1  0.80087354  0.49857852  0.57243592  1
  O  O50  1  0.87339045  0.55742062  0.97775065  1
  O  O51  1  0.71535039  0.81619230  0.91698793  1
  O  O52  1  0.80250093  0.69768820  0.28436093  1
  O  O53  1  0.65273880  0.16856936  0.36388633  1
  O  O54  1  0.10084191  0.81619230  0.41698793  1
  O  O55  1  0.48416944  0.65273880  0.63611367  1
  O  O56  1  0.43179149  0.00000000  0.25000000  1
  O  O57  1  0.55742062  0.68403016  0.02224935  1
  O  O58  1  0.30229503  0.80087354  0.42756408  1
  O  O59  1  0.83143064  0.34726120  0.86388633  1
  O  O60  1  0.43179149  0.43179149  0.75000000  1
  O  O61  1  0.51583056  0.16856936  0.86388633  1
  O  O62  1  0.89518727  0.69768820  0.78436093  1
  O  O63  1  0.89518727  0.19749907  0.28436093  1
  O  O64  1  0.30231180  0.10481273  0.28436093  1
  O  O65  1  0.83143064  0.48416944  0.36388633  1
  O  O66  1  0.19912646  0.69770497  0.92756408  1
  O  O67  1  0.80087354  0.30229503  0.07243592  1
  O  O68  1  0.80250093  0.10481273  0.78436093  1
  O  O69  1  0.12660955  0.44257938  0.02224935  1
  O  O70  1  0.89915809  0.18380770  0.58301207  1
  O  O71  1  0.51583056  0.34726120  0.36388633  1
  O  O72  1  0.00000000  0.00000000  0.17412842  1
  O  O73  1  0.69770497  0.19912646  0.57243592  1
  O  O74  1  0.55742062  0.87339045  0.52224935  1
  O  O75  1  0.69770497  0.49857852  0.07243592  1
  O  O76  1  0.89915809  0.71535039  0.08301207  1
  O  O77  1  0.10481273  0.30231180  0.21563907  1
  O  O78  1  0.12660955  0.68403016  0.52224935  1
  O  O79  1  0.34726120  0.51583056  0.13611367  1
  O  O80  1  0.69768820  0.89518727  0.71563907  1
  O  O81  1  0.18380770  0.89915809  0.91698793  1
  O  O82  1  0.50142148  0.19912646  0.07243592  1
  O  O83  1  0.30229503  0.50142148  0.92756408  1
  O  O84  1  0.16856936  0.65273880  0.13611367  1
  O  O85  1  0.31596984  0.44257938  0.52224935  1
  O  O86  1  0.68403016  0.55742062  0.47775065  1
  O  O87  1  0.34726120  0.83143064  0.63611367  1
  O  O88  1  0.81619230  0.10084191  0.08301207  1
  O  O89  1  0.50142148  0.30229503  0.57243592  1
  O  O90  1  0.28464961  0.10084191  0.58301207  1
  O  O91  1  0.44257938  0.12660955  0.47775065  1
  O  O92  1  0.48416944  0.83143064  0.13611367  1
  O  O93  1  0.00000000  0.00000000  0.67412842  1
  O  O94  1  0.49857852  0.69770497  0.42756408  1
  O  O95  1  0.16856936  0.51583056  0.63611367  1
  O  O96  1  0.49857852  0.80087354  0.92756408  1
  O  O97  1  0.00000000  0.56820851  0.75000000  1
  O  O98  1  0.44257938  0.31596984  0.97775065  1
  O  O99  1  0.69768820  0.80250093  0.21563907  1
  O  O100  1  0.87339045  0.31596984  0.47775065  1
  O  O101  1  0.56820851  0.00000000  0.75000000  1
  O  O102  1  0.81619230  0.71535039  0.58301207  1
  O  O103  1  0.10084191  0.28464961  0.91698793  1
  O  O104  1  0.00000000  0.00000000  0.82587158  1
  O  O105  1  0.65273880  0.48416944  0.86388633  1
  O  O106  1  0.19912646  0.50142148  0.42756408  1
  O  O107  1  1.00000000  0.43179149  0.25000000  1
  O  O108  1  0.56820851  0.56820851  0.25000000  1
  O  O109  1  0.18380770  0.28464961  0.41698793  1
  O  O110  1  0.00000000  0.00000000  0.32587158  1
  O  O111  1  0.71535039  0.89915809  0.41698793  1
  O  O112  1  0.19749907  0.89518727  0.21563907  1
  O  O113  1  0.28464961  0.18380770  0.08301207  1
  O  O114  1  0.30231180  0.19749907  0.78436093  1
  O  O115  1  0.19749907  0.30231180  0.71563907  1
  O  O116  1  0.31596984  0.87339045  0.02224935  1
  O  O117  1  0.68403016  0.12660955  0.97775065  1
