# generated using pymatgen
data_Rb2Ca2(SO4)3
_symmetry_space_group_name_H-M   'P 1'
_cell_length_a   10.75163597
_cell_length_b   10.75163597
_cell_length_c   10.75163597
_cell_angle_alpha   90.00000000
_cell_angle_beta   90.00000000
_cell_angle_gamma   90.00000000
_symmetry_Int_Tables_number   1
_chemical_formula_structural   Rb2Ca2(SO4)3
_chemical_formula_sum   'Rb8 Ca8 S12 O48'
_cell_volume   1242.86413167
_cell_formula_units_Z   4
loop_
 _symmetry_equiv_pos_site_id
 _symmetry_equiv_pos_as_xyz
  1  'x, y, z'
loop_
 _atom_site_type_symbol
 _atom_site_label
 _atom_site_symmetry_multiplicity
 _atom_site_fract_x
 _atom_site_fract_y
 _atom_site_fract_z
 _atom_site_occupancy
  Rb  Rb0  1  0.55024418  0.44975582  0.94975582  1
  Rb  Rb1  1  0.68406313  0.18406313  0.31593687  1
  Rb  Rb2  1  0.44975582  0.94975582  0.55024418  1
  Rb  Rb3  1  0.81593687  0.81593687  0.81593687  1
  Rb  Rb4  1  0.05024418  0.05024418  0.05024418  1
  Rb  Rb5  1  0.94975582  0.55024418  0.44975582  1
  Rb  Rb6  1  0.31593687  0.68406313  0.18406313  1
  Rb  Rb7  1  0.18406313  0.31593687  0.68406313  1
  Ca  Ca8  1  0.16857734  0.66857734  0.83142266  1
  Ca  Ca9  1  0.83142266  0.16857734  0.66857734  1
  Ca  Ca10  1  0.40780906  0.09219094  0.90780906  1
  Ca  Ca11  1  0.66857734  0.83142266  0.16857734  1
  Ca  Ca12  1  0.09219094  0.90780906  0.40780906  1
  Ca  Ca13  1  0.59219094  0.59219094  0.59219094  1
  Ca  Ca14  1  0.90780906  0.40780906  0.09219094  1
  Ca  Ca15  1  0.33142266  0.33142266  0.33142266  1
  S  S16  1  0.62498010  0.51090168  0.27595637  1
  S  S17  1  0.27595637  0.62498010  0.51090168  1
  S  S18  1  0.51090168  0.27595637  0.62498010  1
  S  S19  1  0.22404363  0.37501990  0.01090168  1
  S  S20  1  0.37501990  0.01090168  0.22404363  1
  S  S21  1  0.87501990  0.48909832  0.77595637  1
  S  S22  1  0.72404363  0.12498010  0.98909832  1
  S  S23  1  0.01090168  0.22404363  0.37501990  1
  S  S24  1  0.77595637  0.87501990  0.48909832  1
  S  S25  1  0.12498010  0.98909832  0.72404363  1
  S  S26  1  0.48909832  0.77595637  0.87501990  1
  S  S27  1  0.98909832  0.72404363  0.12498010  1
  O  O28  1  0.40629870  0.14116656  0.25808533  1
  O  O29  1  0.03937881  0.80999494  0.22116518  1
  O  O30  1  0.90625408  0.82760244  0.49484800  1
  O  O31  1  0.90629870  0.35883344  0.74191467  1
  O  O32  1  0.30999494  0.27883482  0.96062119  1
  O  O33  1  0.17239756  0.99484800  0.59374592  1
  O  O34  1  0.19000506  0.72116518  0.46062119  1
  O  O35  1  0.01136013  0.06736319  0.73687296  1
  O  O36  1  0.73687296  0.01136013  0.06736319  1
  O  O37  1  0.85883344  0.75808533  0.09370130  1
  O  O38  1  0.75808533  0.09370130  0.85883344  1
  O  O39  1  0.82760244  0.49484800  0.90625408  1
  O  O40  1  0.24191467  0.59370130  0.64116656  1
  O  O41  1  0.49484800  0.90625408  0.82760244  1
  O  O42  1  0.74191467  0.90629870  0.35883344  1
  O  O43  1  0.14116656  0.25808533  0.40629870  1
  O  O44  1  0.69000506  0.77883482  0.53937881  1
  O  O45  1  0.56736319  0.76312704  0.98863987  1
  O  O46  1  0.59374592  0.17239756  0.99484800  1
  O  O47  1  0.09374592  0.32760244  0.00515200  1
  O  O48  1  0.50515200  0.40625408  0.67239756  1
  O  O49  1  0.32760244  0.00515200  0.09374592  1
  O  O50  1  0.67239756  0.50515200  0.40625408  1
  O  O51  1  0.80999494  0.22116518  0.03937881  1
  O  O52  1  0.46062119  0.19000506  0.72116518  1
  O  O53  1  0.00515200  0.09374592  0.32760244  1
  O  O54  1  0.77883482  0.53937881  0.69000506  1
  O  O55  1  0.53937881  0.69000506  0.77883482  1
  O  O56  1  0.64116656  0.24191467  0.59370130  1
  O  O57  1  0.43263681  0.26312704  0.51136013  1
  O  O58  1  0.96062119  0.30999494  0.27883482  1
  O  O59  1  0.72116518  0.46062119  0.19000506  1
  O  O60  1  0.99484800  0.59374592  0.17239756  1
  O  O61  1  0.40625408  0.67239756  0.50515200  1
  O  O62  1  0.93263681  0.23687296  0.48863987  1
  O  O63  1  0.22116518  0.03937881  0.80999494  1
  O  O64  1  0.59370130  0.64116656  0.24191467  1
  O  O65  1  0.06736319  0.73687296  0.01136013  1
  O  O66  1  0.27883482  0.96062119  0.30999494  1
  O  O67  1  0.25808533  0.40629870  0.14116656  1
  O  O68  1  0.76312704  0.98863987  0.56736319  1
  O  O69  1  0.98863987  0.56736319  0.76312704  1
  O  O70  1  0.23687296  0.48863987  0.93263681  1
  O  O71  1  0.09370130  0.85883344  0.75808533  1
  O  O72  1  0.26312704  0.51136013  0.43263681  1
  O  O73  1  0.35883344  0.74191467  0.90629870  1
  O  O74  1  0.51136013  0.43263681  0.26312704  1
  O  O75  1  0.48863987  0.93263681  0.23687296  1
