# generated using pymatgen
data_KCrF4
_symmetry_space_group_name_H-M   'P 1'
_cell_length_a   7.58404556
_cell_length_b   16.07109035
_cell_length_c   18.70757332
_cell_angle_alpha   90.00000000
_cell_angle_beta   90.00000000
_cell_angle_gamma   90.00000000
_symmetry_Int_Tables_number   1
_chemical_formula_structural   KCrF4
_chemical_formula_sum   'K24 Cr24 F96'
_cell_volume   2280.15164807
_cell_formula_units_Z   24
loop_
 _symmetry_equiv_pos_site_id
 _symmetry_equiv_pos_as_xyz
  1  'x, y, z'
loop_
 _atom_site_type_symbol
 _atom_site_label
 _atom_site_symmetry_multiplicity
 _atom_site_fract_x
 _atom_site_fract_y
 _atom_site_fract_z
 _atom_site_occupancy
  F  F0  1  0.95890824  0.59689063  0.27351268  1
  F  F1  1  0.45890824  0.40310937  0.72648732  1
  F  F2  1  0.54109176  0.09689063  0.22648732  1
  F  F3  1  0.04109176  0.90310937  0.77351268  1
  F  F4  1  0.04109176  0.40310937  0.72648732  1
  F  F5  1  0.54109176  0.59689063  0.27351268  1
  F  F6  1  0.45890824  0.90310937  0.77351268  1
  F  F7  1  0.95890824  0.09689063  0.22648732  1
  F  F8  1  0.04167062  0.66361996  0.46998140  1
  F  F9  1  0.54167062  0.33638004  0.53001860  1
  F  F10  1  0.45832938  0.16361996  0.03001860  1
  F  F11  1  0.95832938  0.83638004  0.96998140  1
  F  F12  1  0.95832938  0.33638004  0.53001860  1
  F  F13  1  0.45832938  0.66361996  0.46998140  1
  F  F14  1  0.54167062  0.83638004  0.96998140  1
  F  F15  1  0.04167062  0.16361996  0.03001860  1
  F  F16  1  0.03852161  0.51930762  0.39911921  1
  F  F17  1  0.53852161  0.48069238  0.60088079  1
  F  F18  1  0.46147839  0.01930762  0.10088079  1
  F  F19  1  0.96147839  0.98069238  0.89911921  1
  F  F20  1  0.96147839  0.48069238  0.60088079  1
  F  F21  1  0.46147839  0.51930762  0.39911921  1
  F  F22  1  0.53852161  0.98069238  0.89911921  1
  F  F23  1  0.03852161  0.01930762  0.10088079  1
  F  F24  1  0.95105733  0.74837626  0.34000487  1
  F  F25  1  0.45105733  0.25162374  0.65999513  1
  F  F26  1  0.54894267  0.24837626  0.15999513  1
  F  F27  1  0.04894267  0.75162374  0.84000487  1
  F  F28  1  0.04894267  0.25162374  0.65999513  1
  F  F29  1  0.54894267  0.74837626  0.34000487  1
  F  F30  1  0.45105733  0.75162374  0.84000487  1
  F  F31  1  0.95105733  0.24837626  0.15999513  1
  F  F32  1  0.03972480  0.89902138  0.27799089  1
  F  F33  1  0.53972480  0.10097862  0.72200911  1
  F  F34  1  0.46027520  0.39902138  0.22200911  1
  F  F35  1  0.96027520  0.60097862  0.77799089  1
  F  F36  1  0.96027520  0.10097862  0.72200911  1
  F  F37  1  0.46027520  0.89902138  0.27799089  1
  F  F38  1  0.53972480  0.60097862  0.77799089  1
  F  F39  1  0.03972480  0.39902138  0.22200911  1
  F  F40  1  0.75000000  0.61388747  0.39367135  1
  F  F41  1  0.25000000  0.38611253  0.60632865  1
  F  F42  1  0.75000000  0.11388747  0.10632865  1
  F  F43  1  0.25000000  0.88611253  0.89367135  1
  F  F44  1  0.75000000  0.89387834  0.35963952  1
  F  F45  1  0.25000000  0.10612166  0.64036048  1
  F  F46  1  0.75000000  0.39387834  0.14036048  1
  F  F47  1  0.25000000  0.60612166  0.85963952  1
  F  F48  1  0.25000000  0.64775351  0.34513828  1
  F  F49  1  0.75000000  0.35224649  0.65486172  1
  F  F50  1  0.25000000  0.14775351  0.15486172  1
  F  F51  1  0.75000000  0.85224649  0.84513828  1
  F  F52  1  0.25000000  0.83345531  0.38883168  1
  F  F53  1  0.75000000  0.16654469  0.61116832  1
  F  F54  1  0.25000000  0.33345531  0.11116832  1
  F  F55  1  0.75000000  0.66654469  0.88883168  1
  F  F56  1  0.04259004  0.97330009  0.40936335  1
  F  F57  1  0.54259004  0.02669991  0.59063665  1
  F  F58  1  0.45740996  0.47330009  0.09063665  1
  F  F59  1  0.95740996  0.52669991  0.90936335  1
  F  F60  1  0.95740996  0.02669991  0.59063665  1
  F  F61  1  0.45740996  0.97330009  0.40936335  1
  F  F62  1  0.54259004  0.52669991  0.90936335  1
  F  F63  1  0.04259004  0.47330009  0.09063665  1
  F  F64  1  0.25000000  0.78126799  0.53914519  1
  F  F65  1  0.75000000  0.21873201  0.46085481  1
  F  F66  1  0.25000000  0.28126799  0.96085481  1
  F  F67  1  0.75000000  0.71873201  0.03914519  1
  F  F68  1  0.05794071  0.66369136  0.61579904  1
  F  F69  1  0.55794071  0.33630864  0.38420096  1
  F  F70  1  0.44205929  0.16369136  0.88420096  1
  F  F71  1  0.94205929  0.83630864  0.11579904  1
  F  F72  1  0.94205929  0.33630864  0.38420096  1
  F  F73  1  0.44205929  0.66369136  0.61579904  1
  F  F74  1  0.55794071  0.83630864  0.11579904  1
  F  F75  1  0.05794071  0.16369136  0.88420096  1
  F  F76  1  0.94780674  0.83201770  0.47373199  1
  F  F77  1  0.44780674  0.16798230  0.52626801  1
  F  F78  1  0.55219326  0.33201770  0.02626801  1
  F  F79  1  0.05219326  0.66798230  0.97373199  1
  F  F80  1  0.05219326  0.16798230  0.52626801  1
  F  F81  1  0.55219326  0.83201770  0.47373199  1
  F  F82  1  0.44780674  0.66798230  0.97373199  1
  F  F83  1  0.94780674  0.33201770  0.02626801  1
  F  F84  1  0.98032939  0.82791782  0.61983945  1
  F  F85  1  0.48032939  0.17208218  0.38016055  1
  F  F86  1  0.51967061  0.32791782  0.88016055  1
  F  F87  1  0.01967061  0.67208218  0.11983945  1
  F  F88  1  0.01967061  0.17208218  0.38016055  1
  F  F89  1  0.51967061  0.82791782  0.61983945  1
  F  F90  1  0.48032939  0.67208218  0.11983945  1
  F  F91  1  0.98032939  0.32791782  0.88016055  1
  F  F92  1  0.75000000  0.71320005  0.55246413  1
  F  F93  1  0.25000000  0.28679995  0.44753587  1
  F  F94  1  0.75000000  0.21320005  0.94753587  1
  F  F95  1  0.25000000  0.78679995  0.05246413  1
  K  K96  1  0.75000000  0.04319086  0.46845593  1
  K  K97  1  0.25000000  0.95680914  0.53154407  1
  K  K98  1  0.75000000  0.54319086  0.03154407  1
  K  K99  1  0.25000000  0.45680914  0.96845593  1
  K  K100  1  0.25000000  0.53932782  0.52322790  1
  K  K101  1  0.75000000  0.46067218  0.47677210  1
  K  K102  1  0.25000000  0.03932782  0.97677210  1
  K  K103  1  0.75000000  0.96067218  0.02322790  1
  K  K104  1  0.25000000  0.56976579  0.17992147  1
  K  K105  1  0.75000000  0.43023421  0.82007853  1
  K  K106  1  0.25000000  0.06976579  0.32007853  1
  K  K107  1  0.75000000  0.93023421  0.67992147  1
  K  K108  1  0.25000000  0.89913806  0.16564761  1
  K  K109  1  0.75000000  0.10086194  0.83435239  1
  K  K110  1  0.25000000  0.39913806  0.33435239  1
  K  K111  1  0.75000000  0.60086194  0.66564761  1
  K  K112  1  0.25000000  0.78185659  0.71020014  1
  K  K113  1  0.75000000  0.21814341  0.28979986  1
  K  K114  1  0.25000000  0.28185659  0.78979986  1
  K  K115  1  0.75000000  0.71814341  0.21020014  1
  K  K116  1  0.75000000  0.95941493  0.21467445  1
  K  K117  1  0.25000000  0.04058507  0.78532555  1
  K  K118  1  0.75000000  0.45941493  0.28532555  1
  K  K119  1  0.25000000  0.54058507  0.71467445  1
  Cr  Cr120  1  0.00069962  0.63181179  0.36897768  1
  Cr  Cr121  1  0.50069962  0.36818821  0.63102232  1
  Cr  Cr122  1  0.49930038  0.13181179  0.13102232  1
  Cr  Cr123  1  0.99930038  0.86818821  0.86897768  1
  Cr  Cr124  1  0.99930038  0.36818821  0.63102232  1
  Cr  Cr125  1  0.49930038  0.63181179  0.36897768  1
  Cr  Cr126  1  0.50069962  0.86818821  0.86897768  1
  Cr  Cr127  1  0.00069962  0.13181179  0.13102232  1
  Cr  Cr128  1  0.00203216  0.86407624  0.37378207  1
  Cr  Cr129  1  0.50203216  0.13592376  0.62621793  1
  Cr  Cr130  1  0.49796784  0.36407624  0.12621793  1
  Cr  Cr131  1  0.99796784  0.63592376  0.87378207  1
  Cr  Cr132  1  0.99796784  0.13592376  0.62621793  1
  Cr  Cr133  1  0.49796784  0.86407624  0.37378207  1
  Cr  Cr134  1  0.50203216  0.63592376  0.87378207  1
  Cr  Cr135  1  0.00203216  0.36407624  0.12621793  1
  Cr  Cr136  1  0.00092915  0.74723087  0.54699108  1
  Cr  Cr137  1  0.50092915  0.25276913  0.45300892  1
  Cr  Cr138  1  0.49907085  0.24723087  0.95300892  1
  Cr  Cr139  1  0.99907085  0.75276913  0.04699108  1
  Cr  Cr140  1  0.99907085  0.25276913  0.45300892  1
  Cr  Cr141  1  0.49907085  0.74723087  0.54699108  1
  Cr  Cr142  1  0.50092915  0.75276913  0.04699108  1
  Cr  Cr143  1  0.00092915  0.24723087  0.95300892  1
