# generated using pymatgen
data_KLuP2O7
_symmetry_space_group_name_H-M   'P 1'
_cell_length_a   7.63587329
_cell_length_b   8.61781805
_cell_length_c   10.83685364
_cell_angle_alpha   90.00000000
_cell_angle_beta   90.00000000
_cell_angle_gamma   106.83822455
_symmetry_Int_Tables_number   1
_chemical_formula_structural   KLuP2O7
_chemical_formula_sum   'K4 Lu4 P8 O28'
_cell_volume   682.54071589
_cell_formula_units_Z   4
loop_
 _symmetry_equiv_pos_site_id
 _symmetry_equiv_pos_as_xyz
  1  'x, y, z'
loop_
 _atom_site_type_symbol
 _atom_site_label
 _atom_site_symmetry_multiplicity
 _atom_site_fract_x
 _atom_site_fract_y
 _atom_site_fract_z
 _atom_site_occupancy
  K  K0  1  0.18008042  0.56649050  0.17816347  1
  K  K1  1  0.81991958  0.43350950  0.82183653  1
  K  K2  1  0.18008042  0.06649050  0.32183653  1
  K  K3  1  0.81991958  0.93350950  0.67816347  1
  Lu  Lu4  1  0.76709724  0.24790413  0.40346274  1
  Lu  Lu5  1  0.23290276  0.75209587  0.59653726  1
  Lu  Lu6  1  0.23290276  0.25209587  0.90346274  1
  Lu  Lu7  1  0.76709724  0.74790413  0.09653726  1
  P  P8  1  0.86897717  0.68545678  0.39858079  1
  P  P9  1  0.13102283  0.81454322  0.89858079  1
  P  P10  1  0.86897717  0.18545678  0.10141921  1
  P  P11  1  0.13102283  0.31454322  0.60141921  1
  P  P12  1  0.55507580  0.80984112  0.35798879  1
  P  P13  1  0.44492420  0.19015888  0.64201121  1
  P  P14  1  0.55507580  0.30984112  0.14201121  1
  P  P15  1  0.44492420  0.69015888  0.85798879  1
  O  O16  1  0.86064180  0.00791035  0.09575218  1
  O  O17  1  0.33658806  0.51563383  0.88733606  1
  O  O18  1  0.99000938  0.78586816  0.50065476  1
  O  O19  1  0.33723971  0.80514144  0.92658448  1
  O  O20  1  0.36426795  0.76012616  0.41607345  1
  O  O21  1  0.99000938  0.28586816  0.99934524  1
  O  O22  1  0.00999062  0.21413184  0.49934524  1
  O  O23  1  0.54412804  0.26614151  0.27944201  1
  O  O24  1  0.13935820  0.99208965  0.90424782  1
  O  O25  1  0.00999062  0.71413184  0.00065476  1
  O  O26  1  0.66341194  0.98436617  0.38733606  1
  O  O27  1  0.36426795  0.26012616  0.08392655  1
  O  O28  1  0.45587196  0.23385849  0.77944201  1
  O  O29  1  0.86064180  0.50791035  0.40424782  1
  O  O30  1  0.92700849  0.25975355  0.22945747  1
  O  O31  1  0.92700849  0.75975355  0.27054253  1
  O  O32  1  0.63573205  0.23987384  0.58392655  1
  O  O33  1  0.33658806  0.01563383  0.61266394  1
  O  O34  1  0.66341194  0.48436617  0.11266394  1
  O  O35  1  0.66276029  0.69485856  0.42658448  1
  O  O36  1  0.63573205  0.73987384  0.91607345  1
  O  O37  1  0.13935820  0.49208965  0.59575218  1
  O  O38  1  0.33723971  0.30514144  0.57341552  1
  O  O39  1  0.45587196  0.73385849  0.72055799  1
  O  O40  1  0.66276029  0.19485856  0.07341552  1
  O  O41  1  0.07299151  0.24024645  0.72945747  1
  O  O42  1  0.07299151  0.74024645  0.77054253  1
  O  O43  1  0.54412804  0.76614151  0.22055799  1
