# generated using pymatgen
data_RbLuP2O7
_symmetry_space_group_name_H-M   'P 1'
_cell_length_a   7.76972943
_cell_length_b   8.70166892
_cell_length_c   10.84856960
_cell_angle_alpha   90.00000000
_cell_angle_beta   90.00000000
_cell_angle_gamma   105.49611908
_symmetry_Int_Tables_number   1
_chemical_formula_structural   RbLuP2O7
_chemical_formula_sum   'Rb4 Lu4 P8 O28'
_cell_volume   706.80498463
_cell_formula_units_Z   4
loop_
 _symmetry_equiv_pos_site_id
 _symmetry_equiv_pos_as_xyz
  1  'x, y, z'
loop_
 _atom_site_type_symbol
 _atom_site_label
 _atom_site_symmetry_multiplicity
 _atom_site_fract_x
 _atom_site_fract_y
 _atom_site_fract_z
 _atom_site_occupancy
  Rb  Rb0  1  0.81025283  0.94094735  0.68202070  1
  Rb  Rb1  1  0.81025283  0.44094735  0.81797930  1
  Rb  Rb2  1  0.18974717  0.55905265  0.18202070  1
  Rb  Rb3  1  0.18974717  0.05905265  0.31797930  1
  Lu  Lu4  1  0.76410146  0.74634796  0.09915109  1
  Lu  Lu5  1  0.23589854  0.25365204  0.90084891  1
  Lu  Lu6  1  0.23589854  0.75365204  0.59915109  1
  Lu  Lu7  1  0.76410146  0.24634796  0.40084891  1
  P  P8  1  0.43639599  0.68602519  0.86403087  1
  P  P9  1  0.86972538  0.17976742  0.09882213  1
  P  P10  1  0.56360401  0.31397481  0.13596913  1
  P  P11  1  0.43639599  0.18602519  0.63596913  1
  P  P12  1  0.86972538  0.67976742  0.40117787  1
  P  P13  1  0.56360401  0.81397481  0.36403087  1
  P  P14  1  0.13027462  0.82023258  0.90117787  1
  P  P15  1  0.13027462  0.32023258  0.59882213  1
  O  O16  1  0.99645057  0.77678435  0.49882663  1
  O  O17  1  0.07831888  0.75297374  0.77121611  1
  O  O18  1  0.85183004  0.00239122  0.09049302  1
  O  O19  1  0.62133740  0.23294147  0.57619423  1
  O  O20  1  0.62133740  0.73294147  0.92380577  1
  O  O21  1  0.67328056  0.70276678  0.43407103  1
  O  O22  1  0.44839287  0.23218284  0.77260617  1
  O  O23  1  0.32671944  0.79723322  0.93407103  1
  O  O24  1  0.07831888  0.25297374  0.72878389  1
  O  O25  1  0.14816996  0.99760878  0.90950698  1
  O  O26  1  0.66662568  0.48641148  0.11060764  1
  O  O27  1  0.00354943  0.72321565  0.99882663  1
  O  O28  1  0.99645057  0.27678435  0.00117337  1
  O  O29  1  0.32671944  0.29723322  0.56592897  1
  O  O30  1  0.33337432  0.51358852  0.88939236  1
  O  O31  1  0.00354943  0.22321565  0.50117337  1
  O  O32  1  0.44839287  0.73218284  0.72739383  1
  O  O33  1  0.55160713  0.26781716  0.27260617  1
  O  O34  1  0.55160713  0.76781716  0.22739383  1
  O  O35  1  0.33337432  0.01358852  0.61060764  1
  O  O36  1  0.37866260  0.26705853  0.07619423  1
  O  O37  1  0.92168112  0.24702626  0.22878389  1
  O  O38  1  0.67328056  0.20276678  0.06592897  1
  O  O39  1  0.85183004  0.50239122  0.40950698  1
  O  O40  1  0.66662568  0.98641148  0.38939236  1
  O  O41  1  0.37866260  0.76705853  0.42380577  1
  O  O42  1  0.92168112  0.74702626  0.27121611  1
  O  O43  1  0.14816996  0.49760878  0.59049302  1
