# generated using pymatgen
data_RbU2SbS8
_symmetry_space_group_name_H-M   'P 1'
_cell_length_a   6.86095015
_cell_length_b   6.86094991
_cell_length_c   7.82768962
_cell_angle_alpha   98.60630293
_cell_angle_beta   98.60630247
_cell_angle_gamma   109.12000673
_symmetry_Int_Tables_number   1
_chemical_formula_structural   RbU2SbS8
_chemical_formula_sum   'Rb1 U2 Sb1 S8'
_cell_volume   336.34990427
_cell_formula_units_Z   1
loop_
 _symmetry_equiv_pos_site_id
 _symmetry_equiv_pos_as_xyz
  1  'x, y, z'
loop_
 _atom_site_type_symbol
 _atom_site_label
 _atom_site_symmetry_multiplicity
 _atom_site_fract_x
 _atom_site_fract_y
 _atom_site_fract_z
 _atom_site_occupancy
  Rb  Rb0  1  0.54143322  0.54143322  0.16017173  1
  U  U1  1  0.42350552  0.92300987  0.69336155  1
  U  U2  1  0.92300987  0.42350552  0.69336155  1
  Sb  Sb3  1  0.99184522  0.99184522  0.96728796  1
  S  S4  1  0.21612335  0.51574578  0.47553601  1
  S  S5  1  0.70260275  0.03226738  0.46680406  1
  S  S6  1  0.74441249  0.22697249  0.93840957  1
  S  S7  1  0.69611019  0.69611019  0.76825601  1
  S  S8  1  0.03226738  0.70260275  0.46680406  1
  S  S9  1  0.18927174  0.18927174  0.77136191  1
  S  S10  1  0.51574578  0.21612335  0.47553601  1
  S  S11  1  0.22697249  0.74441249  0.93840957  1
