# generated using pymatgen
data_LaB2ClO4
_symmetry_space_group_name_H-M   'P 1'
_cell_length_a   4.26681721
_cell_length_b   6.66958186
_cell_length_c   8.26601233
_cell_angle_alpha   81.92820973
_cell_angle_beta   89.28994499
_cell_angle_gamma   72.15529943
_symmetry_Int_Tables_number   1
_chemical_formula_structural   LaB2ClO4
_chemical_formula_sum   'La2 B4 Cl2 O8'
_cell_volume   221.58079646
_cell_formula_units_Z   2
loop_
 _symmetry_equiv_pos_site_id
 _symmetry_equiv_pos_as_xyz
  1  'x, y, z'
loop_
 _atom_site_type_symbol
 _atom_site_label
 _atom_site_symmetry_multiplicity
 _atom_site_fract_x
 _atom_site_fract_y
 _atom_site_fract_z
 _atom_site_occupancy
  La  La0  1  0.21128170  0.03284680  0.22212155  1
  La  La1  1  0.78871830  0.96715320  0.77787845  1
  B  B2  1  0.16482089  0.34990413  0.85262390  1
  B  B3  1  0.43846692  0.43726674  0.19284886  1
  B  B4  1  0.83517911  0.65009587  0.14737610  1
  B  B5  1  0.56153308  0.56273326  0.80715114  1
  Cl  Cl6  1  0.14772469  0.20022960  0.54325860  1
  Cl  Cl7  1  0.85227531  0.79977040  0.45674140  1
  O  O8  1  0.89920935  0.53506959  0.82299378  1
  O  O9  1  0.47540903  0.37561744  0.81841576  1
  O  O10  1  0.63471337  0.23622458  0.20822383  1
  O  O11  1  0.52459097  0.62438256  0.18158424  1
  O  O12  1  0.36528663  0.76377542  0.79177617  1
  O  O13  1  0.10079065  0.46493041  0.17700622  1
  O  O14  1  0.83894433  0.84559684  0.07979877  1
  O  O15  1  0.16105567  0.15440316  0.92020123  1
