# generated using pymatgen
data_BaNaNdSi2O7
_symmetry_space_group_name_H-M   'P 1'
_cell_length_a   9.42899688
_cell_length_b   10.64910145
_cell_length_c   14.36834625
_cell_angle_alpha   90.00000000
_cell_angle_beta   90.00000000
_cell_angle_gamma   90.00000000
_symmetry_Int_Tables_number   1
_chemical_formula_structural   BaNaNdSi2O7
_chemical_formula_sum   'Ba8 Na8 Nd8 Si16 O56'
_cell_volume   1442.73059466
_cell_formula_units_Z   8
loop_
 _symmetry_equiv_pos_site_id
 _symmetry_equiv_pos_as_xyz
  1  'x, y, z'
loop_
 _atom_site_type_symbol
 _atom_site_label
 _atom_site_symmetry_multiplicity
 _atom_site_fract_x
 _atom_site_fract_y
 _atom_site_fract_z
 _atom_site_occupancy
  Ba  Ba0  1  0.08330916  0.82104694  0.60473707  1
  Ba  Ba1  1  0.58330916  0.67895306  0.60473707  1
  Ba  Ba2  1  0.91669084  0.67895306  0.10473707  1
  Ba  Ba3  1  0.41669084  0.82104694  0.10473707  1
  Ba  Ba4  1  0.41669084  0.32104694  0.39526293  1
  Ba  Ba5  1  0.91669084  0.17895306  0.39526293  1
  Ba  Ba6  1  0.08330916  0.32104694  0.89526293  1
  Ba  Ba7  1  0.58330916  0.17895306  0.89526293  1
  Na  Na8  1  0.56165771  0.58697675  0.30524779  1
  Na  Na9  1  0.43834229  0.41302325  0.69475221  1
  Na  Na10  1  0.93834229  0.58697675  0.80524779  1
  Na  Na11  1  0.43834229  0.91302325  0.80524779  1
  Na  Na12  1  0.56165771  0.08697675  0.19475221  1
  Na  Na13  1  0.06165771  0.91302325  0.30524779  1
  Na  Na14  1  0.06165771  0.41302325  0.19475221  1
  Na  Na15  1  0.93834229  0.08697675  0.69475221  1
  Nd  Nd16  1  0.89937219  0.08192428  0.10405450  1
  Nd  Nd17  1  0.10062781  0.91807572  0.89594550  1
  Nd  Nd18  1  0.89937219  0.58192428  0.39594550  1
  Nd  Nd19  1  0.60062781  0.08192428  0.60405450  1
  Nd  Nd20  1  0.60062781  0.58192428  0.89594550  1
  Nd  Nd21  1  0.39937219  0.91807572  0.39594550  1
  Nd  Nd22  1  0.39937219  0.41807572  0.10405450  1
  Nd  Nd23  1  0.10062781  0.41807572  0.60405450  1
  Si  Si24  1  0.27941922  0.10608510  0.01688600  1
  Si  Si25  1  0.72058078  0.39391490  0.51688600  1
  Si  Si26  1  0.75289413  0.85223463  0.77714690  1
  Si  Si27  1  0.22058078  0.10608510  0.51688600  1
  Si  Si28  1  0.22058078  0.60608510  0.98311400  1
  Si  Si29  1  0.77941922  0.39391490  0.01688600  1
  Si  Si30  1  0.25289413  0.64776537  0.77714690  1
  Si  Si31  1  0.24710587  0.14776537  0.22285310  1
  Si  Si32  1  0.72058078  0.89391490  0.98311400  1
  Si  Si33  1  0.74710587  0.35223463  0.22285310  1
  Si  Si34  1  0.27941922  0.60608510  0.48311400  1
  Si  Si35  1  0.75289413  0.35223463  0.72285310  1
  Si  Si36  1  0.24710587  0.64776537  0.27714690  1
  Si  Si37  1  0.25289413  0.14776537  0.72285310  1
  Si  Si38  1  0.74710587  0.85223463  0.27714690  1
  Si  Si39  1  0.77941922  0.89391490  0.48311400  1
  O  O40  1  0.10516433  0.59977829  0.49133124  1
  O  O41  1  0.26529816  0.30032757  0.21251462  1
  O  O42  1  0.57996757  0.89184243  0.27039803  1
  O  O43  1  0.15813424  0.98923471  0.45548301  1
  O  O44  1  0.85295068  0.40022396  0.30564591  1
  O  O45  1  0.76529816  0.69967243  0.28748538  1
  O  O46  1  0.67732675  0.42255390  0.62852636  1
  O  O47  1  0.34029294  0.74522814  0.50991509  1
  O  O48  1  0.35295068  0.59977604  0.19435409  1
  O  O49  1  0.92003243  0.89184243  0.77039803  1
  O  O50  1  0.57996757  0.39184243  0.22960197  1
  O  O51  1  0.39483567  0.09977829  0.50866876  1
  O  O52  1  0.34186576  0.48923471  0.54451699  1
  O  O53  1  0.39483567  0.59977829  0.99133124  1
  O  O54  1  0.34029294  0.24522814  0.99008491  1
  O  O55  1  0.67732675  0.92255390  0.87147364  1
  O  O56  1  0.14704932  0.59977604  0.69435409  1
  O  O57  1  0.84029294  0.25477186  0.99008491  1
  O  O58  1  0.15813424  0.48923471  0.04451699  1
  O  O59  1  0.85295068  0.90022396  0.19435409  1
  O  O60  1  0.23470184  0.80032757  0.78748538  1
  O  O61  1  0.26529816  0.80032757  0.28748538  1
  O  O62  1  0.65813424  0.51076529  0.45548301  1
  O  O63  1  0.14704932  0.09977604  0.80564591  1
  O  O64  1  0.84186576  0.51076529  0.95548301  1
  O  O65  1  0.64704932  0.90022396  0.69435409  1
  O  O66  1  0.82267325  0.42255390  0.12852636  1
  O  O67  1  0.73470184  0.69967243  0.78748538  1
  O  O68  1  0.89483567  0.90022171  0.99133124  1
  O  O69  1  0.17732675  0.07744610  0.62852636  1
  O  O70  1  0.10516433  0.09977829  0.00866876  1
  O  O71  1  0.15970706  0.24522814  0.49008491  1
  O  O72  1  0.60516433  0.40022171  0.00866876  1
  O  O73  1  0.32267325  0.07744610  0.12852636  1
  O  O74  1  0.07996757  0.60815757  0.27039803  1
  O  O75  1  0.76529816  0.19967243  0.21251462  1
  O  O76  1  0.73470184  0.19967243  0.71251462  1
  O  O77  1  0.15970706  0.74522814  0.00991509  1
  O  O78  1  0.65813424  0.01076529  0.04451699  1
  O  O79  1  0.32267325  0.57744610  0.37147364  1
  O  O80  1  0.07996757  0.10815757  0.22960197  1
  O  O81  1  0.23470184  0.30032757  0.71251462  1
  O  O82  1  0.64704932  0.40022396  0.80564591  1
  O  O83  1  0.65970706  0.75477186  0.00991509  1
  O  O84  1  0.35295068  0.09977604  0.30564591  1
  O  O85  1  0.65970706  0.25477186  0.49008491  1
  O  O86  1  0.34186576  0.98923471  0.95548301  1
  O  O87  1  0.89483567  0.40022171  0.50866876  1
  O  O88  1  0.92003243  0.39184243  0.72960197  1
  O  O89  1  0.42003243  0.60815757  0.77039803  1
  O  O90  1  0.17732675  0.57744610  0.87147364  1
  O  O91  1  0.60516433  0.90022171  0.49133124  1
  O  O92  1  0.82267325  0.92255390  0.37147364  1
  O  O93  1  0.84186576  0.01076529  0.54451699  1
  O  O94  1  0.42003243  0.10815757  0.72960197  1
  O  O95  1  0.84029294  0.75477186  0.50991509  1
