# generated using pymatgen
data_U8FeS17
_symmetry_space_group_name_H-M   'P 1'
_cell_length_a   7.74303327
_cell_length_b   7.74303313
_cell_length_c   10.23284107
_cell_angle_alpha   80.59378456
_cell_angle_beta   80.59378472
_cell_angle_gamma   64.51652720
_symmetry_Int_Tables_number   1
_chemical_formula_structural   U8FeS17
_chemical_formula_sum   'U8 Fe1 S17'
_cell_volume   543.37609719
_cell_formula_units_Z   1
loop_
 _symmetry_equiv_pos_site_id
 _symmetry_equiv_pos_as_xyz
  1  'x, y, z'
loop_
 _atom_site_type_symbol
 _atom_site_label
 _atom_site_symmetry_multiplicity
 _atom_site_fract_x
 _atom_site_fract_y
 _atom_site_fract_z
 _atom_site_occupancy
  U  U0  1  0.20271896  0.20271896  0.54600246  1
  U  U1  1  0.18183083  0.69990899  0.70440513  1
  U  U2  1  0.31715454  0.31715454  0.01714151  1
  U  U3  1  0.79728104  0.79728104  0.45399754  1
  U  U4  1  0.81816917  0.30009101  0.29559487  1
  U  U5  1  0.68284546  0.68284546  0.98285849  1
  U  U6  1  0.30009101  0.81816917  0.29559487  1
  U  U7  1  0.69990899  0.18183083  0.70440513  1
  Fe  Fe8  1  0.00000000  0.00000000  0.00000000  1
  S  S9  1  0.47801642  0.47801642  0.16926867  1
  S  S10  1  0.05596750  0.68360503  0.97533147  1
  S  S11  1  0.78758004  0.78758004  0.72169519  1
  S  S12  1  0.56637854  0.18042562  0.46494031  1
  S  S13  1  0.21241996  0.21241996  0.27830481  1
  S  S14  1  0.94403250  0.31639497  0.02466853  1
  S  S15  1  0.18042562  0.56637854  0.46494031  1
  S  S16  1  0.30089226  0.30089226  0.75661962  1
  S  S17  1  0.94305507  0.94305507  0.22167386  1
  S  S18  1  0.31639497  0.94403250  0.02466853  1
  S  S19  1  0.05694493  0.05694493  0.77832614  1
  S  S20  1  0.68360503  0.05596750  0.97533147  1
  S  S21  1  0.52198358  0.52198358  0.83073133  1
  S  S22  1  0.43362146  0.81957438  0.53505969  1
  S  S23  1  0.00000000  0.00000000  0.50000000  1
  S  S24  1  0.81957438  0.43362146  0.53505969  1
  S  S25  1  0.69910774  0.69910774  0.24338038  1
