# generated using pymatgen
data_SbTeClO3
_symmetry_space_group_name_H-M   'P 1'
_cell_length_a   5.51181409
_cell_length_b   7.27706692
_cell_length_c   11.67437310
_cell_angle_alpha   90.00000000
_cell_angle_beta   90.00000000
_cell_angle_gamma   90.00000000
_symmetry_Int_Tables_number   1
_chemical_formula_structural   SbTeClO3
_chemical_formula_sum   'Sb4 Te4 Cl4 O12'
_cell_volume   468.25723695
_cell_formula_units_Z   4
loop_
 _symmetry_equiv_pos_site_id
 _symmetry_equiv_pos_as_xyz
  1  'x, y, z'
loop_
 _atom_site_type_symbol
 _atom_site_label
 _atom_site_symmetry_multiplicity
 _atom_site_fract_x
 _atom_site_fract_y
 _atom_site_fract_z
 _atom_site_occupancy
  Sb  Sb0  1  0.25000000  0.91753190  0.75746640  1
  Sb  Sb1  1  0.75000000  0.08246810  0.24253360  1
  Sb  Sb2  1  0.75000000  0.41753190  0.74253360  1
  Sb  Sb3  1  0.25000000  0.58246810  0.25746640  1
  Te  Te4  1  0.75000000  0.81968012  0.92423409  1
  Te  Te5  1  0.75000000  0.68031988  0.42423409  1
  Te  Te6  1  0.25000000  0.18031988  0.07576591  1
  Te  Te7  1  0.25000000  0.31968012  0.57576591  1
  Cl  Cl8  1  0.75000000  0.10411183  0.57730077  1
  Cl  Cl9  1  0.25000000  0.89588817  0.42269923  1
  Cl  Cl10  1  0.25000000  0.60411183  0.92269923  1
  Cl  Cl11  1  0.75000000  0.39588817  0.07730077  1
  O  O12  1  0.99527848  0.99184403  0.87423225  1
  O  O13  1  0.00472152  0.00815597  0.12576775  1
  O  O14  1  0.75000000  0.80455203  0.27943788  1
  O  O15  1  0.49527848  0.49184403  0.62576775  1
  O  O16  1  0.99527848  0.50815597  0.37423225  1
  O  O17  1  0.50472152  0.50815597  0.37423225  1
  O  O18  1  0.75000000  0.69544797  0.77943788  1
  O  O19  1  0.49527848  0.00815597  0.12576775  1
  O  O20  1  0.50472152  0.99184403  0.87423225  1
  O  O21  1  0.25000000  0.19544797  0.72056212  1
  O  O22  1  0.00472152  0.49184403  0.62576775  1
  O  O23  1  0.25000000  0.30455203  0.22056212  1
