# generated using pymatgen
data_Co2AsClO4
_symmetry_space_group_name_H-M   'P 1'
_cell_length_a   4.99458820
_cell_length_b   6.71263237
_cell_length_c   6.95958929
_cell_angle_alpha   90.00014431
_cell_angle_beta   91.49458943
_cell_angle_gamma   89.99891519
_symmetry_Int_Tables_number   1
_chemical_formula_structural   Co2AsClO4
_chemical_formula_sum   'Co4 As2 Cl2 O8'
_cell_volume   233.25361612
_cell_formula_units_Z   2
loop_
 _symmetry_equiv_pos_site_id
 _symmetry_equiv_pos_as_xyz
  1  'x, y, z'
loop_
 _atom_site_type_symbol
 _atom_site_label
 _atom_site_symmetry_multiplicity
 _atom_site_fract_x
 _atom_site_fract_y
 _atom_site_fract_z
 _atom_site_occupancy
  Co  Co0  1  -0.00000016  0.00000112  0.99999925  1
  Co  Co1  1  0.65032287  0.75000096  0.73092516  1
  Co  Co2  1  0.99999896  0.50000001  0.00000008  1
  Co  Co3  1  0.34967709  0.25000038  0.26907562  1
  As  As4  1  0.48992706  0.24999734  0.76008732  1
  As  As5  1  0.51008569  0.75000277  0.23992475  1
  Cl  Cl6  1  0.16568021  0.74999831  0.76746056  1
  Cl  Cl7  1  0.83432106  0.25000285  0.23254083  1
  O  O8  1  0.30553989  0.95612866  0.20138295  1
  O  O9  1  0.67646125  0.74999088  0.45325007  1
  O  O10  1  0.30554584  0.54387046  0.20137541  1
  O  O11  1  0.69445944  0.04387586  0.79861521  1
  O  O12  1  0.32353063  0.25000044  0.54673976  1
  O  O13  1  0.75992084  0.75000234  0.06446468  1
  O  O14  1  0.69445070  0.45612760  0.79862390  1
  O  O15  1  0.24008064  0.24999902  0.93553544  1
