# generated using pymatgen
data_KHfCuF7
_symmetry_space_group_name_H-M   'P 1'
_cell_length_a   7.71750928
_cell_length_b   7.71750944
_cell_length_c   10.15720152
_cell_angle_alpha   90.00000000
_cell_angle_beta   90.00000000
_cell_angle_gamma   113.19317334
_symmetry_Int_Tables_number   1
_chemical_formula_structural   KHfCuF7
_chemical_formula_sum   'K4 Hf4 Cu4 F28'
_cell_volume   556.07073233
_cell_formula_units_Z   4
loop_
 _symmetry_equiv_pos_site_id
 _symmetry_equiv_pos_as_xyz
  1  'x, y, z'
loop_
 _atom_site_type_symbol
 _atom_site_label
 _atom_site_symmetry_multiplicity
 _atom_site_fract_x
 _atom_site_fract_y
 _atom_site_fract_z
 _atom_site_occupancy
  K  K0  1  0.15824888  0.36283642  0.25000000  1
  K  K1  1  0.36283642  0.15824888  0.75000000  1
  K  K2  1  0.63716358  0.84175112  0.25000000  1
  K  K3  1  0.84175112  0.63716358  0.75000000  1
  Hf  Hf4  1  0.86719175  0.13280825  0.56997142  1
  Hf  Hf5  1  0.13280825  0.86719175  0.06997142  1
  Hf  Hf6  1  0.13280825  0.86719175  0.43002858  1
  Hf  Hf7  1  0.86719175  0.13280825  0.93002858  1
  Cu  Cu8  1  0.36371057  0.63628943  0.92909055  1
  Cu  Cu9  1  0.63628943  0.36371057  0.07090945  1
  Cu  Cu10  1  0.63628943  0.36371057  0.42909055  1
  Cu  Cu11  1  0.36371057  0.63628943  0.57090945  1
  F  F12  1  0.29245276  0.70754724  0.11004672  1
  F  F13  1  0.00170579  0.27214195  0.75000000  1
  F  F14  1  0.72785805  0.99829421  0.75000000  1
  F  F15  1  0.90055159  0.64699030  0.48564110  1
  F  F16  1  0.35300970  0.09944841  0.48564110  1
  F  F17  1  0.22028389  0.77971611  0.88648484  1
  F  F18  1  0.02447795  0.97552205  0.88715104  1
  F  F19  1  0.90055159  0.64699030  0.01435890  1
  F  F20  1  0.09944841  0.35300970  0.51435890  1
  F  F21  1  0.35300970  0.09944841  0.01435890  1
  F  F22  1  0.42004040  0.57995960  0.75000000  1
  F  F23  1  0.09944841  0.35300970  0.98564110  1
  F  F24  1  0.64699030  0.90055159  0.51435890  1
  F  F25  1  0.70754724  0.29245276  0.61004672  1
  F  F26  1  0.99829421  0.72785805  0.25000000  1
  F  F27  1  0.97552205  0.02447795  0.11284896  1
  F  F28  1  0.29245276  0.70754724  0.38995328  1
  F  F29  1  0.27214195  0.00170579  0.25000000  1
  F  F30  1  0.70754724  0.29245276  0.88995328  1
  F  F31  1  0.77971611  0.22028389  0.38648484  1
  F  F32  1  0.50000000  0.50000000  0.00000000  1
  F  F33  1  0.97552205  0.02447795  0.38715104  1
  F  F34  1  0.64699030  0.90055159  0.98564110  1
  F  F35  1  0.77971611  0.22028389  0.11351516  1
  F  F36  1  0.57995960  0.42004040  0.25000000  1
  F  F37  1  0.02447795  0.97552205  0.61284896  1
  F  F38  1  0.22028389  0.77971611  0.61351516  1
  F  F39  1  0.50000000  0.50000000  0.50000000  1
