# generated using pymatgen
data_TlPb8Br9O4
_symmetry_space_group_name_H-M   'P 1'
_cell_length_a   8.40530234
_cell_length_b   12.60143919
_cell_length_c   12.60143919
_cell_angle_alpha   90.00000000
_cell_angle_beta   90.00000000
_cell_angle_gamma   90.00000000
_symmetry_Int_Tables_number   1
_chemical_formula_structural   TlPb8Br9O4
_chemical_formula_sum   'Tl2 Pb16 Br18 O8'
_cell_volume   1334.73065695
_cell_formula_units_Z   2
loop_
 _symmetry_equiv_pos_site_id
 _symmetry_equiv_pos_as_xyz
  1  'x, y, z'
loop_
 _atom_site_type_symbol
 _atom_site_label
 _atom_site_symmetry_multiplicity
 _atom_site_fract_x
 _atom_site_fract_y
 _atom_site_fract_z
 _atom_site_occupancy
  Tl  Tl0  1  0.66819799  0.75000000  0.75000000  1
  Tl  Tl1  1  0.33180201  0.25000000  0.25000000  1
  Pb  Pb2  1  0.82272874  0.33370643  0.98156710  1
  Pb  Pb3  1  0.35430113  0.19480584  0.61287451  1
  Pb  Pb4  1  0.17727126  0.66629357  0.01843290  1
  Pb  Pb5  1  0.64569887  0.38712549  0.69480584  1
  Pb  Pb6  1  0.64569887  0.11287451  0.80519416  1
  Pb  Pb7  1  0.64569887  0.80519416  0.38712549  1
  Pb  Pb8  1  0.17727126  0.83370643  0.48156710  1
  Pb  Pb9  1  0.82272874  0.98156710  0.16629357  1
  Pb  Pb10  1  0.35430113  0.61287451  0.30519416  1
  Pb  Pb11  1  0.17727126  0.48156710  0.66629357  1
  Pb  Pb12  1  0.82272874  0.16629357  0.51843290  1
  Pb  Pb13  1  0.35430113  0.88712549  0.19480584  1
  Pb  Pb14  1  0.35430113  0.30519416  0.88712549  1
  Pb  Pb15  1  0.17727126  0.01843290  0.83370643  1
  Pb  Pb16  1  0.64569887  0.69480584  0.11287451  1
  Pb  Pb17  1  0.82272874  0.51843290  0.33370643  1
  Br  Br18  1  0.88561995  0.86754494  0.96182460  1
  Br  Br19  1  0.11438005  0.13245506  0.03817540  1
  Br  Br20  1  0.11438005  0.46182460  0.13245506  1
  Br  Br21  1  0.59854634  0.43198427  0.13024204  1
  Br  Br22  1  0.40145366  0.56801573  0.86975796  1
  Br  Br23  1  0.40145366  0.63024204  0.56801573  1
  Br  Br24  1  0.11438005  0.36754494  0.46182460  1
  Br  Br25  1  0.11438005  0.03817540  0.36754494  1
  Br  Br26  1  0.59854634  0.06801573  0.36975796  1
  Br  Br27  1  0.00000000  0.75000000  0.25000000  1
  Br  Br28  1  0.88561995  0.96182460  0.63245506  1
  Br  Br29  1  0.40145366  0.93198427  0.63024204  1
  Br  Br30  1  0.88561995  0.53817540  0.86754494  1
  Br  Br31  1  0.59854634  0.36975796  0.43198427  1
  Br  Br32  1  0.40145366  0.86975796  0.93198427  1
  Br  Br33  1  0.88561995  0.63245506  0.53817540  1
  Br  Br34  1  0.59854634  0.13024204  0.06801573  1
  Br  Br35  1  0.00000000  0.25000000  0.75000000  1
  O  O36  1  0.62824567  0.20428484  0.64176516  1
  O  O37  1  0.37175433  0.14176516  0.79571516  1
  O  O38  1  0.37175433  0.70428484  0.14176516  1
  O  O39  1  0.62824567  0.64176516  0.29571516  1
  O  O40  1  0.62824567  0.85823484  0.20428484  1
  O  O41  1  0.37175433  0.35823484  0.70428484  1
  O  O42  1  0.62824567  0.29571516  0.85823484  1
  O  O43  1  0.37175433  0.79571516  0.35823484  1
