# generated using pymatgen
data_Cs3AlGe2O7
_symmetry_space_group_name_H-M   'P 1'
_cell_length_a   7.75455549
_cell_length_b   8.07036362
_cell_length_c   10.03978745
_cell_angle_alpha   108.10414242
_cell_angle_beta   106.93604899
_cell_angle_gamma   103.65558462
_symmetry_Int_Tables_number   1
_chemical_formula_structural   Cs3AlGe2O7
_chemical_formula_sum   'Cs6 Al2 Ge4 O14'
_cell_volume   533.17708751
_cell_formula_units_Z   2
loop_
 _symmetry_equiv_pos_site_id
 _symmetry_equiv_pos_as_xyz
  1  'x, y, z'
loop_
 _atom_site_type_symbol
 _atom_site_label
 _atom_site_symmetry_multiplicity
 _atom_site_fract_x
 _atom_site_fract_y
 _atom_site_fract_z
 _atom_site_occupancy
  Cs  Cs0  1  0.28645033  0.01443403  0.60838160  1
  Cs  Cs1  1  0.26141864  0.01141864  0.02283729  1
  Cs  Cs2  1  0.17806874  0.40605243  0.39161840  1
  Cs  Cs3  1  0.73858136  0.98858136  0.97716271  1
  Cs  Cs4  1  0.82193126  0.59394757  0.60838160  1
  Cs  Cs5  1  0.71354967  0.98556597  0.39161840  1
  Al  Al6  1  0.69235616  0.44235616  0.88471233  1
  Al  Al7  1  0.30764384  0.55764384  0.11528767  1
  Ge  Ge8  1  0.67556060  0.43749859  0.19831346  1
  Ge  Ge9  1  0.02275286  0.76081487  0.19831346  1
  Ge  Ge10  1  0.97724714  0.23918513  0.80168654  1
  Ge  Ge11  1  0.32443940  0.56250141  0.80168654  1
  O  O12  1  0.60726734  0.33932379  0.99660009  1
  O  O13  1  0.11066725  0.34272370  0.00339991  1
  O  O14  1  0.24560402  0.71998569  0.24129273  1
  O  O15  1  0.88933275  0.65727630  0.99660009  1
  O  O16  1  0.28647886  0.72273569  0.72669707  1
  O  O17  1  0.75439598  0.28001431  0.75870727  1
  O  O18  1  0.05978179  0.99603862  0.27330293  1
  O  O19  1  0.50431129  0.47869296  0.75870727  1
  O  O20  1  0.10491835  0.35491835  0.70983670  1
  O  O21  1  0.39273266  0.66067621  0.00339991  1
  O  O22  1  0.94021821  0.00396138  0.72669707  1
  O  O23  1  0.89508165  0.64508165  0.29016330  1
  O  O24  1  0.71352114  0.27726431  0.27330293  1
  O  O25  1  0.49568871  0.52130704  0.24129273  1
