# generated using pymatgen
data_Rb2CrF5
_symmetry_space_group_name_H-M   'P 1'
_cell_length_a   5.87365318
_cell_length_b   7.71161591
_cell_length_c   12.23493954
_cell_angle_alpha   90.00000000
_cell_angle_beta   90.00000000
_cell_angle_gamma   90.00000000
_symmetry_Int_Tables_number   1
_chemical_formula_structural   Rb2CrF5
_chemical_formula_sum   'Rb8 Cr4 F20'
_cell_volume   554.18595816
_cell_formula_units_Z   4
loop_
 _symmetry_equiv_pos_site_id
 _symmetry_equiv_pos_as_xyz
  1  'x, y, z'
loop_
 _atom_site_type_symbol
 _atom_site_label
 _atom_site_symmetry_multiplicity
 _atom_site_fract_x
 _atom_site_fract_y
 _atom_site_fract_z
 _atom_site_occupancy
  F  F0  1  0.98596119  0.69717419  0.88332794  1
  F  F1  1  0.48596119  0.30282581  0.11667206  1
  F  F2  1  0.51403881  0.19717419  0.61667206  1
  F  F3  1  0.01403881  0.80282581  0.38332794  1
  F  F4  1  0.01403881  0.30282581  0.11667206  1
  F  F5  1  0.51403881  0.69717419  0.88332794  1
  F  F6  1  0.48596119  0.80282581  0.38332794  1
  F  F7  1  0.98596119  0.19717419  0.61667206  1
  F  F8  1  0.25000000  0.28286000  0.92177943  1
  F  F9  1  0.75000000  0.71714000  0.07822057  1
  F  F10  1  0.25000000  0.78286000  0.57822057  1
  F  F11  1  0.75000000  0.21714000  0.42177943  1
  F  F12  1  0.00000000  0.00000000  0.00000000  1
  F  F13  1  0.50000000  0.00000000  0.00000000  1
  F  F14  1  0.50000000  0.50000000  0.50000000  1
  F  F15  1  0.00000000  0.50000000  0.50000000  1
  F  F16  1  0.75000000  0.48468015  0.69026445  1
  F  F17  1  0.25000000  0.51531985  0.30973555  1
  F  F18  1  0.75000000  0.98468015  0.80973555  1
  F  F19  1  0.25000000  0.01531985  0.19026445  1
  Cr  Cr20  1  0.25000000  0.15634874  0.06093919  1
  Cr  Cr21  1  0.75000000  0.84365126  0.93906081  1
  Cr  Cr22  1  0.25000000  0.65634874  0.43906081  1
  Cr  Cr23  1  0.75000000  0.34365126  0.56093919  1
  Rb  Rb24  1  0.25000000  0.99240335  0.77426641  1
  Rb  Rb25  1  0.75000000  0.00759665  0.22573359  1
  Rb  Rb26  1  0.25000000  0.49240335  0.72573359  1
  Rb  Rb27  1  0.75000000  0.50759665  0.27426641  1
  Rb  Rb28  1  0.25000000  0.64758924  0.08359739  1
  Rb  Rb29  1  0.75000000  0.35241076  0.91640261  1
  Rb  Rb30  1  0.25000000  0.14758924  0.41640261  1
  Rb  Rb31  1  0.75000000  0.85241076  0.58359739  1
