# generated using pymatgen
data_U2InCo2
_symmetry_space_group_name_H-M   'P 1'
_cell_length_a   3.28783418
_cell_length_b   7.43242541
_cell_length_c   7.43242541
_cell_angle_alpha   90.00000000
_cell_angle_beta   90.00000000
_cell_angle_gamma   90.00000000
_symmetry_Int_Tables_number   1
_chemical_formula_structural   U2InCo2
_chemical_formula_sum   'U4 In2 Co4'
_cell_volume   181.62307524
_cell_formula_units_Z   2
loop_
 _symmetry_equiv_pos_site_id
 _symmetry_equiv_pos_as_xyz
  1  'x, y, z'
loop_
 _atom_site_type_symbol
 _atom_site_label
 _atom_site_symmetry_multiplicity
 _atom_site_fract_x
 _atom_site_fract_y
 _atom_site_fract_z
 _atom_site_occupancy
  Co  Co0  1  0.00000000  0.13241647  0.36758353  1
  Co  Co1  1  0.00000000  0.36758353  0.86758353  1
  Co  Co2  1  0.00000000  0.63241647  0.13241647  1
  Co  Co3  1  0.00000000  0.86758353  0.63241647  1
  In  In4  1  0.00000000  0.00000000  0.00000000  1
  In  In5  1  0.00000000  0.50000000  0.50000000  1
  U  U6  1  0.50000000  0.83409644  0.33409644  1
  U  U7  1  0.50000000  0.66590356  0.83409644  1
  U  U8  1  0.50000000  0.33409644  0.16590356  1
  U  U9  1  0.50000000  0.16590356  0.66590356  1
