# generated using pymatgen
data_SrTiGeO5
_symmetry_space_group_name_H-M   'P 1'
_cell_length_a   6.89623324
_cell_length_b   7.34878247
_cell_length_c   9.16685980
_cell_angle_alpha   90.00000000
_cell_angle_beta   90.00000000
_cell_angle_gamma   113.96444928
_symmetry_Int_Tables_number   1
_chemical_formula_structural   SrTiGeO5
_chemical_formula_sum   'Sr4 Ti4 Ge4 O20'
_cell_volume   424.51980996
_cell_formula_units_Z   4
loop_
 _symmetry_equiv_pos_site_id
 _symmetry_equiv_pos_as_xyz
  1  'x, y, z'
loop_
 _atom_site_type_symbol
 _atom_site_label
 _atom_site_symmetry_multiplicity
 _atom_site_fract_x
 _atom_site_fract_y
 _atom_site_fract_z
 _atom_site_occupancy
  Sr  Sr0  1  0.74997047  0.25749312  0.92163012  1
  Sr  Sr1  1  0.74997047  0.75749312  0.57836988  1
  Sr  Sr2  1  0.25002953  0.74250688  0.07836988  1
  Sr  Sr3  1  0.25002953  0.24250688  0.42163012  1
  Ti  Ti4  1  0.74670868  0.01429539  0.24587074  1
  Ti  Ti5  1  0.74670868  0.51429539  0.25412926  1
  Ti  Ti6  1  0.25329132  0.48570461  0.74587074  1
  Ti  Ti7  1  0.25329132  0.98570461  0.75412926  1
  Ge  Ge8  1  0.75254627  0.25361052  0.56358144  1
  Ge  Ge9  1  0.24745373  0.74638948  0.43641856  1
  Ge  Ge10  1  0.24745373  0.24638948  0.06358144  1
  Ge  Ge11  1  0.75254627  0.75361052  0.93641856  1
  O  O12  1  0.55943930  0.58831454  0.81471014  1
  O  O13  1  0.34747889  0.60076455  0.54224395  1
  O  O14  1  0.44056070  0.91168546  0.31471014  1
  O  O15  1  0.95001340  0.41567289  0.68394953  1
  O  O16  1  0.04998660  0.08432711  0.18394953  1
  O  O17  1  0.74490562  0.74803009  0.30831541  1
  O  O18  1  0.25509438  0.75196991  0.80831541  1
  O  O19  1  0.65252111  0.89923545  0.04224395  1
  O  O20  1  0.34747889  0.10076455  0.95775605  1
  O  O21  1  0.44056070  0.41168546  0.18528986  1
  O  O22  1  0.74490562  0.24803009  0.19168459  1
  O  O23  1  0.84644658  0.10589178  0.45404858  1
  O  O24  1  0.95001340  0.91567289  0.81605047  1
  O  O25  1  0.15355342  0.39410822  0.95404858  1
  O  O26  1  0.65252111  0.39923545  0.45775605  1
  O  O27  1  0.25509438  0.25196991  0.69168459  1
  O  O28  1  0.84644658  0.60589178  0.04595142  1
  O  O29  1  0.04998660  0.58432711  0.31605047  1
  O  O30  1  0.15355342  0.89410822  0.54595142  1
  O  O31  1  0.55943930  0.08831454  0.68528986  1
