# generated using pymatgen
data_KAg3As2S5
_symmetry_space_group_name_H-M   'P 1'
_cell_length_a   6.44178731
_cell_length_b   17.04206366
_cell_length_c   19.72046782
_cell_angle_alpha   90.00000000
_cell_angle_beta   90.00000000
_cell_angle_gamma   90.00000000
_symmetry_Int_Tables_number   1
_chemical_formula_structural   KAg3As2S5
_chemical_formula_sum   'K8 Ag24 As16 S40'
_cell_volume   2164.93956850
_cell_formula_units_Z   8
loop_
 _symmetry_equiv_pos_site_id
 _symmetry_equiv_pos_as_xyz
  1  'x, y, z'
loop_
 _atom_site_type_symbol
 _atom_site_label
 _atom_site_symmetry_multiplicity
 _atom_site_fract_x
 _atom_site_fract_y
 _atom_site_fract_z
 _atom_site_occupancy
  K  K0  1  0.90973146  0.62397533  0.52111117  1
  K  K1  1  0.40973146  0.12397533  0.97888883  1
  K  K2  1  0.09026854  0.37602467  0.47888883  1
  K  K3  1  0.09026854  0.12397533  0.47888883  1
  K  K4  1  0.59026854  0.62397533  0.02111117  1
  K  K5  1  0.40973146  0.37602467  0.97888883  1
  K  K6  1  0.59026854  0.87602467  0.02111117  1
  K  K7  1  0.90973146  0.87602467  0.52111117  1
  Ag  Ag8  1  0.09629079  0.12600375  0.68535048  1
  Ag  Ag9  1  0.90931703  0.97615064  0.73462197  1
  Ag  Ag10  1  0.09068297  0.47615064  0.26537803  1
  Ag  Ag11  1  0.90931703  0.52384936  0.73462197  1
  Ag  Ag12  1  0.40931703  0.02384936  0.76537803  1
  Ag  Ag13  1  0.90370921  0.62600375  0.31464952  1
  Ag  Ag14  1  0.59068297  0.97615064  0.23462197  1
  Ag  Ag15  1  0.09629079  0.37399625  0.68535048  1
  Ag  Ag16  1  0.83978506  0.36815938  0.85936505  1
  Ag  Ag17  1  0.90370921  0.87399625  0.31464952  1
  Ag  Ag18  1  0.09068297  0.02384936  0.26537803  1
  Ag  Ag19  1  0.16021494  0.86815938  0.14063495  1
  Ag  Ag20  1  0.59068297  0.52384936  0.23462197  1
  Ag  Ag21  1  0.59629079  0.62600375  0.81464952  1
  Ag  Ag22  1  0.59629079  0.87399625  0.81464952  1
  Ag  Ag23  1  0.16021494  0.63184062  0.14063495  1
  Ag  Ag24  1  0.33978506  0.63184062  0.64063495  1
  Ag  Ag25  1  0.40370921  0.12600375  0.18535048  1
  Ag  Ag26  1  0.33978506  0.86815938  0.64063495  1
  Ag  Ag27  1  0.66021494  0.13184062  0.35936505  1
  Ag  Ag28  1  0.83978506  0.13184062  0.85936505  1
  Ag  Ag29  1  0.40370921  0.37399625  0.18535048  1
  Ag  Ag30  1  0.40931703  0.47615064  0.76537803  1
  Ag  Ag31  1  0.66021494  0.36815938  0.35936505  1
  As  As32  1  0.59565403  0.75000000  0.21265930  1
  As  As33  1  0.40693148  0.53914716  0.41099482  1
  As  As34  1  0.90434597  0.75000000  0.71265930  1
  As  As35  1  0.59306852  0.46085284  0.58900518  1
  As  As36  1  0.59306852  0.03914716  0.58900518  1
  As  As37  1  0.49097521  0.75000000  0.39096685  1
  As  As38  1  0.40693148  0.96085284  0.41099482  1
  As  As39  1  0.90693148  0.46085284  0.08900518  1
  As  As40  1  0.99097521  0.25000000  0.10903315  1
  As  As41  1  0.90693148  0.03914716  0.08900518  1
  As  As42  1  0.09565403  0.25000000  0.28734070  1
  As  As43  1  0.09306852  0.96085284  0.91099482  1
  As  As44  1  0.50902479  0.25000000  0.60903315  1
  As  As45  1  0.40434597  0.25000000  0.78734070  1
  As  As46  1  0.09306852  0.53914716  0.91099482  1
  As  As47  1  0.00902479  0.75000000  0.89096685  1
  S  S48  1  0.74634839  0.99163400  0.39376750  1
  S  S49  1  0.18843965  0.90982665  0.80870324  1
  S  S50  1  0.31156035  0.90982665  0.30870324  1
  S  S51  1  0.38076835  0.75000000  0.12061401  1
  S  S52  1  0.74634839  0.50836600  0.39376750  1
  S  S53  1  0.65851881  0.75000000  0.88888299  1
  S  S54  1  0.61923165  0.25000000  0.87938599  1
  S  S55  1  0.81156035  0.09017335  0.19129676  1
  S  S56  1  0.07581180  0.84554065  0.97403765  1
  S  S57  1  0.81156035  0.40982665  0.19129676  1
  S  S58  1  0.92418820  0.34554065  0.02596235  1
  S  S59  1  0.42418820  0.84554065  0.47403765  1
  S  S60  1  0.68843965  0.09017335  0.69129676  1
  S  S61  1  0.11923165  0.75000000  0.62061401  1
  S  S62  1  0.79512227  0.64325598  0.18604150  1
  S  S63  1  0.31156035  0.59017335  0.30870324  1
  S  S64  1  0.20487773  0.14325598  0.81395850  1
  S  S65  1  0.88076835  0.25000000  0.37938599  1
  S  S66  1  0.25365161  0.00836600  0.60623250  1
  S  S67  1  0.70487773  0.64325598  0.68604150  1
  S  S68  1  0.34148119  0.25000000  0.11111701  1
  S  S69  1  0.57581180  0.15445935  0.52596235  1
  S  S70  1  0.84148119  0.75000000  0.38888299  1
  S  S71  1  0.68843965  0.40982665  0.69129676  1
  S  S72  1  0.07581180  0.65445935  0.97403765  1
  S  S73  1  0.25365161  0.49163400  0.60623250  1
  S  S74  1  0.24634839  0.00836600  0.10623250  1
  S  S75  1  0.24634839  0.49163400  0.10623250  1
  S  S76  1  0.18843965  0.59017335  0.80870324  1
  S  S77  1  0.15851881  0.25000000  0.61111701  1
  S  S78  1  0.29512227  0.35674402  0.31395850  1
  S  S79  1  0.57581180  0.34554065  0.52596235  1
  S  S80  1  0.70487773  0.85674402  0.68604150  1
  S  S81  1  0.75365161  0.50836600  0.89376750  1
  S  S82  1  0.29512227  0.14325598  0.31395850  1
  S  S83  1  0.42418820  0.65445935  0.47403765  1
  S  S84  1  0.92418820  0.15445935  0.02596235  1
  S  S85  1  0.79512227  0.85674402  0.18604150  1
  S  S86  1  0.20487773  0.35674402  0.81395850  1
  S  S87  1  0.75365161  0.99163400  0.89376750  1
