# generated using pymatgen
data_Cs2UP2O9
_symmetry_space_group_name_H-M   'P 1'
_cell_length_a   6.33681468
_cell_length_b   12.76852041
_cell_length_c   12.94088725
_cell_angle_alpha   90.00000000
_cell_angle_beta   90.00000000
_cell_angle_gamma   90.00000000
_symmetry_Int_Tables_number   1
_chemical_formula_structural   Cs2UP2O9
_chemical_formula_sum   'Cs8 U4 P8 O36'
_cell_volume   1047.06980258
_cell_formula_units_Z   4
loop_
 _symmetry_equiv_pos_site_id
 _symmetry_equiv_pos_as_xyz
  1  'x, y, z'
loop_
 _atom_site_type_symbol
 _atom_site_label
 _atom_site_symmetry_multiplicity
 _atom_site_fract_x
 _atom_site_fract_y
 _atom_site_fract_z
 _atom_site_occupancy
  Cs  Cs0  1  0.51446052  0.75000000  0.57317076  1
  Cs  Cs1  1  0.50749390  0.42832100  0.75000000  1
  Cs  Cs2  1  0.48553948  0.25000000  0.42682924  1
  Cs  Cs3  1  0.48553948  0.25000000  0.07317076  1
  Cs  Cs4  1  0.49250610  0.57167900  0.25000000  1
  Cs  Cs5  1  0.50749390  0.07167900  0.75000000  1
  Cs  Cs6  1  0.51446052  0.75000000  0.92682924  1
  Cs  Cs7  1  0.49250610  0.92832100  0.25000000  1
  U  U8  1  0.00000000  0.00000000  0.50000000  1
  U  U9  1  0.00000000  0.50000000  0.00000000  1
  U  U10  1  0.00000000  0.50000000  0.50000000  1
  U  U11  1  0.00000000  0.00000000  0.00000000  1
  P  P12  1  0.99123121  0.25000000  0.86719376  1
  P  P13  1  0.00876879  0.75000000  0.13280624  1
  P  P14  1  0.01476504  0.86898202  0.75000000  1
  P  P15  1  0.01476504  0.63101798  0.75000000  1
  P  P16  1  0.98523496  0.13101798  0.25000000  1
  P  P17  1  0.98523496  0.36898202  0.25000000  1
  P  P18  1  0.00876879  0.75000000  0.36719376  1
  P  P19  1  0.99123121  0.25000000  0.63280624  1
  O  O20  1  0.75497115  0.25000000  0.86639689  1
  O  O21  1  0.72831274  0.45492094  0.01156522  1
  O  O22  1  0.08370763  0.25000000  0.25000000  1
  O  O23  1  0.74900423  0.13224914  0.25000000  1
  O  O24  1  0.90343025  0.65134328  0.41542396  1
  O  O25  1  0.74900423  0.36775086  0.25000000  1
  O  O26  1  0.91099078  0.75000000  0.25000000  1
  O  O27  1  0.25099577  0.86775086  0.75000000  1
  O  O28  1  0.09656975  0.15134328  0.58457604  1
  O  O29  1  0.09656975  0.34865672  0.58457604  1
  O  O30  1  0.09020433  0.41946874  0.34663951  1
  O  O31  1  0.72831274  0.04507906  0.48843478  1
  O  O32  1  0.90979567  0.58053126  0.84663951  1
  O  O33  1  0.90979567  0.58053126  0.65336049  1
  O  O34  1  0.09020433  0.08053126  0.34663951  1
  O  O35  1  0.09020433  0.08053126  0.15336049  1
  O  O36  1  0.90343025  0.65134328  0.08457604  1
  O  O37  1  0.90979567  0.91946874  0.65336049  1
  O  O38  1  0.72831274  0.04507906  0.01156522  1
  O  O39  1  0.27168726  0.95492094  0.51156522  1
  O  O40  1  0.25099577  0.63224914  0.75000000  1
  O  O41  1  0.09020433  0.41946874  0.15336049  1
  O  O42  1  0.27168726  0.95492094  0.98843478  1
  O  O43  1  0.27168726  0.54507906  0.51156522  1
  O  O44  1  0.24502885  0.75000000  0.36639689  1
  O  O45  1  0.90979567  0.91946874  0.84663951  1
  O  O46  1  0.90343025  0.84865672  0.41542396  1
  O  O47  1  0.24502885  0.75000000  0.13360311  1
  O  O48  1  0.72831274  0.45492094  0.48843478  1
  O  O49  1  0.90343025  0.84865672  0.08457604  1
  O  O50  1  0.09656975  0.34865672  0.91542396  1
  O  O51  1  0.91629237  0.75000000  0.75000000  1
  O  O52  1  0.08900922  0.25000000  0.75000000  1
  O  O53  1  0.09656975  0.15134328  0.91542396  1
  O  O54  1  0.75497115  0.25000000  0.63360311  1
  O  O55  1  0.27168726  0.54507906  0.98843478  1
