# generated using pymatgen
data_AlBiSCl4
_symmetry_space_group_name_H-M   'P 1'
_cell_length_a   10.28769688
_cell_length_b   10.28769714
_cell_length_c   10.28769680
_cell_angle_alpha   107.76482081
_cell_angle_beta   107.76482120
_cell_angle_gamma   112.94072993
_symmetry_Int_Tables_number   1
_chemical_formula_structural   AlBiSCl4
_chemical_formula_sum   'Al4 Bi4 S4 Cl16'
_cell_volume   835.85091550
_cell_formula_units_Z   4
loop_
 _symmetry_equiv_pos_site_id
 _symmetry_equiv_pos_as_xyz
  1  'x, y, z'
loop_
 _atom_site_type_symbol
 _atom_site_label
 _atom_site_symmetry_multiplicity
 _atom_site_fract_x
 _atom_site_fract_y
 _atom_site_fract_z
 _atom_site_occupancy
  Al  Al0  1  0.98098100  0.71092732  0.12027433  1
  Al  Al1  1  0.28907268  0.40934701  0.27005368  1
  Al  Al2  1  0.59065299  0.86070666  0.87972567  1
  Al  Al3  1  0.13929334  0.01901900  0.72994632  1
  Bi  Bi4  1  0.92737931  0.21529058  0.40789625  1
  Bi  Bi5  1  0.48051694  0.07262069  0.28791127  1
  Bi  Bi6  1  0.80739433  0.51948306  0.59210375  1
  Bi  Bi7  1  0.78470942  0.19260567  0.71208873  1
  S  S8  1  0.73338029  0.31810795  0.30707070  1
  S  S9  1  0.01103726  0.42630959  0.69292930  1
  S  S10  1  0.68189205  0.98896274  0.41527234  1
  S  S11  1  0.57369041  0.26661971  0.58472766  1
  Cl  Cl12  1  0.43549032  0.81917964  0.98503575  1
  Cl  Cl13  1  0.22517172  0.81330125  0.30447661  1
  Cl  Cl14  1  0.02522254  0.76748833  0.94512898  1
  Cl  Cl15  1  0.54954543  0.56450968  0.38368932  1
  Cl  Cl16  1  0.18082036  0.16585611  0.61631068  1
  Cl  Cl17  1  0.23251167  0.17764065  0.25773421  1
  Cl  Cl18  1  0.82235935  0.08009356  0.05487102  1
  Cl  Cl19  1  0.91990644  0.97477746  0.74226579  1
  Cl  Cl20  1  0.50882464  0.92069511  0.69552339  1
  Cl  Cl21  1  0.18669875  0.49117536  0.41187047  1
  Cl  Cl22  1  0.35163199  0.13549209  0.94612844  1
  Cl  Cl23  1  0.18936365  0.40550355  0.05387156  1
  Cl  Cl24  1  0.07930489  0.77482828  0.58812953  1
  Cl  Cl25  1  0.59449645  0.64836801  0.78386010  1
  Cl  Cl26  1  0.83414389  0.45045457  0.01496425  1
  Cl  Cl27  1  0.86450791  0.81063635  0.21613990  1
