# generated using pymatgen
data_K3Bi2(AsO4)3
_symmetry_space_group_name_H-M   'P 1'
_cell_length_a   7.17743716
_cell_length_b   9.99835891
_cell_length_c   9.99835896
_cell_angle_alpha   89.28426300
_cell_angle_beta   72.68308215
_cell_angle_gamma   72.68308492
_symmetry_Int_Tables_number   1
_chemical_formula_structural   K3Bi2(AsO4)3
_chemical_formula_sum   'K6 Bi4 As6 O24'
_cell_volume   651.65321433
_cell_formula_units_Z   2
loop_
 _symmetry_equiv_pos_site_id
 _symmetry_equiv_pos_as_xyz
  1  'x, y, z'
loop_
 _atom_site_type_symbol
 _atom_site_label
 _atom_site_symmetry_multiplicity
 _atom_site_fract_x
 _atom_site_fract_y
 _atom_site_fract_z
 _atom_site_occupancy
  K  K0  1  0.25000000  0.01385500  0.98614500  1
  K  K1  1  0.75000000  0.72411827  0.27588173  1
  K  K2  1  0.25000000  0.27588173  0.72411827  1
  K  K3  1  0.00000000  0.50000000  0.50000000  1
  K  K4  1  0.75000000  0.98614500  0.01385500  1
  K  K5  1  0.50000000  0.50000000  0.50000000  1
  Bi  Bi6  1  0.16567057  0.91207356  0.61597316  1
  Bi  Bi7  1  0.66567057  0.61597316  0.91207356  1
  Bi  Bi8  1  0.33432943  0.38402684  0.08792644  1
  Bi  Bi9  1  0.83432943  0.08792644  0.38402684  1
  As  As10  1  0.13925976  0.64979698  0.86134623  1
  As  As11  1  0.86074024  0.35020302  0.13865377  1
  As  As12  1  0.25000000  0.75380430  0.24619570  1
  As  As13  1  0.36074024  0.13865377  0.35020302  1
  As  As14  1  0.63925976  0.86134623  0.64979698  1
  As  As15  1  0.75000000  0.24619570  0.75380430  1
  O  O16  1  0.36052457  0.29054698  0.42463129  1
  O  O17  1  0.84428070  0.91634516  0.54822920  1
  O  O18  1  0.15571930  0.08365484  0.45177080  1
  O  O19  1  0.32741035  0.75764737  0.39228401  1
  O  O20  1  0.63947543  0.70945302  0.57536871  1
  O  O21  1  0.34428070  0.54822920  0.91634516  1
  O  O22  1  0.40901145  0.99186612  0.66303452  1
  O  O23  1  0.90901145  0.66303452  0.99186612  1
  O  O24  1  0.95198834  0.10128088  0.76492777  1
  O  O25  1  0.83754539  0.18388805  0.15696796  1
  O  O26  1  0.17258965  0.60771599  0.24235263  1
  O  O27  1  0.45198834  0.76492777  0.10128088  1
  O  O28  1  0.16245461  0.81611195  0.84303204  1
  O  O29  1  0.66245461  0.84303204  0.81611195  1
  O  O30  1  0.86052457  0.42463129  0.29054698  1
  O  O31  1  0.09098855  0.33696548  0.00813388  1
  O  O32  1  0.59098855  0.00813388  0.33696548  1
  O  O33  1  0.65571930  0.45177080  0.08365484  1
  O  O34  1  0.82741035  0.39228401  0.75764737  1
  O  O35  1  0.54801166  0.23507223  0.89871912  1
  O  O36  1  0.04801166  0.89871912  0.23507223  1
  O  O37  1  0.67258965  0.24235263  0.60771599  1
  O  O38  1  0.33754539  0.15696796  0.18388805  1
  O  O39  1  0.13947543  0.57536871  0.70945302  1
