# generated using pymatgen
data_TiNb3Cl7O2
_symmetry_space_group_name_H-M   'P 1'
_cell_length_a   9.80830357
_cell_length_b   9.80830442
_cell_length_c   12.75043940
_cell_angle_alpha   93.74787893
_cell_angle_beta   93.74787921
_cell_angle_gamma   98.29681344
_symmetry_Int_Tables_number   1
_chemical_formula_structural   TiNb3Cl7O2
_chemical_formula_sum   'Ti4 Nb12 Cl28 O8'
_cell_volume   1207.71420722
_cell_formula_units_Z   4
loop_
 _symmetry_equiv_pos_site_id
 _symmetry_equiv_pos_as_xyz
  1  'x, y, z'
loop_
 _atom_site_type_symbol
 _atom_site_label
 _atom_site_symmetry_multiplicity
 _atom_site_fract_x
 _atom_site_fract_y
 _atom_site_fract_z
 _atom_site_occupancy
  Ti  Ti0  1  0.88973107  0.11026893  0.75000000  1
  Ti  Ti1  1  0.00000000  0.00000000  0.50000000  1
  Ti  Ti2  1  0.11026893  0.88973107  0.25000000  1
  Ti  Ti3  1  0.00000000  0.00000000  0.00000000  1
  Nb  Nb4  1  0.82604718  0.44655027  0.89190567  1
  Nb  Nb5  1  0.63482529  0.09532435  0.39245791  1
  Nb  Nb6  1  0.07418338  0.33486000  0.93900099  1
  Nb  Nb7  1  0.44655027  0.82604718  0.39190567  1
  Nb  Nb8  1  0.33486000  0.07418338  0.43900099  1
  Nb  Nb9  1  0.66514000  0.92581662  0.56099901  1
  Nb  Nb10  1  0.17395282  0.55344973  0.10809433  1
  Nb  Nb11  1  0.36517471  0.90467565  0.60754209  1
  Nb  Nb12  1  0.55344973  0.17395282  0.60809433  1
  Nb  Nb13  1  0.09532435  0.63482529  0.89245791  1
  Nb  Nb14  1  0.92581662  0.66514000  0.06099901  1
  Nb  Nb15  1  0.90467565  0.36517471  0.10754209  1
  Cl  Cl16  1  0.70410718  0.31703876  0.49687636  1
  Cl  Cl17  1  0.38468004  0.61531996  0.25000000  1
  Cl  Cl18  1  0.08718992  0.41863529  0.25083396  1
  Cl  Cl19  1  0.70245326  0.63908354  0.95227947  1
  Cl  Cl20  1  0.09395815  0.12336810  0.35139271  1
  Cl  Cl21  1  0.36091646  0.29754674  0.54772053  1
  Cl  Cl22  1  0.79153151  0.54983421  0.19733971  1
  Cl  Cl23  1  0.61531996  0.38468004  0.75000000  1
  Cl  Cl24  1  0.45016579  0.20846849  0.30266029  1
  Cl  Cl25  1  0.78459318  0.98219289  0.88893984  1
  Cl  Cl26  1  0.29754674  0.36091646  0.04772053  1
  Cl  Cl27  1  0.54983421  0.79153151  0.69733971  1
  Cl  Cl28  1  0.79201128  0.20798872  0.25000000  1
  Cl  Cl29  1  0.01780711  0.21540682  0.61106016  1
  Cl  Cl30  1  0.68296124  0.29589282  0.00312364  1
  Cl  Cl31  1  0.12336810  0.09395815  0.85139271  1
  Cl  Cl32  1  0.21540682  0.01780711  0.11106016  1
  Cl  Cl33  1  0.31703876  0.70410718  0.99687636  1
  Cl  Cl34  1  0.58136471  0.91281008  0.24916604  1
  Cl  Cl35  1  0.91281008  0.58136471  0.74916604  1
  Cl  Cl36  1  0.41863529  0.08718992  0.75083396  1
  Cl  Cl37  1  0.87663190  0.90604185  0.14860729  1
  Cl  Cl38  1  0.20846849  0.45016579  0.80266029  1
  Cl  Cl39  1  0.90604185  0.87663190  0.64860729  1
  Cl  Cl40  1  0.63908354  0.70245326  0.45227947  1
  Cl  Cl41  1  0.98219289  0.78459318  0.38893984  1
  Cl  Cl42  1  0.29589282  0.68296124  0.50312364  1
  Cl  Cl43  1  0.20798872  0.79201128  0.75000000  1
  O  O44  1  0.01789553  0.80273946  0.95842334  1
  O  O45  1  0.80273946  0.01789553  0.45842334  1
  O  O46  1  0.27856050  0.90247091  0.32965192  1
  O  O47  1  0.09752909  0.72143950  0.17034808  1
  O  O48  1  0.90247091  0.27856050  0.82965192  1
  O  O49  1  0.19726054  0.98210447  0.54157666  1
  O  O50  1  0.72143950  0.09752909  0.67034808  1
  O  O51  1  0.98210447  0.19726054  0.04157666  1
