# generated using pymatgen
data_CsAl(SiO3)2
_symmetry_space_group_name_H-M   'P 1'
_cell_length_a   12.07489405
_cell_length_b   12.07489436
_cell_length_c   12.07489338
_cell_angle_alpha   108.96379695
_cell_angle_beta   109.72552747
_cell_angle_gamma   109.72552755
_symmetry_Int_Tables_number   1
_chemical_formula_structural   CsAl(SiO3)2
_chemical_formula_sum   'Cs8 Al8 Si16 O48'
_cell_volume   1355.19738090
_cell_formula_units_Z   8
loop_
 _symmetry_equiv_pos_site_id
 _symmetry_equiv_pos_as_xyz
  1  'x, y, z'
loop_
 _atom_site_type_symbol
 _atom_site_label
 _atom_site_symmetry_multiplicity
 _atom_site_fract_x
 _atom_site_fract_y
 _atom_site_fract_z
 _atom_site_occupancy
  Cs  Cs0  1  0.50452581  0.50226290  0.75226290  1
  Cs  Cs1  1  0.99547419  0.74773710  0.99773710  1
  Cs  Cs2  1  0.75000000  0.00226290  0.49773710  1
  Cs  Cs3  1  0.25000000  0.99773710  0.50226290  1
  Cs  Cs4  1  0.00452581  0.25226290  0.00226290  1
  Cs  Cs5  1  0.49547419  0.49773710  0.24773710  1
  Cs  Cs6  1  0.75000000  0.24773710  0.25226290  1
  Cs  Cs7  1  0.25000000  0.75226290  0.74773710  1
  Al  Al8  1  0.42491367  0.96245684  0.21245684  1
  Al  Al9  1  0.92491367  0.71245684  0.46245684  1
  Al  Al10  1  0.75000000  0.78754316  0.71245684  1
  Al  Al11  1  0.25000000  0.53754316  0.96245684  1
  Al  Al12  1  0.07508633  0.28754316  0.53754316  1
  Al  Al13  1  0.25000000  0.21245684  0.28754316  1
  Al  Al14  1  0.75000000  0.46245684  0.03754316  1
  Al  Al15  1  0.57508633  0.03754316  0.78754316  1
  Si  Si16  1  0.53919438  0.79227136  0.07416815  1
  Si  Si17  1  0.71810321  0.92583185  0.96502623  1
  Si  Si18  1  0.03919438  0.96502623  0.74692302  1
  Si  Si19  1  0.21810321  0.46502623  0.42583185  1
  Si  Si20  1  0.96080562  0.03497377  0.25307698  1
  Si  Si21  1  0.96080562  0.42583185  0.70772864  1
  Si  Si22  1  0.28189679  0.07416815  0.03497377  1
  Si  Si23  1  0.71810321  0.29227136  0.75307698  1
  Si  Si24  1  0.28189679  0.70772864  0.24692302  1
  Si  Si25  1  0.21810321  0.25307698  0.79227136  1
  Si  Si26  1  0.78189679  0.74692302  0.20772864  1
  Si  Si27  1  0.53919438  0.24692302  0.46502623  1
  Si  Si28  1  0.46080562  0.75307698  0.53497377  1
  Si  Si29  1  0.03919438  0.57416815  0.29227136  1
  Si  Si30  1  0.46080562  0.20772864  0.92583185  1
  Si  Si31  1  0.78189679  0.53497377  0.57416815  1
  O  O32  1  0.64628757  0.76390319  0.17226376  1
  O  O33  1  0.35371243  0.23609681  0.82773624  1
  O  O34  1  0.60806576  0.34377417  0.02645679  1
  O  O35  1  0.85371243  0.32773624  0.73609681  1
  O  O36  1  0.96300564  0.13572496  0.38184515  1
  O  O37  1  0.53699436  0.11815485  0.36427504  1
  O  O38  1  0.18268262  0.41839103  0.52645679  1
  O  O39  1  0.85371243  0.02597618  0.11761562  1
  O  O40  1  0.03699436  0.86427504  0.61815485  1
  O  O41  1  0.64628757  0.38238438  0.47402382  1
  O  O42  1  0.46300564  0.08116050  0.82728069  1
  O  O43  1  0.68268262  0.15622583  0.76429159  1
  O  O44  1  0.89193424  0.47354321  0.15622583  1
  O  O45  1  0.14628757  0.67226376  0.26390319  1
  O  O46  1  0.60806576  0.76429159  0.58160897  1
  O  O47  1  0.90836057  0.88238438  0.23609681  1
  O  O48  1  0.90836057  0.52597618  0.67226376  1
  O  O49  1  0.09163943  0.11761562  0.76390319  1
  O  O50  1  0.89193424  0.91839103  0.73570841  1
  O  O51  1  0.39193424  0.65622583  0.97354321  1
  O  O52  1  0.10806576  0.08160897  0.26429159  1
  O  O53  1  0.75387981  0.63572496  0.67271931  1
  O  O54  1  0.74612019  0.41883950  0.88184515  1
  O  O55  1  0.46300564  0.88184515  0.63572496  1
  O  O56  1  0.75387981  0.61815485  0.08116050  1
  O  O57  1  0.68268262  0.02645679  0.91839103  1
  O  O58  1  0.31731738  0.84377417  0.23570841  1
  O  O59  1  0.14628757  0.97402382  0.88238438  1
  O  O60  1  0.25387981  0.17271931  0.13572496  1
  O  O61  1  0.40836057  0.73609681  0.38238438  1
  O  O62  1  0.39193424  0.23570841  0.41839103  1
  O  O63  1  0.81731738  0.58160897  0.47354321  1
  O  O64  1  0.10806576  0.52645679  0.84377417  1
  O  O65  1  0.03699436  0.67271931  0.41883950  1
  O  O66  1  0.18268262  0.26429159  0.65622583  1
  O  O67  1  0.81731738  0.73570841  0.34377417  1
  O  O68  1  0.53699436  0.91883950  0.17271931  1
  O  O69  1  0.59163943  0.82773624  0.97402382  1
  O  O70  1  0.35371243  0.61761562  0.52597618  1
  O  O71  1  0.24612019  0.36427504  0.32728069  1
  O  O72  1  0.74612019  0.82728069  0.86427504  1
  O  O73  1  0.59163943  0.26390319  0.61761562  1
  O  O74  1  0.31731738  0.97354321  0.08160897  1
  O  O75  1  0.09163943  0.47402382  0.32773624  1
  O  O76  1  0.40836057  0.17226376  0.02597618  1
  O  O77  1  0.96300564  0.32728069  0.58116050  1
  O  O78  1  0.24612019  0.38184515  0.91883950  1
  O  O79  1  0.25387981  0.58116050  0.11815485  1
