# generated using pymatgen
data_NaZr2MnF11
_symmetry_space_group_name_H-M   'P 1'
_cell_length_a   5.82625143
_cell_length_b   5.82625143
_cell_length_c   7.94626760
_cell_angle_alpha   69.31428532
_cell_angle_beta   69.31428529
_cell_angle_gamma   72.98340752
_symmetry_Int_Tables_number   1
_chemical_formula_structural   NaZr2MnF11
_chemical_formula_sum   'Na1 Zr2 Mn1 F11'
_cell_volume   231.69677575
_cell_formula_units_Z   1
loop_
 _symmetry_equiv_pos_site_id
 _symmetry_equiv_pos_as_xyz
  1  'x, y, z'
loop_
 _atom_site_type_symbol
 _atom_site_label
 _atom_site_symmetry_multiplicity
 _atom_site_fract_x
 _atom_site_fract_y
 _atom_site_fract_z
 _atom_site_occupancy
  F  F0  1  0.80252290  0.22200926  0.69336408  1
  F  F1  1  0.77799074  0.19747710  0.30663592  1
  F  F2  1  0.19747710  0.77799074  0.30663592  1
  F  F3  1  0.22200926  0.80252290  0.69336408  1
  F  F4  1  0.50000000  0.50000000  0.50000000  1
  F  F5  1  0.33101442  0.66898558  0.00000000  1
  F  F6  1  0.66898558  0.33101442  0.00000000  1
  F  F7  1  0.25373106  0.25373106  0.35079274  1
  F  F8  1  0.74626894  0.74626894  0.64920726  1
  F  F9  1  0.26647597  0.26647597  0.89092031  1
  F  F10  1  0.73352403  0.73352403  0.10907969  1
  Na  Na11  1  0.00000000  0.00000000  0.00000000  1
  Mn  Mn12  1  0.00000000  0.00000000  0.50000000  1
  Zr  Zr13  1  0.50260395  0.50260395  0.76664285  1
  Zr  Zr14  1  0.49739605  0.49739605  0.23335715  1
