# generated using pymatgen
data_K4Mn3F12
_symmetry_space_group_name_H-M   'P 1'
_cell_length_a   8.50562279
_cell_length_b   8.50562269
_cell_length_c   10.31324193
_cell_angle_alpha   114.35343323
_cell_angle_beta   114.35343293
_cell_angle_gamma   89.99999793
_symmetry_Int_Tables_number   1
_chemical_formula_structural   K4Mn3F12
_chemical_formula_sum   'K8 Mn6 F24'
_cell_volume   606.10844370
_cell_formula_units_Z   2
loop_
 _symmetry_equiv_pos_site_id
 _symmetry_equiv_pos_as_xyz
  1  'x, y, z'
loop_
 _atom_site_type_symbol
 _atom_site_label
 _atom_site_symmetry_multiplicity
 _atom_site_fract_x
 _atom_site_fract_y
 _atom_site_fract_z
 _atom_site_occupancy
  K  K0  1  0.27877084  0.00000000  0.00000000  1
  K  K1  1  0.50000000  0.27877084  0.50000000  1
  K  K2  1  1.00000000  0.72122916  0.50000000  1
  K  K3  1  0.72122916  0.50000000  1.00000000  1
  K  K4  1  0.72122916  1.00000000  1.00000000  1
  K  K5  1  0.50000000  0.72122916  0.50000000  1
  K  K6  1  0.27877084  0.50000000  0.00000000  1
  K  K7  1  0.00000000  0.27877084  0.50000000  1
  Mn  Mn8  1  0.12500000  0.87500000  0.25000000  1
  Mn  Mn9  1  0.87500000  0.12500000  0.75000000  1
  Mn  Mn10  1  0.11772554  0.36772554  0.23545207  1
  Mn  Mn11  1  0.36772554  0.11772554  0.73545207  1
  Mn  Mn12  1  0.88227446  0.63227446  0.76454793  1
  Mn  Mn13  1  0.63227446  0.88227446  0.26454793  1
  F  F14  1  0.51888905  0.76888905  0.03777810  1
  F  F15  1  0.76888905  0.51888905  0.53777810  1
  F  F16  1  0.48111095  0.23111095  0.96222190  1
  F  F17  1  0.23111095  0.48111095  0.46222190  1
  F  F18  1  0.74802216  0.99802216  0.49604332  1
  F  F19  1  0.99802216  0.74802216  0.99604332  1
  F  F20  1  0.25197784  0.00197784  0.50395668  1
  F  F21  1  0.00197784  0.25197784  0.00395668  1
  F  F22  1  0.63326700  0.66318357  0.26653500  1
  F  F23  1  0.89664857  0.36673300  0.23346500  1
  F  F24  1  0.33681643  0.36673300  0.23346500  1
  F  F25  1  0.36673300  0.33681643  0.73346500  1
  F  F26  1  0.36673300  0.89664857  0.73346500  1
  F  F27  1  0.10335143  0.63326700  0.76653500  1
  F  F28  1  0.12022962  0.11788249  0.24046023  1
  F  F29  1  0.62257774  0.12022962  0.74046023  1
  F  F30  1  0.11788249  0.12022962  0.74046023  1
  F  F31  1  0.87977038  0.88211751  0.75953977  1
  F  F32  1  0.87977038  0.37742226  0.75953977  1
  F  F33  1  0.37742226  0.87977038  0.25953977  1
  F  F34  1  0.88211751  0.87977038  0.25953977  1
  F  F35  1  0.12022962  0.62257774  0.24046023  1
  F  F36  1  0.63326700  0.10335143  0.26653500  1
  F  F37  1  0.66318357  0.63326700  0.76653500  1
