# generated using pymatgen
data_Pr10S19
_symmetry_space_group_name_H-M   'P 1'
_cell_length_a   9.03400144
_cell_length_b   9.03400144
_cell_length_c   16.33693988
_cell_angle_alpha   90.00000000
_cell_angle_beta   90.00000000
_cell_angle_gamma   90.00000000
_symmetry_Int_Tables_number   1
_chemical_formula_structural   Pr10S19
_chemical_formula_sum   'Pr20 S38'
_cell_volume   1333.30964804
_cell_formula_units_Z   2
loop_
 _symmetry_equiv_pos_site_id
 _symmetry_equiv_pos_as_xyz
  1  'x, y, z'
loop_
 _atom_site_type_symbol
 _atom_site_label
 _atom_site_symmetry_multiplicity
 _atom_site_fract_x
 _atom_site_fract_y
 _atom_site_fract_z
 _atom_site_occupancy
  Pr  Pr0  1  0.75000000  0.25000000  0.88575124  1
  Pr  Pr1  1  0.35419303  0.44443929  0.89751553  1
  Pr  Pr2  1  0.85419303  0.94443929  0.10248447  1
  Pr  Pr3  1  0.34830697  0.45921139  0.37755028  1
  Pr  Pr4  1  0.84830697  0.95921139  0.62244972  1
  Pr  Pr5  1  0.44443929  0.14580697  0.60248447  1
  Pr  Pr6  1  0.75000000  0.25000000  0.38575124  1
  Pr  Pr7  1  0.25000000  0.75000000  0.11424876  1
  Pr  Pr8  1  0.05556071  0.35419303  0.60248447  1
  Pr  Pr9  1  0.54078861  0.84830697  0.87755028  1
  Pr  Pr10  1  0.64580697  0.55556071  0.10248447  1
  Pr  Pr11  1  0.65169303  0.54078861  0.62244972  1
  Pr  Pr12  1  0.15169303  0.04078861  0.37755028  1
  Pr  Pr13  1  0.14580697  0.05556071  0.89751553  1
  Pr  Pr14  1  0.94443929  0.64580697  0.39751553  1
  Pr  Pr15  1  0.45921139  0.15169303  0.12244972  1
  Pr  Pr16  1  0.95921139  0.65169303  0.87755028  1
  Pr  Pr17  1  0.25000000  0.75000000  0.61424876  1
  Pr  Pr18  1  0.55556071  0.85419303  0.39751553  1
  Pr  Pr19  1  0.04078861  0.34830697  0.12244972  1
  S  S20  1  0.25000000  0.75000000  0.93403712  1
  S  S21  1  0.96975530  0.19649996  0.75099224  1
  S  S22  1  0.88960566  0.42142940  0.74995722  1
  S  S23  1  0.84821513  0.95077273  0.92594491  1
  S  S24  1  0.80350004  0.46975530  0.25099224  1
  S  S25  1  0.95077273  0.65178487  0.57405509  1
  S  S26  1  0.30350004  0.96975530  0.74900776  1
  S  S27  1  0.15178487  0.04922727  0.07405509  1
  S  S28  1  0.92142940  0.11039434  0.24995722  1
  S  S29  1  0.03024470  0.80350004  0.24900776  1
  S  S30  1  0.38960566  0.92142940  0.25004278  1
  S  S31  1  0.25000000  0.25000000  0.25000000  1
  S  S32  1  0.14817435  0.05302298  0.56200582  1
  S  S33  1  0.45077273  0.15178487  0.42594491  1
  S  S34  1  0.55302298  0.85182565  0.06200582  1
  S  S35  1  0.46975530  0.69649996  0.24900776  1
  S  S36  1  0.35182565  0.44697702  0.56200582  1
  S  S37  1  0.54922727  0.84821513  0.57405509  1
  S  S38  1  0.53024470  0.30350004  0.75099224  1
  S  S39  1  0.11039434  0.57857060  0.25004278  1
  S  S40  1  0.19649996  0.53024470  0.74900776  1
  S  S41  1  0.34821513  0.45077273  0.07405509  1
  S  S42  1  0.57857060  0.38960566  0.24995722  1
  S  S43  1  0.75000000  0.25000000  0.56596288  1
  S  S44  1  0.42142940  0.61039434  0.75004278  1
  S  S45  1  0.25000000  0.75000000  0.43403712  1
  S  S46  1  0.07857060  0.88960566  0.75004278  1
  S  S47  1  0.64817435  0.55302298  0.43799418  1
  S  S48  1  0.61039434  0.07857060  0.74995722  1
  S  S49  1  0.85182565  0.94697702  0.43799418  1
  S  S50  1  0.69649996  0.03024470  0.25099224  1
  S  S51  1  0.04922727  0.34821513  0.42594491  1
  S  S52  1  0.44697702  0.14817435  0.93799418  1
  S  S53  1  0.94697702  0.64817435  0.06200582  1
  S  S54  1  0.65178487  0.54922727  0.92594491  1
  S  S55  1  0.75000000  0.25000000  0.06596288  1
  S  S56  1  0.75000000  0.75000000  0.75000000  1
  S  S57  1  0.05302298  0.35182565  0.93799418  1
