# generated using pymatgen
data_SrV4(AgO6)2
_symmetry_space_group_name_H-M   'P 1'
_cell_length_a   5.08656256
_cell_length_b   10.73786850
_cell_length_c   10.73786850
_cell_angle_alpha   90.00000000
_cell_angle_beta   90.00000000
_cell_angle_gamma   90.00000000
_symmetry_Int_Tables_number   1
_chemical_formula_structural   SrV4(AgO6)2
_chemical_formula_sum   'Sr2 V8 Ag4 O24'
_cell_volume   586.48992032
_cell_formula_units_Z   2
loop_
 _symmetry_equiv_pos_site_id
 _symmetry_equiv_pos_as_xyz
  1  'x, y, z'
loop_
 _atom_site_type_symbol
 _atom_site_label
 _atom_site_symmetry_multiplicity
 _atom_site_fract_x
 _atom_site_fract_y
 _atom_site_fract_z
 _atom_site_occupancy
  Sr  Sr0  1  0.50000000  0.25000000  0.25000000  1
  Sr  Sr1  1  0.50000000  0.75000000  0.75000000  1
  V  V2  1  0.00000000  0.46727415  0.75000000  1
  V  V3  1  0.00000000  0.75000000  0.46727415  1
  V  V4  1  0.00000000  0.53272585  0.25000000  1
  V  V5  1  0.00000000  0.25000000  0.96727415  1
  V  V6  1  0.00000000  0.03272585  0.75000000  1
  V  V7  1  0.00000000  0.96727415  0.25000000  1
  V  V8  1  0.00000000  0.75000000  0.03272585  1
  V  V9  1  0.00000000  0.25000000  0.53272585  1
  Ag  Ag10  1  0.50000000  0.00000000  0.00000000  1
  Ag  Ag11  1  0.50000000  0.50000000  0.00000000  1
  Ag  Ag12  1  0.50000000  0.50000000  0.50000000  1
  Ag  Ag13  1  0.50000000  0.00000000  0.50000000  1
  O  O14  1  0.23675131  0.55323548  0.68033566  1
  O  O15  1  0.23675131  0.68033566  0.94676452  1
  O  O16  1  0.23675131  0.31966434  0.44676452  1
  O  O17  1  0.76324869  0.44676452  0.31966434  1
  O  O18  1  0.15102996  0.13296389  0.63296389  1
  O  O19  1  0.23675131  0.44676452  0.18033566  1
  O  O20  1  0.15102996  0.63296389  0.36703611  1
  O  O21  1  0.84897004  0.13296389  0.86703611  1
  O  O22  1  0.23675131  0.81966434  0.55323548  1
  O  O23  1  0.84897004  0.63296389  0.13296389  1
  O  O24  1  0.76324869  0.05323548  0.18033566  1
  O  O25  1  0.23675131  0.18033566  0.05323548  1
  O  O26  1  0.23675131  0.05323548  0.31966434  1
  O  O27  1  0.76324869  0.55323548  0.81966434  1
  O  O28  1  0.76324869  0.68033566  0.55323548  1
  O  O29  1  0.15102996  0.36703611  0.86703611  1
  O  O30  1  0.84897004  0.86703611  0.36703611  1
  O  O31  1  0.76324869  0.94676452  0.68033566  1
  O  O32  1  0.76324869  0.31966434  0.05323548  1
  O  O33  1  0.76324869  0.18033566  0.44676452  1
  O  O34  1  0.15102996  0.86703611  0.13296389  1
  O  O35  1  0.84897004  0.36703611  0.63296389  1
  O  O36  1  0.23675131  0.94676452  0.81966434  1
  O  O37  1  0.76324869  0.81966434  0.94676452  1
