# generated using pymatgen
data_La23Cd4Pt7
_symmetry_space_group_name_H-M   'P 1'
_cell_length_a   10.26355807
_cell_length_b   10.26355764
_cell_length_c   23.34585980
_cell_angle_alpha   90.00000000
_cell_angle_beta   90.00000000
_cell_angle_gamma   120.00000135
_symmetry_Int_Tables_number   1
_chemical_formula_structural   La23Cd4Pt7
_chemical_formula_sum   'La46 Cd8 Pt14'
_cell_volume   2129.78796433
_cell_formula_units_Z   2
loop_
 _symmetry_equiv_pos_site_id
 _symmetry_equiv_pos_as_xyz
  1  'x, y, z'
loop_
 _atom_site_type_symbol
 _atom_site_label
 _atom_site_symmetry_multiplicity
 _atom_site_fract_x
 _atom_site_fract_y
 _atom_site_fract_z
 _atom_site_occupancy
  La  La0  1  0.40999329  0.20499664  0.94558514  1
  La  La1  1  0.33333300  0.66666700  0.14480445  1
  La  La2  1  0.57839051  0.78919525  0.99146632  1
  La  La3  1  0.12809990  0.87190010  0.13540789  1
  La  La4  1  0.20563416  0.79436584  0.72066377  1
  La  La5  1  0.91512947  0.45756474  0.35593672  1
  La  La6  1  0.92061456  0.46030728  0.08499468  1
  La  La7  1  0.07938544  0.53969272  0.58499468  1
  La  La8  1  0.78919525  0.21080475  0.49146632  1
  La  La9  1  0.12809990  0.25619981  0.13540789  1
  La  La10  1  0.20012577  0.40025154  0.28367317  1
  La  La11  1  0.59000671  0.79500336  0.44558514  1
  La  La12  1  0.87190010  0.12809990  0.63540789  1
  La  La13  1  0.58873168  0.79436584  0.72066377  1
  La  La14  1  0.79500336  0.20499664  0.94558514  1
  La  La15  1  0.21080475  0.78919525  0.99146632  1
  La  La16  1  0.40025154  0.20012577  0.78367317  1
  La  La17  1  0.20499664  0.40999329  0.44558514  1
  La  La18  1  0.53969272  0.07938544  0.08499468  1
  La  La19  1  0.79500336  0.59000671  0.94558514  1
  La  La20  1  0.42160949  0.21080475  0.49146632  1
  La  La21  1  0.08487053  0.54243526  0.85593672  1
  La  La22  1  0.46030728  0.53969272  0.58499468  1
  La  La23  1  0.79987423  0.59974846  0.78367317  1
  La  La24  1  0.20563416  0.41126832  0.72066377  1
  La  La25  1  0.00000000  0.00000000  0.49365877  1
  La  La26  1  0.59974846  0.79987423  0.28367317  1
  La  La27  1  0.20012577  0.79987423  0.28367317  1
  La  La28  1  0.79987423  0.20012577  0.78367317  1
  La  La29  1  0.66666700  0.33333300  0.64480445  1
  La  La30  1  0.54243526  0.08487053  0.35593672  1
  La  La31  1  0.25619981  0.12809990  0.63540789  1
  La  La32  1  0.00000000  0.00000000  0.99365877  1
  La  La33  1  0.20499664  0.79500336  0.44558514  1
  La  La34  1  0.45756474  0.54243526  0.85593672  1
  La  La35  1  0.79436584  0.58873168  0.22066377  1
  La  La36  1  0.45756474  0.91512947  0.85593672  1
  La  La37  1  0.79436584  0.20563416  0.22066377  1
  La  La38  1  0.21080475  0.42160949  0.99146632  1
  La  La39  1  0.78919525  0.57839051  0.49146632  1
  La  La40  1  0.46030728  0.92061456  0.58499468  1
  La  La41  1  0.54243526  0.45756474  0.35593672  1
  La  La42  1  0.53969272  0.46030728  0.08499468  1
  La  La43  1  0.87190010  0.74380019  0.63540789  1
  La  La44  1  0.74380019  0.87190010  0.13540789  1
  La  La45  1  0.41126832  0.20563416  0.22066377  1
  Cd  Cd46  1  0.21370412  0.10685206  0.36298363  1
  Cd  Cd47  1  0.00000000  0.00000000  0.24921205  1
  Cd  Cd48  1  0.10685206  0.21370412  0.86298363  1
  Cd  Cd49  1  0.89314794  0.78629588  0.36298363  1
  Cd  Cd50  1  0.89314794  0.10685206  0.36298363  1
  Cd  Cd51  1  0.00000000  0.00000000  0.74921205  1
  Cd  Cd52  1  0.10685206  0.89314794  0.86298363  1
  Cd  Cd53  1  0.78629588  0.89314794  0.86298363  1
  Pt  Pt54  1  0.66666700  0.33333300  0.86189288  1
  Pt  Pt55  1  0.33333300  0.66666700  0.36189288  1
  Pt  Pt56  1  0.95685158  0.47842579  0.71201078  1
  Pt  Pt57  1  0.47842579  0.52157421  0.21201078  1
  Pt  Pt58  1  0.52157421  0.47842579  0.71201078  1
  Pt  Pt59  1  0.52157421  0.04314842  0.71201078  1
  Pt  Pt60  1  0.14203213  0.85796787  0.56301185  1
  Pt  Pt61  1  0.85796787  0.71593573  0.06301185  1
  Pt  Pt62  1  0.04314842  0.52157421  0.21201078  1
  Pt  Pt63  1  0.14203213  0.28406427  0.56301185  1
  Pt  Pt64  1  0.28406427  0.14203213  0.06301185  1
  Pt  Pt65  1  0.85796787  0.14203213  0.06301185  1
  Pt  Pt66  1  0.71593573  0.85796787  0.56301185  1
  Pt  Pt67  1  0.47842579  0.95685158  0.21201078  1
