# generated using pymatgen
data_K8NbAs5Pb
_symmetry_space_group_name_H-M   'P 1'
_cell_length_a   9.48042696
_cell_length_b   13.62018208
_cell_length_c   16.73683973
_cell_angle_alpha   94.86426332
_cell_angle_beta   106.45249745
_cell_angle_gamma   90.00000152
_symmetry_Int_Tables_number   1
_chemical_formula_structural   K8NbAs5Pb
_chemical_formula_sum   'K32 Nb4 As20 Pb4'
_cell_volume   2064.54115022
_cell_formula_units_Z   4
loop_
 _symmetry_equiv_pos_site_id
 _symmetry_equiv_pos_as_xyz
  1  'x, y, z'
loop_
 _atom_site_type_symbol
 _atom_site_label
 _atom_site_symmetry_multiplicity
 _atom_site_fract_x
 _atom_site_fract_y
 _atom_site_fract_z
 _atom_site_occupancy
  K  K0  1  0.36186781  0.28252106  0.64699904  1
  K  K1  1  0.01398770  0.61862911  0.08040839  1
  K  K2  1  0.60715326  0.28964406  0.87281427  1
  K  K3  1  0.80848125  0.94528020  0.53209023  1
  K  K4  1  0.40097892  0.39276717  0.03926595  1
  K  K5  1  0.19151875  0.05471980  0.46790977  1
  K  K6  1  0.63813219  0.71747894  0.35300096  1
  K  K7  1  0.17908701  0.04151483  0.70100028  1
  K  K8  1  0.71486877  0.21747894  0.35300096  1
  K  K9  1  0.84417189  0.10134902  0.77073783  1
  K  K10  1  0.52191327  0.54151483  0.70100028  1
  K  K11  1  0.93357931  0.88137089  0.91959161  1
  K  K12  1  0.15582811  0.89865098  0.22926217  1
  K  K13  1  0.47808673  0.45848517  0.29899972  1
  K  K14  1  0.82091299  0.95848517  0.29899972  1
  K  K15  1  0.93125634  0.66889259  0.55212441  1
  K  K16  1  0.07343406  0.39865098  0.22926217  1
  K  K17  1  0.63828703  0.89276717  0.03926595  1
  K  K18  1  0.36171297  0.10723283  0.96073405  1
  K  K19  1  0.92656594  0.60134902  0.77073783  1
  K  K20  1  0.62086807  0.16889259  0.55212441  1
  K  K21  1  0.39284674  0.71035594  0.12718573  1
  K  K22  1  0.37913193  0.83110741  0.44787559  1
  K  K23  1  0.59902108  0.60723283  0.96073405  1
  K  K24  1  0.27639102  0.55471980  0.46790977  1
  K  K25  1  0.72360898  0.44528020  0.53209023  1
  K  K26  1  0.06642069  0.11862911  0.08040839  1
  K  K27  1  0.73433898  0.21035594  0.12718573  1
  K  K28  1  0.06874366  0.33110741  0.44787559  1
  K  K29  1  0.28513123  0.78252106  0.64699904  1
  K  K30  1  0.98601230  0.38137089  0.91959161  1
  K  K31  1  0.26566102  0.78964406  0.87281427  1
  Nb  Nb32  1  0.31745240  0.18217522  0.31374182  1
  Nb  Nb33  1  0.99628942  0.68217522  0.31374182  1
  Nb  Nb34  1  0.68254760  0.81782478  0.68625818  1
  Nb  Nb35  1  0.00371058  0.31782478  0.68625818  1
  As  As36  1  0.76296460  0.35037920  0.71689755  1
  As  As37  1  0.59846071  0.68568275  0.56974608  1
  As  As38  1  0.47052670  0.02802112  0.35271269  1
  As  As39  1  0.11781401  0.47197888  0.64728731  1
  As  As40  1  0.80132051  0.73769083  0.18693692  1
  As  As41  1  0.02871463  0.81431725  0.43025392  1
  As  As42  1  0.27079591  0.92184259  0.05687463  1
  As  As43  1  0.21392129  0.57815741  0.94312537  1
  As  As44  1  0.78607871  0.42184259  0.05687463  1
  As  As45  1  0.95393295  0.85037920  0.71689755  1
  As  As46  1  0.38561641  0.23769083  0.18693692  1
  As  As47  1  0.40153929  0.31431725  0.43025392  1
  As  As48  1  0.97128537  0.18568275  0.56974608  1
  As  As49  1  0.04606705  0.14962080  0.28310245  1
  As  As50  1  0.72920409  0.07815741  0.94312537  1
  As  As51  1  0.52947330  0.97197888  0.64728731  1
  As  As52  1  0.88218599  0.52802112  0.35271269  1
  As  As53  1  0.61438359  0.76230917  0.81306308  1
  As  As54  1  0.23703540  0.64962080  0.28310245  1
  As  As55  1  0.19867949  0.26230917  0.81306308  1
  Pb  Pb56  1  0.52472671  0.96433565  0.81921556  1
  Pb  Pb57  1  0.47527329  0.03566435  0.18078444  1
  Pb  Pb58  1  0.29448885  0.46433565  0.81921556  1
  Pb  Pb59  1  0.70551115  0.53566435  0.18078444  1
