# generated using pymatgen
data_Pd(Se4Cl)2
_symmetry_space_group_name_H-M   'P 1'
_cell_length_a   9.21510999
_cell_length_b   10.26084766
_cell_length_c   14.46839856
_cell_angle_alpha   90.00000000
_cell_angle_beta   90.00000000
_cell_angle_gamma   90.00000000
_symmetry_Int_Tables_number   1
_chemical_formula_structural   Pd(Se4Cl)2
_chemical_formula_sum   'Pd4 Se32 Cl8'
_cell_volume   1368.05710768
_cell_formula_units_Z   4
loop_
 _symmetry_equiv_pos_site_id
 _symmetry_equiv_pos_as_xyz
  1  'x, y, z'
loop_
 _atom_site_type_symbol
 _atom_site_label
 _atom_site_symmetry_multiplicity
 _atom_site_fract_x
 _atom_site_fract_y
 _atom_site_fract_z
 _atom_site_occupancy
  Pd  Pd0  1  0.50000000  0.00000000  0.00000000  1
  Pd  Pd1  1  0.50000000  0.50000000  0.50000000  1
  Pd  Pd2  1  0.00000000  0.50000000  0.00000000  1
  Pd  Pd3  1  0.00000000  0.00000000  0.50000000  1
  Se  Se4  1  0.30517527  0.03096347  0.11340752  1
  Se  Se5  1  0.13022409  0.15373182  0.02709891  1
  Se  Se6  1  0.92320898  0.62292198  0.37752423  1
  Se  Se7  1  0.19482473  0.53096347  0.88659248  1
  Se  Se8  1  0.57679102  0.12292198  0.62247577  1
  Se  Se9  1  0.86977591  0.84626818  0.97290109  1
  Se  Se10  1  0.36977591  0.65373182  0.97290109  1
  Se  Se11  1  0.69482473  0.96903653  0.88659248  1
  Se  Se12  1  0.08777360  0.19424855  0.71764665  1
  Se  Se13  1  0.19482473  0.03096347  0.61340752  1
  Se  Se14  1  0.92320898  0.12292198  0.12247577  1
  Se  Se15  1  0.30517527  0.53096347  0.38659248  1
  Se  Se16  1  0.91222640  0.80575145  0.28235335  1
  Se  Se17  1  0.63022409  0.34626818  0.02709891  1
  Se  Se18  1  0.41222640  0.19424855  0.21764665  1
  Se  Se19  1  0.86977591  0.34626818  0.52709891  1
  Se  Se20  1  0.80517527  0.96903653  0.38659248  1
  Se  Se21  1  0.41222640  0.69424855  0.28235335  1
  Se  Se22  1  0.91222640  0.30575145  0.21764665  1
  Se  Se23  1  0.07679102  0.37707802  0.62247577  1
  Se  Se24  1  0.42320898  0.87707802  0.37752423  1
  Se  Se25  1  0.57679102  0.62292198  0.87752423  1
  Se  Se26  1  0.69482473  0.46903653  0.61340752  1
  Se  Se27  1  0.58777360  0.30575145  0.71764665  1
  Se  Se28  1  0.42320898  0.37707802  0.12247577  1
  Se  Se29  1  0.08777360  0.69424855  0.78235335  1
  Se  Se30  1  0.07679102  0.87707802  0.87752423  1
  Se  Se31  1  0.36977591  0.15373182  0.52709891  1
  Se  Se32  1  0.13022409  0.65373182  0.47290109  1
  Se  Se33  1  0.80517527  0.46903653  0.11340752  1
  Se  Se34  1  0.63022409  0.84626818  0.47290109  1
  Se  Se35  1  0.58777360  0.80575145  0.78235335  1
  Cl  Cl36  1  0.90877482  0.34452061  0.89751331  1
  Cl  Cl37  1  0.90877482  0.84452061  0.60248669  1
  Cl  Cl38  1  0.09122518  0.15547939  0.39751331  1
  Cl  Cl39  1  0.40877482  0.15547939  0.89751331  1
  Cl  Cl40  1  0.59122518  0.34452061  0.39751331  1
  Cl  Cl41  1  0.09122518  0.65547939  0.10248669  1
  Cl  Cl42  1  0.40877482  0.65547939  0.60248669  1
  Cl  Cl43  1  0.59122518  0.84452061  0.10248669  1
