# generated using pymatgen
data_Ba3WCl2O5
_symmetry_space_group_name_H-M   'P 1'
_cell_length_a   5.91836456
_cell_length_b   7.61342168
_cell_length_c   11.71430374
_cell_angle_alpha   90.00000000
_cell_angle_beta   90.00000000
_cell_angle_gamma   112.87236998
_symmetry_Int_Tables_number   1
_chemical_formula_structural   Ba3WCl2O5
_chemical_formula_sum   'Ba6 W2 Cl4 O10'
_cell_volume   486.33277098
_cell_formula_units_Z   2
loop_
 _symmetry_equiv_pos_site_id
 _symmetry_equiv_pos_as_xyz
  1  'x, y, z'
loop_
 _atom_site_type_symbol
 _atom_site_label
 _atom_site_symmetry_multiplicity
 _atom_site_fract_x
 _atom_site_fract_y
 _atom_site_fract_z
 _atom_site_occupancy
  Ba  Ba0  1  0.65389595  0.30779190  0.95561493  1
  Ba  Ba1  1  0.34610405  0.69220810  0.45561493  1
  Ba  Ba2  1  0.65389595  0.30779190  0.54438507  1
  Ba  Ba3  1  0.90865973  0.81731946  0.75000000  1
  Ba  Ba4  1  0.34610405  0.69220810  0.04438507  1
  Ba  Ba5  1  0.09134027  0.18268054  0.25000000  1
  W  W6  1  0.75378225  0.50756451  0.25000000  1
  W  W7  1  0.24621775  0.49243549  0.75000000  1
  Cl  Cl8  1  0.49557785  0.99115570  0.75000000  1
  Cl  Cl9  1  0.00000000  0.00000000  0.00000000  1
  Cl  Cl10  1  0.00000000  0.00000000  0.50000000  1
  Cl  Cl11  1  0.50442215  0.00884430  0.25000000  1
  O  O12  1  0.94337982  0.43880923  0.13636313  1
  O  O13  1  0.11902061  0.23804122  0.75000000  1
  O  O14  1  0.50457059  0.56119077  0.63636313  1
  O  O15  1  0.05662018  0.56119077  0.86363687  1
  O  O16  1  0.88097939  0.76195878  0.25000000  1
  O  O17  1  0.05662018  0.56119077  0.63636313  1
  O  O18  1  0.50457059  0.56119077  0.86363687  1
  O  O19  1  0.49542941  0.43880923  0.13636313  1
  O  O20  1  0.94337982  0.43880923  0.36363687  1
  O  O21  1  0.49542941  0.43880923  0.36363687  1
