# generated using pymatgen
data_Na3Fe2(AsO4)3
_symmetry_space_group_name_H-M   'P 1'
_cell_length_a   10.76138919
_cell_length_b   10.76138946
_cell_length_c   10.76138923
_cell_angle_alpha   109.47121825
_cell_angle_beta   109.47121873
_cell_angle_gamma   109.47122479
_symmetry_Int_Tables_number   1
_chemical_formula_structural   Na3Fe2(AsO4)3
_chemical_formula_sum   'Na12 Fe8 As12 O48'
_cell_volume   959.36337922
_cell_formula_units_Z   4
loop_
 _symmetry_equiv_pos_site_id
 _symmetry_equiv_pos_as_xyz
  1  'x, y, z'
loop_
 _atom_site_type_symbol
 _atom_site_label
 _atom_site_symmetry_multiplicity
 _atom_site_fract_x
 _atom_site_fract_y
 _atom_site_fract_z
 _atom_site_occupancy
  Na  Na0  1  0.25000000  0.37500000  0.12500000  1
  Na  Na1  1  0.37500000  0.75000000  0.12500000  1
  Na  Na2  1  0.87500000  0.62500000  0.25000000  1
  Na  Na3  1  0.12500000  0.37500000  0.75000000  1
  Na  Na4  1  0.37500000  0.12500000  0.25000000  1
  Na  Na5  1  0.62500000  0.25000000  0.87500000  1
  Na  Na6  1  0.87500000  0.75000000  0.62500000  1
  Na  Na7  1  0.12500000  0.25000000  0.37500000  1
  Na  Na8  1  0.25000000  0.87500000  0.62500000  1
  Na  Na9  1  0.62500000  0.87500000  0.75000000  1
  Na  Na10  1  0.75000000  0.12500000  0.37500000  1
  Na  Na11  1  0.75000000  0.62500000  0.87500000  1
  Fe  Fe12  1  0.50000000  0.00000000  0.50000000  1
  Fe  Fe13  1  0.50000000  0.50000000  0.50000000  1
  Fe  Fe14  1  0.00000000  0.00000000  0.00000000  1
  Fe  Fe15  1  0.00000000  0.50000000  0.00000000  1
  Fe  Fe16  1  0.50000000  0.00000000  0.00000000  1
  Fe  Fe17  1  0.00000000  0.50000000  0.50000000  1
  Fe  Fe18  1  0.50000000  0.50000000  0.00000000  1
  Fe  Fe19  1  0.00000000  0.00000000  0.50000000  1
  As  As20  1  0.12500000  0.75000000  0.87500000  1
  As  As21  1  0.37500000  0.62500000  0.75000000  1
  As  As22  1  0.25000000  0.62500000  0.37500000  1
  As  As23  1  0.87500000  0.12500000  0.75000000  1
  As  As24  1  0.62500000  0.75000000  0.37500000  1
  As  As25  1  0.37500000  0.25000000  0.62500000  1
  As  As26  1  0.87500000  0.25000000  0.12500000  1
  As  As27  1  0.75000000  0.87500000  0.12500000  1
  As  As28  1  0.25000000  0.12500000  0.87500000  1
  As  As29  1  0.75000000  0.37500000  0.62500000  1
  As  As30  1  0.62500000  0.37500000  0.25000000  1
  As  As31  1  0.12500000  0.87500000  0.25000000  1
  O  O32  1  0.38564575  0.29934571  0.48996509  1
  O  O33  1  0.11435425  0.01003491  0.20065429  1
  O  O34  1  0.88564575  0.98996509  0.79934571  1
  O  O35  1  0.69061939  0.10431934  0.98996509  1
  O  O36  1  0.39568066  0.80938061  0.51003491  1
  O  O37  1  0.89568066  0.01003491  0.30938061  1
  O  O38  1  0.10431934  0.98996509  0.69061939  1
  O  O39  1  0.70065429  0.69061939  0.08630005  1
  O  O40  1  0.79934571  0.41369995  0.80938061  1
  O  O41  1  0.29934571  0.48996509  0.38564575  1
  O  O42  1  0.80938061  0.51003491  0.39568066  1
  O  O43  1  0.10431934  0.61435425  0.41369995  1
  O  O44  1  0.51003491  0.39568066  0.80938061  1
  O  O45  1  0.70065429  0.51003491  0.61435425  1
  O  O46  1  0.01003491  0.20065429  0.11435425  1
  O  O47  1  0.20065429  0.58630005  0.19061939  1
  O  O48  1  0.41369995  0.10431934  0.61435425  1
  O  O49  1  0.08630005  0.70065429  0.69061939  1
  O  O50  1  0.80938061  0.79934571  0.41369995  1
  O  O51  1  0.60431934  0.19061939  0.48996509  1
  O  O52  1  0.41369995  0.80938061  0.79934571  1
  O  O53  1  0.01003491  0.30938061  0.89568066  1
  O  O54  1  0.51003491  0.61435425  0.70065429  1
  O  O55  1  0.58630005  0.19061939  0.20065429  1
  O  O56  1  0.11435425  0.60431934  0.91369995  1
  O  O57  1  0.30938061  0.91369995  0.29934571  1
  O  O58  1  0.19061939  0.20065429  0.58630005  1
  O  O59  1  0.88564575  0.39568066  0.08630005  1
  O  O60  1  0.79934571  0.88564575  0.98996509  1
  O  O61  1  0.61435425  0.70065429  0.51003491  1
  O  O62  1  0.29934571  0.30938061  0.91369995  1
  O  O63  1  0.69061939  0.08630005  0.70065429  1
  O  O64  1  0.98996509  0.69061939  0.10431934  1
  O  O65  1  0.19061939  0.48996509  0.60431934  1
  O  O66  1  0.61435425  0.41369995  0.10431934  1
  O  O67  1  0.60431934  0.91369995  0.11435425  1
  O  O68  1  0.38564575  0.58630005  0.89568066  1
  O  O69  1  0.91369995  0.29934571  0.30938061  1
  O  O70  1  0.58630005  0.89568066  0.38564575  1
  O  O71  1  0.89568066  0.38564575  0.58630005  1
  O  O72  1  0.30938061  0.89568066  0.01003491  1
  O  O73  1  0.48996509  0.38564575  0.29934571  1
  O  O74  1  0.98996509  0.79934571  0.88564575  1
  O  O75  1  0.48996509  0.60431934  0.19061939  1
  O  O76  1  0.08630005  0.88564575  0.39568066  1
  O  O77  1  0.39568066  0.08630005  0.88564575  1
  O  O78  1  0.20065429  0.11435425  0.01003491  1
  O  O79  1  0.91369995  0.11435425  0.60431934  1
