# generated using pymatgen
data_Ce2Ga12Ni
_symmetry_space_group_name_H-M   'P 1'
_cell_length_a   6.04075604
_cell_length_b   6.04075604
_cell_length_c   15.56461433
_cell_angle_alpha   90.00000000
_cell_angle_beta   90.00000000
_cell_angle_gamma   90.00000000
_symmetry_Int_Tables_number   1
_chemical_formula_structural   Ce2Ga12Ni
_chemical_formula_sum   'Ce4 Ga24 Ni2'
_cell_volume   567.96419409
_cell_formula_units_Z   2
loop_
 _symmetry_equiv_pos_site_id
 _symmetry_equiv_pos_as_xyz
  1  'x, y, z'
loop_
 _atom_site_type_symbol
 _atom_site_label
 _atom_site_symmetry_multiplicity
 _atom_site_fract_x
 _atom_site_fract_y
 _atom_site_fract_z
 _atom_site_occupancy
  Ce  Ce0  1  0.25000000  0.75000000  0.75699268  1
  Ce  Ce1  1  0.25000000  0.75000000  0.24300732  1
  Ce  Ce2  1  0.75000000  0.25000000  0.24300732  1
  Ce  Ce3  1  0.75000000  0.25000000  0.75699268  1
  Ga  Ga4  1  0.92594889  0.42594889  0.42744466  1
  Ga  Ga5  1  0.42594889  0.92594889  0.57255534  1
  Ga  Ga6  1  0.25000000  0.25000000  0.33856781  1
  Ga  Ga7  1  0.99973206  0.00026794  0.08381298  1
  Ga  Ga8  1  0.99973206  0.49973206  0.91618702  1
  Ga  Ga9  1  0.00026794  0.50026794  0.08381298  1
  Ga  Ga10  1  0.49973206  0.50026794  0.91618702  1
  Ga  Ga11  1  0.75000000  0.75000000  0.81779335  1
  Ga  Ga12  1  0.07405111  0.57405111  0.57255534  1
  Ga  Ga13  1  0.50026794  0.00026794  0.91618702  1
  Ga  Ga14  1  0.25000000  0.25000000  0.81779335  1
  Ga  Ga15  1  0.07405111  0.92594889  0.42744466  1
  Ga  Ga16  1  0.57405111  0.07405111  0.42744466  1
  Ga  Ga17  1  0.75000000  0.75000000  0.33856781  1
  Ga  Ga18  1  0.75000000  0.75000000  0.18220665  1
  Ga  Ga19  1  0.49973206  0.99973206  0.08381298  1
  Ga  Ga20  1  0.92594889  0.07405111  0.57255534  1
  Ga  Ga21  1  0.00026794  0.99973206  0.91618702  1
  Ga  Ga22  1  0.57405111  0.42594889  0.57255534  1
  Ga  Ga23  1  0.50026794  0.49973206  0.08381298  1
  Ga  Ga24  1  0.75000000  0.75000000  0.66143219  1
  Ga  Ga25  1  0.42594889  0.57405111  0.42744466  1
  Ga  Ga26  1  0.25000000  0.25000000  0.18220665  1
  Ga  Ga27  1  0.25000000  0.25000000  0.66143219  1
  Ni  Ni28  1  0.25000000  0.75000000  0.00000000  1
  Ni  Ni29  1  0.75000000  0.25000000  0.00000000  1
