# generated using pymatgen
data_Er5(CoTe)2
_symmetry_space_group_name_H-M   'P 1'
_cell_length_a   3.91027626
_cell_length_b   7.72046440
_cell_length_c   14.94901467
_cell_angle_alpha   90.00000000
_cell_angle_beta   90.00000000
_cell_angle_gamma   104.66938115
_symmetry_Int_Tables_number   1
_chemical_formula_structural   Er5(CoTe)2
_chemical_formula_sum   'Er10 Co4 Te4'
_cell_volume   436.58716485
_cell_formula_units_Z   2
loop_
 _symmetry_equiv_pos_site_id
 _symmetry_equiv_pos_as_xyz
  1  'x, y, z'
loop_
 _atom_site_type_symbol
 _atom_site_label
 _atom_site_symmetry_multiplicity
 _atom_site_fract_x
 _atom_site_fract_y
 _atom_site_fract_z
 _atom_site_occupancy
  Er  Er0  1  0.39349112  0.78698224  0.25000000  1
  Er  Er1  1  0.25877466  0.51754932  0.63122180  1
  Er  Er2  1  0.03846185  0.07692370  0.12659541  1
  Er  Er3  1  0.96153815  0.92307630  0.87340459  1
  Er  Er4  1  0.60650888  0.21301776  0.75000000  1
  Er  Er5  1  0.03846185  0.07692370  0.37340459  1
  Er  Er6  1  0.96153815  0.92307630  0.62659541  1
  Er  Er7  1  0.74122534  0.48245068  0.13122180  1
  Er  Er8  1  0.74122534  0.48245068  0.36877820  1
  Er  Er9  1  0.25877466  0.51754932  0.86877820  1
  Co  Co10  1  0.58773177  0.17546353  0.25000000  1
  Co  Co11  1  0.41226823  0.82453647  0.75000000  1
  Co  Co12  1  0.18049494  0.36098987  0.25000000  1
  Co  Co13  1  0.81950506  0.63901013  0.75000000  1
  Te  Te14  1  0.38213300  0.76426600  0.03797524  1
  Te  Te15  1  0.38213300  0.76426600  0.46202476  1
  Te  Te16  1  0.61786700  0.23573400  0.53797524  1
  Te  Te17  1  0.61786700  0.23573400  0.96202476  1
