# generated using pymatgen
data_Ba14MnBi11
_symmetry_space_group_name_H-M   'P 1'
_cell_length_a   18.23613082
_cell_length_b   18.23623332
_cell_length_c   18.23623336
_cell_angle_alpha   94.47294613
_cell_angle_beta   117.45212746
_cell_angle_gamma   117.45212891
_symmetry_Int_Tables_number   1
_chemical_formula_structural   Ba14MnBi11
_chemical_formula_sum   'Ba56 Mn4 Bi44'
_cell_volume   4438.83532121
_cell_formula_units_Z   4
loop_
 _symmetry_equiv_pos_site_id
 _symmetry_equiv_pos_as_xyz
  1  'x, y, z'
loop_
 _atom_site_type_symbol
 _atom_site_label
 _atom_site_symmetry_multiplicity
 _atom_site_fract_x
 _atom_site_fract_y
 _atom_site_fract_z
 _atom_site_occupancy
  Ba  Ba0  1  0.47107835  0.09980991  0.71570673  1
  Ba  Ba1  1  0.91111790  0.47555453  0.24845555  1
  Ba  Ba2  1  0.14336830  0.74999165  0.89337137  1
  Ba  Ba3  1  0.14337820  0.89337587  0.25000231  1
  Ba  Ba4  1  0.41111790  0.74845555  0.97555453  1
  Ba  Ba5  1  0.72710226  0.66266147  0.25154882  1
  Ba  Ba6  1  0.35446142  0.87405934  0.47807270  1
  Ba  Ba7  1  0.58888210  0.25154445  0.02444547  1
  Ba  Ba8  1  0.22710495  0.97555606  0.06444661  1
  Ba  Ba9  1  0.22710226  0.75154882  0.16266147  1
  Ba  Ba10  1  0.52892165  0.90019009  0.28429327  1
  Ba  Ba11  1  0.38411289  0.59981674  0.12873069  1
  Ba  Ba12  1  0.58888743  0.83734070  0.56443915  1
  Ba  Ba13  1  0.41111257  0.16265930  0.43556085  1
  Ba  Ba14  1  0.61590341  0.71571409  0.74463707  1
  Ba  Ba15  1  0.97109165  0.25538994  0.37127490  1
  Ba  Ba16  1  0.64336830  0.39337137  0.24999165  1
  Ba  Ba17  1  0.14553858  0.02192730  0.62594066  1
  Ba  Ba18  1  0.14554388  0.62361099  0.51958499  1
  Ba  Ba19  1  0.85445612  0.37638901  0.48041501  1
  Ba  Ba20  1  0.27289774  0.33733853  0.74845118  1
  Ba  Ba21  1  0.35662180  0.24999769  0.60662413  1
  Ba  Ba22  1  0.02892165  0.78429327  0.40019009  1
  Ba  Ba23  1  0.89596695  0.51957655  0.87402837  1
  Ba  Ba24  1  0.35663170  0.60662863  0.75000835  1
  Ba  Ba25  1  0.60402464  0.47806964  0.62361447  1
  Ba  Ba26  1  0.88411289  0.62873069  0.09981674  1
  Ba  Ba27  1  0.10403305  0.48042345  0.12597163  1
  Ba  Ba28  1  0.85446142  0.97807270  0.37405934  1
  Ba  Ba29  1  0.27289505  0.43555339  0.52444394  1
  Ba  Ba30  1  0.85662180  0.10662413  0.74999769  1
  Ba  Ba31  1  0.64554388  0.01958499  0.12361099  1
  Ba  Ba32  1  0.88409659  0.75536293  0.78428591  1
  Ba  Ba33  1  0.47109165  0.87127490  0.75538994  1
  Ba  Ba34  1  0.11588711  0.37126931  0.90018326  1
  Ba  Ba35  1  0.08888743  0.06443915  0.33734070  1
  Ba  Ba36  1  0.39596695  0.37402837  0.01957655  1
  Ba  Ba37  1  0.77289505  0.02444394  0.93555339  1
  Ba  Ba38  1  0.10402464  0.12361447  0.97806964  1
  Ba  Ba39  1  0.61588711  0.40018326  0.87126931  1
  Ba  Ba40  1  0.08888210  0.52444547  0.75154445  1
  Ba  Ba41  1  0.35445612  0.98041501  0.87638901  1
  Ba  Ba42  1  0.38409659  0.28428591  0.25536293  1
  Ba  Ba43  1  0.85663170  0.25000835  0.10662863  1
  Ba  Ba44  1  0.11590341  0.24463707  0.21571409  1
  Ba  Ba45  1  0.52890835  0.12872510  0.24461006  1
  Ba  Ba46  1  0.39597536  0.52193036  0.37638553  1
  Ba  Ba47  1  0.64553858  0.12594066  0.52192730  1
  Ba  Ba48  1  0.72710495  0.56444661  0.47555606  1
  Ba  Ba49  1  0.60403305  0.62597163  0.98042345  1
  Ba  Ba50  1  0.97107835  0.21570673  0.59980991  1
  Ba  Ba51  1  0.64337820  0.75000231  0.39337587  1
  Ba  Ba52  1  0.02890835  0.74461006  0.62872510  1
  Ba  Ba53  1  0.91111257  0.93556085  0.66265930  1
  Ba  Ba54  1  0.89597536  0.87638553  0.02193036  1
  Ba  Ba55  1  0.77289774  0.24845118  0.83733853  1
  Mn  Mn56  1  0.75008750  0.87507459  0.12504312  1
  Mn  Mn57  1  0.25008750  0.62504312  0.37507459  1
  Mn  Mn58  1  0.24991250  0.12492541  0.87495688  1
  Mn  Mn59  1  0.74991250  0.37495688  0.62492541  1
  Bi  Bi60  1  0.60672305  0.02076033  0.67927330  1
  Bi  Bi61  1  0.51196052  0.50597865  0.25597976  1
  Bi  Bi62  1  0.38077957  0.68067362  0.56722443  1
  Bi  Bi63  1  0.88077957  0.06722443  0.18067362  1
  Bi  Bi64  1  0.61922043  0.31932638  0.43277557  1
  Bi  Bi65  1  0.15850977  0.58596103  0.97923900  1
  Bi  Bi66  1  0.25000000  0.00598074  0.49401926  1
  Bi  Bi67  1  0.75000000  0.12500164  0.37499836  1
  Bi  Bi68  1  0.88654000  0.81934847  0.20010017  1
  Bi  Bi69  1  0.65850977  0.47923900  0.08596103  1
  Bi  Bi70  1  0.34149383  0.32072833  0.42745268  1
  Bi  Bi71  1  0.25000000  0.74402082  0.75597918  1
  Bi  Bi72  1  0.34149023  0.52076100  0.91403897  1
  Bi  Bi73  1  0.01196052  0.75597976  0.00597865  1
  Bi  Bi74  1  0.65850617  0.67927167  0.57254732  1
  Bi  Bi75  1  0.10672305  0.17927330  0.52076033  1
  Bi  Bi76  1  0.89327242  0.57254348  0.41403436  1
  Bi  Bi77  1  0.61346000  0.29989983  0.68065153  1
  Bi  Bi78  1  0.38647692  0.18640537  0.06712716  1
  Bi  Bi79  1  0.11922043  0.93277557  0.81932638  1
  Bi  Bi80  1  0.25000000  0.87499836  0.62500164  1
  Bi  Bi81  1  0.48803948  0.49402135  0.74402024  1
  Bi  Bi82  1  0.10672758  0.42745652  0.58596564  1
  Bi  Bi83  1  0.39327242  0.91403436  0.07254348  1
  Bi  Bi84  1  0.75000000  0.99401926  0.50598074  1
  Bi  Bi85  1  0.11352308  0.43287284  0.31359463  1
  Bi  Bi86  1  0.39327695  0.97923967  0.32072670  1
  Bi  Bi87  1  0.60672758  0.08596564  0.92745652  1
  Bi  Bi88  1  0.38071873  0.20007092  0.81356884  1
  Bi  Bi89  1  0.84149383  0.92745268  0.82072833  1
  Bi  Bi90  1  0.88071873  0.31356884  0.70007092  1
  Bi  Bi91  1  0.84149023  0.41403897  0.02076100  1
  Bi  Bi92  1  0.15850617  0.07254732  0.17927167  1
  Bi  Bi93  1  0.11346000  0.18065153  0.79989983  1
  Bi  Bi94  1  0.61352308  0.81359463  0.93287284  1
  Bi  Bi95  1  0.61928127  0.79992908  0.18643116  1
  Bi  Bi96  1  0.88647692  0.56712716  0.68640537  1
  Bi  Bi97  1  0.11928127  0.68643116  0.29992908  1
  Bi  Bi98  1  0.98803948  0.24402024  0.99402135  1
  Bi  Bi99  1  0.75000000  0.62499895  0.87500105  1
  Bi  Bi100  1  0.75000000  0.25597918  0.24402082  1
  Bi  Bi101  1  0.38654000  0.70010017  0.31934847  1
  Bi  Bi102  1  0.25000000  0.37500105  0.12499895  1
  Bi  Bi103  1  0.89327695  0.82072670  0.47923967  1
