# generated using pymatgen
data_Rb4Ti2P6Se25
_symmetry_space_group_name_H-M   'P 1'
_cell_length_a   7.03378158
_cell_length_b   18.70935421
_cell_length_c   19.51167412
_cell_angle_alpha   88.05835281
_cell_angle_beta   79.61593938
_cell_angle_gamma   79.16536740
_symmetry_Int_Tables_number   1
_chemical_formula_structural   Rb4Ti2P6Se25
_chemical_formula_sum   'Rb8 Ti4 P12 Se50'
_cell_volume   2480.61084353
_cell_formula_units_Z   2
loop_
 _symmetry_equiv_pos_site_id
 _symmetry_equiv_pos_as_xyz
  1  'x, y, z'
loop_
 _atom_site_type_symbol
 _atom_site_label
 _atom_site_symmetry_multiplicity
 _atom_site_fract_x
 _atom_site_fract_y
 _atom_site_fract_z
 _atom_site_occupancy
  Rb  Rb0  1  0.06677234  0.14631704  0.85276269  1
  Rb  Rb1  1  0.62861592  0.11372454  0.28910845  1
  Rb  Rb2  1  0.66953503  0.64631704  0.64723731  1
  Rb  Rb3  1  0.96308939  0.35368296  0.35276269  1
  Rb  Rb4  1  0.49234046  0.38627546  0.78910845  1
  Rb  Rb5  1  0.06585208  0.85368296  0.14723731  1
  Rb  Rb6  1  0.03144890  0.88627546  0.71089155  1
  Rb  Rb7  1  0.66772437  0.61372454  0.21089155  1
  Ti  Ti8  1  0.59319978  0.75224305  0.43679980  1
  Ti  Ti9  1  0.77999958  0.25224305  0.06320020  1
  Ti  Ti10  1  0.09544283  0.74775695  0.93679980  1
  Ti  Ti11  1  0.78224263  0.24775695  0.56320020  1
  P  P12  1  0.65777849  0.57098053  0.43033405  1
  P  P13  1  0.65909307  0.42901947  0.56966595  1
  P  P14  1  0.07165714  0.66527460  0.78776673  1
  P  P15  1  0.83811254  0.07098053  0.06966595  1
  P  P16  1  0.60942386  0.16527460  0.71223327  1
  P  P17  1  0.48693174  0.83472540  0.28776673  1
  P  P18  1  0.52469847  0.33472540  0.21223327  1
  P  P19  1  0.20788379  0.64853337  0.07584261  1
  P  P20  1  0.97875902  0.92901947  0.93033405  1
  P  P21  1  0.60641717  0.85146663  0.57584261  1
  P  P22  1  0.93225978  0.35146663  0.92415739  1
  P  P23  1  0.03372641  0.14853337  0.42415739  1
  Se  Se24  1  0.84217441  0.74067862  0.85872054  1
  Se  Se25  1  0.85793318  0.50000000  0.50000000  1
  Se  Se26  1  0.31082117  0.44603768  0.22162202  1
  Se  Se27  1  0.56012860  0.19137234  0.82143773  1
  Se  Se28  1  0.37773530  0.72305162  0.00892475  1
  Se  Se29  1  0.88877258  0.35487876  0.61779823  1
  Se  Se30  1  0.42565401  0.49549513  0.63795847  1
  Se  Se31  1  0.34996203  0.83832651  0.52759626  1
  Se  Se32  1  0.25657081  0.85487876  0.88220177  1
  Se  Se33  1  0.13156633  0.69137234  0.67856227  1
  Se  Se34  1  0.99365134  0.14512124  0.11779823  1
  Se  Se35  1  0.98388481  0.46407538  0.95519133  1
  Se  Se36  1  0.19796019  0.03592462  0.45519133  1
  Se  Se37  1  0.91666978  0.15739091  0.65356915  1
  Se  Se38  1  0.10793318  0.00000000  0.00000000  1
  Se  Se39  1  0.93828855  0.66167349  0.02759626  1
  Se  Se40  1  0.28244320  0.94603768  0.27837798  1
  Se  Se41  1  0.55910761  0.50450487  0.36204153  1
  Se  Se42  1  0.45089495  0.24067862  0.64127946  1
  Se  Se43  1  0.97848088  0.55396232  0.77837798  1
  Se  Se44  1  0.82448134  0.84894804  0.99631252  1
  Se  Se45  1  0.50150093  0.30862766  0.32143773  1
  Se  Se46  1  0.41711653  0.03819954  0.61264476  1
  Se  Se47  1  0.68907613  0.96407538  0.54480867  1
  Se  Se48  1  0.44157356  0.25932138  0.14127946  1
  Se  Se49  1  0.09266397  0.16273551  0.31306958  1
  Se  Se50  1  0.00539948  0.33726449  0.81306958  1
  Se  Se51  1  0.86144957  0.64512124  0.38220177  1
  Se  Se52  1  0.77976129  0.53819954  0.88735524  1
  Se  Se53  1  0.06796082  0.96180046  0.38735524  1
  Se  Se54  1  0.67114914  0.00450487  0.13795847  1
  Se  Se55  1  0.71588481  0.16167349  0.47240374  1
  Se  Se56  1  0.33285303  0.75932138  0.35872054  1
  Se  Se57  1  0.42342938  0.65105196  0.49631252  1
  Se  Se58  1  0.20531607  0.46180046  0.11264476  1
  Se  Se59  1  0.15573354  0.66273551  0.18693042  1
  Se  Se60  1  0.40315151  0.53592462  0.04480867  1
  Se  Se61  1  0.32023893  0.65739091  0.84643085  1
  Se  Se62  1  0.13666006  0.22305162  0.49107525  1
  Se  Se63  1  0.57079386  0.34894804  0.50368748  1
  Se  Se64  1  0.66974190  0.15105196  0.00368748  1
  Se  Se65  1  0.50685885  0.05396232  0.72162202  1
  Se  Se66  1  0.85078692  0.77694838  0.50892475  1
  Se  Se67  1  0.10971167  0.27694838  0.99107525  1
  Se  Se68  1  0.72762985  0.84260909  0.34643085  1
  Se  Se69  1  0.62755829  0.33832651  0.97240374  1
  Se  Se70  1  0.57293866  0.80862766  0.17856227  1
  Se  Se71  1  0.56846905  0.83726449  0.68693042  1
  Se  Se72  1  0.82406069  0.34260909  0.15356915  1
  Se  Se73  1  0.81361247  0.99549513  0.86204153  1
