# generated using pymatgen
data_Ga8Cu3Mo2
_symmetry_space_group_name_H-M   'P 1'
_cell_length_a   10.40503038
_cell_length_b   10.40503060
_cell_length_c   10.40503026
_cell_angle_alpha   109.47122201
_cell_angle_beta   109.47122239
_cell_angle_gamma   109.47121841
_symmetry_Int_Tables_number   1
_chemical_formula_structural   Ga8Cu3Mo2
_chemical_formula_sum   'Ga32 Cu12 Mo8'
_cell_volume   867.17782951
_cell_formula_units_Z   4
loop_
 _symmetry_equiv_pos_site_id
 _symmetry_equiv_pos_as_xyz
  1  'x, y, z'
loop_
 _atom_site_type_symbol
 _atom_site_label
 _atom_site_symmetry_multiplicity
 _atom_site_fract_x
 _atom_site_fract_y
 _atom_site_fract_z
 _atom_site_occupancy
  Ga  Ga0  1  0.76520358  0.76525160  0.25762429  1
  Ga  Ga1  1  0.00000000  0.78694992  0.50000000  1
  Ga  Ga2  1  0.24237571  0.00762731  0.50757929  1
  Ga  Ga3  1  0.49995198  0.49237269  0.73474840  1
  Ga  Ga4  1  0.71305008  0.71305008  0.71305008  1
  Ga  Ga5  1  0.50757929  0.24237571  0.00762731  1
  Ga  Ga6  1  0.49242071  0.23479642  0.50004802  1
  Ga  Ga7  1  0.73479642  0.99242071  0.00004802  1
  Ga  Ga8  1  0.50000000  1.00000000  0.28694992  1
  Ga  Ga9  1  0.76525160  0.25762429  0.76520358  1
  Ga  Ga10  1  0.78694992  0.50000000  1.00000000  1
  Ga  Ga11  1  0.28694992  0.50000000  1.00000000  1
  Ga  Ga12  1  0.74237571  0.00757929  0.50762731  1
  Ga  Ga13  1  0.49237269  0.73474840  0.49995198  1
  Ga  Ga14  1  0.21305008  0.21305008  0.21305008  1
  Ga  Ga15  1  0.26525160  0.26520358  0.75762429  1
  Ga  Ga16  1  0.50000000  1.00000000  0.78694992  1
  Ga  Ga17  1  0.00000000  0.28694992  0.50000000  1
  Ga  Ga18  1  0.99995198  0.23474840  0.99237269  1
  Ga  Ga19  1  0.25762429  0.76520358  0.76525160  1
  Ga  Ga20  1  0.23479642  0.50004802  0.49242071  1
  Ga  Ga21  1  0.26520358  0.75762429  0.26525160  1
  Ga  Ga22  1  0.99237269  0.99995198  0.23474840  1
  Ga  Ga23  1  0.99242071  0.00004802  0.73479642  1
  Ga  Ga24  1  0.50004802  0.49242071  0.23479642  1
  Ga  Ga25  1  0.50762731  0.74237571  0.00757929  1
  Ga  Ga26  1  0.75762429  0.26525160  0.26520358  1
  Ga  Ga27  1  0.00762731  0.50757929  0.24237571  1
  Ga  Ga28  1  0.23474840  0.99237269  0.99995198  1
  Ga  Ga29  1  0.00757929  0.50762731  0.74237571  1
  Ga  Ga30  1  0.73474840  0.49995198  0.49237269  1
  Ga  Ga31  1  0.00004802  0.73479642  0.99242071  1
  Cu  Cu32  1  0.23564509  0.25000000  0.48564509  1
  Cu  Cu33  1  0.01435491  0.26435491  0.75000000  1
  Cu  Cu34  1  0.25000000  0.76435491  0.51435491  1
  Cu  Cu35  1  0.25000000  0.48564509  0.23564509  1
  Cu  Cu36  1  0.98564509  0.75000000  0.73564509  1
  Cu  Cu37  1  0.76435491  0.51435491  0.25000000  1
  Cu  Cu38  1  0.75000000  0.73564509  0.98564509  1
  Cu  Cu39  1  0.51435491  0.25000000  0.76435491  1
  Cu  Cu40  1  0.26435491  0.75000000  0.01435491  1
  Cu  Cu41  1  0.48564509  0.23564509  0.25000000  1
  Cu  Cu42  1  0.73564509  0.98564509  0.75000000  1
  Cu  Cu43  1  0.75000000  0.01435491  0.26435491  1
  Mo  Mo44  1  0.96075162  0.96075162  0.96075162  1
  Mo  Mo45  1  0.03924838  0.50000000  1.00000000  1
  Mo  Mo46  1  0.53924838  0.50000000  1.00000000  1
  Mo  Mo47  1  0.50000000  1.00000000  0.53924838  1
  Mo  Mo48  1  0.00000000  0.03924838  0.50000000  1
  Mo  Mo49  1  0.00000000  0.53924838  0.50000000  1
  Mo  Mo50  1  0.46075162  0.46075162  0.46075162  1
  Mo  Mo51  1  0.50000000  1.00000000  0.03924838  1
