# generated using pymatgen
data_CsMn4Cl9
_symmetry_space_group_name_H-M   'P 1'
_cell_length_a   9.87932900
_cell_length_b   9.87932963
_cell_length_c   9.87932947
_cell_angle_alpha   106.45194635
_cell_angle_beta   106.45194733
_cell_angle_gamma   115.69483256
_symmetry_Int_Tables_number   1
_chemical_formula_structural   CsMn4Cl9
_chemical_formula_sum   'Cs2 Mn8 Cl18'
_cell_volume   735.62891628
_cell_formula_units_Z   2
loop_
 _symmetry_equiv_pos_site_id
 _symmetry_equiv_pos_as_xyz
  1  'x, y, z'
loop_
 _atom_site_type_symbol
 _atom_site_label
 _atom_site_symmetry_multiplicity
 _atom_site_fract_x
 _atom_site_fract_y
 _atom_site_fract_z
 _atom_site_occupancy
  Cs  Cs0  1  0.62500000  0.87500000  0.75000000  1
  Cs  Cs1  1  0.37500000  0.12500000  0.25000000  1
  Mn  Mn2  1  0.23520674  0.58674102  0.05954354  1
  Mn  Mn3  1  0.32433680  0.26479326  0.85153428  1
  Mn  Mn4  1  0.08674102  0.52719748  0.35153428  1
  Mn  Mn5  1  0.76479326  0.41325898  0.94045646  1
  Mn  Mn6  1  0.97280252  0.82433680  0.55954354  1
  Mn  Mn7  1  0.02719748  0.17566320  0.44045646  1
  Mn  Mn8  1  0.91325898  0.47280252  0.64846572  1
  Mn  Mn9  1  0.67566320  0.73520674  0.14846572  1
  Cl  Cl10  1  0.91745962  0.97265755  0.15985643  1
  Cl  Cl11  1  0.84474743  0.28731782  0.36896179  1
  Cl  Cl12  1  0.97578564  0.34474743  0.05742961  1
  Cl  Cl13  1  0.87500000  0.62500000  0.25000000  1
  Cl  Cl14  1  0.78731782  0.91835604  0.44257039  1
  Cl  Cl15  1  0.58164396  0.52421436  0.86896179  1
  Cl  Cl16  1  0.74239681  0.58254038  0.55519793  1
  Cl  Cl17  1  0.31280112  0.75760319  0.34014357  1
  Cl  Cl18  1  0.08254038  0.02734245  0.84014357  1
  Cl  Cl19  1  0.15525257  0.71268218  0.63103821  1
  Cl  Cl20  1  0.47265755  0.81280112  0.05519793  1
  Cl  Cl21  1  0.52734245  0.18719888  0.94480207  1
  Cl  Cl22  1  0.25760319  0.41745962  0.44480207  1
  Cl  Cl23  1  0.68719888  0.24239681  0.65985643  1
  Cl  Cl24  1  0.02421436  0.65525257  0.94257039  1
  Cl  Cl25  1  0.41835604  0.47578564  0.13103821  1
  Cl  Cl26  1  0.21268218  0.08164396  0.55742961  1
  Cl  Cl27  1  0.12500000  0.37500000  0.75000000  1
