# generated using pymatgen
data_K3Ga3As4
_symmetry_space_group_name_H-M   'P 1'
_cell_length_a   6.72789247
_cell_length_b   10.83236249
_cell_length_c   15.19163391
_cell_angle_alpha   90.00000000
_cell_angle_beta   90.00000000
_cell_angle_gamma   90.00000000
_symmetry_Int_Tables_number   1
_chemical_formula_structural   K3Ga3As4
_chemical_formula_sum   'K12 Ga12 As16'
_cell_volume   1107.15063242
_cell_formula_units_Z   4
loop_
 _symmetry_equiv_pos_site_id
 _symmetry_equiv_pos_as_xyz
  1  'x, y, z'
loop_
 _atom_site_type_symbol
 _atom_site_label
 _atom_site_symmetry_multiplicity
 _atom_site_fract_x
 _atom_site_fract_y
 _atom_site_fract_z
 _atom_site_occupancy
  K  K0  1  0.05995895  0.37907322  0.40518214  1
  K  K1  1  0.05995895  0.12092678  0.09481786  1
  K  K2  1  0.55995895  0.87907322  0.09481786  1
  K  K3  1  0.75000000  0.07903990  0.50000000  1
  K  K4  1  0.94004105  0.87907322  0.90518214  1
  K  K5  1  0.55995895  0.62092678  0.40518214  1
  K  K6  1  0.94004105  0.62092678  0.59481786  1
  K  K7  1  0.25000000  0.57903990  0.00000000  1
  K  K8  1  0.75000000  0.42096010  0.00000000  1
  K  K9  1  0.44004105  0.37907322  0.59481786  1
  K  K10  1  0.44004105  0.12092678  0.90518214  1
  K  K11  1  0.25000000  0.92096010  0.50000000  1
  Ga  Ga12  1  0.40225473  0.11126497  0.28333809  1
  Ga  Ga13  1  0.90225473  0.61126497  0.21666191  1
  Ga  Ga14  1  0.09774527  0.38873503  0.78333809  1
  Ga  Ga15  1  0.40225473  0.38873503  0.21666191  1
  Ga  Ga16  1  0.30807523  0.75000000  0.25000000  1
  Ga  Ga17  1  0.80807523  0.25000000  0.25000000  1
  Ga  Ga18  1  0.59774527  0.88873503  0.71666191  1
  Ga  Ga19  1  0.90225473  0.88873503  0.28333809  1
  Ga  Ga20  1  0.19192477  0.75000000  0.75000000  1
  Ga  Ga21  1  0.69192477  0.25000000  0.75000000  1
  Ga  Ga22  1  0.59774527  0.61126497  0.78333809  1
  Ga  Ga23  1  0.09774527  0.11126497  0.71666191  1
  As  As24  1  0.04059991  0.09482994  0.32437668  1
  As  As25  1  0.04047346  0.80587736  0.13702511  1
  As  As26  1  0.45952654  0.80587736  0.86297489  1
  As  As27  1  0.45940009  0.40517006  0.82437668  1
  As  As28  1  0.54059991  0.59482994  0.17562332  1
  As  As29  1  0.54059991  0.90517006  0.32437668  1
  As  As30  1  0.04047346  0.69412264  0.36297489  1
  As  As31  1  0.04059991  0.40517006  0.17562332  1
  As  As32  1  0.95952654  0.19412264  0.86297489  1
  As  As33  1  0.54047346  0.19412264  0.13702511  1
  As  As34  1  0.95940009  0.90517006  0.67562332  1
  As  As35  1  0.45940009  0.09482994  0.67562332  1
  As  As36  1  0.95952654  0.30587736  0.63702511  1
  As  As37  1  0.54047346  0.30587736  0.36297489  1
  As  As38  1  0.45952654  0.69412264  0.63702511  1
  As  As39  1  0.95940009  0.59482994  0.82437668  1
