# generated using pymatgen
data_Rb2Hg2PdBr8
_symmetry_space_group_name_H-M   'P 1'
_cell_length_a   7.17313397
_cell_length_b   7.17313324
_cell_length_c   10.78974563
_cell_angle_alpha   73.26627045
_cell_angle_beta   73.26627224
_cell_angle_gamma   62.64660433
_symmetry_Int_Tables_number   1
_chemical_formula_structural   Rb2Hg2PdBr8
_chemical_formula_sum   'Rb2 Hg2 Pd1 Br8'
_cell_volume   464.24668581
_cell_formula_units_Z   1
loop_
 _symmetry_equiv_pos_site_id
 _symmetry_equiv_pos_as_xyz
  1  'x, y, z'
loop_
 _atom_site_type_symbol
 _atom_site_label
 _atom_site_symmetry_multiplicity
 _atom_site_fract_x
 _atom_site_fract_y
 _atom_site_fract_z
 _atom_site_occupancy
  Rb  Rb0  1  0.39703557  0.39703557  0.83338210  1
  Rb  Rb1  1  0.60296443  0.60296443  0.16661790  1
  Hg  Hg2  1  0.13237199  0.13237199  0.60820999  1
  Hg  Hg3  1  0.86762801  0.86762801  0.39179001  1
  Pd  Pd4  1  0.00000000  0.00000000  0.00000000  1
  Br  Br5  1  0.34722191  0.34722191  0.50058677  1
  Br  Br6  1  0.89806408  0.36624094  0.86761552  1
  Br  Br7  1  0.08352350  0.08352350  0.30692462  1
  Br  Br8  1  0.91647650  0.91647650  0.69307538  1
  Br  Br9  1  0.65277809  0.65277809  0.49941323  1
  Br  Br10  1  0.10193592  0.63375906  0.13238448  1
  Br  Br11  1  0.63375906  0.10193592  0.13238448  1
  Br  Br12  1  0.36624094  0.89806408  0.86761552  1
