# generated using pymatgen
data_Sr8(MnN3)3
_symmetry_space_group_name_H-M   'P 1'
_cell_length_a   7.60110763
_cell_length_b   10.69248981
_cell_length_c   18.34492086
_cell_angle_alpha   90.00000000
_cell_angle_beta   97.24058710
_cell_angle_gamma   90.00000000
_symmetry_Int_Tables_number   1
_chemical_formula_structural   Sr8(MnN3)3
_chemical_formula_sum   'Sr32 Mn12 N36'
_cell_volume   1479.08958748
_cell_formula_units_Z   4
loop_
 _symmetry_equiv_pos_site_id
 _symmetry_equiv_pos_as_xyz
  1  'x, y, z'
loop_
 _atom_site_type_symbol
 _atom_site_label
 _atom_site_symmetry_multiplicity
 _atom_site_fract_x
 _atom_site_fract_y
 _atom_site_fract_z
 _atom_site_occupancy
  Sr  Sr0  1  0.05769058  0.62691079  0.57702694  1
  Sr  Sr1  1  0.64014963  0.62988075  0.44928333  1
  Sr  Sr2  1  0.14963631  0.37955446  0.93489910  1
  Sr  Sr3  1  0.94230942  0.37308921  0.42297306  1
  Sr  Sr4  1  0.06318313  0.12568449  0.58274836  1
  Sr  Sr5  1  0.92724695  0.12256767  0.85612341  1
  Sr  Sr6  1  0.07275305  0.87743233  0.14387659  1
  Sr  Sr7  1  0.64963631  0.12044554  0.43489910  1
  Sr  Sr8  1  0.01556876  0.63026425  0.27014757  1
  Sr  Sr9  1  0.50356679  0.37311891  0.78110081  1
  Sr  Sr10  1  0.99643321  0.87311891  0.71889919  1
  Sr  Sr11  1  0.49643321  0.62688109  0.21889919  1
  Sr  Sr12  1  0.13513114  0.37956549  0.14557127  1
  Sr  Sr13  1  0.93681687  0.87431551  0.41725164  1
  Sr  Sr14  1  0.48443124  0.13026425  0.22985243  1
  Sr  Sr15  1  0.35036369  0.87955446  0.56510090  1
  Sr  Sr16  1  0.00356679  0.12688109  0.28110081  1
  Sr  Sr17  1  0.51556876  0.86973575  0.77014757  1
  Sr  Sr18  1  0.35985037  0.37011925  0.55071667  1
  Sr  Sr19  1  0.86486886  0.62043451  0.85442873  1
  Sr  Sr20  1  0.85036369  0.62044554  0.06510090  1
  Sr  Sr21  1  0.14014963  0.87011925  0.94928333  1
  Sr  Sr22  1  0.57275305  0.62256767  0.64387659  1
  Sr  Sr23  1  0.43681687  0.62568449  0.91725164  1
  Sr  Sr24  1  0.85985037  0.12988075  0.05071667  1
  Sr  Sr25  1  0.44230942  0.12691079  0.92297306  1
  Sr  Sr26  1  0.42724695  0.37743233  0.35612341  1
  Sr  Sr27  1  0.63513114  0.12043451  0.64557127  1
  Sr  Sr28  1  0.55769058  0.87308921  0.07702694  1
  Sr  Sr29  1  0.36486886  0.87956549  0.35442873  1
  Sr  Sr30  1  0.56318313  0.37431551  0.08274836  1
  Sr  Sr31  1  0.98443124  0.36973575  0.72985243  1
  Mn  Mn32  1  0.73499050  0.36954435  0.93673278  1
  Mn  Mn33  1  0.23499050  0.13045565  0.43673278  1
  Mn  Mn34  1  0.29622819  0.62826484  0.75121551  1
  Mn  Mn35  1  0.27264172  0.11979407  0.06890768  1
  Mn  Mn36  1  0.76500950  0.86954435  0.56326722  1
  Mn  Mn37  1  0.79622819  0.87173516  0.25121551  1
  Mn  Mn38  1  0.20377181  0.12826484  0.74878449  1
  Mn  Mn39  1  0.72735828  0.88020593  0.93109232  1
  Mn  Mn40  1  0.70377181  0.37173516  0.24878449  1
  Mn  Mn41  1  0.26500950  0.63045565  0.06326722  1
  Mn  Mn42  1  0.77264172  0.38020593  0.56890768  1
  Mn  Mn43  1  0.22735828  0.61979407  0.43109232  1
  N  N44  1  0.36871537  0.12804141  0.51988782  1
  N  N45  1  0.50955240  0.38019487  0.93366803  1
  N  N46  1  0.13128463  0.62804141  0.98011218  1
  N  N47  1  0.97339066  0.11541052  0.71690110  1
  N  N48  1  0.15515504  0.12495555  0.14680077  1
  N  N49  1  0.67215520  0.86205803  0.64658866  1
  N  N50  1  0.65114574  0.38216358  0.48179738  1
  N  N51  1  0.99044760  0.88019487  0.56633197  1
  N  N52  1  0.23685952  0.23417492  0.81888700  1
  N  N53  1  0.34885426  0.61783642  0.51820262  1
  N  N54  1  0.17215520  0.63794197  0.14658866  1
  N  N55  1  0.86871537  0.37195859  0.01988782  1
  N  N56  1  0.50316583  0.12322135  0.07680655  1
  N  N57  1  0.76314048  0.76582508  0.18111300  1
  N  N58  1  0.49683417  0.87677865  0.92319345  1
  N  N59  1  0.63128463  0.87195859  0.48011218  1
  N  N60  1  0.26314048  0.73417492  0.68111300  1
  N  N61  1  0.32784480  0.13794197  0.35341134  1
  N  N62  1  0.85509091  0.43763598  0.19953039  1
  N  N63  1  0.99683417  0.62322135  0.42319345  1
  N  N64  1  0.52660934  0.61541052  0.78309890  1
  N  N65  1  0.84484496  0.87504445  0.85319923  1
  N  N66  1  0.82784480  0.36205803  0.85341134  1
  N  N67  1  0.84885426  0.88216358  0.01820262  1
  N  N68  1  0.14490909  0.56236402  0.80046961  1
  N  N69  1  0.35509091  0.06236402  0.69953039  1
  N  N70  1  0.49044760  0.61980513  0.06633197  1
  N  N71  1  0.00955240  0.11980513  0.43366803  1
  N  N72  1  0.15114574  0.11783642  0.98179738  1
  N  N73  1  0.64490909  0.93763598  0.30046961  1
  N  N74  1  0.65515504  0.37504445  0.64680077  1
  N  N75  1  0.00316583  0.37677865  0.57680655  1
  N  N76  1  0.34484496  0.62495555  0.35319923  1
  N  N77  1  0.47339066  0.38458948  0.21690110  1
  N  N78  1  0.02660934  0.88458948  0.28309890  1
  N  N79  1  0.73685952  0.26582508  0.31888700  1
