# generated using pymatgen
data_KMnCl3
_symmetry_space_group_name_H-M   'P 1'
_cell_length_a   3.90359529
_cell_length_b   8.92401770
_cell_length_c   14.61294550
_cell_angle_alpha   90.00000000
_cell_angle_beta   90.00000000
_cell_angle_gamma   90.00000000
_symmetry_Int_Tables_number   1
_chemical_formula_structural   KMnCl3
_chemical_formula_sum   'K4 Mn4 Cl12'
_cell_volume   509.05296679
_cell_formula_units_Z   4
loop_
 _symmetry_equiv_pos_site_id
 _symmetry_equiv_pos_as_xyz
  1  'x, y, z'
loop_
 _atom_site_type_symbol
 _atom_site_label
 _atom_site_symmetry_multiplicity
 _atom_site_fract_x
 _atom_site_fract_y
 _atom_site_fract_z
 _atom_site_occupancy
  K  K0  1  0.75000000  0.06346119  0.32441383  1
  K  K1  1  0.25000000  0.43653881  0.82441383  1
  K  K2  1  0.25000000  0.93653881  0.67558617  1
  K  K3  1  0.75000000  0.56346119  0.17558617  1
  Mn  Mn4  1  0.25000000  0.66524150  0.44390062  1
  Mn  Mn5  1  0.25000000  0.16524150  0.05609938  1
  Mn  Mn6  1  0.75000000  0.83475850  0.94390062  1
  Mn  Mn7  1  0.75000000  0.33475850  0.55609938  1
  Cl  Cl8  1  0.25000000  0.02043292  0.90243539  1
  Cl  Cl9  1  0.25000000  0.17444195  0.49612383  1
  Cl  Cl10  1  0.75000000  0.97956708  0.09756461  1
  Cl  Cl11  1  0.75000000  0.22284675  0.70692174  1
  Cl  Cl12  1  0.25000000  0.77715325  0.29307826  1
  Cl  Cl13  1  0.75000000  0.47956708  0.40243539  1
  Cl  Cl14  1  0.25000000  0.52043292  0.59756461  1
  Cl  Cl15  1  0.75000000  0.72284675  0.79307826  1
  Cl  Cl16  1  0.75000000  0.82555805  0.50387617  1
  Cl  Cl17  1  0.25000000  0.27715325  0.20692174  1
  Cl  Cl18  1  0.75000000  0.32555805  0.99612383  1
  Cl  Cl19  1  0.25000000  0.67444195  0.00387617  1
