# generated using pymatgen
data_SrCa2WN4
_symmetry_space_group_name_H-M   'P 1'
_cell_length_a   9.35678343
_cell_length_b   10.22367424
_cell_length_c   11.40710578
_cell_angle_alpha   90.00000000
_cell_angle_beta   90.00000000
_cell_angle_gamma   90.00000000
_symmetry_Int_Tables_number   1
_chemical_formula_structural   SrCa2WN4
_chemical_formula_sum   'Sr8 Ca16 W8 N32'
_cell_volume   1091.21178917
_cell_formula_units_Z   8
loop_
 _symmetry_equiv_pos_site_id
 _symmetry_equiv_pos_as_xyz
  1  'x, y, z'
loop_
 _atom_site_type_symbol
 _atom_site_label
 _atom_site_symmetry_multiplicity
 _atom_site_fract_x
 _atom_site_fract_y
 _atom_site_fract_z
 _atom_site_occupancy
  Sr  Sr0  1  0.81163564  0.22075627  0.88198498  1
  Sr  Sr1  1  0.18836436  0.27924373  0.38198498  1
  Sr  Sr2  1  0.31163564  0.77924373  0.61801502  1
  Sr  Sr3  1  0.68836436  0.22075627  0.38198498  1
  Sr  Sr4  1  0.18836436  0.77924373  0.11801502  1
  Sr  Sr5  1  0.81163564  0.72075627  0.61801502  1
  Sr  Sr6  1  0.31163564  0.27924373  0.88198498  1
  Sr  Sr7  1  0.68836436  0.72075627  0.11801502  1
  Ca  Ca8  1  0.36841356  0.96641500  0.36065215  1
  Ca  Ca9  1  0.02812270  0.37837728  0.10183626  1
  Ca  Ca10  1  0.97187730  0.62162272  0.89816374  1
  Ca  Ca11  1  0.52812270  0.62162272  0.39816374  1
  Ca  Ca12  1  0.36841356  0.46641500  0.13934785  1
  Ca  Ca13  1  0.13158644  0.46641500  0.63934785  1
  Ca  Ca14  1  0.13158644  0.96641500  0.86065215  1
  Ca  Ca15  1  0.63158644  0.53358500  0.86065215  1
  Ca  Ca16  1  0.86841356  0.03358500  0.13934785  1
  Ca  Ca17  1  0.63158644  0.03358500  0.63934785  1
  Ca  Ca18  1  0.47187730  0.87837728  0.89816374  1
  Ca  Ca19  1  0.52812270  0.12162272  0.10183626  1
  Ca  Ca20  1  0.97187730  0.12162272  0.60183626  1
  Ca  Ca21  1  0.02812270  0.87837728  0.39816374  1
  Ca  Ca22  1  0.47187730  0.37837728  0.60183626  1
  Ca  Ca23  1  0.86841356  0.53358500  0.36065215  1
  W  W24  1  0.80851690  0.89853739  0.88790554  1
  W  W25  1  0.19148310  0.10146261  0.11209446  1
  W  W26  1  0.69148310  0.39853739  0.11209446  1
  W  W27  1  0.80851690  0.39853739  0.61209446  1
  W  W28  1  0.19148310  0.60146261  0.38790554  1
  W  W29  1  0.30851690  0.60146261  0.88790554  1
  W  W30  1  0.69148310  0.89853739  0.38790554  1
  W  W31  1  0.30851690  0.10146261  0.61209446  1
  N  N32  1  0.60504356  0.00058275  0.26970524  1
  N  N33  1  0.20632707  0.24311971  0.67531463  1
  N  N34  1  0.29367293  0.24311971  0.17531463  1
  N  N35  1  0.81738974  0.50667378  0.02624950  1
  N  N36  1  0.89495644  0.50058275  0.73029476  1
  N  N37  1  0.44713805  0.16215884  0.50486775  1
  N  N38  1  0.89495644  0.00058275  0.76970524  1
  N  N39  1  0.10504356  0.99941725  0.23029476  1
  N  N40  1  0.81738974  0.00667378  0.47375050  1
  N  N41  1  0.55286195  0.83784116  0.49513225  1
  N  N42  1  0.29367293  0.74311971  0.32468537  1
  N  N43  1  0.94713805  0.83784116  0.99513225  1
  N  N44  1  0.31738974  0.49332622  0.47375050  1
  N  N45  1  0.94713805  0.33784116  0.50486775  1
  N  N46  1  0.70632707  0.25688029  0.67531463  1
  N  N47  1  0.31738974  0.99332622  0.02624950  1
  N  N48  1  0.68261026  0.00667378  0.97375050  1
  N  N49  1  0.18261026  0.49332622  0.97375050  1
  N  N50  1  0.39495644  0.99941725  0.73029476  1
  N  N51  1  0.60504356  0.50058275  0.23029476  1
  N  N52  1  0.70632707  0.75688029  0.82468537  1
  N  N53  1  0.05286195  0.66215884  0.49513225  1
  N  N54  1  0.10504356  0.49941725  0.26970524  1
  N  N55  1  0.44713805  0.66215884  0.99513225  1
  N  N56  1  0.79367293  0.25688029  0.17531463  1
  N  N57  1  0.39495644  0.49941725  0.76970524  1
  N  N58  1  0.68261026  0.50667378  0.52624950  1
  N  N59  1  0.55286195  0.33784116  0.00486775  1
  N  N60  1  0.20632707  0.74311971  0.82468537  1
  N  N61  1  0.05286195  0.16215884  0.00486775  1
  N  N62  1  0.18261026  0.99332622  0.52624950  1
  N  N63  1  0.79367293  0.75688029  0.32468537  1
