# generated using pymatgen
data_Ce2Si4Pt7
_symmetry_space_group_name_H-M   'P 1'
_cell_length_a   4.05059427
_cell_length_b   11.31528829
_cell_length_c   19.81063130
_cell_angle_alpha   90.00000000
_cell_angle_beta   90.00000000
_cell_angle_gamma   90.00000000
_symmetry_Int_Tables_number   1
_chemical_formula_structural   Ce2Si4Pt7
_chemical_formula_sum   'Ce8 Si16 Pt28'
_cell_volume   907.99338103
_cell_formula_units_Z   4
loop_
 _symmetry_equiv_pos_site_id
 _symmetry_equiv_pos_as_xyz
  1  'x, y, z'
loop_
 _atom_site_type_symbol
 _atom_site_label
 _atom_site_symmetry_multiplicity
 _atom_site_fract_x
 _atom_site_fract_y
 _atom_site_fract_z
 _atom_site_occupancy
  Ce  Ce0  1  0.25000000  0.97875733  0.71763090  1
  Ce  Ce1  1  0.25000000  0.52124267  0.21763090  1
  Ce  Ce2  1  0.75000000  0.47875733  0.78236910  1
  Ce  Ce3  1  0.75000000  0.24312607  0.47107572  1
  Ce  Ce4  1  0.25000000  0.74312607  0.02892428  1
  Ce  Ce5  1  0.25000000  0.75687393  0.52892428  1
  Ce  Ce6  1  0.75000000  0.25687393  0.97107572  1
  Ce  Ce7  1  0.75000000  0.02124267  0.28236910  1
  Si  Si8  1  0.25000000  0.79953463  0.24517017  1
  Si  Si9  1  0.75000000  0.57522372  0.58650810  1
  Si  Si10  1  0.25000000  0.42477628  0.41349190  1
  Si  Si11  1  0.75000000  0.20046537  0.75482983  1
  Si  Si12  1  0.75000000  0.74796947  0.90552526  1
  Si  Si13  1  0.25000000  0.06141450  0.41469168  1
  Si  Si14  1  0.25000000  0.24796947  0.59447474  1
  Si  Si15  1  0.25000000  0.43858550  0.91469168  1
  Si  Si16  1  0.75000000  0.93858550  0.58530832  1
  Si  Si17  1  0.75000000  0.75203053  0.40552526  1
  Si  Si18  1  0.75000000  0.56141450  0.08530832  1
  Si  Si19  1  0.25000000  0.25203053  0.09447474  1
  Si  Si20  1  0.75000000  0.29953463  0.25482983  1
  Si  Si21  1  0.25000000  0.07522372  0.91349190  1
  Si  Si22  1  0.75000000  0.92477628  0.08650810  1
  Si  Si23  1  0.25000000  0.70046537  0.74517017  1
  Pt  Pt24  1  0.25000000  0.25940818  0.85105412  1
  Pt  Pt25  1  0.25000000  0.62895948  0.86343899  1
  Pt  Pt26  1  0.75000000  0.44212373  0.34126840  1
  Pt  Pt27  1  0.75000000  0.80618847  0.78488430  1
  Pt  Pt28  1  0.25000000  0.62128968  0.37184122  1
  Pt  Pt29  1  0.25000000  0.87871032  0.87184122  1
  Pt  Pt30  1  0.25000000  0.24059182  0.35105412  1
  Pt  Pt31  1  0.75000000  0.05787627  0.84126840  1
  Pt  Pt32  1  0.25000000  0.43400182  0.53277769  1
  Pt  Pt33  1  0.25000000  0.06599818  0.03277769  1
  Pt  Pt34  1  0.75000000  0.55081246  0.95866490  1
  Pt  Pt35  1  0.75000000  0.94918754  0.45866490  1
  Pt  Pt36  1  0.75000000  0.37871032  0.62815878  1
  Pt  Pt37  1  0.25000000  0.55787627  0.65873160  1
  Pt  Pt38  1  0.25000000  0.87104052  0.36343899  1
  Pt  Pt39  1  0.75000000  0.56599818  0.46722231  1
  Pt  Pt40  1  0.25000000  0.19381153  0.21511570  1
  Pt  Pt41  1  0.25000000  0.30618847  0.71511570  1
  Pt  Pt42  1  0.75000000  0.74059182  0.14894588  1
  Pt  Pt43  1  0.25000000  0.94212373  0.15873160  1
  Pt  Pt44  1  0.75000000  0.12128968  0.12815878  1
  Pt  Pt45  1  0.75000000  0.93400182  0.96722231  1
  Pt  Pt46  1  0.75000000  0.75940818  0.64894588  1
  Pt  Pt47  1  0.75000000  0.37104052  0.13656101  1
  Pt  Pt48  1  0.25000000  0.05081246  0.54133510  1
  Pt  Pt49  1  0.75000000  0.12895948  0.63656101  1
  Pt  Pt50  1  0.75000000  0.69381153  0.28488430  1
  Pt  Pt51  1  0.25000000  0.44918754  0.04133510  1
