# generated using pymatgen
data_Ho7FeI12
_symmetry_space_group_name_H-M   'P 1'
_cell_length_a   9.74573435
_cell_length_b   9.74573400
_cell_length_c   9.74573400
_cell_angle_alpha   107.03202692
_cell_angle_beta   107.03202627
_cell_angle_gamma   107.03202589
_symmetry_Int_Tables_number   1
_chemical_formula_structural   Ho7FeI12
_chemical_formula_sum   'Ho7 Fe1 I12'
_cell_volume   770.21015464
_cell_formula_units_Z   1
loop_
 _symmetry_equiv_pos_site_id
 _symmetry_equiv_pos_as_xyz
  1  'x, y, z'
loop_
 _atom_site_type_symbol
 _atom_site_label
 _atom_site_symmetry_multiplicity
 _atom_site_fract_x
 _atom_site_fract_y
 _atom_site_fract_z
 _atom_site_occupancy
  Ho  Ho0  1  0.21394211  0.47888815  0.40963563  1
  Ho  Ho1  1  0.59036437  0.78605789  0.52111185  1
  Ho  Ho2  1  0.52111185  0.59036437  0.78605789  1
  Ho  Ho3  1  0.40963563  0.21394211  0.47888815  1
  Ho  Ho4  1  0.00000000  0.00000000  0.00000000  1
  Ho  Ho5  1  0.47888815  0.40963563  0.21394211  1
  Ho  Ho6  1  0.78605789  0.52111185  0.59036437  1
  Fe  Fe7  1  0.50000000  0.50000000  0.50000000  1
  I  I8  1  0.33888073  0.03838152  0.11511337  1
  I  I9  1  0.27551773  0.82049774  0.42868118  1
  I  I10  1  0.11511337  0.33888073  0.03838152  1
  I  I11  1  0.72448227  0.17950226  0.57131882  1
  I  I12  1  0.82049774  0.42868118  0.27551773  1
  I  I13  1  0.96161848  0.88488663  0.66111927  1
  I  I14  1  0.42868118  0.27551773  0.82049774  1
  I  I15  1  0.88488663  0.66111927  0.96161848  1
  I  I16  1  0.17950226  0.57131882  0.72448227  1
  I  I17  1  0.57131882  0.72448227  0.17950226  1
  I  I18  1  0.03838152  0.11511337  0.33888073  1
  I  I19  1  0.66111927  0.96161848  0.88488663  1
