# generated using pymatgen
data_GdCBr
_symmetry_space_group_name_H-M   'P 1'
_cell_length_a   3.87542067
_cell_length_b   4.05516928
_cell_length_c   10.12869440
_cell_angle_alpha   94.26554527
_cell_angle_beta   90.00000000
_cell_angle_gamma   118.54423469
_symmetry_Int_Tables_number   1
_chemical_formula_structural   GdCBr
_chemical_formula_sum   'Gd2 C2 Br2'
_cell_volume   139.32697977
_cell_formula_units_Z   2
loop_
 _symmetry_equiv_pos_site_id
 _symmetry_equiv_pos_as_xyz
  1  'x, y, z'
loop_
 _atom_site_type_symbol
 _atom_site_label
 _atom_site_symmetry_multiplicity
 _atom_site_fract_x
 _atom_site_fract_y
 _atom_site_fract_z
 _atom_site_occupancy
  Gd  Gd0  1  0.14473109  0.28946217  0.14527703  1
  Gd  Gd1  1  0.85526891  0.71053783  0.85472297  1
  C  C2  1  0.42523089  0.85046177  0.03515184  1
  C  C3  1  0.57476911  0.14953823  0.96484816  1
  Br  Br4  1  0.17543127  0.35086255  0.66765195  1
  Br  Br5  1  0.82456873  0.64913745  0.33234805  1
