# generated using pymatgen
data_CdSb2Se3Br2
_symmetry_space_group_name_H-M   'P 1'
_cell_length_a   4.09408940
_cell_length_b   11.06520474
_cell_length_c   11.98028098
_cell_angle_alpha   67.18471496
_cell_angle_beta   80.16172617
_cell_angle_gamma   79.33896779
_symmetry_Int_Tables_number   1
_chemical_formula_structural   CdSb2Se3Br2
_chemical_formula_sum   'Cd2 Sb4 Se6 Br4'
_cell_volume   488.67861301
_cell_formula_units_Z   2
loop_
 _symmetry_equiv_pos_site_id
 _symmetry_equiv_pos_as_xyz
  1  'x, y, z'
loop_
 _atom_site_type_symbol
 _atom_site_label
 _atom_site_symmetry_multiplicity
 _atom_site_fract_x
 _atom_site_fract_y
 _atom_site_fract_z
 _atom_site_occupancy
  Cd  Cd0  1  0.34889776  0.84927817  0.45292632  1
  Cd  Cd1  1  0.65110224  0.15072183  0.54707368  1
  Sb  Sb2  1  0.04722487  0.69042689  0.21512337  1
  Sb  Sb3  1  0.95277513  0.30957311  0.78487663  1
  Sb  Sb4  1  0.70608804  0.67490581  0.91291812  1
  Sb  Sb5  1  0.29391196  0.32509419  0.08708188  1
  Se  Se6  1  0.46296322  0.85646657  0.21760699  1
  Se  Se7  1  0.89721299  0.18179124  0.02378277  1
  Se  Se8  1  0.53703678  0.14353343  0.78239301  1
  Se  Se9  1  0.67893755  0.50520634  0.13691857  1
  Se  Se10  1  0.10278701  0.81820876  0.97621723  1
  Se  Se11  1  0.32106245  0.49479366  0.86308143  1
  Br  Br12  1  0.10302830  0.33233447  0.46160893  1
  Br  Br13  1  0.89697170  0.66766553  0.53839107  1
  Br  Br14  1  0.21019712  0.93250181  0.64710395  1
  Br  Br15  1  0.78980288  0.06749819  0.35289605  1
