# generated using pymatgen
data_MgGa2
_symmetry_space_group_name_H-M   'P 1'
_cell_length_a   4.13915986
_cell_length_b   6.88460709
_cell_length_c   16.37609329
_cell_angle_alpha   90.00000000
_cell_angle_beta   90.00000000
_cell_angle_gamma   90.00000000
_symmetry_Int_Tables_number   1
_chemical_formula_structural   MgGa2
_chemical_formula_sum   'Mg8 Ga16'
_cell_volume   466.66116752
_cell_formula_units_Z   8
loop_
 _symmetry_equiv_pos_site_id
 _symmetry_equiv_pos_as_xyz
  1  'x, y, z'
loop_
 _atom_site_type_symbol
 _atom_site_label
 _atom_site_symmetry_multiplicity
 _atom_site_fract_x
 _atom_site_fract_y
 _atom_site_fract_z
 _atom_site_occupancy
  Mg  Mg0  1  0.00000000  0.32429593  0.07719193  1
  Mg  Mg1  1  0.00000000  0.29821788  0.78001416  1
  Mg  Mg2  1  0.00000000  0.67570407  0.92280807  1
  Mg  Mg3  1  0.00000000  0.70178212  0.21998584  1
  Mg  Mg4  1  0.00000000  0.79821788  0.71998584  1
  Mg  Mg5  1  0.00000000  0.82429593  0.42280807  1
  Mg  Mg6  1  0.00000000  0.17570407  0.57719193  1
  Mg  Mg7  1  0.00000000  0.20178212  0.28001416  1
  Ga  Ga8  1  0.50000000  0.35746535  0.93814748  1
  Ga  Ga9  1  0.50000000  0.14253465  0.43814748  1
  Ga  Ga10  1  0.50000000  0.47046610  0.65775901  1
  Ga  Ga11  1  0.50000000  0.85746535  0.56185252  1
  Ga  Ga12  1  0.00000000  0.90163628  0.06717428  1
  Ga  Ga13  1  0.00000000  0.09836372  0.93282572  1
  Ga  Ga14  1  0.50000000  0.52953390  0.34224099  1
  Ga  Ga15  1  0.50000000  0.40881858  0.19030986  1
  Ga  Ga16  1  0.50000000  0.64253465  0.06185252  1
  Ga  Ga17  1  0.00000000  0.59836372  0.56717428  1
  Ga  Ga18  1  0.50000000  0.90881858  0.30969014  1
  Ga  Ga19  1  0.50000000  0.97046610  0.84224099  1
  Ga  Ga20  1  0.50000000  0.09118142  0.69030986  1
  Ga  Ga21  1  0.50000000  0.02953390  0.15775901  1
  Ga  Ga22  1  0.50000000  0.59118142  0.80969014  1
  Ga  Ga23  1  0.00000000  0.40163628  0.43282572  1
