# generated using pymatgen
data_Sr4CN4
_symmetry_space_group_name_H-M   'P 1'
_cell_length_a   3.83909220
_cell_length_b   12.35934442
_cell_length_c   14.55628075
_cell_angle_alpha   90.00000000
_cell_angle_beta   90.00000000
_cell_angle_gamma   90.00000000
_symmetry_Int_Tables_number   1
_chemical_formula_structural   Sr4CN4
_chemical_formula_sum   'Sr16 C4 N16'
_cell_volume   690.67605635
_cell_formula_units_Z   4
loop_
 _symmetry_equiv_pos_site_id
 _symmetry_equiv_pos_as_xyz
  1  'x, y, z'
loop_
 _atom_site_type_symbol
 _atom_site_label
 _atom_site_symmetry_multiplicity
 _atom_site_fract_x
 _atom_site_fract_y
 _atom_site_fract_z
 _atom_site_occupancy
  Sr  Sr0  1  0.25000000  0.61317177  0.90354160  1
  Sr  Sr1  1  0.25000000  0.90666100  0.18550574  1
  Sr  Sr2  1  0.75000000  0.16033216  0.23844120  1
  Sr  Sr3  1  0.25000000  0.11317177  0.59645840  1
  Sr  Sr4  1  0.25000000  0.40666100  0.31449426  1
  Sr  Sr5  1  0.75000000  0.66033216  0.26155880  1
  Sr  Sr6  1  0.75000000  0.09333900  0.81449426  1
  Sr  Sr7  1  0.25000000  0.12511345  0.03221576  1
  Sr  Sr8  1  0.75000000  0.37488655  0.53221576  1
  Sr  Sr9  1  0.75000000  0.88682823  0.40354160  1
  Sr  Sr10  1  0.25000000  0.83966784  0.76155880  1
  Sr  Sr11  1  0.25000000  0.33966784  0.73844120  1
  Sr  Sr12  1  0.75000000  0.59333900  0.68550574  1
  Sr  Sr13  1  0.75000000  0.87488655  0.96778424  1
  Sr  Sr14  1  0.75000000  0.38682823  0.09645840  1
  Sr  Sr15  1  0.25000000  0.62511345  0.46778424  1
  C  C16  1  0.25000000  0.64941422  0.09668556  1
  C  C17  1  0.25000000  0.14941422  0.40331444  1
  C  C18  1  0.75000000  0.85058578  0.59668556  1
  C  C19  1  0.75000000  0.35058578  0.90331444  1
  N  N20  1  0.25000000  0.55539852  0.12790368  1
  N  N21  1  0.75000000  0.01421349  0.12068834  1
  N  N22  1  0.75000000  0.51421349  0.37931166  1
  N  N23  1  0.75000000  0.94460148  0.62790368  1
  N  N24  1  0.25000000  0.48578651  0.62068834  1
  N  N25  1  0.25000000  0.78028500  0.33076903  1
  N  N26  1  0.25000000  0.05539852  0.37209632  1
  N  N27  1  0.75000000  0.25812329  0.93690965  1
  N  N28  1  0.25000000  0.24187671  0.43690965  1
  N  N29  1  0.25000000  0.74187671  0.06309035  1
  N  N30  1  0.75000000  0.21971500  0.66923097  1
  N  N31  1  0.25000000  0.98578651  0.87931166  1
  N  N32  1  0.75000000  0.75812329  0.56309035  1
  N  N33  1  0.75000000  0.71971500  0.83076903  1
  N  N34  1  0.75000000  0.44460148  0.87209632  1
  N  N35  1  0.25000000  0.28028500  0.16923097  1
