# generated using pymatgen
data_LuOs2
_symmetry_space_group_name_H-M   'P 1'
_cell_length_a   5.30087077
_cell_length_b   5.30087077
_cell_length_c   8.75144227
_cell_angle_alpha   90.00000000
_cell_angle_beta   90.00000000
_cell_angle_gamma   119.99390240
_symmetry_Int_Tables_number   1
_chemical_formula_structural   LuOs2
_chemical_formula_sum   'Lu4 Os8'
_cell_volume   212.97634954
_cell_formula_units_Z   4
loop_
 _symmetry_equiv_pos_site_id
 _symmetry_equiv_pos_as_xyz
  1  'x, y, z'
loop_
 _atom_site_type_symbol
 _atom_site_label
 _atom_site_symmetry_multiplicity
 _atom_site_fract_x
 _atom_site_fract_y
 _atom_site_fract_z
 _atom_site_occupancy
  Lu  Lu0  1  0.66669070  0.33330930  0.56436842  1
  Lu  Lu1  1  0.33330930  0.66669070  0.43563158  1
  Lu  Lu2  1  0.33330930  0.66669070  0.06436842  1
  Lu  Lu3  1  0.66669070  0.33330930  0.93563158  1
  Os  Os4  1  0.00000000  0.00000000  0.50000000  1
  Os  Os5  1  0.00000000  0.00000000  0.00000000  1
  Os  Os6  1  0.17316727  0.34622884  0.75000000  1
  Os  Os7  1  0.17306410  0.82693590  0.75000000  1
  Os  Os8  1  0.65377116  0.82683273  0.75000000  1
  Os  Os9  1  0.82683273  0.65377116  0.25000000  1
  Os  Os10  1  0.82693590  0.17306410  0.25000000  1
  Os  Os11  1  0.34622884  0.17316727  0.25000000  1
