# generated using pymatgen
data_Nd17Au36
_symmetry_space_group_name_H-M   'P 1'
_cell_length_a   9.46540725
_cell_length_b   16.12513402
_cell_length_c   16.12513402
_cell_angle_alpha   90.00000000
_cell_angle_beta   90.00000000
_cell_angle_gamma   90.00000000
_symmetry_Int_Tables_number   1
_chemical_formula_structural   Nd17Au36
_chemical_formula_sum   'Nd34 Au72'
_cell_volume   2461.19469302
_cell_formula_units_Z   2
loop_
 _symmetry_equiv_pos_site_id
 _symmetry_equiv_pos_as_xyz
  1  'x, y, z'
loop_
 _atom_site_type_symbol
 _atom_site_label
 _atom_site_symmetry_multiplicity
 _atom_site_fract_x
 _atom_site_fract_y
 _atom_site_fract_z
 _atom_site_occupancy
  Nd  Nd0  1  0.11711295  0.25000000  0.49665129  1
  Nd  Nd1  1  0.38675948  0.57979538  0.92020462  1
  Nd  Nd2  1  0.41304089  0.75000000  0.40880239  1
  Nd  Nd3  1  0.70377647  0.25000000  0.25000000  1
  Nd  Nd4  1  0.38675948  0.92020462  0.92020462  1
  Nd  Nd5  1  0.88288705  0.75000000  0.99665129  1
  Nd  Nd6  1  0.41304089  0.40880239  0.75000000  1
  Nd  Nd7  1  0.41304089  0.75000000  0.09119761  1
  Nd  Nd8  1  0.88288705  0.50334871  0.75000000  1
  Nd  Nd9  1  0.29622353  0.75000000  0.75000000  1
  Nd  Nd10  1  0.21273183  0.25000000  0.25000000  1
  Nd  Nd11  1  0.11711295  0.49665129  0.25000000  1
  Nd  Nd12  1  0.61324052  0.42020462  0.07979538  1
  Nd  Nd13  1  0.11711295  0.00334871  0.25000000  1
  Nd  Nd14  1  0.38675948  0.92020462  0.57979538  1
  Nd  Nd15  1  0.38675948  0.57979538  0.57979538  1
  Nd  Nd16  1  0.00000000  0.75000000  0.25000000  1
  Nd  Nd17  1  0.11711295  0.25000000  0.00334871  1
  Nd  Nd18  1  0.61324052  0.07979538  0.07979538  1
  Nd  Nd19  1  0.88288705  0.99665129  0.75000000  1
  Nd  Nd20  1  0.00000000  0.50000000  0.00000000  1
  Nd  Nd21  1  0.58695911  0.25000000  0.90880239  1
  Nd  Nd22  1  0.41304089  0.09119761  0.75000000  1
  Nd  Nd23  1  0.61324052  0.42020462  0.42020462  1
  Nd  Nd24  1  0.00000000  0.25000000  0.75000000  1
  Nd  Nd25  1  0.58695911  0.90880239  0.25000000  1
  Nd  Nd26  1  0.61324052  0.07979538  0.42020462  1
  Nd  Nd27  1  0.00000000  0.00000000  0.00000000  1
  Nd  Nd28  1  0.78726817  0.75000000  0.75000000  1
  Nd  Nd29  1  0.58695911  0.25000000  0.59119761  1
  Nd  Nd30  1  0.00000000  0.50000000  0.50000000  1
  Nd  Nd31  1  0.00000000  0.00000000  0.50000000  1
  Nd  Nd32  1  0.58695911  0.59119761  0.25000000  1
  Nd  Nd33  1  0.88288705  0.75000000  0.50334871  1
  Au  Au34  1  0.96859506  0.14630523  0.35369477  1
  Au  Au35  1  0.63251930  0.61227078  0.04918236  1
  Au  Au36  1  0.12577584  0.08821613  0.65384357  1
  Au  Au37  1  0.87422416  0.58821613  0.34615643  1
  Au  Au38  1  0.36748070  0.38772922  0.54918236  1
  Au  Au39  1  0.22534937  0.75000000  0.55832587  1
  Au  Au40  1  0.77465063  0.44167413  0.25000000  1
  Au  Au41  1  0.46493961  0.39906174  0.25000000  1
  Au  Au42  1  0.22534937  0.55832587  0.75000000  1
  Au  Au43  1  0.12577584  0.84615643  0.08821613  1
  Au  Au44  1  0.87422416  0.34615643  0.58821613  1
  Au  Au45  1  0.63251930  0.61227078  0.45081764  1
  Au  Au46  1  0.87422416  0.15384357  0.58821613  1
  Au  Au47  1  0.12577584  0.41178387  0.65384357  1
  Au  Au48  1  0.96859506  0.35369477  0.35369477  1
  Au  Au49  1  0.71066197  0.75000000  0.33829729  1
  Au  Au50  1  0.46493961  0.10093826  0.25000000  1
  Au  Au51  1  0.12577584  0.41178387  0.84615643  1
  Au  Au52  1  0.87422416  0.15384357  0.91178387  1
  Au  Au53  1  0.87422416  0.34615643  0.91178387  1
  Au  Au54  1  0.87422416  0.58821613  0.15384357  1
  Au  Au55  1  0.77465063  0.05832587  0.25000000  1
  Au  Au56  1  0.87422416  0.91178387  0.15384357  1
  Au  Au57  1  0.71066197  0.75000000  0.16170271  1
  Au  Au58  1  0.36748070  0.95081764  0.38772922  1
  Au  Au59  1  0.96859506  0.35369477  0.14630523  1
  Au  Au60  1  0.12577584  0.65384357  0.41178387  1
  Au  Au61  1  0.36748070  0.54918236  0.11227078  1
  Au  Au62  1  0.36748070  0.38772922  0.95081764  1
  Au  Au63  1  0.12577584  0.08821613  0.84615643  1
  Au  Au64  1  0.22534937  0.75000000  0.94167413  1
  Au  Au65  1  0.71066197  0.16170271  0.75000000  1
  Au  Au66  1  0.63251930  0.88772922  0.45081764  1
  Au  Au67  1  0.12577584  0.65384357  0.08821613  1
  Au  Au68  1  0.36748070  0.11227078  0.54918236  1
  Au  Au69  1  0.22534937  0.94167413  0.75000000  1
  Au  Au70  1  0.03140494  0.85369477  0.85369477  1
  Au  Au71  1  0.63251930  0.45081764  0.88772922  1
  Au  Au72  1  0.28933803  0.25000000  0.66170271  1
  Au  Au73  1  0.63251930  0.04918236  0.88772922  1
  Au  Au74  1  0.87422416  0.91178387  0.34615643  1
  Au  Au75  1  0.63251930  0.88772922  0.04918236  1
  Au  Au76  1  0.74419260  0.88720471  0.61279529  1
  Au  Au77  1  0.77465063  0.25000000  0.05832587  1
  Au  Au78  1  0.96859506  0.14630523  0.14630523  1
  Au  Au79  1  0.28933803  0.66170271  0.25000000  1
  Au  Au80  1  0.03140494  0.64630523  0.85369477  1
  Au  Au81  1  0.53506039  0.60093826  0.75000000  1
  Au  Au82  1  0.74419260  0.61279529  0.61279529  1
  Au  Au83  1  0.53506039  0.75000000  0.60093826  1
  Au  Au84  1  0.63251930  0.45081764  0.61227078  1
  Au  Au85  1  0.46493961  0.25000000  0.39906174  1
  Au  Au86  1  0.28933803  0.25000000  0.83829729  1
  Au  Au87  1  0.36748070  0.95081764  0.11227078  1
  Au  Au88  1  0.71066197  0.33829729  0.75000000  1
  Au  Au89  1  0.46493961  0.25000000  0.10093826  1
  Au  Au90  1  0.25580740  0.38720471  0.38720471  1
  Au  Au91  1  0.53506039  0.75000000  0.89906174  1
  Au  Au92  1  0.74419260  0.61279529  0.88720471  1
  Au  Au93  1  0.03140494  0.64630523  0.64630523  1
  Au  Au94  1  0.36748070  0.54918236  0.38772922  1
  Au  Au95  1  0.25580740  0.11279529  0.11279529  1
  Au  Au96  1  0.77465063  0.25000000  0.44167413  1
  Au  Au97  1  0.12577584  0.84615643  0.41178387  1
  Au  Au98  1  0.74419260  0.88720471  0.88720471  1
  Au  Au99  1  0.28933803  0.83829729  0.25000000  1
  Au  Au100  1  0.25580740  0.11279529  0.38720471  1
  Au  Au101  1  0.63251930  0.04918236  0.61227078  1
  Au  Au102  1  0.25580740  0.38720471  0.11279529  1
  Au  Au103  1  0.03140494  0.85369477  0.64630523  1
  Au  Au104  1  0.53506039  0.89906174  0.75000000  1
  Au  Au105  1  0.36748070  0.11227078  0.95081764  1
