# generated using pymatgen
data_Yb2Co12P7
_symmetry_space_group_name_H-M   'P 1'
_cell_length_a   8.99756032
_cell_length_b   8.99756036
_cell_length_c   3.55247467
_cell_angle_alpha   90.00000000
_cell_angle_beta   90.00000000
_cell_angle_gamma   119.99999983
_symmetry_Int_Tables_number   1
_chemical_formula_structural   Yb2Co12P7
_chemical_formula_sum   'Yb2 Co12 P7'
_cell_volume   249.06411447
_cell_formula_units_Z   1
loop_
 _symmetry_equiv_pos_site_id
 _symmetry_equiv_pos_as_xyz
  1  'x, y, z'
loop_
 _atom_site_type_symbol
 _atom_site_label
 _atom_site_symmetry_multiplicity
 _atom_site_fract_x
 _atom_site_fract_y
 _atom_site_fract_z
 _atom_site_occupancy
  Yb  Yb0  1  0.66666700  0.33333300  0.50000000  1
  Yb  Yb1  1  0.33333300  0.66666700  0.00000000  1
  Co  Co2  1  0.72721430  0.88021427  0.00000000  1
  Co  Co3  1  0.94095629  0.37624489  0.00000000  1
  Co  Co4  1  0.23566739  0.10354038  0.50000000  1
  Co  Co5  1  0.89645962  0.13212701  0.50000000  1
  Co  Co6  1  0.15299998  0.27278570  0.00000000  1
  Co  Co7  1  0.38268581  0.43545768  0.50000000  1
  Co  Co8  1  0.11978573  0.84700002  0.00000000  1
  Co  Co9  1  0.43528860  0.05904371  0.00000000  1
  Co  Co10  1  0.05277187  0.61731419  0.50000000  1
  Co  Co11  1  0.56454232  0.94722813  0.50000000  1
  Co  Co12  1  0.62375511  0.56471140  0.00000000  1
  Co  Co13  1  0.86787299  0.76433261  0.50000000  1
  P  P14  1  0.40581497  0.29253938  0.00000000  1
  P  P15  1  0.29175285  0.88931884  0.50000000  1
  P  P16  1  0.70746062  0.11327559  0.00000000  1
  P  P17  1  0.59756599  0.70824715  0.50000000  1
  P  P18  1  0.88672441  0.59418503  0.00000000  1
  P  P19  1  0.11068116  0.40243401  0.50000000  1
  P  P20  1  0.00000000  0.00000000  0.00000000  1
