# generated using pymatgen
data_TlCoCl3
_symmetry_space_group_name_H-M   'P 1'
_cell_length_a   5.88928138
_cell_length_b   12.20024530
_cell_length_c   14.01640865
_cell_angle_alpha   90.00000000
_cell_angle_beta   90.00000000
_cell_angle_gamma   90.00000000
_symmetry_Int_Tables_number   1
_chemical_formula_structural   TlCoCl3
_chemical_formula_sum   'Tl8 Co8 Cl24'
_cell_volume   1007.08845729
_cell_formula_units_Z   8
loop_
 _symmetry_equiv_pos_site_id
 _symmetry_equiv_pos_as_xyz
  1  'x, y, z'
loop_
 _atom_site_type_symbol
 _atom_site_label
 _atom_site_symmetry_multiplicity
 _atom_site_fract_x
 _atom_site_fract_y
 _atom_site_fract_z
 _atom_site_occupancy
  Tl  Tl0  1  0.75073751  0.58153550  0.12317120  1
  Tl  Tl1  1  0.25073751  0.91846450  0.12317120  1
  Tl  Tl2  1  0.24926249  0.41846450  0.87682880  1
  Tl  Tl3  1  0.74926249  0.58153550  0.62317120  1
  Tl  Tl4  1  0.24926249  0.91846450  0.62317120  1
  Tl  Tl5  1  0.75073751  0.08153550  0.37682880  1
  Tl  Tl6  1  0.74926249  0.08153550  0.87682880  1
  Tl  Tl7  1  0.25073751  0.41846450  0.37682880  1
  Co  Co8  1  0.54281899  0.25026424  0.12548737  1
  Co  Co9  1  0.54281899  0.75026424  0.37451263  1
  Co  Co10  1  0.45718101  0.74973576  0.87451263  1
  Co  Co11  1  0.45718101  0.24973576  0.62548737  1
  Co  Co12  1  0.04281899  0.24973576  0.12548737  1
  Co  Co13  1  0.95718101  0.25026424  0.62548737  1
  Co  Co14  1  0.95718101  0.75026424  0.87451263  1
  Co  Co15  1  0.04281899  0.74973576  0.37451263  1
  Cl  Cl16  1  0.79449550  0.59146631  0.37467447  1
  Cl  Cl17  1  0.70408100  0.32886706  0.74412038  1
  Cl  Cl18  1  0.79469571  0.32843336  0.00555162  1
  Cl  Cl19  1  0.79591900  0.32886706  0.24412038  1
  Cl  Cl20  1  0.20530429  0.17156664  0.50555162  1
  Cl  Cl21  1  0.20550450  0.90853369  0.87467447  1
  Cl  Cl22  1  0.70550450  0.59146631  0.87467447  1
  Cl  Cl23  1  0.70530429  0.82843336  0.99444838  1
  Cl  Cl24  1  0.79469571  0.82843336  0.49444838  1
  Cl  Cl25  1  0.70530429  0.32843336  0.50555162  1
  Cl  Cl26  1  0.29449550  0.90853369  0.37467447  1
  Cl  Cl27  1  0.20408100  0.67113294  0.75587962  1
  Cl  Cl28  1  0.29469571  0.17156664  0.00555162  1
  Cl  Cl29  1  0.20530429  0.67156664  0.99444838  1
  Cl  Cl30  1  0.29591900  0.17113294  0.24412038  1
  Cl  Cl31  1  0.20550450  0.40853369  0.62532553  1
  Cl  Cl32  1  0.79591900  0.82886706  0.25587962  1
  Cl  Cl33  1  0.29449550  0.40853369  0.12532553  1
  Cl  Cl34  1  0.79449550  0.09146631  0.12532553  1
  Cl  Cl35  1  0.70550450  0.09146631  0.62532553  1
  Cl  Cl36  1  0.29469571  0.67156664  0.49444838  1
  Cl  Cl37  1  0.70408100  0.82886706  0.75587962  1
  Cl  Cl38  1  0.20408100  0.17113294  0.74412038  1
  Cl  Cl39  1  0.29591900  0.67113294  0.25587962  1
