# generated using pymatgen
data_K(CuSe)2
_symmetry_space_group_name_H-M   'P 1'
_cell_length_a   3.98116418
_cell_length_b   3.98186366
_cell_length_c   7.41106281
_cell_angle_alpha   105.54756081
_cell_angle_beta   105.54735740
_cell_angle_gamma   90.13730111
_symmetry_Int_Tables_number   1
_chemical_formula_structural   K(CuSe)2
_chemical_formula_sum   'K1 Cu2 Se2'
_cell_volume   108.69371195
_cell_formula_units_Z   1
loop_
 _symmetry_equiv_pos_site_id
 _symmetry_equiv_pos_as_xyz
  1  'x, y, z'
loop_
 _atom_site_type_symbol
 _atom_site_label
 _atom_site_symmetry_multiplicity
 _atom_site_fract_x
 _atom_site_fract_y
 _atom_site_fract_z
 _atom_site_occupancy
  K  K0  1  0.50000000  0.50000000  0.00000000  1
  Cu  Cu1  1  0.75003256  0.24998274  0.49998698  1
  Cu  Cu2  1  0.24996744  0.75001726  0.50001302  1
  Se  Se3  1  0.14269378  0.14271836  0.28590550  1
  Se  Se4  1  0.85730622  0.85728164  0.71409450  1
