# generated using pymatgen
data_U2AlCo2
_symmetry_space_group_name_H-M   'P 1'
_cell_length_a   3.39470155
_cell_length_b   7.08665824
_cell_length_c   7.08665824
_cell_angle_alpha   90.00000000
_cell_angle_beta   90.00000000
_cell_angle_gamma   90.00000000
_symmetry_Int_Tables_number   1
_chemical_formula_structural   U2AlCo2
_chemical_formula_sum   'U4 Al2 Co4'
_cell_volume   170.48437304
_cell_formula_units_Z   2
loop_
 _symmetry_equiv_pos_site_id
 _symmetry_equiv_pos_as_xyz
  1  'x, y, z'
loop_
 _atom_site_type_symbol
 _atom_site_label
 _atom_site_symmetry_multiplicity
 _atom_site_fract_x
 _atom_site_fract_y
 _atom_site_fract_z
 _atom_site_occupancy
  Al  Al0  1  0.00000000  0.00000000  0.00000000  1
  Al  Al1  1  0.00000000  0.50000000  0.50000000  1
  Co  Co2  1  0.00000000  0.36277497  0.86277497  1
  Co  Co3  1  0.00000000  0.13722503  0.36277497  1
  Co  Co4  1  0.00000000  0.86277497  0.63722503  1
  Co  Co5  1  0.00000000  0.63722503  0.13722503  1
  U  U6  1  0.50000000  0.17165981  0.67165981  1
  U  U7  1  0.50000000  0.32834019  0.17165981  1
  U  U8  1  0.50000000  0.67165981  0.82834019  1
  U  U9  1  0.50000000  0.82834019  0.32834019  1
