# generated using pymatgen
data_Er3(CuGe)4
_symmetry_space_group_name_H-M   'P 1'
_cell_length_a   4.17453212
_cell_length_b   6.64130935
_cell_length_c   7.94984807
_cell_angle_alpha   114.69154191
_cell_angle_beta   105.22708639
_cell_angle_gamma   89.99624728
_symmetry_Int_Tables_number   1
_chemical_formula_structural   Er3(CuGe)4
_chemical_formula_sum   'Er3 Cu4 Ge4'
_cell_volume   191.70511471
_cell_formula_units_Z   1
loop_
 _symmetry_equiv_pos_site_id
 _symmetry_equiv_pos_as_xyz
  1  'x, y, z'
loop_
 _atom_site_type_symbol
 _atom_site_label
 _atom_site_symmetry_multiplicity
 _atom_site_fract_x
 _atom_site_fract_y
 _atom_site_fract_z
 _atom_site_occupancy
  Er  Er0  1  0.87101828  0.87100559  0.74201668  1
  Er  Er1  1  0.12898172  0.12899441  0.25798332  1
  Er  Er2  1  0.00000000  0.50000000  0.00000000  1
  Cu  Cu3  1  0.32942391  0.13705662  0.65772637  1
  Cu  Cu4  1  0.32917729  0.52076640  0.65782084  1
  Cu  Cu5  1  0.67057609  0.86294338  0.34227363  1
  Cu  Cu6  1  0.67082271  0.47923360  0.34217916  1
  Ge  Ge7  1  0.49998479  0.80659964  1.00000518  1
  Ge  Ge8  1  0.78367032  0.28356950  0.56711453  1
  Ge  Ge9  1  0.21632968  0.71643050  0.43288547  1
  Ge  Ge10  1  0.50001521  0.19340036  -0.00000518  1
