# generated using pymatgen
data_Er2Fe14C
_symmetry_space_group_name_H-M   'P 1'
_cell_length_a   8.70963036
_cell_length_b   8.70963036
_cell_length_c   11.66237922
_cell_angle_alpha   90.00000000
_cell_angle_beta   90.00000000
_cell_angle_gamma   90.00000000
_symmetry_Int_Tables_number   1
_chemical_formula_structural   Er2Fe14C
_chemical_formula_sum   'Er8 Fe56 C4'
_cell_volume   884.68080942
_cell_formula_units_Z   4
loop_
 _symmetry_equiv_pos_site_id
 _symmetry_equiv_pos_as_xyz
  1  'x, y, z'
loop_
 _atom_site_type_symbol
 _atom_site_label
 _atom_site_symmetry_multiplicity
 _atom_site_fract_x
 _atom_site_fract_y
 _atom_site_fract_z
 _atom_site_occupancy
  Er  Er0  1  0.85607767  0.14392233  0.00000000  1
  Er  Er1  1  0.14392233  0.85607767  0.00000000  1
  Er  Er2  1  0.64392233  0.64392233  0.50000000  1
  Er  Er3  1  0.75867991  0.24132009  0.50000000  1
  Er  Er4  1  0.25867991  0.25867991  0.00000000  1
  Er  Er5  1  0.24132009  0.75867991  0.50000000  1
  Er  Er6  1  0.35607767  0.35607767  0.50000000  1
  Er  Er7  1  0.74132009  0.74132009  0.00000000  1
  Fe  Fe8  1  0.72529026  0.93589536  0.62011951  1
  Fe  Fe9  1  0.03572947  0.35762172  0.17498471  1
  Fe  Fe10  1  0.03572947  0.35762172  0.82501529  1
  Fe  Fe11  1  0.53572947  0.14237828  0.32501529  1
  Fe  Fe12  1  0.35762172  0.03572947  0.17498471  1
  Fe  Fe13  1  0.43589536  0.77470974  0.12011951  1
  Fe  Fe14  1  0.64237828  0.96427053  0.17498471  1
  Fe  Fe15  1  0.50000000  0.50000000  0.89189384  1
  Fe  Fe16  1  0.77470974  0.43589536  0.12011951  1
  Fe  Fe17  1  0.27470974  0.06410464  0.37988049  1
  Fe  Fe18  1  0.09692198  0.09692198  0.20291270  1
  Fe  Fe19  1  0.85762172  0.46427053  0.67498471  1
  Fe  Fe20  1  0.93589536  0.72529026  0.62011951  1
  Fe  Fe21  1  0.81570417  0.18429583  0.25468010  1
  Fe  Fe22  1  0.96427053  0.64237828  0.82501529  1
  Fe  Fe23  1  0.22529026  0.56410464  0.87988049  1
  Fe  Fe24  1  0.56410464  0.22529026  0.87988049  1
  Fe  Fe25  1  0.14237828  0.53572947  0.32501529  1
  Fe  Fe26  1  0.18429583  0.81570417  0.25468010  1
  Fe  Fe27  1  0.31570417  0.31570417  0.75468010  1
  Fe  Fe28  1  0.68429583  0.68429583  0.24531990  1
  Fe  Fe29  1  0.35762172  0.03572947  0.82501529  1
  Fe  Fe30  1  0.31570417  0.31570417  0.24531990  1
  Fe  Fe31  1  0.90307802  0.90307802  0.20291270  1
  Fe  Fe32  1  0.06410464  0.27470974  0.37988049  1
  Fe  Fe33  1  0.72529026  0.93589536  0.37988049  1
  Fe  Fe34  1  0.85762172  0.46427053  0.32501529  1
  Fe  Fe35  1  0.64237828  0.96427053  0.82501529  1
  Fe  Fe36  1  0.46427053  0.85762172  0.32501529  1
  Fe  Fe37  1  0.59692198  0.40307802  0.70291270  1
  Fe  Fe38  1  0.90307802  0.90307802  0.79708730  1
  Fe  Fe39  1  0.00000000  0.50000000  0.50000000  1
  Fe  Fe40  1  0.27470974  0.06410464  0.62011951  1
  Fe  Fe41  1  0.14237828  0.53572947  0.67498471  1
  Fe  Fe42  1  0.46427053  0.85762172  0.67498471  1
  Fe  Fe43  1  0.50000000  0.50000000  0.10810616  1
  Fe  Fe44  1  0.93589536  0.72529026  0.37988049  1
  Fe  Fe45  1  0.53572947  0.14237828  0.67498471  1
  Fe  Fe46  1  0.43589536  0.77470974  0.87988049  1
  Fe  Fe47  1  0.96427053  0.64237828  0.17498471  1
  Fe  Fe48  1  0.81570417  0.18429583  0.74531990  1
  Fe  Fe49  1  0.22529026  0.56410464  0.12011951  1
  Fe  Fe50  1  0.59692198  0.40307802  0.29708730  1
  Fe  Fe51  1  0.06410464  0.27470974  0.62011951  1
  Fe  Fe52  1  0.68429583  0.68429583  0.75468010  1
  Fe  Fe53  1  0.56410464  0.22529026  0.12011951  1
  Fe  Fe54  1  0.00000000  0.00000000  0.60810616  1
  Fe  Fe55  1  0.18429583  0.81570417  0.74531990  1
  Fe  Fe56  1  0.09692198  0.09692198  0.79708730  1
  Fe  Fe57  1  0.77470974  0.43589536  0.87988049  1
  Fe  Fe58  1  0.00000000  0.50000000  0.00000000  1
  Fe  Fe59  1  0.40307802  0.59692198  0.70291270  1
  Fe  Fe60  1  0.00000000  0.00000000  0.39189384  1
  Fe  Fe61  1  0.50000000  0.00000000  0.50000000  1
  Fe  Fe62  1  0.50000000  0.00000000  0.00000000  1
  Fe  Fe63  1  0.40307802  0.59692198  0.29708730  1
  C  C64  1  0.12757891  0.12757891  0.50000000  1
  C  C65  1  0.87242109  0.87242109  0.50000000  1
  C  C66  1  0.62757891  0.37242109  0.00000000  1
  C  C67  1  0.37242109  0.62757891  0.00000000  1
