# generated using pymatgen
data_TaPt3
_symmetry_space_group_name_H-M   'P 1'
_cell_length_a   4.93681259
_cell_length_b   5.61204780
_cell_length_c   9.39611051
_cell_angle_alpha   90.00000000
_cell_angle_beta   100.59336089
_cell_angle_gamma   90.00000000
_symmetry_Int_Tables_number   1
_chemical_formula_structural   TaPt3
_chemical_formula_sum   'Ta4 Pt12'
_cell_volume   255.88833426
_cell_formula_units_Z   4
loop_
 _symmetry_equiv_pos_site_id
 _symmetry_equiv_pos_as_xyz
  1  'x, y, z'
loop_
 _atom_site_type_symbol
 _atom_site_label
 _atom_site_symmetry_multiplicity
 _atom_site_fract_x
 _atom_site_fract_y
 _atom_site_fract_z
 _atom_site_occupancy
  Ta  Ta0  1  0.62319232  0.75000000  0.87799527  1
  Ta  Ta1  1  0.37680768  0.25000000  0.12200473  1
  Ta  Ta2  1  0.78562314  0.75000000  0.37273935  1
  Ta  Ta3  1  0.21437686  0.25000000  0.62726065  1
  Pt  Pt4  1  0.38869238  0.75000000  0.12415409  1
  Pt  Pt5  1  0.61130762  0.25000000  0.87584591  1
  Pt  Pt6  1  0.20651176  0.75000000  0.62708992  1
  Pt  Pt7  1  0.79348824  0.25000000  0.37291008  1
  Pt  Pt8  1  0.12352563  0.50157992  0.87429556  1
  Pt  Pt9  1  0.87647437  0.00157992  0.12570444  1
  Pt  Pt10  1  0.87647437  0.49842008  0.12570444  1
  Pt  Pt11  1  0.12352563  0.99842008  0.87429556  1
  Pt  Pt12  1  0.29147074  0.49901547  0.37646704  1
  Pt  Pt13  1  0.70852926  0.99901547  0.62353296  1
  Pt  Pt14  1  0.70852926  0.50098453  0.62353296  1
  Pt  Pt15  1  0.29147074  0.00098453  0.37646704  1
