# generated using pymatgen
data_Ba12Na15Li8N6
_symmetry_space_group_name_H-M   'P 1'
_cell_length_a   13.11325916
_cell_length_b   13.11325920
_cell_length_c   13.11325971
_cell_angle_alpha   56.35117507
_cell_angle_beta   56.35117499
_cell_angle_gamma   56.35117611
_symmetry_Int_Tables_number   1
_chemical_formula_structural   Ba12Na15Li8N6
_chemical_formula_sum   'Ba12 Na15 Li8 N6'
_cell_volume   1459.90456832
_cell_formula_units_Z   1
loop_
 _symmetry_equiv_pos_site_id
 _symmetry_equiv_pos_as_xyz
  1  'x, y, z'
loop_
 _atom_site_type_symbol
 _atom_site_label
 _atom_site_symmetry_multiplicity
 _atom_site_fract_x
 _atom_site_fract_y
 _atom_site_fract_z
 _atom_site_occupancy
  Ba  Ba0  1  0.01982756  0.67782564  0.01982756  1
  Ba  Ba1  1  0.63861137  0.27352035  0.27352035  1
  Ba  Ba2  1  0.27352035  0.63861137  0.27352035  1
  Ba  Ba3  1  0.98017244  0.98017244  0.32217436  1
  Ba  Ba4  1  0.67782564  0.01982756  0.01982756  1
  Ba  Ba5  1  0.27352035  0.27352035  0.63861137  1
  Ba  Ba6  1  0.72647965  0.72647965  0.36138863  1
  Ba  Ba7  1  0.36138863  0.72647965  0.72647965  1
  Ba  Ba8  1  0.32217436  0.98017244  0.98017244  1
  Ba  Ba9  1  0.01982756  0.01982756  0.67782564  1
  Ba  Ba10  1  0.98017244  0.32217436  0.98017244  1
  Ba  Ba11  1  0.72647965  0.36138863  0.72647965  1
  Na  Na12  1  0.14475690  0.64641998  0.64641998  1
  Na  Na13  1  0.60243402  0.91522716  0.60243402  1
  Na  Na14  1  0.08477284  0.39756598  0.39756598  1
  Na  Na15  1  0.64641998  0.14475690  0.64641998  1
  Na  Na16  1  0.39756598  0.39756598  0.08477284  1
  Na  Na17  1  0.79799210  0.79799210  0.79799210  1
  Na  Na18  1  0.64641998  0.64641998  0.14475690  1
  Na  Na19  1  0.50000000  0.50000000  0.50000000  1
  Na  Na20  1  0.60243402  0.60243402  0.91522716  1
  Na  Na21  1  0.35358002  0.35358002  0.85524310  1
  Na  Na22  1  0.91522716  0.60243402  0.60243402  1
  Na  Na23  1  0.39756598  0.08477284  0.39756598  1
  Na  Na24  1  0.85524310  0.35358002  0.35358002  1
  Na  Na25  1  0.35358002  0.85524310  0.35358002  1
  Na  Na26  1  0.20200790  0.20200790  0.20200790  1
  Li  Li27  1  0.96152193  0.96152193  0.96152193  1
  Li  Li28  1  0.03847807  0.03847807  0.03847807  1
  Li  Li29  1  0.20292787  0.00000000  0.79707213  1
  Li  Li30  1  0.00000000  0.79707213  0.20292787  1
  Li  Li31  1  0.00000000  0.20292787  0.79707213  1
  Li  Li32  1  0.79707213  0.20292787  0.00000000  1
  Li  Li33  1  0.20292787  0.79707213  0.00000000  1
  Li  Li34  1  0.79707213  0.00000000  0.20292787  1
  N  N35  1  0.85529371  0.14559365  0.14559365  1
  N  N36  1  0.14470629  0.85440635  0.85440635  1
  N  N37  1  0.14559365  0.14559365  0.85529371  1
  N  N38  1  0.85440635  0.14470629  0.85440635  1
  N  N39  1  0.85440635  0.85440635  0.14470629  1
  N  N40  1  0.14559365  0.85529371  0.14559365  1
