# generated using pymatgen
data_FeCl3
_symmetry_space_group_name_H-M   'P 1'
_cell_length_a   7.26846315
_cell_length_b   7.26846315
_cell_length_c   7.26846315
_cell_angle_alpha   48.16556873
_cell_angle_beta   48.16556876
_cell_angle_gamma   48.16556871
_symmetry_Int_Tables_number   1
_chemical_formula_structural   FeCl3
_chemical_formula_sum   'Fe2 Cl6'
_cell_volume   195.36394876
_cell_formula_units_Z   2
loop_
 _symmetry_equiv_pos_site_id
 _symmetry_equiv_pos_as_xyz
  1  'x, y, z'
loop_
 _atom_site_type_symbol
 _atom_site_label
 _atom_site_symmetry_multiplicity
 _atom_site_fract_x
 _atom_site_fract_y
 _atom_site_fract_z
 _atom_site_occupancy
  Cl  Cl0  1  0.55966638  0.93333433  0.30680826  1
  Cl  Cl1  1  0.93333433  0.30680826  0.55966638  1
  Cl  Cl2  1  0.69319174  0.44033362  0.06666567  1
  Cl  Cl3  1  0.06666567  0.69319174  0.44033362  1
  Cl  Cl4  1  0.44033362  0.06666567  0.69319174  1
  Cl  Cl5  1  0.30680826  0.55966638  0.93333433  1
  Fe  Fe6  1  0.66667898  0.66667898  0.66667898  1
  Fe  Fe7  1  0.33332102  0.33332102  0.33332102  1
