# generated using pymatgen
data_Er4InIr
_symmetry_space_group_name_H-M   'P 1'
_cell_length_a   9.58663739
_cell_length_b   9.58663744
_cell_length_c   9.58663712
_cell_angle_alpha   60.00000112
_cell_angle_beta   60.00000095
_cell_angle_gamma   59.99999875
_symmetry_Int_Tables_number   1
_chemical_formula_structural   Er4InIr
_chemical_formula_sum   'Er16 In4 Ir4'
_cell_volume   622.99404790
_cell_formula_units_Z   4
loop_
 _symmetry_equiv_pos_site_id
 _symmetry_equiv_pos_as_xyz
  1  'x, y, z'
loop_
 _atom_site_type_symbol
 _atom_site_label
 _atom_site_symmetry_multiplicity
 _atom_site_fract_x
 _atom_site_fract_y
 _atom_site_fract_z
 _atom_site_occupancy
  Er  Er0  1  0.93956764  0.56043236  0.56043236  1
  Er  Er1  1  0.34933030  0.34933030  0.34933030  1
  Er  Er2  1  0.80882982  0.19117018  0.80882982  1
  Er  Er3  1  0.56043236  0.93956764  0.56043236  1
  Er  Er4  1  0.80882982  0.19117018  0.19117018  1
  Er  Er5  1  0.34933030  0.95200910  0.34933030  1
  Er  Er6  1  0.95200910  0.34933030  0.34933030  1
  Er  Er7  1  0.56043236  0.56043236  0.93956764  1
  Er  Er8  1  0.34933030  0.34933030  0.95200910  1
  Er  Er9  1  0.80882982  0.80882982  0.19117018  1
  Er  Er10  1  0.19117018  0.80882982  0.19117018  1
  Er  Er11  1  0.19117018  0.19117018  0.80882982  1
  Er  Er12  1  0.19117018  0.80882982  0.80882982  1
  Er  Er13  1  0.93956764  0.93956764  0.56043236  1
  Er  Er14  1  0.56043236  0.93956764  0.93956764  1
  Er  Er15  1  0.93956764  0.56043236  0.93956764  1
  In  In16  1  0.25077803  0.58307399  0.58307399  1
  In  In17  1  0.58307399  0.58307399  0.25077803  1
  In  In18  1  0.58307399  0.58307399  0.58307399  1
  In  In19  1  0.58307399  0.25077803  0.58307399  1
  Ir  Ir20  1  0.14138135  0.57585596  0.14138135  1
  Ir  Ir21  1  0.57585596  0.14138135  0.14138135  1
  Ir  Ir22  1  0.14138135  0.14138135  0.57585596  1
  Ir  Ir23  1  0.14138135  0.14138135  0.14138135  1
