# generated using pymatgen
data_Ce2Ge4Pt7
_symmetry_space_group_name_H-M   'P 1'
_cell_length_a   4.10844421
_cell_length_b   11.59261407
_cell_length_c   20.11886735
_cell_angle_alpha   90.00000000
_cell_angle_beta   90.00000000
_cell_angle_gamma   90.00000000
_symmetry_Int_Tables_number   1
_chemical_formula_structural   Ce2Ge4Pt7
_chemical_formula_sum   'Ce8 Ge16 Pt28'
_cell_volume   958.21353066
_cell_formula_units_Z   4
loop_
 _symmetry_equiv_pos_site_id
 _symmetry_equiv_pos_as_xyz
  1  'x, y, z'
loop_
 _atom_site_type_symbol
 _atom_site_label
 _atom_site_symmetry_multiplicity
 _atom_site_fract_x
 _atom_site_fract_y
 _atom_site_fract_z
 _atom_site_occupancy
  Ce  Ce0  1  0.75000000  0.74309120  0.02808914  1
  Ce  Ce1  1  0.75000000  0.75690880  0.52808914  1
  Ce  Ce2  1  0.25000000  0.25690880  0.97191086  1
  Ce  Ce3  1  0.25000000  0.01398107  0.28064090  1
  Ce  Ce4  1  0.25000000  0.24309120  0.47191086  1
  Ce  Ce5  1  0.75000000  0.98601893  0.71935910  1
  Ce  Ce6  1  0.25000000  0.48601893  0.78064090  1
  Ce  Ce7  1  0.75000000  0.51398107  0.21935910  1
  Ge  Ge8  1  0.75000000  0.42290437  0.41438709  1
  Ge  Ge9  1  0.25000000  0.29292700  0.25577776  1
  Ge  Ge10  1  0.25000000  0.56411466  0.08682740  1
  Ge  Ge11  1  0.25000000  0.92290437  0.08561291  1
  Ge  Ge12  1  0.25000000  0.20707300  0.75577776  1
  Ge  Ge13  1  0.75000000  0.24685171  0.59486394  1
  Ge  Ge14  1  0.75000000  0.43588534  0.91317260  1
  Ge  Ge15  1  0.25000000  0.74685171  0.90513606  1
  Ge  Ge16  1  0.25000000  0.93588534  0.58682740  1
  Ge  Ge17  1  0.75000000  0.06411466  0.41317260  1
  Ge  Ge18  1  0.75000000  0.70707300  0.74422224  1
  Ge  Ge19  1  0.75000000  0.79292700  0.24422224  1
  Ge  Ge20  1  0.25000000  0.75314829  0.40513606  1
  Ge  Ge21  1  0.75000000  0.25314829  0.09486394  1
  Ge  Ge22  1  0.25000000  0.57709563  0.58561291  1
  Ge  Ge23  1  0.75000000  0.07709563  0.91438709  1
  Pt  Pt24  1  0.75000000  0.45249749  0.04135869  1
  Pt  Pt25  1  0.75000000  0.62061724  0.37014455  1
  Pt  Pt26  1  0.75000000  0.43686790  0.53488833  1
  Pt  Pt27  1  0.75000000  0.87938276  0.87014455  1
  Pt  Pt28  1  0.75000000  0.06313210  0.03488833  1
  Pt  Pt29  1  0.25000000  0.54750251  0.95864131  1
  Pt  Pt30  1  0.25000000  0.12061724  0.12985545  1
  Pt  Pt31  1  0.75000000  0.55151152  0.66194860  1
  Pt  Pt32  1  0.75000000  0.94848848  0.16194860  1
  Pt  Pt33  1  0.75000000  0.25651542  0.84851998  1
  Pt  Pt34  1  0.25000000  0.74348458  0.15148002  1
  Pt  Pt35  1  0.25000000  0.37938276  0.62985545  1
  Pt  Pt36  1  0.25000000  0.82151430  0.78293601  1
  Pt  Pt37  1  0.75000000  0.24348458  0.34851998  1
  Pt  Pt38  1  0.75000000  0.87080232  0.36303140  1
  Pt  Pt39  1  0.25000000  0.93686790  0.96511167  1
  Pt  Pt40  1  0.25000000  0.67848570  0.28293601  1
  Pt  Pt41  1  0.75000000  0.32151430  0.71706399  1
  Pt  Pt42  1  0.75000000  0.62919768  0.86303140  1
  Pt  Pt43  1  0.25000000  0.05151152  0.83805140  1
  Pt  Pt44  1  0.25000000  0.12919768  0.63696860  1
  Pt  Pt45  1  0.25000000  0.95249749  0.45864131  1
  Pt  Pt46  1  0.75000000  0.04750251  0.54135869  1
  Pt  Pt47  1  0.25000000  0.56313210  0.46511167  1
  Pt  Pt48  1  0.25000000  0.44848848  0.33805140  1
  Pt  Pt49  1  0.25000000  0.75651542  0.65148002  1
  Pt  Pt50  1  0.25000000  0.37080232  0.13696860  1
  Pt  Pt51  1  0.75000000  0.17848570  0.21706399  1
