# generated using pymatgen
data_Ba21Al40
_symmetry_space_group_name_H-M   'P 1'
_cell_length_a   10.61866469
_cell_length_b   10.61866462
_cell_length_c   17.35057319
_cell_angle_alpha   90.00000000
_cell_angle_beta   90.00000000
_cell_angle_gamma   120.00000018
_symmetry_Int_Tables_number   1
_chemical_formula_structural   Ba21Al40
_chemical_formula_sum   'Ba21 Al40'
_cell_volume   1694.27642925
_cell_formula_units_Z   1
loop_
 _symmetry_equiv_pos_site_id
 _symmetry_equiv_pos_as_xyz
  1  'x, y, z'
loop_
 _atom_site_type_symbol
 _atom_site_label
 _atom_site_symmetry_multiplicity
 _atom_site_fract_x
 _atom_site_fract_y
 _atom_site_fract_z
 _atom_site_occupancy
  Ba  Ba0  1  0.00000000  0.33213996  0.39132236  1
  Ba  Ba1  1  0.66666700  0.33333300  0.32018301  1
  Ba  Ba2  1  0.67061655  0.00000000  0.67978743  1
  Ba  Ba3  1  0.32938345  0.32938345  0.67978743  1
  Ba  Ba4  1  0.00000000  0.00000000  0.10737398  1
  Ba  Ba5  1  0.00000000  0.32333565  0.60726743  1
  Ba  Ba6  1  0.32927236  0.00000000  0.00093125  1
  Ba  Ba7  1  0.00000000  0.67061655  0.67978743  1
  Ba  Ba8  1  0.66786004  0.66786004  0.39132236  1
  Ba  Ba9  1  0.32333565  0.00000000  0.60726743  1
  Ba  Ba10  1  0.33333300  0.66666700  0.10537804  1
  Ba  Ba11  1  0.00000000  0.66490529  0.89304602  1
  Ba  Ba12  1  0.67666435  0.67666435  0.60726743  1
  Ba  Ba13  1  0.33509471  0.33509471  0.89304602  1
  Ba  Ba14  1  0.66666700  0.33333300  0.10537804  1
  Ba  Ba15  1  0.33333300  0.66666700  0.32018301  1
  Ba  Ba16  1  0.00000000  0.32927236  0.00093125  1
  Ba  Ba17  1  0.33213996  0.00000000  0.39132236  1
  Ba  Ba18  1  0.67072764  0.67072764  0.00093125  1
  Ba  Ba19  1  0.66490529  0.00000000  0.89304602  1
  Ba  Ba20  1  0.00000000  0.00000000  0.32297775  1
  Al  Al21  1  0.33686763  0.52056690  0.50895236  1
  Al  Al22  1  0.15560087  0.33332051  0.21109968  1
  Al  Al23  1  0.49986774  0.16341704  0.78495569  1
  Al  Al24  1  0.82228036  0.66667949  0.21109968  1
  Al  Al25  1  0.48933734  0.00000000  0.21171616  1
  Al  Al26  1  0.00000000  0.00000000  0.53376810  1
  Al  Al27  1  0.33333300  0.66666700  0.90286783  1
  Al  Al28  1  0.17771964  0.84439913  0.21109968  1
  Al  Al29  1  0.19503847  0.00000000  0.79408498  1
  Al  Al30  1  0.00000000  0.66915451  0.33003578  1
  Al  Al31  1  0.33332051  0.15560087  0.21109968  1
  Al  Al32  1  0.24101826  0.24101826  0.47896932  1
  Al  Al33  1  0.80496153  0.80496153  0.79408498  1
  Al  Al34  1  0.66666700  0.33333300  0.90286783  1
  Al  Al35  1  0.00000000  0.75898174  0.47896932  1
  Al  Al36  1  0.51066266  0.51066266  0.21171616  1
  Al  Al37  1  0.81630074  0.47943310  0.50895236  1
  Al  Al38  1  0.50013226  0.66354930  0.78495569  1
  Al  Al39  1  0.00000000  0.48933734  0.21171616  1
  Al  Al40  1  0.84439913  0.17771964  0.21109968  1
  Al  Al41  1  0.00000000  0.66567248  0.09777949  1
  Al  Al42  1  0.33084549  0.33084549  0.33003578  1
  Al  Al43  1  0.33333300  0.66666700  0.65287206  1
  Al  Al44  1  0.00000000  0.19503847  0.79408498  1
  Al  Al45  1  0.66666700  0.33333300  0.65287206  1
  Al  Al46  1  0.16341704  0.49986774  0.78495569  1
  Al  Al47  1  0.47943310  0.81630074  0.50895236  1
  Al  Al48  1  0.18369926  0.66313237  0.50895236  1
  Al  Al49  1  0.66567248  0.00000000  0.09777949  1
  Al  Al50  1  0.33432752  0.33432752  0.09777949  1
  Al  Al51  1  0.83658296  0.33645070  0.78495569  1
  Al  Al52  1  0.66915451  0.00000000  0.33003578  1
  Al  Al53  1  0.52056690  0.33686763  0.50895236  1
  Al  Al54  1  0.66667949  0.82228036  0.21109968  1
  Al  Al55  1  0.75898174  0.00000000  0.47896932  1
  Al  Al56  1  0.66313237  0.18369926  0.50895236  1
  Al  Al57  1  0.33645070  0.83658296  0.78495569  1
  Al  Al58  1  0.00000000  0.00000000  0.89981583  1
  Al  Al59  1  0.66354930  0.50013226  0.78495569  1
  Al  Al60  1  0.00000000  0.00000000  0.69236534  1
