# generated using pymatgen
data_KPr3Te8
_symmetry_space_group_name_H-M   'P 1'
_cell_length_a   9.05727719
_cell_length_b   13.00984555
_cell_length_c   14.38592432
_cell_angle_alpha   90.00000000
_cell_angle_beta   98.99778321
_cell_angle_gamma   90.00000000
_symmetry_Int_Tables_number   1
_chemical_formula_structural   KPr3Te8
_chemical_formula_sum   'K4 Pr12 Te32'
_cell_volume   1674.28797959
_cell_formula_units_Z   4
loop_
 _symmetry_equiv_pos_site_id
 _symmetry_equiv_pos_as_xyz
  1  'x, y, z'
loop_
 _atom_site_type_symbol
 _atom_site_label
 _atom_site_symmetry_multiplicity
 _atom_site_fract_x
 _atom_site_fract_y
 _atom_site_fract_z
 _atom_site_occupancy
  K  K0  1  0.24168087  0.90803178  0.96334407  1
  K  K1  1  0.74168087  0.59196822  0.96334407  1
  K  K2  1  0.75831913  0.09196822  0.03665593  1
  K  K3  1  0.25831913  0.40803178  0.03665593  1
  Pr  Pr4  1  0.41980779  0.91521014  0.65015352  1
  Pr  Pr5  1  0.91980779  0.58478986  0.65015352  1
  Pr  Pr6  1  0.59578781  0.41596197  0.35205110  1
  Pr  Pr7  1  0.08702317  0.75068189  0.34611088  1
  Pr  Pr8  1  0.09578781  0.08403803  0.35205110  1
  Pr  Pr9  1  0.58702317  0.74931811  0.34611088  1
  Pr  Pr10  1  0.08019221  0.41521014  0.34984648  1
  Pr  Pr11  1  0.40421219  0.58403803  0.64794890  1
  Pr  Pr12  1  0.41297683  0.25068189  0.65388912  1
  Pr  Pr13  1  0.90421219  0.91596197  0.64794890  1
  Pr  Pr14  1  0.91297683  0.24931811  0.65388912  1
  Pr  Pr15  1  0.58019221  0.08478986  0.34984648  1
  Te  Te16  1  0.04334366  0.24930355  0.17483700  1
  Te  Te17  1  0.64372235  0.08539135  0.58428499  1
  Te  Te18  1  0.64855510  0.42026254  0.58697020  1
  Te  Te19  1  0.03339491  0.92000138  0.17030305  1
  Te  Te20  1  0.53339491  0.57999862  0.17030305  1
  Te  Te21  1  0.95665634  0.75069645  0.82516300  1
  Te  Te22  1  0.85144490  0.92026254  0.41302980  1
  Te  Te23  1  0.14855510  0.07973746  0.58697020  1
  Te  Te24  1  0.35501709  0.25438839  0.41928913  1
  Te  Te25  1  0.46660509  0.42000138  0.82969695  1
  Te  Te26  1  0.20854587  0.22708949  0.83624912  1
  Te  Te27  1  0.94811009  0.41919124  0.83027958  1
  Te  Te28  1  0.85501709  0.24561161  0.41928913  1
  Te  Te29  1  0.85627765  0.58539135  0.41571501  1
  Te  Te30  1  0.29145413  0.72708949  0.16375088  1
  Te  Te31  1  0.35144490  0.57973746  0.41302980  1
  Te  Te32  1  0.44811009  0.08080876  0.83027958  1
  Te  Te33  1  0.70854587  0.27291051  0.83624912  1
  Te  Te34  1  0.70723977  0.90380227  0.82760615  1
  Te  Te35  1  0.14498291  0.75438839  0.58071087  1
  Te  Te36  1  0.14372235  0.41460865  0.58428499  1
  Te  Te37  1  0.29276023  0.09619773  0.17239385  1
  Te  Te38  1  0.79276023  0.40380227  0.17239385  1
  Te  Te39  1  0.79145413  0.77291051  0.16375088  1
  Te  Te40  1  0.96660509  0.07999862  0.82969695  1
  Te  Te41  1  0.64498291  0.74561161  0.58071087  1
  Te  Te42  1  0.35627765  0.91460865  0.41571501  1
  Te  Te43  1  0.45665634  0.74930355  0.82516300  1
  Te  Te44  1  0.20723977  0.59619773  0.82760615  1
  Te  Te45  1  0.54334366  0.25069645  0.17483700  1
  Te  Te46  1  0.05188991  0.58080876  0.16972042  1
  Te  Te47  1  0.55188991  0.91919124  0.16972042  1
