# generated using pymatgen
data_Y7FeI12
_symmetry_space_group_name_H-M   'P 1'
_cell_length_a   9.72451406
_cell_length_b   9.72451370
_cell_length_c   9.72451410
_cell_angle_alpha   107.01271996
_cell_angle_beta   107.01271936
_cell_angle_gamma   107.01271317
_symmetry_Int_Tables_number   1
_chemical_formula_structural   Y7FeI12
_chemical_formula_sum   'Y7 Fe1 I12'
_cell_volume   765.59420965
_cell_formula_units_Z   1
loop_
 _symmetry_equiv_pos_site_id
 _symmetry_equiv_pos_as_xyz
  1  'x, y, z'
loop_
 _atom_site_type_symbol
 _atom_site_label
 _atom_site_symmetry_multiplicity
 _atom_site_fract_x
 _atom_site_fract_y
 _atom_site_fract_z
 _atom_site_occupancy
  Y  Y0  1  0.02193559  0.09160204  0.29036342  1
  Y  Y1  1  0.09160204  0.29036342  0.02193559  1
  Y  Y2  1  0.50000000  0.50000000  0.50000000  1
  Y  Y3  1  0.70963658  0.97806441  0.90839796  1
  Y  Y4  1  0.97806441  0.90839796  0.70963658  1
  Y  Y5  1  0.29036342  0.02193559  0.09160204  1
  Y  Y6  1  0.90839796  0.70963658  0.97806441  1
  Fe  Fe7  1  0.00000000  0.00000000  0.00000000  1
  I  I8  1  0.77231930  0.32180188  0.92729669  1
  I  I9  1  0.84082364  0.53572454  0.61341917  1
  I  I10  1  0.15917636  0.46427546  0.38658083  1
  I  I11  1  0.32180188  0.92729669  0.77231930  1
  I  I12  1  0.67819812  0.07270331  0.22768070  1
  I  I13  1  0.92729669  0.77231930  0.32180188  1
  I  I14  1  0.38658083  0.15917636  0.46427546  1
  I  I15  1  0.46427546  0.38658083  0.15917636  1
  I  I16  1  0.22768070  0.67819812  0.07270331  1
  I  I17  1  0.07270331  0.22768070  0.67819812  1
  I  I18  1  0.61341917  0.84082364  0.53572454  1
  I  I19  1  0.53572454  0.61341917  0.84082364  1
