# generated using pymatgen
data_TbMg4Cu
_symmetry_space_group_name_H-M   'P 1'
_cell_length_a   4.03729907
_cell_length_b   11.99471381
_cell_length_c   11.99471323
_cell_angle_alpha   112.80880189
_cell_angle_beta   90.00000000
_cell_angle_gamma   90.00000000
_symmetry_Int_Tables_number   1
_chemical_formula_structural   TbMg4Cu
_chemical_formula_sum   'Tb4 Mg16 Cu4'
_cell_volume   535.43787195
_cell_formula_units_Z   4
loop_
 _symmetry_equiv_pos_site_id
 _symmetry_equiv_pos_as_xyz
  1  'x, y, z'
loop_
 _atom_site_type_symbol
 _atom_site_label
 _atom_site_symmetry_multiplicity
 _atom_site_fract_x
 _atom_site_fract_y
 _atom_site_fract_z
 _atom_site_occupancy
  Tb  Tb0  1  0.00000000  0.69744344  0.69744344  1
  Tb  Tb1  1  0.00000000  0.30255656  0.30255656  1
  Tb  Tb2  1  0.00000000  0.63207078  0.36792922  1
  Tb  Tb3  1  0.00000000  0.36792922  0.63207078  1
  Mg  Mg4  1  0.50000000  0.62528448  0.13534863  1
  Mg  Mg5  1  0.50000000  0.86465137  0.37471552  1
  Mg  Mg6  1  0.00000000  0.83547092  0.16452908  1
  Mg  Mg7  1  0.00000000  0.16452908  0.83547092  1
  Mg  Mg8  1  0.50000000  0.05012161  0.21036377  1
  Mg  Mg9  1  0.50000000  0.13534863  0.62528448  1
  Mg  Mg10  1  0.00000000  0.07557123  0.41266465  1
  Mg  Mg11  1  0.50000000  0.78963623  0.94987839  1
  Mg  Mg12  1  0.50000000  0.37471552  0.86465137  1
  Mg  Mg13  1  0.50000000  0.50000000  0.50000000  1
  Mg  Mg14  1  0.50000000  0.21036377  0.05012161  1
  Mg  Mg15  1  0.50000000  0.94987839  0.78963623  1
  Mg  Mg16  1  0.00000000  0.41266465  0.07557123  1
  Mg  Mg17  1  0.00000000  0.58733535  0.92442877  1
  Mg  Mg18  1  0.00000000  0.92442877  0.58733535  1
  Mg  Mg19  1  0.00000000  0.00000000  0.00000000  1
  Cu  Cu20  1  0.50000000  0.55414514  0.76541444  1
  Cu  Cu21  1  0.50000000  0.76541444  0.55414514  1
  Cu  Cu22  1  0.50000000  0.44585486  0.23458556  1
  Cu  Cu23  1  0.50000000  0.23458556  0.44585486  1
