# generated using pymatgen
data_Rb2AgBr3
_symmetry_space_group_name_H-M   'P 1'
_cell_length_a   4.72445282
_cell_length_b   9.85655540
_cell_length_c   19.16944615
_cell_angle_alpha   90.00000000
_cell_angle_beta   90.00000000
_cell_angle_gamma   90.00000000
_symmetry_Int_Tables_number   1
_chemical_formula_structural   Rb2AgBr3
_chemical_formula_sum   'Rb8 Ag4 Br12'
_cell_volume   892.66035837
_cell_formula_units_Z   4
loop_
 _symmetry_equiv_pos_site_id
 _symmetry_equiv_pos_as_xyz
  1  'x, y, z'
loop_
 _atom_site_type_symbol
 _atom_site_label
 _atom_site_symmetry_multiplicity
 _atom_site_fract_x
 _atom_site_fract_y
 _atom_site_fract_z
 _atom_site_occupancy
  Rb  Rb0  1  0.75000000  0.42201302  0.21280935  1
  Rb  Rb1  1  0.75000000  0.75431147  0.54168461  1
  Rb  Rb2  1  0.75000000  0.92201302  0.28719065  1
  Rb  Rb3  1  0.25000000  0.07798698  0.71280935  1
  Rb  Rb4  1  0.25000000  0.24568853  0.45831539  1
  Rb  Rb5  1  0.75000000  0.25431147  0.95831539  1
  Rb  Rb6  1  0.25000000  0.74568853  0.04168461  1
  Rb  Rb7  1  0.25000000  0.57798698  0.78719065  1
  Ag  Ag8  1  0.25000000  0.62787406  0.36581185  1
  Ag  Ag9  1  0.75000000  0.87212594  0.86581185  1
  Ag  Ag10  1  0.75000000  0.37212594  0.63418815  1
  Ag  Ag11  1  0.25000000  0.12787406  0.13418815  1
  Br  Br12  1  0.75000000  0.62293059  0.92767272  1
  Br  Br13  1  0.25000000  0.68524237  0.22603250  1
  Br  Br14  1  0.25000000  0.87706941  0.42767272  1
  Br  Br15  1  0.25000000  0.50095071  0.59999181  1
  Br  Br16  1  0.75000000  0.99904929  0.09999181  1
  Br  Br17  1  0.75000000  0.81475763  0.72603250  1
  Br  Br18  1  0.25000000  0.00095071  0.90000819  1
  Br  Br19  1  0.75000000  0.49904929  0.40000819  1
  Br  Br20  1  0.25000000  0.37706941  0.07232728  1
  Br  Br21  1  0.25000000  0.18524237  0.27396750  1
  Br  Br22  1  0.75000000  0.12293059  0.57232728  1
  Br  Br23  1  0.75000000  0.31475763  0.77396750  1
