# generated using pymatgen
data_Ca7NbSi2N9
_symmetry_space_group_name_H-M   'P 1'
_cell_length_a   6.06582027
_cell_length_b   9.02428514
_cell_length_c   9.96507504
_cell_angle_alpha   90.00000000
_cell_angle_beta   90.00000000
_cell_angle_gamma   91.97045749
_symmetry_Int_Tables_number   1
_chemical_formula_structural   Ca7NbSi2N9
_chemical_formula_sum   'Ca14 Nb2 Si4 N18'
_cell_volume   545.16258449
_cell_formula_units_Z   2
loop_
 _symmetry_equiv_pos_site_id
 _symmetry_equiv_pos_as_xyz
  1  'x, y, z'
loop_
 _atom_site_type_symbol
 _atom_site_label
 _atom_site_symmetry_multiplicity
 _atom_site_fract_x
 _atom_site_fract_y
 _atom_site_fract_z
 _atom_site_occupancy
  Ca  Ca0  1  0.56900275  0.16564988  0.94310214  1
  Ca  Ca1  1  0.75032372  0.49487031  0.07744811  1
  Ca  Ca2  1  0.90933137  0.80120802  0.25000000  1
  Ca  Ca3  1  0.43099725  0.83435012  0.44310214  1
  Ca  Ca4  1  0.24967628  0.50512969  0.57744811  1
  Ca  Ca5  1  0.93024448  0.83087764  0.57789688  1
  Ca  Ca6  1  0.93024448  0.83087764  0.92210312  1
  Ca  Ca7  1  0.06975552  0.16912236  0.42210312  1
  Ca  Ca8  1  0.75032372  0.49487031  0.42255189  1
  Ca  Ca9  1  0.06975552  0.16912236  0.07789688  1
  Ca  Ca10  1  0.24967628  0.50512969  0.92255189  1
  Ca  Ca11  1  0.43099725  0.83435012  0.05689786  1
  Ca  Ca12  1  0.09066863  0.19879198  0.75000000  1
  Ca  Ca13  1  0.56900275  0.16564988  0.55689786  1
  Nb  Nb14  1  0.72094393  0.43812471  0.75000000  1
  Nb  Nb15  1  0.27905607  0.56187529  0.25000000  1
  Si  Si16  1  0.67654288  0.06210029  0.25000000  1
  Si  Si17  1  0.54099610  0.72232288  0.75000000  1
  Si  Si18  1  0.32345712  0.93789971  0.75000000  1
  Si  Si19  1  0.45900390  0.27767712  0.25000000  1
  N  N20  1  0.76767244  0.98180628  0.39943877  1
  N  N21  1  0.75366221  0.25905183  0.25000000  1
  N  N22  1  0.88561344  0.34183987  0.90201499  1
  N  N23  1  0.63388730  0.63107234  0.60940679  1
  N  N24  1  0.44227965  0.33266010  0.75000000  1
  N  N25  1  0.38010306  0.08374360  0.25000000  1
  N  N26  1  0.63388730  0.63107234  0.89059321  1
  N  N27  1  0.36611270  0.36892766  0.39059321  1
  N  N28  1  0.61989694  0.91625640  0.75000000  1
  N  N29  1  0.11438656  0.65816013  0.09798501  1
  N  N30  1  0.24633779  0.74094817  0.75000000  1
  N  N31  1  0.36611270  0.36892766  0.10940679  1
  N  N32  1  0.23232756  0.01819372  0.60056123  1
  N  N33  1  0.55772035  0.66733990  0.25000000  1
  N  N34  1  0.11438656  0.65816013  0.40201499  1
  N  N35  1  0.88561344  0.34183987  0.59798501  1
  N  N36  1  0.76767244  0.98180628  0.10056123  1
  N  N37  1  0.23232756  0.01819372  0.89943877  1
