# generated using pymatgen
data_Nb3Se10Br3
_symmetry_space_group_name_H-M   'P 1'
_cell_length_a   8.02314036
_cell_length_b   12.91742276
_cell_length_c   19.57805924
_cell_angle_alpha   90.00000000
_cell_angle_beta   90.00000000
_cell_angle_gamma   97.57880505
_symmetry_Int_Tables_number   1
_chemical_formula_structural   Nb3Se10Br3
_chemical_formula_sum   'Nb12 Se40 Br12'
_cell_volume   2011.31183622
_cell_formula_units_Z   4
loop_
 _symmetry_equiv_pos_site_id
 _symmetry_equiv_pos_as_xyz
  1  'x, y, z'
loop_
 _atom_site_type_symbol
 _atom_site_label
 _atom_site_symmetry_multiplicity
 _atom_site_fract_x
 _atom_site_fract_y
 _atom_site_fract_z
 _atom_site_occupancy
  Nb  Nb0  1  0.33804888  0.33166879  0.85182987  1
  Nb  Nb1  1  0.25224209  0.25010581  0.99988772  1
  Nb  Nb2  1  0.74775791  0.74989419  0.49988772  1
  Nb  Nb3  1  0.17812874  0.16467415  0.14784795  1
  Nb  Nb4  1  0.25224209  0.25010581  0.50011228  1
  Nb  Nb5  1  0.17812874  0.16467415  0.35215205  1
  Nb  Nb6  1  0.74775791  0.74989419  0.00011228  1
  Nb  Nb7  1  0.33804888  0.33166879  0.64817013  1
  Nb  Nb8  1  0.66195112  0.66833121  0.35182987  1
  Nb  Nb9  1  0.66195112  0.66833121  0.14817013  1
  Nb  Nb10  1  0.82187126  0.83532585  0.85215205  1
  Nb  Nb11  1  0.82187126  0.83532585  0.64784795  1
  Se  Se12  1  0.04861882  0.34050809  0.58631883  1
  Se  Se13  1  0.28483235  0.13154551  0.60933955  1
  Se  Se14  1  0.89149423  0.71862426  0.25000000  1
  Se  Se15  1  0.01893217  0.30564694  0.08797097  1
  Se  Se16  1  0.10850577  0.28137574  0.75000000  1
  Se  Se17  1  0.03247108  0.86282247  0.54239739  1
  Se  Se18  1  0.85772746  0.69591352  0.75000000  1
  Se  Se19  1  0.95138118  0.65949191  0.08631883  1
  Se  Se20  1  0.95138118  0.65949191  0.41368117  1
  Se  Se21  1  0.76384295  0.54510224  0.25000000  1
  Se  Se22  1  0.54846405  0.70859054  0.60798024  1
  Se  Se23  1  0.28483235  0.13154551  0.89066045  1
  Se  Se24  1  0.27859760  0.44903353  0.54125492  1
  Se  Se25  1  0.94301301  0.15443599  0.25000000  1
  Se  Se26  1  0.58368338  0.88661993  0.57100721  1
  Se  Se27  1  0.98106783  0.69435306  0.58797097  1
  Se  Se28  1  0.53637647  0.23746706  0.92682279  1
  Se  Se29  1  0.71516765  0.86845449  0.10933955  1
  Se  Se30  1  0.46362353  0.76253294  0.42682279  1
  Se  Se31  1  0.41631662  0.11338007  0.07100721  1
  Se  Se32  1  0.72140240  0.55096647  0.04125492  1
  Se  Se33  1  0.45153595  0.29140946  0.10798024  1
  Se  Se34  1  0.05698699  0.84556401  0.75000000  1
  Se  Se35  1  0.41631662  0.11338007  0.42899279  1
  Se  Se36  1  0.14227254  0.30408648  0.25000000  1
  Se  Se37  1  0.53637647  0.23746706  0.57317721  1
  Se  Se38  1  0.98106783  0.69435306  0.91202903  1
  Se  Se39  1  0.01893217  0.30564694  0.41202903  1
  Se  Se40  1  0.58368338  0.88661993  0.92899279  1
  Se  Se41  1  0.96752892  0.13717753  0.04239739  1
  Se  Se42  1  0.27859760  0.44903353  0.95874508  1
  Se  Se43  1  0.46362353  0.76253294  0.07317721  1
  Se  Se44  1  0.54846405  0.70859054  0.89201976  1
  Se  Se45  1  0.23615705  0.45489776  0.75000000  1
  Se  Se46  1  0.96752892  0.13717753  0.45760261  1
  Se  Se47  1  0.71516765  0.86845449  0.39066045  1
  Se  Se48  1  0.03247108  0.86282247  0.95760261  1
  Se  Se49  1  0.45153595  0.29140946  0.39201976  1
  Se  Se50  1  0.72140240  0.55096647  0.45874508  1
  Se  Se51  1  0.04861882  0.34050809  0.91368117  1
  Br  Br52  1  0.61215842  0.48156331  0.64671720  1
  Br  Br53  1  0.38784158  0.51843669  0.14671720  1
  Br  Br54  1  0.38082863  0.10656596  0.25000000  1
  Br  Br55  1  0.09004426  0.95331829  0.35432610  1
  Br  Br56  1  0.38784158  0.51843669  0.35328280  1
  Br  Br57  1  0.52516978  0.25947066  0.75000000  1
  Br  Br58  1  0.90995574  0.04668171  0.64567390  1
  Br  Br59  1  0.47483022  0.74052934  0.25000000  1
  Br  Br60  1  0.61917137  0.89343404  0.75000000  1
  Br  Br61  1  0.90995574  0.04668171  0.85432610  1
  Br  Br62  1  0.61215842  0.48156331  0.85328280  1
  Br  Br63  1  0.09004426  0.95331829  0.14567390  1
