# generated using pymatgen
data_Cs2In3
_symmetry_space_group_name_H-M   'P 1'
_cell_length_a   7.10112145
_cell_length_b   7.10112088
_cell_length_c   9.85087099
_cell_angle_alpha   111.12667992
_cell_angle_beta   111.12667814
_cell_angle_gamma   89.99999412
_symmetry_Int_Tables_number   1
_chemical_formula_structural   Cs2In3
_chemical_formula_sum   'Cs4 In6'
_cell_volume   427.36286523
_cell_formula_units_Z   2
loop_
 _symmetry_equiv_pos_site_id
 _symmetry_equiv_pos_as_xyz
  1  'x, y, z'
loop_
 _atom_site_type_symbol
 _atom_site_label
 _atom_site_symmetry_multiplicity
 _atom_site_fract_x
 _atom_site_fract_y
 _atom_site_fract_z
 _atom_site_occupancy
  Cs  Cs0  1  0.38808716  0.38808716  0.77617432  1
  Cs  Cs1  1  0.61191284  0.61191284  0.22382568  1
  Cs  Cs2  1  0.25000000  0.75000000  0.50000000  1
  Cs  Cs3  1  0.75000000  0.25000000  0.50000000  1
  In  In4  1  0.00569099  0.71154368  0.01138199  1
  In  In5  1  0.14055880  0.14055880  0.28111760  1
  In  In6  1  0.85944120  0.85944120  0.71888240  1
  In  In7  1  0.00569099  0.29983831  0.01138199  1
  In  In8  1  0.28845632  0.99430901  0.98861801  1
  In  In9  1  0.70016169  0.99430901  0.98861801  1
