# generated using pymatgen
data_H6CN3ClO
_symmetry_space_group_name_H-M   'P 1'
_cell_length_a   4.68143778
_cell_length_b   7.55762986
_cell_length_c   13.88605261
_cell_angle_alpha   90.00000000
_cell_angle_beta   90.00000000
_cell_angle_gamma   90.00000000
_symmetry_Int_Tables_number   1
_chemical_formula_structural   H6CN3ClO
_chemical_formula_sum   'H24 C4 N12 Cl4 O4'
_cell_volume   491.29651130
_cell_formula_units_Z   4
loop_
 _symmetry_equiv_pos_site_id
 _symmetry_equiv_pos_as_xyz
  1  'x, y, z'
loop_
 _atom_site_type_symbol
 _atom_site_label
 _atom_site_symmetry_multiplicity
 _atom_site_fract_x
 _atom_site_fract_y
 _atom_site_fract_z
 _atom_site_occupancy
  H  H0  1  0.05022335  0.46085365  0.49415169  1
  H  H1  1  0.55022335  0.03914635  0.50584831  1
  H  H2  1  0.94977665  0.96085365  0.00584831  1
  H  H3  1  0.44977665  0.53914635  0.99415169  1
  H  H4  1  0.21625257  0.59665473  0.57732953  1
  H  H5  1  0.71625257  0.90334527  0.42267047  1
  H  H6  1  0.78374743  0.09665473  0.92267047  1
  H  H7  1  0.28374743  0.40334527  0.07732953  1
  H  H8  1  0.85744741  0.56849363  0.58395274  1
  H  H9  1  0.35744741  0.93150637  0.41604726  1
  H  H10  1  0.14255259  0.06849363  0.91604726  1
  H  H11  1  0.64255259  0.43150637  0.08395274  1
  H  H12  1  0.32041875  0.32877469  0.62966463  1
  H  H13  1  0.62699157  0.03758748  0.16561799  1
  H  H14  1  0.67958125  0.82877469  0.87033537  1
  H  H15  1  0.17958125  0.67122531  0.12966463  1
  H  H16  1  0.20776024  0.05604441  0.69169451  1
  H  H17  1  0.70776024  0.44395559  0.30830549  1
  H  H18  1  0.79223976  0.55604441  0.80830549  1
  H  H19  1  0.29223976  0.94395559  0.19169451  1
  H  H20  1  0.87300843  0.96241252  0.66561799  1
  H  H21  1  0.37300843  0.53758748  0.33438201  1
  H  H22  1  0.12699157  0.46241252  0.83438201  1
  H  H23  1  0.82041875  0.17122531  0.37033537  1
  C  C24  1  0.58462974  0.78025497  0.12455213  1
  C  C25  1  0.41537026  0.28025497  0.37544787  1
  C  C26  1  0.08462974  0.71974503  0.87544787  1
  C  C27  1  0.91537026  0.21974503  0.62455213  1
  N  N28  1  0.44960388  0.49667825  0.06564728  1
  N  N29  1  0.55039612  0.99667825  0.43435272  1
  N  N30  1  0.94960388  0.00332175  0.93435272  1
  N  N31  1  0.05039612  0.50332175  0.56564728  1
  N  N32  1  0.10578512  0.36062943  0.62980973  1
  N  N33  1  0.60578512  0.13937057  0.37019027  1
  N  N34  1  0.89421488  0.86062943  0.87019027  1
  N  N35  1  0.39421488  0.63937057  0.12980973  1
  N  N36  1  0.48997681  0.93221251  0.16229627  1
  N  N37  1  0.51002319  0.43221251  0.33770373  1
  N  N38  1  0.01002319  0.06778749  0.66229627  1
  N  N39  1  0.98997681  0.56778749  0.83770373  1
  O  O40  1  0.67095847  0.23871132  0.58801019  1
  O  O41  1  0.17095847  0.26128868  0.41198981  1
  O  O42  1  0.32904153  0.73871132  0.91198981  1
  O  O43  1  0.82904153  0.76128868  0.08801019  1
  Cl  Cl44  1  0.54688243  0.74007425  0.63415399  1
  Cl  Cl45  1  0.04688243  0.75992575  0.36584601  1
  Cl  Cl46  1  0.45311757  0.24007425  0.86584601  1
  Cl  Cl47  1  0.95311757  0.25992575  0.13415399  1
