# generated using pymatgen
data_La7C3I10
_symmetry_space_group_name_H-M   'P 1'
_cell_length_a   9.90160984
_cell_length_b   11.95251570
_cell_length_c   14.22147959
_cell_angle_alpha   79.34378624
_cell_angle_beta   71.16380477
_cell_angle_gamma   65.90133889
_symmetry_Int_Tables_number   1
_chemical_formula_structural   La7C3I10
_chemical_formula_sum   'La14 C6 I20'
_cell_volume   1451.37792083
_cell_formula_units_Z   2
loop_
 _symmetry_equiv_pos_site_id
 _symmetry_equiv_pos_as_xyz
  1  'x, y, z'
loop_
 _atom_site_type_symbol
 _atom_site_label
 _atom_site_symmetry_multiplicity
 _atom_site_fract_x
 _atom_site_fract_y
 _atom_site_fract_z
 _atom_site_occupancy
  La  La0  1  0.04577106  0.42058095  0.83398885  1
  La  La1  1  0.83096309  0.24173219  0.10071418  1
  La  La2  1  0.04891580  0.88489905  0.17588410  1
  La  La3  1  0.37766441  0.92903005  0.64060566  1
  La  La4  1  0.74594499  0.95125678  0.07921994  1
  La  La5  1  0.25405501  0.04874322  0.92078006  1
  La  La6  1  0.86726655  0.72360218  0.41450196  1
  La  La7  1  0.13273345  0.27639782  0.58549804  1
  La  La8  1  0.95108420  0.11510095  0.82411590  1
  La  La9  1  0.53942868  0.79413316  0.30851152  1
  La  La10  1  0.95422894  0.57941905  0.16601115  1
  La  La11  1  0.46057132  0.20586684  0.69148848  1
  La  La12  1  0.62233559  0.07096995  0.35939434  1
  La  La13  1  0.16903691  0.75826781  0.89928582  1
  C  C14  1  0.16862543  0.22637475  0.76852583  1
  C  C15  1  0.96166651  0.05638026  0.02261281  1
  C  C16  1  0.75496993  0.88676073  0.27640338  1
  C  C17  1  0.24503007  0.11323927  0.72359662  1
  C  C18  1  0.03833349  0.94361974  0.97738719  1
  C  C19  1  0.83137457  0.77362525  0.23147417  1
  I  I20  1  0.04178304  0.43483572  0.36377993  1
  I  I21  1  0.14322190  0.30382611  0.04128073  1
  I  I22  1  0.60407316  0.07855041  0.87805068  1
  I  I23  1  0.64613270  0.52447325  0.22477886  1
  I  I24  1  0.43460119  0.34401837  0.47861509  1
  I  I25  1  0.56539881  0.65598163  0.52138491  1
  I  I26  1  0.28257207  0.04694245  0.43094375  1
  I  I27  1  0.39592684  0.92144959  0.12194932  1
  I  I28  1  0.85677810  0.69617389  0.95871927  1
  I  I29  1  0.18771313  0.75278479  0.37382538  1
  I  I30  1  0.71759557  0.39187333  0.90837348  1
  I  I31  1  0.35386730  0.47552675  0.77522114  1
  I  I32  1  0.28240443  0.60812667  0.09162652  1
  I  I33  1  0.93034632  0.13064394  0.30317302  1
  I  I34  1  0.06965368  0.86935606  0.69682698  1
  I  I35  1  0.50063196  0.21898020  0.16932115  1
  I  I36  1  0.71742793  0.95305755  0.56905625  1
  I  I37  1  0.95821696  0.56516428  0.63622007  1
  I  I38  1  0.81228687  0.24721521  0.62617462  1
  I  I39  1  0.49936804  0.78101980  0.83067885  1
