# generated using pymatgen
data_InI3
_symmetry_space_group_name_H-M   'P 1'
_cell_length_a   6.65067283
_cell_length_b   10.32269670
_cell_length_c   12.91039672
_cell_angle_alpha   107.58681009
_cell_angle_beta   90.00000000
_cell_angle_gamma   90.00000000
_symmetry_Int_Tables_number   1
_chemical_formula_structural   InI3
_chemical_formula_sum   'In4 I12'
_cell_volume   844.90877874
_cell_formula_units_Z   4
loop_
 _symmetry_equiv_pos_site_id
 _symmetry_equiv_pos_as_xyz
  1  'x, y, z'
loop_
 _atom_site_type_symbol
 _atom_site_label
 _atom_site_symmetry_multiplicity
 _atom_site_fract_x
 _atom_site_fract_y
 _atom_site_fract_z
 _atom_site_occupancy
  In  In0  1  0.00048744  0.79878832  0.95095928  1
  In  In1  1  0.99951256  0.20121168  0.04904072  1
  In  In2  1  0.49951256  0.79878832  0.45095928  1
  In  In3  1  0.50048744  0.20121168  0.54904072  1
  I  I4  1  0.75268106  0.32920996  0.71049274  1
  I  I5  1  0.27714828  0.99967122  0.61617211  1
  I  I6  1  0.75182097  0.66841198  0.54861668  1
  I  I7  1  0.25268106  0.67079004  0.78950726  1
  I  I8  1  0.74731894  0.32920996  0.21049274  1
  I  I9  1  0.72285172  0.00032878  0.38382789  1
  I  I10  1  0.25182097  0.33158802  0.95138332  1
  I  I11  1  0.77714828  0.00032878  0.88382789  1
  I  I12  1  0.74817903  0.66841198  0.04861668  1
  I  I13  1  0.24731894  0.67079004  0.28950726  1
  I  I14  1  0.24817903  0.33158802  0.45138332  1
  I  I15  1  0.22285172  0.99967122  0.11617211  1
