# generated using pymatgen
data_Sr14MnSb11
_symmetry_space_group_name_H-M   'P 1'
_cell_length_a   17.08800890
_cell_length_b   17.08800956
_cell_length_c   17.08800893
_cell_angle_alpha   93.90242502
_cell_angle_beta   117.77309720
_cell_angle_gamma   117.77309719
_symmetry_Int_Tables_number   1
_chemical_formula_structural   Sr14MnSb11
_chemical_formula_sum   'Sr56 Mn4 Sb44'
_cell_volume   3637.88194076
_cell_formula_units_Z   4
loop_
 _symmetry_equiv_pos_site_id
 _symmetry_equiv_pos_as_xyz
  1  'x, y, z'
loop_
 _atom_site_type_symbol
 _atom_site_label
 _atom_site_symmetry_multiplicity
 _atom_site_fract_x
 _atom_site_fract_y
 _atom_site_fract_z
 _atom_site_occupancy
  Sr  Sr0  1  0.22523175  0.97583976  0.06279459  1
  Sr  Sr1  1  0.72523175  0.56279459  0.47583976  1
  Sr  Sr2  1  0.61663180  0.40044837  0.87155928  1
  Sr  Sr3  1  0.14409336  0.75000000  0.89409336  1
  Sr  Sr4  1  0.35590664  0.25000000  0.60590664  1
  Sr  Sr5  1  0.27476825  0.33756284  0.75060801  1
  Sr  Sr6  1  0.88336820  0.62844072  0.09955163  1
  Sr  Sr7  1  0.91304516  0.47583976  0.25060801  1
  Sr  Sr8  1  0.41304516  0.75060801  0.97583976  1
  Sr  Sr9  1  0.64624362  0.12227173  0.51929049  1
  Sr  Sr10  1  0.39701876  0.51929049  0.37304687  1
  Sr  Sr11  1  0.85375638  0.98070951  0.37772827  1
  Sr  Sr12  1  0.38336820  0.59955163  0.12844072  1
  Sr  Sr13  1  0.72523175  0.66243716  0.24939199  1
  Sr  Sr14  1  0.41304516  0.16243716  0.43720541  1
  Sr  Sr15  1  0.47111091  0.09955163  0.71618344  1
  Sr  Sr16  1  0.64624362  0.02397189  0.12695313  1
  Sr  Sr17  1  0.14624362  0.01929049  0.62227173  1
  Sr  Sr18  1  0.08695484  0.52416024  0.74939199  1
  Sr  Sr19  1  0.35375638  0.97602811  0.87304687  1
  Sr  Sr20  1  0.85590664  0.10590664  0.75000000  1
  Sr  Sr21  1  0.08695484  0.06279459  0.33756284  1
  Sr  Sr22  1  0.97111091  0.25492747  0.37155928  1
  Sr  Sr23  1  0.39701876  0.37772827  0.02397189  1
  Sr  Sr24  1  0.91304516  0.93720541  0.66243716  1
  Sr  Sr25  1  0.22523175  0.74939199  0.16243716  1
  Sr  Sr26  1  0.47111091  0.87155928  0.75492747  1
  Sr  Sr27  1  0.10298124  0.12695313  0.98070951  1
  Sr  Sr28  1  0.27476825  0.43720541  0.52416024  1
  Sr  Sr29  1  0.64409336  0.39409336  0.25000000  1
  Sr  Sr30  1  0.38336820  0.28381656  0.25492747  1
  Sr  Sr31  1  0.02888909  0.78381656  0.40044837  1
  Sr  Sr32  1  0.60298124  0.62227173  0.97602811  1
  Sr  Sr33  1  0.97111091  0.21618344  0.59955163  1
  Sr  Sr34  1  0.10298124  0.47602811  0.12227173  1
  Sr  Sr35  1  0.11663180  0.24507253  0.21618344  1
  Sr  Sr36  1  0.77476825  0.25060801  0.83756284  1
  Sr  Sr37  1  0.14409336  0.89409336  0.25000000  1
  Sr  Sr38  1  0.52888909  0.90044837  0.28381656  1
  Sr  Sr39  1  0.11663180  0.37155928  0.90044837  1
  Sr  Sr40  1  0.89701876  0.52397189  0.87772827  1
  Sr  Sr41  1  0.64409336  0.75000000  0.39409336  1
  Sr  Sr42  1  0.89701876  0.87304687  0.01929049  1
  Sr  Sr43  1  0.85375638  0.37304687  0.47602811  1
  Sr  Sr44  1  0.35590664  0.60590664  0.75000000  1
  Sr  Sr45  1  0.14624362  0.62695313  0.52397189  1
  Sr  Sr46  1  0.58695484  0.83756284  0.56279459  1
  Sr  Sr47  1  0.85590664  0.25000000  0.10590664  1
  Sr  Sr48  1  0.60298124  0.48070951  0.62695313  1
  Sr  Sr49  1  0.02888909  0.74507253  0.62844072  1
  Sr  Sr50  1  0.52888909  0.12844072  0.24507253  1
  Sr  Sr51  1  0.88336820  0.75492747  0.78381656  1
  Sr  Sr52  1  0.58695484  0.24939199  0.02416024  1
  Sr  Sr53  1  0.35375638  0.87772827  0.48070951  1
  Sr  Sr54  1  0.61663180  0.71618344  0.74507253  1
  Sr  Sr55  1  0.77476825  0.02416024  0.93720541  1
  Mn  Mn56  1  0.25000000  0.12500000  0.87500000  1
  Mn  Mn57  1  0.75000000  0.37500000  0.62500000  1
  Mn  Mn58  1  0.75000000  0.87500000  0.12500000  1
  Mn  Mn59  1  0.25000000  0.62500000  0.37500000  1
  Sb  Sb60  1  0.34426662  0.52206252  0.91622339  1
  Sb  Sb61  1  0.88186156  0.07173664  0.18356263  1
  Sb  Sb62  1  0.65573338  0.47793748  0.08377661  1
  Sb  Sb63  1  0.61813844  0.31643737  0.42826336  1
  Sb  Sb64  1  0.10583913  0.17779591  0.52206252  1
  Sb  Sb65  1  0.11182599  0.18356263  0.80170107  1
  Sb  Sb66  1  0.51535504  0.50767752  0.25767752  1
  Sb  Sb67  1  0.10583913  0.42804323  0.58377661  1
  Sb  Sb68  1  0.75000000  0.12500000  0.37500000  1
  Sb  Sb69  1  0.61182599  0.30170107  0.68356263  1
  Sb  Sb70  1  0.38817401  0.69829893  0.31643737  1
  Sb  Sb71  1  0.39416087  0.91622339  0.07195677  1
  Sb  Sb72  1  0.38186156  0.19829893  0.81012492  1
  Sb  Sb73  1  0.89416087  0.82220409  0.47793748  1
  Sb  Sb74  1  0.25000000  0.37500000  0.12500000  1
  Sb  Sb75  1  0.25000000  0.74232248  0.75767752  1
  Sb  Sb76  1  0.11813844  0.68987508  0.30170107  1
  Sb  Sb77  1  0.61813844  0.80170107  0.18987508  1
  Sb  Sb78  1  0.11182599  0.42826336  0.31012492  1
  Sb  Sb79  1  0.60583913  0.08377661  0.92804323  1
  Sb  Sb80  1  0.88817401  0.81643737  0.19829893  1
  Sb  Sb81  1  0.89416087  0.57195677  0.41622339  1
  Sb  Sb82  1  0.25000000  0.87500000  0.62500000  1
  Sb  Sb83  1  0.38186156  0.68356263  0.57173664  1
  Sb  Sb84  1  0.01535504  0.75767752  0.00767752  1
  Sb  Sb85  1  0.61182599  0.81012492  0.92826336  1
  Sb  Sb86  1  0.15573338  0.58377661  0.97793748  1
  Sb  Sb87  1  0.38817401  0.18987508  0.07173664  1
  Sb  Sb88  1  0.84426662  0.92804323  0.82220409  1
  Sb  Sb89  1  0.48464496  0.49232248  0.74232248  1
  Sb  Sb90  1  0.98464496  0.24232248  0.99232248  1
  Sb  Sb91  1  0.39416087  0.97793748  0.32220409  1
  Sb  Sb92  1  0.75000000  0.99232248  0.50767752  1
  Sb  Sb93  1  0.60583913  0.02206252  0.67779591  1
  Sb  Sb94  1  0.11813844  0.92826336  0.81643737  1
  Sb  Sb95  1  0.34426662  0.32220409  0.42804323  1
  Sb  Sb96  1  0.15573338  0.07195677  0.17779591  1
  Sb  Sb97  1  0.75000000  0.25767752  0.24232248  1
  Sb  Sb98  1  0.75000000  0.62500000  0.87500000  1
  Sb  Sb99  1  0.25000000  0.00767752  0.49232248  1
  Sb  Sb100  1  0.88817401  0.57173664  0.68987508  1
  Sb  Sb101  1  0.65573338  0.67779591  0.57195677  1
  Sb  Sb102  1  0.88186156  0.31012492  0.69829893  1
  Sb  Sb103  1  0.84426662  0.41622339  0.02206252  1
