# generated using pymatgen
data_La9Sb16Br3
_symmetry_space_group_name_H-M   'P 1'
_cell_length_a   21.48567306
_cell_length_b   21.48567272
_cell_length_c   4.35348286
_cell_angle_alpha   90.00000000
_cell_angle_beta   90.00000000
_cell_angle_gamma   120.00000051
_symmetry_Int_Tables_number   1
_chemical_formula_structural   La9Sb16Br3
_chemical_formula_sum   'La18 Sb32 Br6'
_cell_volume   1740.46537369
_cell_formula_units_Z   2
loop_
 _symmetry_equiv_pos_site_id
 _symmetry_equiv_pos_as_xyz
  1  'x, y, z'
loop_
 _atom_site_type_symbol
 _atom_site_label
 _atom_site_symmetry_multiplicity
 _atom_site_fract_x
 _atom_site_fract_y
 _atom_site_fract_z
 _atom_site_occupancy
  La  La0  1  0.23288204  0.54190809  0.75000000  1
  La  La1  1  0.09455183  0.84895593  0.25000000  1
  La  La2  1  0.99273940  0.39416952  0.75000000  1
  La  La3  1  0.76711796  0.45809191  0.25000000  1
  La  La4  1  0.40143011  0.00726060  0.75000000  1
  La  La5  1  0.24559590  0.09455183  0.75000000  1
  La  La6  1  0.30902605  0.76711796  0.75000000  1
  La  La7  1  0.54190809  0.30902605  0.25000000  1
  La  La8  1  0.59856989  0.99273940  0.25000000  1
  La  La9  1  0.60583048  0.59856989  0.75000000  1
  La  La10  1  0.00726060  0.60583048  0.25000000  1
  La  La11  1  0.84895593  0.75440410  0.75000000  1
  La  La12  1  0.15104407  0.24559590  0.25000000  1
  La  La13  1  0.75440410  0.90544817  0.25000000  1
  La  La14  1  0.69097395  0.23288204  0.25000000  1
  La  La15  1  0.45809191  0.69097395  0.75000000  1
  La  La16  1  0.39416952  0.40143011  0.25000000  1
  La  La17  1  0.90544817  0.15104407  0.75000000  1
  Sb  Sb18  1  0.48444853  0.58807595  0.25000000  1
  Sb  Sb19  1  0.72439084  0.01002614  0.75000000  1
  Sb  Sb20  1  0.77383343  0.13111646  0.25000000  1
  Sb  Sb21  1  0.22616657  0.86888354  0.75000000  1
  Sb  Sb22  1  0.25025142  0.42833529  0.25000000  1
  Sb  Sb23  1  0.27560916  0.98997386  0.25000000  1
  Sb  Sb24  1  0.71436471  0.72439084  0.25000000  1
  Sb  Sb25  1  0.64271696  0.77383343  0.75000000  1
  Sb  Sb26  1  0.13717898  0.62849360  0.75000000  1
  Sb  Sb27  1  0.58807595  0.10362742  0.75000000  1
  Sb  Sb28  1  0.82191614  0.25025142  0.75000000  1
  Sb  Sb29  1  0.37150640  0.50868538  0.75000000  1
  Sb  Sb30  1  0.28563529  0.27560916  0.75000000  1
  Sb  Sb31  1  0.74974858  0.57166471  0.75000000  1
  Sb  Sb32  1  0.10362742  0.51555147  0.25000000  1
  Sb  Sb33  1  0.01002614  0.28563529  0.25000000  1
  Sb  Sb34  1  0.49131462  0.86282102  0.75000000  1
  Sb  Sb35  1  0.13111646  0.35728304  0.75000000  1
  Sb  Sb36  1  0.57166471  0.82191614  0.25000000  1
  Sb  Sb37  1  0.35728304  0.22616657  0.25000000  1
  Sb  Sb38  1  0.41192405  0.89637258  0.25000000  1
  Sb  Sb39  1  0.42833529  0.17808386  0.75000000  1
  Sb  Sb40  1  0.51555147  0.41192405  0.75000000  1
  Sb  Sb41  1  0.62849360  0.49131462  0.25000000  1
  Sb  Sb42  1  0.86282102  0.37150640  0.25000000  1
  Sb  Sb43  1  0.98997386  0.71436471  0.75000000  1
  Sb  Sb44  1  0.17808386  0.74974858  0.25000000  1
  Sb  Sb45  1  0.89637258  0.48444853  0.75000000  1
  Sb  Sb46  1  0.66666700  0.33333300  0.75000000  1
  Sb  Sb47  1  0.50868538  0.13717898  0.25000000  1
  Sb  Sb48  1  0.33333300  0.66666700  0.25000000  1
  Sb  Sb49  1  0.86888354  0.64271696  0.25000000  1
  Br  Br50  1  0.05056722  0.14935099  0.75000000  1
  Br  Br51  1  0.09878378  0.94943278  0.75000000  1
  Br  Br52  1  0.94943278  0.85064901  0.25000000  1
  Br  Br53  1  0.85064901  0.90121622  0.75000000  1
  Br  Br54  1  0.90121622  0.05056722  0.25000000  1
  Br  Br55  1  0.14935099  0.09878378  0.25000000  1
