# generated using pymatgen
data_Pr(C2N3)3
_symmetry_space_group_name_H-M   'P 1'
_cell_length_a   7.13884973
_cell_length_b   7.13884944
_cell_length_c   10.57013907
_cell_angle_alpha   90.00000000
_cell_angle_beta   90.00000000
_cell_angle_gamma   112.85991735
_symmetry_Int_Tables_number   1
_chemical_formula_structural   Pr(C2N3)3
_chemical_formula_sum   'Pr2 C12 N18'
_cell_volume   496.37788821
_cell_formula_units_Z   2
loop_
 _symmetry_equiv_pos_site_id
 _symmetry_equiv_pos_as_xyz
  1  'x, y, z'
loop_
 _atom_site_type_symbol
 _atom_site_label
 _atom_site_symmetry_multiplicity
 _atom_site_fract_x
 _atom_site_fract_y
 _atom_site_fract_z
 _atom_site_occupancy
  Pr  Pr0  1  0.71419741  0.28580259  0.25000000  1
  Pr  Pr1  1  0.28580259  0.71419741  0.75000000  1
  C  C2  1  0.71086643  0.00188481  0.94859694  1
  C  C3  1  0.00188481  0.71086643  0.05140306  1
  C  C4  1  0.28913357  0.99811519  0.05140306  1
  C  C5  1  0.44421239  0.27062318  0.75000000  1
  C  C6  1  0.99811519  0.28913357  0.55140306  1
  C  C7  1  0.55578761  0.72937682  0.25000000  1
  C  C8  1  0.72937682  0.55578761  0.75000000  1
  C  C9  1  0.27062318  0.44421239  0.25000000  1
  C  C10  1  0.28913357  0.99811519  0.44859694  1
  C  C11  1  0.99811519  0.28913357  0.94859694  1
  C  C12  1  0.71086643  0.00188481  0.55140306  1
  C  C13  1  0.00188481  0.71086643  0.44859694  1
  N  N14  1  0.15680307  0.84319693  0.50792183  1
  N  N15  1  0.84319693  0.15680307  0.49207817  1
  N  N16  1  0.58301456  0.85970305  0.90205365  1
  N  N17  1  0.64259965  0.90728743  0.25000000  1
  N  N18  1  0.09271257  0.35740035  0.25000000  1
  N  N19  1  0.41698544  0.14029695  0.09794635  1
  N  N20  1  0.46858415  0.53141585  0.25000000  1
  N  N21  1  0.53141585  0.46858415  0.75000000  1
  N  N22  1  0.14029695  0.41698544  0.90205365  1
  N  N23  1  0.85970305  0.58301456  0.09794635  1
  N  N24  1  0.35740035  0.09271257  0.75000000  1
  N  N25  1  0.14029695  0.41698544  0.59794635  1
  N  N26  1  0.41698544  0.14029695  0.40205365  1
  N  N27  1  0.90728743  0.64259965  0.75000000  1
  N  N28  1  0.58301456  0.85970305  0.59794635  1
  N  N29  1  0.84319693  0.15680307  0.00792183  1
  N  N30  1  0.85970305  0.58301456  0.40205365  1
  N  N31  1  0.15680307  0.84319693  0.99207817  1
