# generated using pymatgen
data_Tm10In20Rh9
_symmetry_space_group_name_H-M   'P 1'
_cell_length_a   9.36372498
_cell_length_b   13.48987936
_cell_length_c   13.48987936
_cell_angle_alpha   90.00000000
_cell_angle_beta   90.00000000
_cell_angle_gamma   90.00000000
_symmetry_Int_Tables_number   1
_chemical_formula_structural   Tm10In20Rh9
_chemical_formula_sum   'Tm20 In40 Rh18'
_cell_volume   1703.98113069
_cell_formula_units_Z   2
loop_
 _symmetry_equiv_pos_site_id
 _symmetry_equiv_pos_as_xyz
  1  'x, y, z'
loop_
 _atom_site_type_symbol
 _atom_site_label
 _atom_site_symmetry_multiplicity
 _atom_site_fract_x
 _atom_site_fract_y
 _atom_site_fract_z
 _atom_site_occupancy
  Tm  Tm0  1  0.73016561  0.04644593  0.04644593  1
  Tm  Tm1  1  0.63542376  0.25000000  0.25000000  1
  Tm  Tm2  1  0.23171914  0.25000000  0.52498128  1
  Tm  Tm3  1  0.26983439  0.95355407  0.95355407  1
  Tm  Tm4  1  0.73016561  0.45355407  0.04644593  1
  Tm  Tm5  1  0.84348060  0.75000000  0.75000000  1
  Tm  Tm6  1  0.76828086  0.75000000  0.47501872  1
  Tm  Tm7  1  0.76828086  0.75000000  0.02498128  1
  Tm  Tm8  1  0.26983439  0.54644593  0.95355407  1
  Tm  Tm9  1  0.36457624  0.75000000  0.75000000  1
  Tm  Tm10  1  0.26983439  0.54644593  0.54644593  1
  Tm  Tm11  1  0.73016561  0.45355407  0.45355407  1
  Tm  Tm12  1  0.76828086  0.47501872  0.75000000  1
  Tm  Tm13  1  0.23171914  0.52498128  0.25000000  1
  Tm  Tm14  1  0.26983439  0.95355407  0.54644593  1
  Tm  Tm15  1  0.23171914  0.97501872  0.25000000  1
  Tm  Tm16  1  0.73016561  0.04644593  0.45355407  1
  Tm  Tm17  1  0.15651940  0.25000000  0.25000000  1
  Tm  Tm18  1  0.23171914  0.25000000  0.97501872  1
  Tm  Tm19  1  0.76828086  0.02498128  0.75000000  1
  In  In20  1  0.50000000  0.88146511  0.38146511  1
  In  In21  1  0.50000000  0.11853489  0.88146511  1
  In  In22  1  0.24086160  0.36278614  0.75000000  1
  In  In23  1  0.09994051  0.91759605  0.75000000  1
  In  In24  1  0.75913840  0.86278614  0.25000000  1
  In  In25  1  0.90005949  0.25000000  0.41759605  1
  In  In26  1  0.09994051  0.75000000  0.58240395  1
  In  In27  1  0.50000000  0.38146511  0.88146511  1
  In  In28  1  0.24086160  0.75000000  0.13721386  1
  In  In29  1  0.40675315  0.11961707  0.11961707  1
  In  In30  1  0.50000000  0.61853489  0.38146511  1
  In  In31  1  0.59324685  0.61961707  0.61961707  1
  In  In32  1  0.90005949  0.25000000  0.08240395  1
  In  In33  1  0.59324685  0.88038293  0.88038293  1
  In  In34  1  0.50000000  0.61853489  0.11853489  1
  In  In35  1  0.09994051  0.58240395  0.75000000  1
  In  In36  1  0.00000000  0.09980169  0.90019831  1
  In  In37  1  0.90005949  0.08240395  0.25000000  1
  In  In38  1  0.24086160  0.75000000  0.36278614  1
  In  In39  1  0.59324685  0.61961707  0.88038293  1
  In  In40  1  0.50000000  0.88146511  0.11853489  1
  In  In41  1  0.00000000  0.40019831  0.90019831  1
  In  In42  1  0.00000000  0.40019831  0.59980169  1
  In  In43  1  0.50000000  0.38146511  0.61853489  1
  In  In44  1  0.75913840  0.25000000  0.86278614  1
  In  In45  1  0.75913840  0.63721386  0.25000000  1
  In  In46  1  0.40675315  0.38038293  0.38038293  1
  In  In47  1  0.50000000  0.11853489  0.61853489  1
  In  In48  1  0.40675315  0.38038293  0.11961707  1
  In  In49  1  0.09994051  0.75000000  0.91759605  1
  In  In50  1  0.40675315  0.11961707  0.38038293  1
  In  In51  1  0.90005949  0.41759605  0.25000000  1
  In  In52  1  0.00000000  0.59980169  0.40019831  1
  In  In53  1  0.00000000  0.90019831  0.40019831  1
  In  In54  1  0.75913840  0.25000000  0.63721386  1
  In  In55  1  0.24086160  0.13721386  0.75000000  1
  In  In56  1  0.00000000  0.59980169  0.09980169  1
  In  In57  1  0.00000000  0.90019831  0.09980169  1
  In  In58  1  0.59324685  0.88038293  0.61961707  1
  In  In59  1  0.00000000  0.09980169  0.59980169  1
  Rh  Rh60  1  0.40289283  0.52892605  0.75000000  1
  Rh  Rh61  1  0.40289283  0.75000000  0.97107395  1
  Rh  Rh62  1  0.10386034  0.40704132  0.09295868  1
  Rh  Rh63  1  0.59710717  0.25000000  0.02892605  1
  Rh  Rh64  1  0.10386034  0.40704132  0.40704132  1
  Rh  Rh65  1  0.10386034  0.09295868  0.40704132  1
  Rh  Rh66  1  0.89613966  0.90704132  0.90704132  1
  Rh  Rh67  1  0.89613966  0.59295868  0.90704132  1
  Rh  Rh68  1  0.59710717  0.02892605  0.25000000  1
  Rh  Rh69  1  0.10386034  0.09295868  0.09295868  1
  Rh  Rh70  1  0.89613966  0.59295868  0.59295868  1
  Rh  Rh71  1  0.40289283  0.97107395  0.75000000  1
  Rh  Rh72  1  0.00000000  0.25000000  0.75000000  1
  Rh  Rh73  1  0.89613966  0.90704132  0.59295868  1
  Rh  Rh74  1  0.59710717  0.25000000  0.47107395  1
  Rh  Rh75  1  0.00000000  0.75000000  0.25000000  1
  Rh  Rh76  1  0.40289283  0.75000000  0.52892605  1
  Rh  Rh77  1  0.59710717  0.47107395  0.25000000  1
