# generated using pymatgen
data_Cs3Zr7BCl20
_symmetry_space_group_name_H-M   'P 1'
_cell_length_a   14.03284418
_cell_length_b   14.03284447
_cell_length_c   14.03284421
_cell_angle_alpha   55.83491646
_cell_angle_beta   55.83491566
_cell_angle_gamma   55.83491525
_symmetry_Int_Tables_number   1
_chemical_formula_structural   Cs3Zr7BCl20
_chemical_formula_sum   'Cs6 Zr14 B2 Cl40'
_cell_volume   1765.30366994
_cell_formula_units_Z   2
loop_
 _symmetry_equiv_pos_site_id
 _symmetry_equiv_pos_as_xyz
  1  'x, y, z'
loop_
 _atom_site_type_symbol
 _atom_site_label
 _atom_site_symmetry_multiplicity
 _atom_site_fract_x
 _atom_site_fract_y
 _atom_site_fract_z
 _atom_site_occupancy
  Cs  Cs0  1  0.50000000  0.00000000  0.50000000  1
  Cs  Cs1  1  0.00000000  0.50000000  0.50000000  1
  Cs  Cs2  1  0.50000000  0.00000000  0.00000000  1
  Cs  Cs3  1  0.50000000  0.50000000  0.00000000  1
  Cs  Cs4  1  0.00000000  0.00000000  0.50000000  1
  Cs  Cs5  1  0.00000000  0.50000000  0.00000000  1
  Zr  Zr6  1  0.32402637  0.45011285  0.61169368  1
  Zr  Zr7  1  0.38830632  0.67597363  0.54988715  1
  Zr  Zr8  1  0.54988715  0.38830632  0.67597363  1
  Zr  Zr9  1  0.95011285  0.82402637  0.11169368  1
  Zr  Zr10  1  0.25000000  0.25000000  0.25000000  1
  Zr  Zr11  1  0.61169368  0.32402637  0.45011285  1
  Zr  Zr12  1  0.17597363  0.88830632  0.04988715  1
  Zr  Zr13  1  0.04988715  0.17597363  0.88830632  1
  Zr  Zr14  1  0.88830632  0.04988715  0.17597363  1
  Zr  Zr15  1  0.67597363  0.54988715  0.38830632  1
  Zr  Zr16  1  0.82402637  0.11169368  0.95011285  1
  Zr  Zr17  1  0.45011285  0.61169368  0.32402637  1
  Zr  Zr18  1  0.11169368  0.95011285  0.82402637  1
  Zr  Zr19  1  0.75000000  0.75000000  0.75000000  1
  B  B20  1  0.00000000  0.00000000  0.00000000  1
  B  B21  1  0.50000000  0.50000000  0.50000000  1
  Cl  Cl22  1  0.85862946  0.31827707  0.82482951  1
  Cl  Cl23  1  0.68172293  0.17517049  0.14137054  1
  Cl  Cl24  1  0.43157087  0.57072464  0.74770270  1
  Cl  Cl25  1  0.81969181  0.81969181  0.81969181  1
  Cl  Cl26  1  0.42927536  0.25229730  0.56842913  1
  Cl  Cl27  1  0.57072464  0.74770270  0.43157087  1
  Cl  Cl28  1  0.56842913  0.42927536  0.25229730  1
  Cl  Cl29  1  0.32482951  0.81827707  0.35862946  1
  Cl  Cl30  1  0.24770270  0.07072464  0.93157087  1
  Cl  Cl31  1  0.88843415  0.61156585  0.25000000  1
  Cl  Cl32  1  0.74770270  0.43157087  0.57072464  1
  Cl  Cl33  1  0.25000000  0.43193265  0.06806735  1
  Cl  Cl34  1  0.43193265  0.06806735  0.25000000  1
  Cl  Cl35  1  0.18030819  0.18030819  0.18030819  1
  Cl  Cl36  1  0.14137054  0.68172293  0.17517049  1
  Cl  Cl37  1  0.61156585  0.25000000  0.88843415  1
  Cl  Cl38  1  0.93193265  0.75000000  0.56806735  1
  Cl  Cl39  1  0.17517049  0.14137054  0.68172293  1
  Cl  Cl40  1  0.64137054  0.67517049  0.18172293  1
  Cl  Cl41  1  0.67517049  0.18172293  0.64137054  1
  Cl  Cl42  1  0.06842913  0.75229730  0.92927536  1
  Cl  Cl43  1  0.75000000  0.56806735  0.93193265  1
  Cl  Cl44  1  0.06806735  0.25000000  0.43193265  1
  Cl  Cl45  1  0.18172293  0.64137054  0.67517049  1
  Cl  Cl46  1  0.56806735  0.93193265  0.75000000  1
  Cl  Cl47  1  0.75229730  0.92927536  0.06842913  1
  Cl  Cl48  1  0.93157087  0.24770270  0.07072464  1
  Cl  Cl49  1  0.81827707  0.35862946  0.32482951  1
  Cl  Cl50  1  0.31969181  0.31969181  0.31969181  1
  Cl  Cl51  1  0.25000000  0.88843415  0.61156585  1
  Cl  Cl52  1  0.68030819  0.68030819  0.68030819  1
  Cl  Cl53  1  0.25229730  0.56842913  0.42927536  1
  Cl  Cl54  1  0.11156585  0.38843415  0.75000000  1
  Cl  Cl55  1  0.07072464  0.93157087  0.24770270  1
  Cl  Cl56  1  0.92927536  0.06842913  0.75229730  1
  Cl  Cl57  1  0.38843415  0.75000000  0.11156585  1
  Cl  Cl58  1  0.75000000  0.11156585  0.38843415  1
  Cl  Cl59  1  0.31827707  0.82482951  0.85862946  1
  Cl  Cl60  1  0.35862946  0.32482951  0.81827707  1
  Cl  Cl61  1  0.82482951  0.85862946  0.31827707  1
