# generated using pymatgen
data_K2BaCo(NO2)6
_symmetry_space_group_name_H-M   'P 1'
_cell_length_a   7.66015310
_cell_length_b   7.66015310
_cell_length_c   7.66015310
_cell_angle_alpha   60.00000002
_cell_angle_beta   59.99999999
_cell_angle_gamma   60.00000000
_symmetry_Int_Tables_number   1
_chemical_formula_structural   K2BaCo(NO2)6
_chemical_formula_sum   'K2 Ba1 Co1 N6 O12'
_cell_volume   317.83180308
_cell_formula_units_Z   1
loop_
 _symmetry_equiv_pos_site_id
 _symmetry_equiv_pos_as_xyz
  1  'x, y, z'
loop_
 _atom_site_type_symbol
 _atom_site_label
 _atom_site_symmetry_multiplicity
 _atom_site_fract_x
 _atom_site_fract_y
 _atom_site_fract_z
 _atom_site_occupancy
  N  N0  1  0.81167724  0.18832276  0.81167724  1
  N  N1  1  0.18832276  0.81167724  0.81167724  1
  N  N2  1  0.81167724  0.81167724  0.18832276  1
  N  N3  1  0.81167724  0.18832276  0.18832276  1
  N  N4  1  0.18832276  0.18832276  0.81167724  1
  N  N5  1  0.18832276  0.81167724  0.18832276  1
  O  O6  1  0.34869357  0.14936326  0.65130643  1
  O  O7  1  0.14936326  0.85063674  0.65130643  1
  O  O8  1  0.34869357  0.65130643  0.85063674  1
  O  O9  1  0.65130643  0.85063674  0.34869357  1
  O  O10  1  0.14936326  0.65130643  0.34869357  1
  O  O11  1  0.85063674  0.65130643  0.14936326  1
  O  O12  1  0.85063674  0.34869357  0.65130643  1
  O  O13  1  0.34869357  0.85063674  0.14936326  1
  O  O14  1  0.65130643  0.34869357  0.14936326  1
  O  O15  1  0.85063674  0.14936326  0.34869357  1
  O  O16  1  0.14936326  0.34869357  0.85063674  1
  O  O17  1  0.65130643  0.14936326  0.85063674  1
  K  K18  1  0.25000000  0.25000000  0.25000000  1
  K  K19  1  0.75000000  0.75000000  0.75000000  1
  Co  Co20  1  0.00000000  0.00000000  0.00000000  1
  Ba  Ba21  1  0.50000000  0.50000000  0.50000000  1
