# generated using pymatgen
data_La10C4I15
_symmetry_space_group_name_H-M   'P 1'
_cell_length_a   9.93486879
_cell_length_b   10.82496434
_cell_length_c   11.95064716
_cell_angle_alpha   93.70362576
_cell_angle_beta   114.45717141
_cell_angle_gamma   109.23739556
_symmetry_Int_Tables_number   1
_chemical_formula_structural   La10C4I15
_chemical_formula_sum   'La10 C4 I15'
_cell_volume   1073.94491732
_cell_formula_units_Z   1
loop_
 _symmetry_equiv_pos_site_id
 _symmetry_equiv_pos_as_xyz
  1  'x, y, z'
loop_
 _atom_site_type_symbol
 _atom_site_label
 _atom_site_symmetry_multiplicity
 _atom_site_fract_x
 _atom_site_fract_y
 _atom_site_fract_z
 _atom_site_occupancy
  La  La0  1  0.59780584  0.54054493  0.34233969  1
  La  La1  1  0.34332284  0.74657414  0.16505670  1
  La  La2  1  0.77934533  0.88543949  0.25902861  1
  La  La3  1  0.52884891  0.18699449  0.10349211  1
  La  La4  1  0.22065467  0.11456051  0.74097139  1
  La  La5  1  0.40219416  0.45945507  0.65766031  1
  La  La6  1  0.47115109  0.81300551  0.89650789  1
  La  La7  1  0.70518009  0.56759769  0.04446552  1
  La  La8  1  0.29481991  0.43240231  0.95553448  1
  La  La9  1  0.65667716  0.25342586  0.83494330  1
  C  C10  1  0.48181990  0.29909097  0.93655470  1
  C  C11  1  0.51818010  0.70090903  0.06344530  1
  C  C12  1  0.45268708  0.36109570  0.83353775  1
  C  C13  1  0.54731292  0.63890430  0.16646225  1
  I  I14  1  0.20591235  0.90627461  0.93718067  1
  I  I15  1  0.10327397  0.18772589  0.46552182  1
  I  I16  1  0.14950899  0.55442744  0.70347401  1
  I  I17  1  0.40492527  0.96828319  0.64554421  1
  I  I18  1  0.71519295  0.73380838  0.82204609  1
  I  I19  1  0.28480705  0.26619162  0.17795391  1
  I  I20  1  0.85049101  0.44557256  0.29652599  1
  I  I21  1  0.89672603  0.81227411  0.53447818  1
  I  I22  1  0.35830410  0.63006401  0.41299891  1
  I  I23  1  0.05570084  0.83368833  0.22092423  1
  I  I24  1  0.79408765  0.09372539  0.06281933  1
  I  I25  1  0.64169590  0.36993599  0.58700109  1
  I  I26  1  0.94429916  0.16631167  0.77907577  1
  I  I27  1  0.59507473  0.03171681  0.35445579  1
  I  I28  1  0.00000000  0.50000000  0.00000000  1
