# generated using pymatgen
data_LiNiPCO7
_symmetry_space_group_name_H-M   'P 1'
_cell_length_a   5.08903696
_cell_length_b   6.35298482
_cell_length_c   8.63416858
_cell_angle_alpha   90.00000000
_cell_angle_beta   86.02537740
_cell_angle_gamma   90.00000000
_symmetry_Int_Tables_number   1
_chemical_formula_structural   LiNiPCO7
_chemical_formula_sum   'Li2 Ni2 P2 C2 O14'
_cell_volume   278.47623905
_cell_formula_units_Z   2
loop_
 _symmetry_equiv_pos_site_id
 _symmetry_equiv_pos_as_xyz
  1  'x, y, z'
loop_
 _atom_site_type_symbol
 _atom_site_label
 _atom_site_symmetry_multiplicity
 _atom_site_fract_x
 _atom_site_fract_y
 _atom_site_fract_z
 _atom_site_occupancy
  Li  Li0  1  0.22233902  0.99372426  0.23147159  1
  Li  Li1  1  0.77766048  0.49372425  0.76852856  1
  C  C2  1  0.72243719  0.75046937  0.06271385  1
  C  C3  1  0.27756239  0.25046938  0.93728512  1
  O  O4  1  0.78286184  0.44126495  0.32018089  1
  O  O5  1  0.95348716  0.75790283  0.11818217  1
  O  O6  1  0.47033490  0.27103851  0.83062400  1
  O  O7  1  0.52966459  0.77103850  0.16937615  1
  O  O8  1  0.16785992  0.56628755  0.67128004  1
  O  O9  1  0.15063353  0.77134804  0.41586927  1
  O  O10  1  0.21713966  0.94126494  0.67981922  1
  O  O11  1  0.04651234  0.25790284  0.88181797  1
  O  O12  1  0.83214158  0.06628756  0.32872007  1
  O  O13  1  0.41757239  0.22892717  0.46115867  1
  O  O14  1  0.68828659  0.72014806  0.92242872  1
  O  O15  1  0.31171291  0.22014807  0.07757142  1
  O  O16  1  0.58242710  0.72892716  0.53884148  1
  O  O17  1  0.84936605  0.27134805  0.58412970  1
  P  P18  1  0.72027577  0.25181644  0.42894876  1
  P  P19  1  0.27972373  0.75181643  0.57105138  1
  Ni  Ni20  1  0.79127711  0.75027597  0.33965497  1
  Ni  Ni21  1  0.20872239  0.25027598  0.66034518  1
