# generated using pymatgen
data_Pu3Zn22
_symmetry_space_group_name_H-M   'P 1'
_cell_length_a   8.87120103
_cell_length_b   8.86454150
_cell_length_c   12.31813746
_cell_angle_alpha   111.07652425
_cell_angle_beta   111.11147944
_cell_angle_gamma   89.97496358
_symmetry_Int_Tables_number   1
_chemical_formula_structural   Pu3Zn22
_chemical_formula_sum   'Pu6 Zn44'
_cell_volume   833.89212264
_cell_formula_units_Z   2
loop_
 _symmetry_equiv_pos_site_id
 _symmetry_equiv_pos_as_xyz
  1  'x, y, z'
loop_
 _atom_site_type_symbol
 _atom_site_label
 _atom_site_symmetry_multiplicity
 _atom_site_fract_x
 _atom_site_fract_y
 _atom_site_fract_z
 _atom_site_occupancy
  Pu  Pu0  1  0.12546009  0.87551929  0.25095786  1
  Pu  Pu1  1  0.25312153  0.50315346  0.50632665  1
  Pu  Pu2  1  0.50241330  0.25240813  0.00485881  1
  Pu  Pu3  1  0.74687847  0.49684654  0.49367335  1
  Pu  Pu4  1  0.49758670  0.74759187  0.99514119  1
  Pu  Pu5  1  0.87453991  0.12448071  0.74904214  1
  Zn  Zn6  1  0.16499671  0.26094043  0.02180298  1
  Zn  Zn7  1  0.85677818  0.26088919  0.02180716  1
  Zn  Zn8  1  0.26105567  0.85659718  0.52220195  1
  Zn  Zn9  1  0.11842015  0.21934068  0.23670025  1
  Zn  Zn10  1  0.84425822  0.37554474  0.25108691  1
  Zn  Zn11  1  0.00000000  0.00000000  0.50000000  1
  Zn  Zn12  1  0.21917189  0.11848299  0.73675096  1
  Zn  Zn13  1  0.83500329  0.73905957  0.97819702  1
  Zn  Zn14  1  0.32021539  0.04174410  0.12186145  1
  Zn  Zn15  1  0.04177923  0.80114002  0.62181367  1
  Zn  Zn16  1  0.19837122  0.41992419  0.87815859  1
  Zn  Zn17  1  0.04185857  0.32071081  0.62179669  1
  Zn  Zn18  1  0.67978461  0.95825590  0.87813855  1
  Zn  Zn19  1  0.42012628  0.19897376  0.37825967  1
  Zn  Zn20  1  0.88157985  0.78065932  0.76329975  1
  Zn  Zn21  1  0.59314614  0.62446700  0.74891270  1
  Zn  Zn22  1  0.62402984  0.15582017  0.24808634  1
  Zn  Zn23  1  0.88168216  0.48261034  0.76330781  1
  Zn  Zn24  1  0.95822077  0.19885998  0.37818633  1
  Zn  Zn25  1  0.48238990  0.88173392  0.26324721  1
  Zn  Zn26  1  0.51761010  0.11826608  0.73675279  1
  Zn  Zn27  1  0.11831784  0.51738966  0.23669219  1
  Zn  Zn28  1  0.37593847  0.40769670  0.75191139  1
  Zn  Zn29  1  0.80162878  0.58007581  0.12184141  1
  Zn  Zn30  1  0.32021182  0.58011875  0.12195971  1
  Zn  Zn31  1  0.67978818  0.41988125  0.87804029  1
  Zn  Zn32  1  0.15574178  0.62445526  0.74891309  1
  Zn  Zn33  1  0.78082811  0.88151701  0.26324904  1
  Zn  Zn34  1  0.40685386  0.37553300  0.25108730  1
  Zn  Zn35  1  0.80172236  0.04178407  0.12193629  1
  Zn  Zn36  1  0.62406153  0.59230330  0.24808861  1
  Zn  Zn37  1  0.95814143  0.67928919  0.37820331  1
  Zn  Zn38  1  0.58003067  0.32068104  0.62185640  1
  Zn  Zn39  1  0.73882383  0.83441630  0.47779405  1
  Zn  Zn40  1  0.37597016  0.84417983  0.75191366  1
  Zn  Zn41  1  0.41996933  0.67931896  0.37814360  1
  Zn  Zn42  1  0.00000000  0.00000000  0.00000000  1
  Zn  Zn43  1  0.26117617  0.16558370  0.52220595  1
  Zn  Zn44  1  0.73894433  0.14340282  0.47779805  1
  Zn  Zn45  1  0.57987372  0.80102624  0.62174033  1
  Zn  Zn46  1  0.19827764  0.95821593  0.87806371  1
  Zn  Zn47  1  0.00000000  0.50000000  0.00000000  1
  Zn  Zn48  1  0.50000000  0.00000000  0.50000000  1
  Zn  Zn49  1  0.14322182  0.73911081  0.97819284  1
