# generated using pymatgen
data_SmCo9Si4
_symmetry_space_group_name_H-M   'P 1'
_cell_length_a   7.72917180
_cell_length_b   7.72917161
_cell_length_c   7.90718999
_cell_angle_alpha   119.25801730
_cell_angle_beta   119.25801648
_cell_angle_gamma   90.00000113
_symmetry_Int_Tables_number   1
_chemical_formula_structural   SmCo9Si4
_chemical_formula_sum   'Sm2 Co18 Si8'
_cell_volume   341.37478402
_cell_formula_units_Z   2
loop_
 _symmetry_equiv_pos_site_id
 _symmetry_equiv_pos_as_xyz
  1  'x, y, z'
loop_
 _atom_site_type_symbol
 _atom_site_label
 _atom_site_symmetry_multiplicity
 _atom_site_fract_x
 _atom_site_fract_y
 _atom_site_fract_z
 _atom_site_occupancy
  Sm  Sm0  1  0.75000000  0.75000000  0.50000000  1
  Sm  Sm1  1  0.25000000  0.25000000  0.50000000  1
  Co  Co2  1  0.05014146  0.55014146  0.36086171  1
  Co  Co3  1  0.68927975  0.18927975  0.63913829  1
  Co  Co4  1  0.00000000  0.50000000  0.00000000  1
  Co  Co5  1  0.69935761  0.42951037  0.00000000  1
  Co  Co6  1  0.42951037  0.30064239  0.00000000  1
  Co  Co7  1  0.18927975  0.94985854  0.63913829  1
  Co  Co8  1  0.30064239  0.57048963  1.00000000  1
  Co  Co9  1  0.55014146  0.31072025  0.36086171  1
  Co  Co10  1  0.81072025  0.05014146  0.36086171  1
  Co  Co11  1  0.94985854  0.44985854  0.63913829  1
  Co  Co12  1  0.44985854  0.68927975  0.63913829  1
  Co  Co13  1  0.07048963  0.80064239  1.00000000  1
  Co  Co14  1  0.19935761  0.07048963  1.00000000  1
  Co  Co15  1  0.80064239  0.92951037  0.00000000  1
  Co  Co16  1  0.57048963  0.69935761  1.00000000  1
  Co  Co17  1  0.92951037  0.19935761  0.00000000  1
  Co  Co18  1  0.50000000  0.00000000  0.00000000  1
  Co  Co19  1  0.31072025  0.81072025  0.36086171  1
  Si  Si20  1  0.70982470  0.54740446  0.75722916  1
  Si  Si21  1  0.20982470  0.70982470  0.75722916  1
  Si  Si22  1  0.79017530  0.29017530  0.24277084  1
  Si  Si23  1  0.45259554  0.95259554  0.24277084  1
  Si  Si24  1  0.54740446  0.04740446  0.75722916  1
  Si  Si25  1  0.29017530  0.45259554  0.24277084  1
  Si  Si26  1  0.95259554  0.79017530  0.24277084  1
  Si  Si27  1  0.04740446  0.20982470  0.75722916  1
