# generated using pymatgen
data_Sr3In11
_symmetry_space_group_name_H-M   'P 1'
_cell_length_a   5.10525701
_cell_length_b   9.47792687
_cell_length_c   9.47792655
_cell_angle_alpha   73.34553749
_cell_angle_beta   74.37598563
_cell_angle_gamma   74.37598564
_symmetry_Int_Tables_number   1
_chemical_formula_structural   Sr3In11
_chemical_formula_sum   'Sr3 In11'
_cell_volume   413.86105506
_cell_formula_units_Z   1
loop_
 _symmetry_equiv_pos_site_id
 _symmetry_equiv_pos_as_xyz
  1  'x, y, z'
loop_
 _atom_site_type_symbol
 _atom_site_label
 _atom_site_symmetry_multiplicity
 _atom_site_fract_x
 _atom_site_fract_y
 _atom_site_fract_z
 _atom_site_occupancy
  Sr  Sr0  1  0.30874574  0.69125426  0.69125426  1
  Sr  Sr1  1  0.69125426  0.30874574  0.30874574  1
  Sr  Sr2  1  0.00000000  0.00000000  0.00000000  1
  In  In3  1  0.14631086  0.57967447  0.12770382  1
  In  In4  1  0.14631086  0.12770382  0.57967447  1
  In  In5  1  0.34288569  0.02888533  0.28534329  1
  In  In6  1  0.85368914  0.42032553  0.87229618  1
  In  In7  1  0.65711431  0.97111467  0.71465671  1
  In  In8  1  0.50000000  0.69072812  0.30927188  1
  In  In9  1  0.50000000  0.30927188  0.69072812  1
  In  In10  1  0.85368914  0.87229618  0.42032553  1
  In  In11  1  0.65711431  0.71465671  0.97111467  1
  In  In12  1  0.00000000  0.50000000  0.50000000  1
  In  In13  1  0.34288569  0.28534329  0.02888533  1
