# generated using pymatgen
data_Pr(AlBr4)3
_symmetry_space_group_name_H-M   'P 1'
_cell_length_a   10.81470979
_cell_length_b   10.81470940
_cell_length_c   19.00546482
_cell_angle_alpha   90.00000000
_cell_angle_beta   90.00000000
_cell_angle_gamma   120.00000122
_symmetry_Int_Tables_number   1
_chemical_formula_structural   Pr(AlBr4)3
_chemical_formula_sum   'Pr3 Al9 Br36'
_cell_volume   1925.03595678
_cell_formula_units_Z   3
loop_
 _symmetry_equiv_pos_site_id
 _symmetry_equiv_pos_as_xyz
  1  'x, y, z'
loop_
 _atom_site_type_symbol
 _atom_site_label
 _atom_site_symmetry_multiplicity
 _atom_site_fract_x
 _atom_site_fract_y
 _atom_site_fract_z
 _atom_site_occupancy
  Pr  Pr0  1  0.26951330  0.26951330  0.00000000  1
  Pr  Pr1  1  1.00000000  0.73048670  0.66666700  1
  Pr  Pr2  1  0.73048670  0.00000000  0.33333300  1
  Al  Al3  1  0.36608753  0.66706794  0.05449801  1
  Al  Al4  1  0.63391247  0.30098041  0.27883599  1
  Al  Al5  1  0.30098041  0.63391247  0.72116401  1
  Al  Al6  1  0.69901959  0.33293206  0.61216899  1
  Al  Al7  1  0.09890158  0.00000000  0.83333300  1
  Al  Al8  1  0.00000000  0.09890158  0.16666700  1
  Al  Al9  1  0.66706794  0.36608753  0.94550199  1
  Al  Al10  1  0.33293206  0.69901959  0.38783101  1
  Al  Al11  1  0.90109842  0.90109842  0.50000000  1
  Br  Br12  1  0.49416066  0.41178029  0.88905110  1
  Br  Br13  1  0.79570960  0.76834484  0.39831181  1
  Br  Br14  1  0.14268751  0.71696110  0.35088780  1
  Br  Br15  1  0.47903074  0.71275730  0.29023372  1
  Br  Br16  1  0.22369036  0.71575354  0.12296438  1
  Br  Br17  1  0.28424646  0.50793682  0.45629738  1
  Br  Br18  1  0.02736476  0.23165516  0.26835519  1
  Br  Br19  1  0.97263524  0.20429040  0.06497781  1
  Br  Br20  1  0.28724270  0.76627344  0.62356672  1
  Br  Br21  1  0.87936769  0.80425864  0.80232410  1
  Br  Br22  1  0.77630964  0.49206318  0.21036962  1
  Br  Br23  1  0.23165516  0.02736476  0.73164481  1
  Br  Br24  1  0.92489095  0.12063231  0.46899110  1
  Br  Br25  1  0.23372656  0.52096926  0.95690072  1
  Br  Br26  1  0.50583934  0.91761963  0.44428190  1
  Br  Br27  1  0.08238037  0.58821971  0.77761490  1
  Br  Br28  1  0.58821971  0.08238037  0.22238510  1
  Br  Br29  1  0.12063231  0.92489095  0.53100890  1
  Br  Br30  1  0.49206318  0.77630964  0.78963038  1
  Br  Br31  1  0.80425864  0.87936769  0.19767590  1
  Br  Br32  1  0.07510905  0.19574136  0.86434190  1
  Br  Br33  1  0.28303890  0.42572641  0.68422080  1
  Br  Br34  1  0.71575354  0.22369036  0.87703562  1
  Br  Br35  1  0.19574136  0.07510905  0.13565810  1
  Br  Br36  1  0.50793682  0.28424646  0.54370262  1
  Br  Br37  1  0.91761963  0.50583934  0.55571810  1
  Br  Br38  1  0.76834484  0.79570960  0.60168819  1
  Br  Br39  1  0.76627344  0.28724270  0.37643328  1
  Br  Br40  1  0.57427359  0.85731249  0.01755480  1
  Br  Br41  1  0.85731249  0.57427359  0.98244520  1
  Br  Br42  1  0.42572641  0.28303890  0.31577920  1
  Br  Br43  1  0.71696110  0.14268751  0.64911220  1
  Br  Br44  1  0.41178029  0.49416066  0.11094890  1
  Br  Br45  1  0.20429040  0.97263524  0.93502219  1
  Br  Br46  1  0.71275730  0.47903074  0.70976628  1
  Br  Br47  1  0.52096926  0.23372656  0.04309928  1
