# generated using pymatgen
data_RbSmGeSe4
_symmetry_space_group_name_H-M   'P 1'
_cell_length_a   6.85565071
_cell_length_b   7.12173595
_cell_length_c   18.12534622
_cell_angle_alpha   90.00000000
_cell_angle_beta   90.00000000
_cell_angle_gamma   90.00000000
_symmetry_Int_Tables_number   1
_chemical_formula_structural   RbSmGeSe4
_chemical_formula_sum   'Rb4 Sm4 Ge4 Se16'
_cell_volume   884.95433485
_cell_formula_units_Z   4
loop_
 _symmetry_equiv_pos_site_id
 _symmetry_equiv_pos_as_xyz
  1  'x, y, z'
loop_
 _atom_site_type_symbol
 _atom_site_label
 _atom_site_symmetry_multiplicity
 _atom_site_fract_x
 _atom_site_fract_y
 _atom_site_fract_z
 _atom_site_occupancy
  Rb  Rb0  1  0.50986221  0.99511970  0.53145852  1
  Rb  Rb1  1  0.99013779  0.00488030  0.03145852  1
  Rb  Rb2  1  0.00986221  0.50488030  0.46854148  1
  Rb  Rb3  1  0.49013779  0.49511970  0.96854148  1
  Sm  Sm4  1  0.79270417  0.02076512  0.77423679  1
  Sm  Sm5  1  0.29270417  0.47923488  0.22576321  1
  Sm  Sm6  1  0.20729583  0.52076512  0.72576321  1
  Sm  Sm7  1  0.70729583  0.97923488  0.27423679  1
  Ge  Ge8  1  0.78978116  0.51378207  0.16371267  1
  Ge  Ge9  1  0.21021884  0.01378207  0.33628733  1
  Ge  Ge10  1  0.71021884  0.48621793  0.66371267  1
  Ge  Ge11  1  0.28978116  0.98621793  0.83628733  1
  Se  Se12  1  0.09955771  0.08312722  0.21484451  1
  Se  Se13  1  0.44559376  0.25524364  0.35804961  1
  Se  Se14  1  0.56288184  0.98692884  0.91516093  1
  Se  Se15  1  0.09582908  0.26252059  0.85092288  1
  Se  Se16  1  0.94559376  0.24475636  0.64195039  1
  Se  Se17  1  0.40417092  0.73747941  0.35092288  1
  Se  Se18  1  0.59582908  0.23747941  0.14907712  1
  Se  Se19  1  0.40044229  0.91687278  0.71484451  1
  Se  Se20  1  0.90044229  0.58312722  0.28515549  1
  Se  Se21  1  0.59955771  0.41687278  0.78515549  1
  Se  Se22  1  0.43711816  0.48692884  0.58483907  1
  Se  Se23  1  0.90417092  0.76252059  0.64907712  1
  Se  Se24  1  0.93711816  0.01307116  0.41516093  1
  Se  Se25  1  0.55440624  0.75524364  0.14195039  1
  Se  Se26  1  0.06288184  0.51307116  0.08483907  1
  Se  Se27  1  0.05440624  0.74475636  0.85804961  1
