# generated using pymatgen
data_Lu4B3C4
_symmetry_space_group_name_H-M   'P 1'
_cell_length_a   3.41419542
_cell_length_b   3.49909630
_cell_length_c   11.76727514
_cell_angle_alpha   87.36140126
_cell_angle_beta   83.94034266
_cell_angle_gamma   90.14600632
_symmetry_Int_Tables_number   1
_chemical_formula_structural   Lu4B3C4
_chemical_formula_sum   'Lu4 B3 C4'
_cell_volume   139.64133573
_cell_formula_units_Z   1
loop_
 _symmetry_equiv_pos_site_id
 _symmetry_equiv_pos_as_xyz
  1  'x, y, z'
loop_
 _atom_site_type_symbol
 _atom_site_label
 _atom_site_symmetry_multiplicity
 _atom_site_fract_x
 _atom_site_fract_y
 _atom_site_fract_z
 _atom_site_occupancy
  Lu  Lu0  1  0.19543391  0.97506428  0.65042734  1
  Lu  Lu1  1  0.61536430  0.44614484  0.85886047  1
  Lu  Lu2  1  0.38463570  0.55385516  0.14113953  1
  Lu  Lu3  1  0.80456609  0.02493572  0.34957266  1
  B  B4  1  0.73319905  0.49271049  0.54026985  1
  B  B5  1  0.26680095  0.50728951  0.45973015  1
  B  B6  1  0.00000000  0.00000000  0.00000000  1
  C  C7  1  0.11419392  0.93628871  0.87861808  1
  C  C8  1  0.31197041  0.52816195  0.33104327  1
  C  C9  1  0.68802959  0.47183805  0.66895673  1
  C  C10  1  0.88580608  0.06371129  0.12138192  1
