# generated using pymatgen
data_Lu2Fe14C
_symmetry_space_group_name_H-M   'P 1'
_cell_length_a   8.68875880
_cell_length_b   8.68875880
_cell_length_c   11.60045325
_cell_angle_alpha   90.00000000
_cell_angle_beta   90.00000000
_cell_angle_gamma   90.00000000
_symmetry_Int_Tables_number   1
_chemical_formula_structural   Lu2Fe14C
_chemical_formula_sum   'Lu8 Fe56 C4'
_cell_volume   875.77075992
_cell_formula_units_Z   4
loop_
 _symmetry_equiv_pos_site_id
 _symmetry_equiv_pos_as_xyz
  1  'x, y, z'
loop_
 _atom_site_type_symbol
 _atom_site_label
 _atom_site_symmetry_multiplicity
 _atom_site_fract_x
 _atom_site_fract_y
 _atom_site_fract_z
 _atom_site_occupancy
  Lu  Lu0  1  0.35654839  0.35654839  0.50000000  1
  Lu  Lu1  1  0.85654839  0.14345161  0.00000000  1
  Lu  Lu2  1  0.14345161  0.85654839  0.00000000  1
  Lu  Lu3  1  0.74178668  0.74178668  0.00000000  1
  Lu  Lu4  1  0.24178668  0.75821332  0.50000000  1
  Lu  Lu5  1  0.75821332  0.24178668  0.50000000  1
  Lu  Lu6  1  0.64345161  0.64345161  0.50000000  1
  Lu  Lu7  1  0.25821332  0.25821332  0.00000000  1
  Fe  Fe8  1  0.09677589  0.09677589  0.79860580  1
  Fe  Fe9  1  0.64281563  0.96395601  0.82558151  1
  Fe  Fe10  1  0.68418728  0.68418728  0.75459195  1
  Fe  Fe11  1  0.56409291  0.22517580  0.11996555  1
  Fe  Fe12  1  0.93590709  0.72517580  0.38003445  1
  Fe  Fe13  1  0.14281563  0.53604399  0.67441849  1
  Fe  Fe14  1  0.64281563  0.96395601  0.17441849  1
  Fe  Fe15  1  0.77482420  0.43590709  0.88003445  1
  Fe  Fe16  1  0.53604399  0.14281563  0.67441849  1
  Fe  Fe17  1  0.85718437  0.46395601  0.67441849  1
  Fe  Fe18  1  0.68418728  0.68418728  0.24540805  1
  Fe  Fe19  1  0.00000000  0.00000000  0.60839838  1
  Fe  Fe20  1  0.40322411  0.59677589  0.29860580  1
  Fe  Fe21  1  0.22517580  0.56409291  0.88003445  1
  Fe  Fe22  1  0.96395601  0.64281563  0.17441849  1
  Fe  Fe23  1  0.35718437  0.03604399  0.82558151  1
  Fe  Fe24  1  0.72517580  0.93590709  0.38003445  1
  Fe  Fe25  1  0.06409291  0.27482420  0.61996555  1
  Fe  Fe26  1  0.81581272  0.18418728  0.25459195  1
  Fe  Fe27  1  0.27482420  0.06409291  0.38003445  1
  Fe  Fe28  1  0.40322411  0.59677589  0.70139420  1
  Fe  Fe29  1  0.22517580  0.56409291  0.11996555  1
  Fe  Fe30  1  0.90322411  0.90322411  0.79860580  1
  Fe  Fe31  1  0.46395601  0.85718437  0.32558151  1
  Fe  Fe32  1  0.93590709  0.72517580  0.61996555  1
  Fe  Fe33  1  0.14281563  0.53604399  0.32558151  1
  Fe  Fe34  1  0.35718437  0.03604399  0.17441849  1
  Fe  Fe35  1  0.72517580  0.93590709  0.61996555  1
  Fe  Fe36  1  0.56409291  0.22517580  0.88003445  1
  Fe  Fe37  1  0.90322411  0.90322411  0.20139420  1
  Fe  Fe38  1  0.18418728  0.81581272  0.25459195  1
  Fe  Fe39  1  0.53604399  0.14281563  0.32558151  1
  Fe  Fe40  1  0.03604399  0.35718437  0.17441849  1
  Fe  Fe41  1  0.27482420  0.06409291  0.61996555  1
  Fe  Fe42  1  0.59677589  0.40322411  0.70139420  1
  Fe  Fe43  1  0.50000000  0.00000000  0.00000000  1
  Fe  Fe44  1  0.06409291  0.27482420  0.38003445  1
  Fe  Fe45  1  0.31581272  0.31581272  0.24540805  1
  Fe  Fe46  1  0.00000000  0.00000000  0.39160162  1
  Fe  Fe47  1  0.18418728  0.81581272  0.74540805  1
  Fe  Fe48  1  0.50000000  0.50000000  0.89160162  1
  Fe  Fe49  1  0.43590709  0.77482420  0.11996555  1
  Fe  Fe50  1  0.09677589  0.09677589  0.20139420  1
  Fe  Fe51  1  0.46395601  0.85718437  0.67441849  1
  Fe  Fe52  1  0.81581272  0.18418728  0.74540805  1
  Fe  Fe53  1  0.96395601  0.64281563  0.82558151  1
  Fe  Fe54  1  0.31581272  0.31581272  0.75459195  1
  Fe  Fe55  1  0.85718437  0.46395601  0.32558151  1
  Fe  Fe56  1  0.77482420  0.43590709  0.11996555  1
  Fe  Fe57  1  0.50000000  0.00000000  0.50000000  1
  Fe  Fe58  1  0.03604399  0.35718437  0.82558151  1
  Fe  Fe59  1  0.59677589  0.40322411  0.29860580  1
  Fe  Fe60  1  0.43590709  0.77482420  0.88003445  1
  Fe  Fe61  1  0.00000000  0.50000000  0.00000000  1
  Fe  Fe62  1  0.50000000  0.50000000  0.10839838  1
  Fe  Fe63  1  0.00000000  0.50000000  0.50000000  1
  C  C64  1  0.12804531  0.12804531  0.50000000  1
  C  C65  1  0.87195469  0.87195469  0.50000000  1
  C  C66  1  0.37195469  0.62804531  0.00000000  1
  C  C67  1  0.62804531  0.37195469  0.00000000  1
