# generated using pymatgen
data_Ti4CoBi2
_symmetry_space_group_name_H-M   'P 1'
_cell_length_a   4.86983445
_cell_length_b   7.87819390
_cell_length_c   7.87819417
_cell_angle_alpha   84.51848702
_cell_angle_beta   71.99677601
_cell_angle_gamma   71.99678103
_symmetry_Int_Tables_number   1
_chemical_formula_structural   Ti4CoBi2
_chemical_formula_sum   'Ti8 Co2 Bi4'
_cell_volume   273.37848041
_cell_formula_units_Z   2
loop_
 _symmetry_equiv_pos_site_id
 _symmetry_equiv_pos_as_xyz
  1  'x, y, z'
loop_
 _atom_site_type_symbol
 _atom_site_label
 _atom_site_symmetry_multiplicity
 _atom_site_fract_x
 _atom_site_fract_y
 _atom_site_fract_z
 _atom_site_occupancy
  Ti  Ti0  1  0.41960788  0.27323665  0.88754759  1
  Ti  Ti1  1  0.69284453  0.88754759  0.72676335  1
  Ti  Ti2  1  0.80715547  0.27323665  0.11245241  1
  Ti  Ti3  1  0.19284453  0.72676335  0.88754759  1
  Ti  Ti4  1  0.08039212  0.11245241  0.72676335  1
  Ti  Ti5  1  0.91960788  0.88754759  0.27323665  1
  Ti  Ti6  1  0.58039212  0.72676335  0.11245241  1
  Ti  Ti7  1  0.30715547  0.11245241  0.27323665  1
  Co  Co8  1  0.25000000  0.00000000  0.00000000  1
  Co  Co9  1  0.75000000  0.00000000  0.00000000  1
  Bi  Bi10  1  0.36083457  0.77833085  0.50000000  1
  Bi  Bi11  1  0.86083457  0.50000000  0.77833085  1
  Bi  Bi12  1  0.13916543  0.50000000  0.22166915  1
  Bi  Bi13  1  0.63916543  0.22166915  0.50000000  1
