# generated using pymatgen
data_Na2Mn(PO3)5
_symmetry_space_group_name_H-M   'P 1'
_cell_length_a   5.29794754
_cell_length_b   8.91649689
_cell_length_c   13.74256921
_cell_angle_alpha   90.00000000
_cell_angle_beta   90.00000000
_cell_angle_gamma   103.11537323
_symmetry_Int_Tables_number   1
_chemical_formula_structural   Na2Mn(PO3)5
_chemical_formula_sum   'Na4 Mn2 P10 O30'
_cell_volume   632.25308414
_cell_formula_units_Z   2
loop_
 _symmetry_equiv_pos_site_id
 _symmetry_equiv_pos_as_xyz
  1  'x, y, z'
loop_
 _atom_site_type_symbol
 _atom_site_label
 _atom_site_symmetry_multiplicity
 _atom_site_fract_x
 _atom_site_fract_y
 _atom_site_fract_z
 _atom_site_occupancy
  Na  Na0  1  0.07455256  0.12774577  0.11009731  1
  Na  Na1  1  0.07455256  0.12774577  0.38990269  1
  Na  Na2  1  0.92544744  0.87225423  0.88990269  1
  Na  Na3  1  0.92544744  0.87225423  0.61009731  1
  Mn  Mn4  1  0.50000000  0.50000000  0.50000000  1
  Mn  Mn5  1  0.50000000  0.50000000  0.00000000  1
  P  P6  1  0.45889867  0.99633853  0.75000000  1
  P  P7  1  0.01699969  0.48685388  0.85969975  1
  P  P8  1  0.65460461  0.19189229  0.57907623  1
  P  P9  1  0.98300031  0.51314612  0.14030025  1
  P  P10  1  0.34539539  0.80810771  0.07907623  1
  P  P11  1  0.54110133  0.00366147  0.25000000  1
  P  P12  1  0.65460461  0.19189229  0.92092377  1
  P  P13  1  0.98300031  0.51314612  0.35969975  1
  P  P14  1  0.01699969  0.48685388  0.64030025  1
  P  P15  1  0.34539539  0.80810771  0.42092377  1
  O  O16  1  0.13674560  0.68864846  0.14467161  1
  O  O17  1  0.44716750  0.11517180  0.65907892  1
  O  O18  1  0.51280193  0.28408472  0.98673992  1
  O  O19  1  0.86325440  0.31135154  0.64467161  1
  O  O20  1  0.55283250  0.88482820  0.34092108  1
  O  O21  1  0.21321361  0.91809067  0.03069503  1
  O  O22  1  0.48719807  0.71591528  0.01326008  1
  O  O23  1  0.12172079  0.41794017  0.07872434  1
  O  O24  1  0.87827921  0.58205983  0.57872434  1
  O  O25  1  0.30131724  0.49253327  0.62124546  1
  O  O26  1  0.69868276  0.50746673  0.12124546  1
  O  O27  1  0.28774196  0.05002336  0.25000000  1
  O  O28  1  0.78678639  0.08190933  0.96930497  1
  O  O29  1  0.13674560  0.68864846  0.35532839  1
  O  O30  1  0.69868276  0.50746673  0.37875454  1
  O  O31  1  0.30131724  0.49253327  0.87875454  1
  O  O32  1  0.79377713  0.11811403  0.25000000  1
  O  O33  1  0.55283250  0.88482820  0.15907892  1
  O  O34  1  0.12172079  0.41794017  0.42127566  1
  O  O35  1  0.21321361  0.91809067  0.46930497  1
  O  O36  1  0.78678639  0.08190933  0.53069503  1
  O  O37  1  0.20622287  0.88188597  0.75000000  1
  O  O38  1  0.48719807  0.71591528  0.48673992  1
  O  O39  1  0.00322693  0.45917316  0.25000000  1
  O  O40  1  0.87827921  0.58205983  0.92127566  1
  O  O41  1  0.86325440  0.31135154  0.85532839  1
  O  O42  1  0.51280193  0.28408472  0.51326008  1
  O  O43  1  0.44716750  0.11517180  0.84092108  1
  O  O44  1  0.71225804  0.94997664  0.75000000  1
  O  O45  1  0.99677307  0.54082684  0.75000000  1
