# generated using pymatgen
data_TlBi(PSe3)2
_symmetry_space_group_name_H-M   'P 1'
_cell_length_a   7.67905272
_cell_length_b   12.63351301
_cell_length_c   12.85188618
_cell_angle_alpha   113.61272149
_cell_angle_beta   90.00000000
_cell_angle_gamma   90.00000000
_symmetry_Int_Tables_number   1
_chemical_formula_structural   TlBi(PSe3)2
_chemical_formula_sum   'Tl4 Bi4 P8 Se24'
_cell_volume   1142.41508282
_cell_formula_units_Z   4
loop_
 _symmetry_equiv_pos_site_id
 _symmetry_equiv_pos_as_xyz
  1  'x, y, z'
loop_
 _atom_site_type_symbol
 _atom_site_label
 _atom_site_symmetry_multiplicity
 _atom_site_fract_x
 _atom_site_fract_y
 _atom_site_fract_z
 _atom_site_occupancy
  Tl  Tl0  1  0.07673749  0.84802049  0.57898018  1
  Tl  Tl1  1  0.42326251  0.34802049  0.57898018  1
  Tl  Tl2  1  0.57673749  0.65197951  0.42101982  1
  Tl  Tl3  1  0.92326251  0.15197951  0.42101982  1
  Bi  Bi4  1  0.15248680  0.33920586  0.12100015  1
  Bi  Bi5  1  0.65248680  0.16079414  0.87899985  1
  Bi  Bi6  1  0.34751320  0.83920586  0.12100015  1
  Bi  Bi7  1  0.84751320  0.66079414  0.87899985  1
  P  P8  1  0.90877548  0.30607805  0.76291908  1
  P  P9  1  0.40877548  0.19392195  0.23708092  1
  P  P10  1  0.59122452  0.80607805  0.76291908  1
  P  P11  1  0.12989864  0.18597182  0.76421885  1
  P  P12  1  0.87010136  0.81402818  0.23578115  1
  P  P13  1  0.62989864  0.31402818  0.23578115  1
  P  P14  1  0.09122452  0.69392195  0.23708092  1
  P  P15  1  0.37010136  0.68597182  0.76421885  1
  Se  Se16  1  0.20025554  0.31502768  0.33582358  1
  Se  Se17  1  0.31826207  0.30521891  0.88880080  1
  Se  Se18  1  0.29974446  0.81502768  0.33582358  1
  Se  Se19  1  0.73450396  0.39769878  0.40688795  1
  Se  Se20  1  0.26549604  0.60230122  0.59311205  1
  Se  Se21  1  0.31402839  0.11661112  0.05753852  1
  Se  Se22  1  0.99385672  0.57206810  0.30534699  1
  Se  Se23  1  0.23450396  0.10230122  0.59311205  1
  Se  Se24  1  0.00614328  0.42793190  0.69465301  1
  Se  Se25  1  0.68597161  0.88338888  0.94246148  1
  Se  Se26  1  0.76549604  0.89769878  0.40688795  1
  Se  Se27  1  0.50658721  0.43576399  0.16916213  1
  Se  Se28  1  0.68173793  0.69478109  0.11119920  1
  Se  Se29  1  0.49385672  0.92793190  0.69465301  1
  Se  Se30  1  0.18597161  0.61661112  0.05753852  1
  Se  Se31  1  0.50614328  0.07206810  0.30534699  1
  Se  Se32  1  0.49341279  0.56423601  0.83083787  1
  Se  Se33  1  0.79974446  0.68497232  0.66417642  1
  Se  Se34  1  0.81402839  0.38338888  0.94246148  1
  Se  Se35  1  0.81826207  0.19478109  0.11119920  1
  Se  Se36  1  0.18173793  0.80521891  0.88880080  1
  Se  Se37  1  0.70025554  0.18497232  0.66417642  1
  Se  Se38  1  0.99341279  0.93576399  0.16916213  1
  Se  Se39  1  0.00658721  0.06423601  0.83083787  1
