# generated using pymatgen
data_AlTlBr4
_symmetry_space_group_name_H-M   'P 1'
_cell_length_a   7.63355545
_cell_length_b   9.30641784
_cell_length_c   13.37901185
_cell_angle_alpha   105.03108226
_cell_angle_beta   90.00000000
_cell_angle_gamma   90.00000000
_symmetry_Int_Tables_number   1
_chemical_formula_structural   AlTlBr4
_chemical_formula_sum   'Al4 Tl4 Br16'
_cell_volume   917.93944371
_cell_formula_units_Z   4
loop_
 _symmetry_equiv_pos_site_id
 _symmetry_equiv_pos_as_xyz
  1  'x, y, z'
loop_
 _atom_site_type_symbol
 _atom_site_label
 _atom_site_symmetry_multiplicity
 _atom_site_fract_x
 _atom_site_fract_y
 _atom_site_fract_z
 _atom_site_occupancy
  Al  Al0  1  0.78438222  0.28523101  0.54564774  1
  Al  Al1  1  0.21561778  0.71476899  0.45435226  1
  Al  Al2  1  0.78438222  0.71476899  0.95435226  1
  Al  Al3  1  0.21561778  0.28523101  0.04564774  1
  Tl  Tl4  1  0.09885838  0.00000000  0.25000000  1
  Tl  Tl5  1  0.37040817  0.50000000  0.75000000  1
  Tl  Tl6  1  0.62959183  0.50000000  0.25000000  1
  Tl  Tl7  1  0.90114162  0.00000000  0.75000000  1
  Br  Br8  1  0.57920733  0.83409182  0.87398990  1
  Br  Br9  1  0.26573721  0.46060859  0.40081033  1
  Br  Br10  1  0.93699257  0.21813232  0.08893675  1
  Br  Br11  1  0.06300743  0.21813232  0.58893675  1
  Br  Br12  1  0.26573721  0.53939141  0.09918967  1
  Br  Br13  1  0.42079267  0.16590818  0.12601010  1
  Br  Br14  1  0.57920733  0.16590818  0.62601010  1
  Br  Br15  1  0.24997001  0.79638591  0.63421585  1
  Br  Br16  1  0.06300743  0.78186768  0.91106325  1
  Br  Br17  1  0.75002999  0.79638591  0.13421585  1
  Br  Br18  1  0.42079267  0.83409182  0.37398990  1
  Br  Br19  1  0.75002999  0.20361409  0.36578415  1
  Br  Br20  1  0.73426279  0.46060859  0.90081033  1
  Br  Br21  1  0.24997001  0.20361409  0.86578415  1
  Br  Br22  1  0.93699257  0.78186768  0.41106325  1
  Br  Br23  1  0.73426279  0.53939141  0.59918967  1
