# generated using pymatgen
data_Na4Si2Te5
_symmetry_space_group_name_H-M   'P 1'
_cell_length_a   12.96756145
_cell_length_b   14.24839236
_cell_length_c   15.06802370
_cell_angle_alpha   92.09225896
_cell_angle_beta   90.00000000
_cell_angle_gamma   90.00000000
_symmetry_Int_Tables_number   1
_chemical_formula_structural   Na4Si2Te5
_chemical_formula_sum   'Na32 Si16 Te40'
_cell_volume   2782.21603787
_cell_formula_units_Z   8
loop_
 _symmetry_equiv_pos_site_id
 _symmetry_equiv_pos_as_xyz
  1  'x, y, z'
loop_
 _atom_site_type_symbol
 _atom_site_label
 _atom_site_symmetry_multiplicity
 _atom_site_fract_x
 _atom_site_fract_y
 _atom_site_fract_z
 _atom_site_occupancy
  Na  Na0  1  0.08898407  0.19687576  0.13928215  1
  Na  Na1  1  0.12276914  0.90486118  0.04818428  1
  Na  Na2  1  0.91101593  0.80312424  0.86071785  1
  Na  Na3  1  0.87723086  0.09513882  0.95181572  1
  Na  Na4  1  0.90723944  0.49248240  0.72963235  1
  Na  Na5  1  0.87815459  0.90307252  0.55996266  1
  Na  Na6  1  0.63522334  0.42234904  0.57242407  1
  Na  Na7  1  0.58898407  0.80312424  0.36071785  1
  Na  Na8  1  0.63494806  0.61785103  0.96596764  1
  Na  Na9  1  0.40723944  0.50751760  0.77036765  1
  Na  Na10  1  0.13522334  0.57765096  0.92757593  1
  Na  Na11  1  0.41101593  0.19687576  0.63928215  1
  Na  Na12  1  0.36505194  0.38214897  0.03403236  1
  Na  Na13  1  0.12184541  0.09692748  0.44003734  1
  Na  Na14  1  0.86505194  0.61785103  0.46596764  1
  Na  Na15  1  0.84378746  0.01272176  0.23486868  1
  Na  Na16  1  0.85722918  0.28959891  0.34814264  1
  Na  Na17  1  0.62184541  0.90307252  0.05996266  1
  Na  Na18  1  0.14277082  0.71040109  0.65185736  1
  Na  Na19  1  0.37815459  0.09692748  0.94003734  1
  Na  Na20  1  0.15621254  0.98727824  0.76513132  1
  Na  Na21  1  0.36477666  0.57765096  0.42757593  1
  Na  Na22  1  0.59276056  0.49248240  0.22963235  1
  Na  Na23  1  0.65621254  0.01272176  0.73486868  1
  Na  Na24  1  0.62276914  0.09513882  0.45181572  1
  Na  Na25  1  0.35722918  0.71040109  0.15185736  1
  Na  Na26  1  0.37723086  0.90486118  0.54818428  1
  Na  Na27  1  0.09276056  0.50751760  0.27036765  1
  Na  Na28  1  0.64277082  0.28959891  0.84814264  1
  Na  Na29  1  0.86477666  0.42234904  0.07242407  1
  Na  Na30  1  0.13494806  0.38214897  0.53403236  1
  Na  Na31  1  0.34378746  0.98727824  0.26513132  1
  Si  Si32  1  0.59147661  0.72217539  0.59084975  1
  Si  Si33  1  0.34036880  0.77874337  0.91319361  1
  Si  Si34  1  0.05786474  0.82419057  0.29103410  1
  Si  Si35  1  0.80721309  0.68115719  0.21369936  1
  Si  Si36  1  0.30721309  0.31884281  0.28630064  1
  Si  Si37  1  0.40852339  0.27782461  0.40915025  1
  Si  Si38  1  0.90852339  0.72217539  0.09084975  1
  Si  Si39  1  0.09147661  0.27782461  0.90915025  1
  Si  Si40  1  0.65963120  0.22125663  0.08680639  1
  Si  Si41  1  0.15963120  0.77874337  0.41319361  1
  Si  Si42  1  0.19278691  0.31884281  0.78630064  1
  Si  Si43  1  0.55786474  0.17580943  0.20896590  1
  Si  Si44  1  0.94213526  0.17580943  0.70896590  1
  Si  Si45  1  0.44213526  0.82419057  0.79103410  1
  Si  Si46  1  0.84036880  0.22125663  0.58680639  1
  Si  Si47  1  0.69278691  0.68115719  0.71369936  1
  Te  Te48  1  0.12764507  0.89659839  0.53890626  1
  Te  Te49  1  0.62242641  0.70787600  0.17043682  1
  Te  Te50  1  0.37235493  0.89659839  0.03890626  1
  Te  Te51  1  0.59556170  0.01001655  0.24796887  1
  Te  Te52  1  0.36519429  0.19269958  0.16600101  1
  Te  Te53  1  0.40832343  0.70620494  0.65977880  1
  Te  Te54  1  0.12242641  0.29212400  0.32956318  1
  Te  Te55  1  0.84154880  0.51903639  0.26533618  1
  Te  Te56  1  0.15845120  0.48096361  0.73466382  1
  Te  Te57  1  0.12832491  0.11158117  0.94908129  1
  Te  Te58  1  0.59167657  0.29379506  0.34022120  1
  Te  Te59  1  0.62764507  0.10340161  0.96109374  1
  Te  Te60  1  0.11532111  0.61551073  0.46043598  1
  Te  Te61  1  0.87235493  0.10340161  0.46109374  1
  Te  Te62  1  0.65833966  0.21383879  0.64737675  1
  Te  Te63  1  0.63480571  0.80730042  0.83399899  1
  Te  Te64  1  0.88389065  0.60946212  0.96215786  1
  Te  Te65  1  0.38467889  0.61551073  0.96043598  1
  Te  Te66  1  0.40443830  0.98998345  0.75203113  1
  Te  Te67  1  0.84166034  0.21383879  0.14737675  1
  Te  Te68  1  0.38389065  0.39053788  0.53784214  1
  Te  Te69  1  0.88467889  0.38448927  0.53956402  1
  Te  Te70  1  0.61610935  0.60946212  0.46215786  1
  Te  Te71  1  0.65845120  0.51903639  0.76533618  1
  Te  Te72  1  0.09167657  0.70620494  0.15977880  1
  Te  Te73  1  0.13480571  0.19269958  0.66600101  1
  Te  Te74  1  0.37757359  0.29212400  0.82956318  1
  Te  Te75  1  0.37167509  0.11158117  0.44908129  1
  Te  Te76  1  0.09556170  0.98998345  0.25203113  1
  Te  Te77  1  0.34166034  0.78616121  0.35262325  1
  Te  Te78  1  0.87167509  0.88841883  0.05091871  1
  Te  Te79  1  0.62832491  0.88841883  0.55091871  1
  Te  Te80  1  0.61532111  0.38448927  0.03956402  1
  Te  Te81  1  0.11610935  0.39053788  0.03784214  1
  Te  Te82  1  0.90443830  0.01001655  0.74796887  1
  Te  Te83  1  0.86519429  0.80730042  0.33399899  1
  Te  Te84  1  0.87757359  0.70787600  0.67043682  1
  Te  Te85  1  0.34154880  0.48096361  0.23466382  1
  Te  Te86  1  0.15833966  0.78616121  0.85262325  1
  Te  Te87  1  0.90832343  0.29379506  0.84022120  1
