# generated using pymatgen
data_YbAlPd
_symmetry_space_group_name_H-M   'P 1'
_cell_length_a   4.25594399
_cell_length_b   7.17761298
_cell_length_c   7.91238817
_cell_angle_alpha   90.00000000
_cell_angle_beta   90.00000000
_cell_angle_gamma   90.00000000
_symmetry_Int_Tables_number   1
_chemical_formula_structural   YbAlPd
_chemical_formula_sum   'Yb4 Al4 Pd4'
_cell_volume   241.70382657
_cell_formula_units_Z   4
loop_
 _symmetry_equiv_pos_site_id
 _symmetry_equiv_pos_as_xyz
  1  'x, y, z'
loop_
 _atom_site_type_symbol
 _atom_site_label
 _atom_site_symmetry_multiplicity
 _atom_site_fract_x
 _atom_site_fract_y
 _atom_site_fract_z
 _atom_site_occupancy
  Yb  Yb0  1  0.75000000  0.47291825  0.17717556  1
  Yb  Yb1  1  0.75000000  0.97291825  0.32282444  1
  Yb  Yb2  1  0.25000000  0.52708175  0.82282444  1
  Yb  Yb3  1  0.25000000  0.02708175  0.67717556  1
  Al  Al4  1  0.75000000  0.35854340  0.56388523  1
  Al  Al5  1  0.75000000  0.85854340  0.93611477  1
  Al  Al6  1  0.25000000  0.64145660  0.43611477  1
  Al  Al7  1  0.25000000  0.14145660  0.06388523  1
  Pd  Pd8  1  0.75000000  0.21712533  0.88162418  1
  Pd  Pd9  1  0.75000000  0.71712533  0.61837582  1
  Pd  Pd10  1  0.25000000  0.78287467  0.11837582  1
  Pd  Pd11  1  0.25000000  0.28287467  0.38162418  1
