# generated using pymatgen
data_Nd5Sn4
_symmetry_space_group_name_H-M   'P 1'
_cell_length_a   8.29306529
_cell_length_b   8.46532151
_cell_length_c   16.06577650
_cell_angle_alpha   90.00000000
_cell_angle_beta   90.00000000
_cell_angle_gamma   90.00000000
_symmetry_Int_Tables_number   1
_chemical_formula_structural   Nd5Sn4
_chemical_formula_sum   'Nd20 Sn16'
_cell_volume   1127.87316188
_cell_formula_units_Z   4
loop_
 _symmetry_equiv_pos_site_id
 _symmetry_equiv_pos_as_xyz
  1  'x, y, z'
loop_
 _atom_site_type_symbol
 _atom_site_label
 _atom_site_symmetry_multiplicity
 _atom_site_fract_x
 _atom_site_fract_y
 _atom_site_fract_z
 _atom_site_occupancy
  Nd  Nd0  1  0.36837288  0.83600079  0.88009562  1
  Nd  Nd1  1  0.86837288  0.66399921  0.61990438  1
  Nd  Nd2  1  0.63162712  0.16399921  0.38009562  1
  Nd  Nd3  1  0.13162712  0.33600079  0.11990438  1
  Nd  Nd4  1  0.63162712  0.16399921  0.11990438  1
  Nd  Nd5  1  0.13162712  0.33600079  0.38009562  1
  Nd  Nd6  1  0.36837288  0.83600079  0.61990438  1
  Nd  Nd7  1  0.86837288  0.66399921  0.88009562  1
  Nd  Nd8  1  0.51942036  0.31700744  0.90055920  1
  Nd  Nd9  1  0.01942036  0.18299256  0.59944080  1
  Nd  Nd10  1  0.48057964  0.68299256  0.40055920  1
  Nd  Nd11  1  0.98057964  0.81700744  0.09944080  1
  Nd  Nd12  1  0.48057964  0.68299256  0.09944080  1
  Nd  Nd13  1  0.98057964  0.81700744  0.40055920  1
  Nd  Nd14  1  0.51942036  0.31700744  0.59944080  1
  Nd  Nd15  1  0.01942036  0.18299256  0.90055920  1
  Nd  Nd16  1  0.19696913  0.50292018  0.75000000  1
  Nd  Nd17  1  0.69696913  0.99707982  0.75000000  1
  Nd  Nd18  1  0.80303087  0.49707982  0.25000000  1
  Nd  Nd19  1  0.30303087  0.00292018  0.25000000  1
  Sn  Sn20  1  0.28994355  0.03221529  0.04301266  1
  Sn  Sn21  1  0.78994355  0.46778471  0.45698734  1
  Sn  Sn22  1  0.71005645  0.96778471  0.54301266  1
  Sn  Sn23  1  0.21005645  0.53221529  0.95698734  1
  Sn  Sn24  1  0.71005645  0.96778471  0.95698734  1
  Sn  Sn25  1  0.21005645  0.53221529  0.54301266  1
  Sn  Sn26  1  0.28994355  0.03221529  0.45698734  1
  Sn  Sn27  1  0.78994355  0.46778471  0.04301266  1
  Sn  Sn28  1  0.56797064  0.61661318  0.75000000  1
  Sn  Sn29  1  0.06797064  0.88338682  0.75000000  1
  Sn  Sn30  1  0.43202936  0.38338682  0.25000000  1
  Sn  Sn31  1  0.93202936  0.11661318  0.25000000  1
  Sn  Sn32  1  0.32203523  0.14433022  0.75000000  1
  Sn  Sn33  1  0.82203523  0.35566978  0.75000000  1
  Sn  Sn34  1  0.67796477  0.85566978  0.25000000  1
  Sn  Sn35  1  0.17796477  0.64433022  0.25000000  1
