# generated using pymatgen
data_IF3
_symmetry_space_group_name_H-M   'P 1'
_cell_length_a   4.72860456
_cell_length_b   6.75507177
_cell_length_c   9.12442525
_cell_angle_alpha   90.00000000
_cell_angle_beta   90.00000000
_cell_angle_gamma   90.00000000
_symmetry_Int_Tables_number   1
_chemical_formula_structural   IF3
_chemical_formula_sum   'I4 F12'
_cell_volume   291.45296777
_cell_formula_units_Z   4
loop_
 _symmetry_equiv_pos_site_id
 _symmetry_equiv_pos_as_xyz
  1  'x, y, z'
loop_
 _atom_site_type_symbol
 _atom_site_label
 _atom_site_symmetry_multiplicity
 _atom_site_fract_x
 _atom_site_fract_y
 _atom_site_fract_z
 _atom_site_occupancy
  F  F0  1  0.85153556  0.75000000  0.06582238  1
  F  F1  1  0.35153556  0.25000000  0.43417762  1
  F  F2  1  0.14846444  0.25000000  0.93417762  1
  F  F3  1  0.64846444  0.75000000  0.56582238  1
  F  F4  1  0.91399386  0.45602817  0.66875654  1
  F  F5  1  0.41399386  0.54397183  0.83124346  1
  F  F6  1  0.08600614  0.95602817  0.33124346  1
  F  F7  1  0.58600614  0.04397183  0.16875654  1
  F  F8  1  0.08600614  0.54397183  0.33124346  1
  F  F9  1  0.58600614  0.45602817  0.16875654  1
  F  F10  1  0.91399386  0.04397183  0.66875654  1
  F  F11  1  0.41399386  0.95602817  0.83124346  1
  I  I12  1  0.52322944  0.75000000  0.18758635  1
  I  I13  1  0.02322944  0.25000000  0.31241365  1
  I  I14  1  0.47677056  0.25000000  0.81241365  1
  I  I15  1  0.97677056  0.75000000  0.68758635  1
