# generated using pymatgen
data_Li8Zn2Ge3
_symmetry_space_group_name_H-M   'P 1'
_cell_length_a   9.21039450
_cell_length_b   9.21039441
_cell_length_c   9.21039400
_cell_angle_alpha   48.49516449
_cell_angle_beta   48.49516501
_cell_angle_gamma   48.49516411
_symmetry_Int_Tables_number   1
_chemical_formula_structural   Li8Zn2Ge3
_chemical_formula_sum   'Li16 Zn4 Ge6'
_cell_volume   401.90025162
_cell_formula_units_Z   2
loop_
 _symmetry_equiv_pos_site_id
 _symmetry_equiv_pos_as_xyz
  1  'x, y, z'
loop_
 _atom_site_type_symbol
 _atom_site_label
 _atom_site_symmetry_multiplicity
 _atom_site_fract_x
 _atom_site_fract_y
 _atom_site_fract_z
 _atom_site_occupancy
  Li  Li0  1  0.93955991  0.93955991  0.93955991  1
  Li  Li1  1  0.70316681  0.40607849  0.04396944  1
  Li  Li2  1  0.43955991  0.43955991  0.43955991  1
  Li  Li3  1  0.79466137  0.09253740  0.44075405  1
  Li  Li4  1  0.40607849  0.04396944  0.70316681  1
  Li  Li5  1  0.94075405  0.59253740  0.29466137  1
  Li  Li6  1  0.09253740  0.44075405  0.79466137  1
  Li  Li7  1  0.20316681  0.54396944  0.90607849  1
  Li  Li8  1  0.04396944  0.70316681  0.40607849  1
  Li  Li9  1  0.44075405  0.79466137  0.09253740  1
  Li  Li10  1  0.54396944  0.90607849  0.20316681  1
  Li  Li11  1  0.29466137  0.94075405  0.59253740  1
  Li  Li12  1  0.90607849  0.20316681  0.54396944  1
  Li  Li13  1  0.54177474  0.54177474  0.54177474  1
  Li  Li14  1  0.04177474  0.04177474  0.04177474  1
  Li  Li15  1  0.59253740  0.29466137  0.94075405  1
  Zn  Zn16  1  0.32521720  0.32521720  0.32521720  1
  Zn  Zn17  1  0.66419190  0.66419190  0.66419190  1
  Zn  Zn18  1  0.16419190  0.16419190  0.16419190  1
  Zn  Zn19  1  0.82521720  0.82521720  0.82521720  1
  Ge  Ge20  1  0.82022295  0.49794536  0.17155040  1
  Ge  Ge21  1  0.32022295  0.67155040  0.99794536  1
  Ge  Ge22  1  0.17155040  0.82022295  0.49794536  1
  Ge  Ge23  1  0.67155040  0.99794536  0.32022295  1
  Ge  Ge24  1  0.99794536  0.32022295  0.67155040  1
  Ge  Ge25  1  0.49794536  0.17155040  0.82022295  1
