# generated using pymatgen
data_Rb3Ta2AgSe12
_symmetry_space_group_name_H-M   'P 1'
_cell_length_a   10.03188237
_cell_length_b   14.31293270
_cell_length_c   16.02143674
_cell_angle_alpha   90.00000000
_cell_angle_beta   95.36858844
_cell_angle_gamma   90.00000000
_symmetry_Int_Tables_number   1
_chemical_formula_structural   Rb3Ta2AgSe12
_chemical_formula_sum   'Rb12 Ta8 Ag4 Se48'
_cell_volume   2290.35739559
_cell_formula_units_Z   4
loop_
 _symmetry_equiv_pos_site_id
 _symmetry_equiv_pos_as_xyz
  1  'x, y, z'
loop_
 _atom_site_type_symbol
 _atom_site_label
 _atom_site_symmetry_multiplicity
 _atom_site_fract_x
 _atom_site_fract_y
 _atom_site_fract_z
 _atom_site_occupancy
  Rb  Rb0  1  0.92647942  0.58522912  0.27674281  1
  Rb  Rb1  1  0.42647942  0.91477088  0.77674281  1
  Rb  Rb2  1  0.07352058  0.41477088  0.72325719  1
  Rb  Rb3  1  0.57352058  0.08522912  0.22325719  1
  Rb  Rb4  1  0.77435749  0.91467357  0.49476418  1
  Rb  Rb5  1  0.50478733  0.39398045  0.34275147  1
  Rb  Rb6  1  0.00478733  0.10601955  0.84275147  1
  Rb  Rb7  1  0.72564251  0.41467357  0.00523582  1
  Rb  Rb8  1  0.49521267  0.60601955  0.65724853  1
  Rb  Rb9  1  0.99521267  0.89398045  0.15724853  1
  Rb  Rb10  1  0.22564251  0.08532643  0.50523582  1
  Rb  Rb11  1  0.27435749  0.58532643  0.99476418  1
  Ta  Ta12  1  0.01304664  0.77864861  0.72730065  1
  Ta  Ta13  1  0.51304664  0.72135139  0.22730065  1
  Ta  Ta14  1  0.65793635  0.22173464  0.58031287  1
  Ta  Ta15  1  0.98695336  0.22135139  0.27269935  1
  Ta  Ta16  1  0.15793635  0.27826536  0.08031287  1
  Ta  Ta17  1  0.84206365  0.72173464  0.91968713  1
  Ta  Ta18  1  0.48695336  0.27864861  0.77269935  1
  Ta  Ta19  1  0.34206365  0.77826536  0.41968713  1
  Ag  Ag20  1  0.69865348  0.67319447  0.08081319  1
  Ag  Ag21  1  0.30134652  0.32680553  0.91918681  1
  Ag  Ag22  1  0.19865348  0.82680553  0.58081319  1
  Ag  Ag23  1  0.80134652  0.17319447  0.41918681  1
  Se  Se24  1  0.23158805  0.18382847  0.24226936  1
  Se  Se25  1  0.80609608  0.72428804  0.63468287  1
  Se  Se26  1  0.73063993  0.78726698  0.30424317  1
  Se  Se27  1  0.26936007  0.21273302  0.69575683  1
  Se  Se28  1  0.47473068  0.88447330  0.32541573  1
  Se  Se29  1  0.52526932  0.11552670  0.67458427  1
  Se  Se30  1  0.45306412  0.33339314  0.60849031  1
  Se  Se31  1  0.73158805  0.31617153  0.74226936  1
  Se  Se32  1  0.24022661  0.92420775  0.33999005  1
  Se  Se33  1  0.30609608  0.77571196  0.13468287  1
  Se  Se34  1  0.44733559  0.83671680  0.55387732  1
  Se  Se35  1  0.23063993  0.71273302  0.80424317  1
  Se  Se36  1  0.98660585  0.37289578  0.50218694  1
  Se  Se37  1  0.19390392  0.27571196  0.36531713  1
  Se  Se38  1  0.92727263  0.06590809  0.32419878  1
  Se  Se39  1  0.76841195  0.81617153  0.75773064  1
  Se  Se40  1  0.69390392  0.22428804  0.86531713  1
  Se  Se41  1  0.04693588  0.83339314  0.89150969  1
  Se  Se42  1  0.07951148  0.76850117  0.42814534  1
  Se  Se43  1  0.57272737  0.56590809  0.17580122  1
  Se  Se44  1  0.97473068  0.61552670  0.82541573  1
  Se  Se45  1  0.55266441  0.16328320  0.44612268  1
  Se  Se46  1  0.01339415  0.62710422  0.49781306  1
  Se  Se47  1  0.51339415  0.87289578  0.99781306  1
  Se  Se48  1  0.16219602  0.09879448  0.06399558  1
  Se  Se49  1  0.74022661  0.57579225  0.83999005  1
  Se  Se50  1  0.42048852  0.26850117  0.07185466  1
  Se  Se51  1  0.02526932  0.38447330  0.17458427  1
  Se  Se52  1  0.07272737  0.93409191  0.67580122  1
  Se  Se53  1  0.63381559  0.84908193  0.14025151  1
  Se  Se54  1  0.83780398  0.90120552  0.93600442  1
  Se  Se55  1  0.54693588  0.66660686  0.39150969  1
  Se  Se56  1  0.57951148  0.73149883  0.92814534  1
  Se  Se57  1  0.42727263  0.43409191  0.82419878  1
  Se  Se58  1  0.94733559  0.66328320  0.05387732  1
  Se  Se59  1  0.33780398  0.59879448  0.43600442  1
  Se  Se60  1  0.13381559  0.65091807  0.64025151  1
  Se  Se61  1  0.48660585  0.12710422  0.00218694  1
  Se  Se62  1  0.86618441  0.34908193  0.35974849  1
  Se  Se63  1  0.92048852  0.23149883  0.57185466  1
  Se  Se64  1  0.95306412  0.16660686  0.10849031  1
  Se  Se65  1  0.25977339  0.42420775  0.16000995  1
  Se  Se66  1  0.75977339  0.07579225  0.66000995  1
  Se  Se67  1  0.66219602  0.40120552  0.56399558  1
  Se  Se68  1  0.76936007  0.28726698  0.19575683  1
  Se  Se69  1  0.05266441  0.33671680  0.94612268  1
  Se  Se70  1  0.36618441  0.15091807  0.85974849  1
  Se  Se71  1  0.26841195  0.68382847  0.25773064  1
