# generated using pymatgen
data_Rb2HgPSe5
_symmetry_space_group_name_H-M   'P 1'
_cell_length_a   7.37690290
_cell_length_b   18.06491749
_cell_length_c   18.06491749
_cell_angle_alpha   90.00000000
_cell_angle_beta   90.00000000
_cell_angle_gamma   90.00000000
_symmetry_Int_Tables_number   1
_chemical_formula_structural   Rb2HgPSe5
_chemical_formula_sum   'Rb16 Hg8 P8 Se40'
_cell_volume   2407.38766867
_cell_formula_units_Z   8
loop_
 _symmetry_equiv_pos_site_id
 _symmetry_equiv_pos_as_xyz
  1  'x, y, z'
loop_
 _atom_site_type_symbol
 _atom_site_label
 _atom_site_symmetry_multiplicity
 _atom_site_fract_x
 _atom_site_fract_y
 _atom_site_fract_z
 _atom_site_occupancy
  Rb  Rb0  1  0.27181957  0.42349503  0.39732573  1
  Rb  Rb1  1  0.23535316  0.37131871  0.66165535  1
  Rb  Rb2  1  0.72818043  0.92349503  0.89732573  1
  Rb  Rb3  1  0.73535316  0.33834465  0.87131871  1
  Rb  Rb4  1  0.22818043  0.39732573  0.07650497  1
  Rb  Rb5  1  0.76464684  0.62868129  0.33834465  1
  Rb  Rb6  1  0.72818043  0.57650497  0.60267427  1
  Rb  Rb7  1  0.23535316  0.12868129  0.83834465  1
  Rb  Rb8  1  0.26464684  0.66165535  0.12868129  1
  Rb  Rb9  1  0.73535316  0.16165535  0.62868129  1
  Rb  Rb10  1  0.77181957  0.60267427  0.92349503  1
  Rb  Rb11  1  0.76464684  0.87131871  0.16165535  1
  Rb  Rb12  1  0.27181957  0.07650497  0.10267427  1
  Rb  Rb13  1  0.26464684  0.83834465  0.37131871  1
  Rb  Rb14  1  0.22818043  0.10267427  0.42349503  1
  Rb  Rb15  1  0.77181957  0.89732573  0.57650497  1
  Hg  Hg16  1  0.72418621  0.18779001  0.38016267  1
  Hg  Hg17  1  0.72418621  0.31220999  0.11983733  1
  Hg  Hg18  1  0.22418621  0.88016267  0.81220999  1
  Hg  Hg19  1  0.22418621  0.61983733  0.68779001  1
  Hg  Hg20  1  0.27581379  0.68779001  0.88016267  1
  Hg  Hg21  1  0.77581379  0.11983733  0.18779001  1
  Hg  Hg22  1  0.27581379  0.81220999  0.61983733  1
  Hg  Hg23  1  0.77581379  0.38016267  0.31220999  1
  P  P24  1  0.76875308  0.15608370  0.98178418  1
  P  P25  1  0.76875308  0.34391630  0.51821582  1
  P  P26  1  0.73124692  0.98178418  0.34391630  1
  P  P27  1  0.26875308  0.01821582  0.65608370  1
  P  P28  1  0.23124692  0.84391630  0.01821582  1
  P  P29  1  0.23124692  0.65608370  0.48178418  1
  P  P30  1  0.26875308  0.48178418  0.84391630  1
  P  P31  1  0.73124692  0.51821582  0.15608370  1
  Se  Se32  1  0.46150074  0.73029795  0.51611070  1
  Se  Se33  1  0.25525190  0.55429547  0.94639643  1
  Se  Se34  1  0.74474810  0.44570453  0.05360357  1
  Se  Se35  1  0.99005947  0.73952744  0.68272916  1
  Se  Se36  1  0.49005947  0.31727084  0.23952744  1
  Se  Se37  1  0.53849926  0.26970205  0.48388930  1
  Se  Se38  1  0.50994053  0.81727084  0.73952744  1
  Se  Se39  1  0.96780884  0.78781567  0.00384101  1
  Se  Se40  1  0.22205514  0.13376869  0.62175210  1
  Se  Se41  1  0.99005947  0.76047256  0.81727084  1
  Se  Se42  1  0.27794486  0.62175210  0.36623131  1
  Se  Se43  1  0.46780884  0.99615899  0.28781567  1
  Se  Se44  1  0.03849926  0.51611070  0.76970205  1
  Se  Se45  1  0.46780884  0.50384101  0.21218433  1
  Se  Se46  1  0.96150074  0.01611070  0.26970205  1
  Se  Se47  1  0.49005947  0.18272916  0.26047256  1
  Se  Se48  1  0.00994053  0.26047256  0.31727084  1
  Se  Se49  1  0.96780884  0.71218433  0.49615899  1
  Se  Se50  1  0.75525190  0.05360357  0.05429547  1
  Se  Se51  1  0.27794486  0.87824790  0.13376869  1
  Se  Se52  1  0.77794486  0.86623131  0.37824790  1
  Se  Se53  1  0.22205514  0.36623131  0.87824790  1
  Se  Se54  1  0.53219116  0.49615899  0.78781567  1
  Se  Se55  1  0.50994053  0.68272916  0.76047256  1
  Se  Se56  1  0.03849926  0.98388930  0.73029795  1
  Se  Se57  1  0.03219116  0.21218433  0.99615899  1
  Se  Se58  1  0.03219116  0.28781567  0.50384101  1
  Se  Se59  1  0.96150074  0.48388930  0.23029795  1
  Se  Se60  1  0.74474810  0.05429547  0.44639643  1
  Se  Se61  1  0.24474810  0.94639643  0.94570453  1
  Se  Se62  1  0.53219116  0.00384101  0.71218433  1
  Se  Se63  1  0.72205514  0.37824790  0.63376869  1
  Se  Se64  1  0.75525190  0.44639643  0.44570453  1
  Se  Se65  1  0.00994053  0.23952744  0.18272916  1
  Se  Se66  1  0.72205514  0.12175210  0.86623131  1
  Se  Se67  1  0.46150074  0.76970205  0.98388930  1
  Se  Se68  1  0.25525190  0.94570453  0.55360357  1
  Se  Se69  1  0.53849926  0.23029795  0.01611070  1
  Se  Se70  1  0.77794486  0.63376869  0.12175210  1
  Se  Se71  1  0.24474810  0.55360357  0.55429547  1
