# generated using pymatgen
data_PrMgSi2
_symmetry_space_group_name_H-M   'P 1'
_cell_length_a   4.28497730
_cell_length_b   4.28497751
_cell_length_c   18.67756396
_cell_angle_alpha   96.58685001
_cell_angle_beta   96.58685035
_cell_angle_gamma   90.00000609
_symmetry_Int_Tables_number   1
_chemical_formula_structural   PrMgSi2
_chemical_formula_sum   'Pr4 Mg4 Si8'
_cell_volume   338.39679021
_cell_formula_units_Z   4
loop_
 _symmetry_equiv_pos_site_id
 _symmetry_equiv_pos_as_xyz
  1  'x, y, z'
loop_
 _atom_site_type_symbol
 _atom_site_label
 _atom_site_symmetry_multiplicity
 _atom_site_fract_x
 _atom_site_fract_y
 _atom_site_fract_z
 _atom_site_occupancy
  Pr  Pr0  1  0.54757401  0.79757401  0.59514802  1
  Pr  Pr1  1  0.70242599  0.95242599  0.90485198  1
  Pr  Pr2  1  0.29757401  0.04757401  0.09514802  1
  Pr  Pr3  1  0.45242599  0.20242599  0.40485198  1
  Mg  Mg4  1  0.87513381  0.12513381  0.25026762  1
  Mg  Mg5  1  0.37486619  0.62486619  0.24973238  1
  Mg  Mg6  1  0.62513381  0.37513381  0.75026762  1
  Mg  Mg7  1  0.12486619  0.87486619  0.74973238  1
  Si  Si8  1  0.07725711  0.32725711  0.65451423  1
  Si  Si9  1  0.23587094  0.48587094  0.97174188  1
  Si  Si10  1  0.01412906  0.26412906  0.52825812  1
  Si  Si11  1  0.76412906  0.51412906  0.02825812  1
  Si  Si12  1  0.92274289  0.67274289  0.34548577  1
  Si  Si13  1  0.98587094  0.73587094  0.47174188  1
  Si  Si14  1  0.82725711  0.57725711  0.15451423  1
  Si  Si15  1  0.17274289  0.42274289  0.84548577  1
