# generated using pymatgen
data_BaCeI4
_symmetry_space_group_name_H-M   'P 1'
_cell_length_a   7.51540548
_cell_length_b   9.02884322
_cell_length_c   9.26209332
_cell_angle_alpha   113.88352513
_cell_angle_beta   107.68481894
_cell_angle_gamma   101.91861054
_symmetry_Int_Tables_number   1
_chemical_formula_structural   BaCeI4
_chemical_formula_sum   'Ba2 Ce2 I8'
_cell_volume   506.83076836
_cell_formula_units_Z   2
loop_
 _symmetry_equiv_pos_site_id
 _symmetry_equiv_pos_as_xyz
  1  'x, y, z'
loop_
 _atom_site_type_symbol
 _atom_site_label
 _atom_site_symmetry_multiplicity
 _atom_site_fract_x
 _atom_site_fract_y
 _atom_site_fract_z
 _atom_site_occupancy
  Ba  Ba0  1  0.88473568  0.63479188  0.26881022  1
  Ba  Ba1  1  0.11526432  0.36520812  0.73118978  1
  Ce  Ce2  1  0.25003194  0.99967032  0.99921796  1
  Ce  Ce3  1  0.74996806  0.00032968  0.00078204  1
  I  I4  1  0.51323137  0.23107360  0.87347219  1
  I  I5  1  0.48676863  0.76892640  0.12652781  1
  I  I6  1  0.13983604  0.35770071  0.12664408  1
  I  I7  1  0.70383136  0.28824906  0.34507791  1
  I  I8  1  0.85788053  0.94257694  0.65466716  1
  I  I9  1  0.14211947  0.05742306  0.34533284  1
  I  I10  1  0.29616864  0.71175094  0.65492209  1
  I  I11  1  0.86016396  0.64229929  0.87335592  1
