# generated using pymatgen
data_Na2VPO6
_symmetry_space_group_name_H-M   'P 1'
_cell_length_a   6.28335322
_cell_length_b   7.61009072
_cell_length_c   12.57701516
_cell_angle_alpha   90.00000000
_cell_angle_beta   90.00000000
_cell_angle_gamma   107.59647867
_symmetry_Int_Tables_number   1
_chemical_formula_structural   Na2VPO6
_chemical_formula_sum   'Na8 V4 P4 O24'
_cell_volume   573.25406172
_cell_formula_units_Z   4
loop_
 _symmetry_equiv_pos_site_id
 _symmetry_equiv_pos_as_xyz
  1  'x, y, z'
loop_
 _atom_site_type_symbol
 _atom_site_label
 _atom_site_symmetry_multiplicity
 _atom_site_fract_x
 _atom_site_fract_y
 _atom_site_fract_z
 _atom_site_occupancy
  Na  Na0  1  0.19377904  0.93145934  0.92648844  1
  Na  Na1  1  0.68848562  0.57493559  0.85813941  1
  Na  Na2  1  0.81151438  0.92506441  0.35813941  1
  Na  Na3  1  0.18848562  0.07493559  0.64186059  1
  Na  Na4  1  0.30622096  0.56854066  0.42648844  1
  Na  Na5  1  0.31151438  0.42506441  0.14186059  1
  Na  Na6  1  0.80622096  0.06854066  0.07351156  1
  Na  Na7  1  0.69377904  0.43145934  0.57351156  1
  V  V8  1  0.28474349  0.87719475  0.21777013  1
  V  V9  1  0.21525651  0.62280525  0.71777013  1
  V  V10  1  0.71525651  0.12280525  0.78222987  1
  V  V11  1  0.78474349  0.37719475  0.28222987  1
  P  P12  1  0.90716457  0.69621621  0.11332546  1
  P  P13  1  0.09283543  0.30378379  0.88667454  1
  P  P14  1  0.40716457  0.19621621  0.38667454  1
  P  P15  1  0.59283543  0.80378379  0.61332546  1
  O  O16  1  0.23782675  0.01541815  0.34417897  1
  O  O17  1  0.15182040  0.67845844  0.10884560  1
  O  O18  1  0.54782305  0.64511110  0.69821717  1
  O  O19  1  0.95217695  0.85488890  0.19821717  1
  O  O20  1  0.55916855  0.23731100  0.72283423  1
  O  O21  1  0.84817960  0.32154156  0.89115440  1
  O  O22  1  0.16855439  0.24467113  0.99144330  1
  O  O23  1  0.44083145  0.76268900  0.27716577  1
  O  O24  1  0.05126252  0.46051257  0.64058932  1
  O  O25  1  0.45217695  0.35488890  0.30178283  1
  O  O26  1  0.55126252  0.96051257  0.85941068  1
  O  O27  1  0.94873748  0.53948743  0.35941068  1
  O  O28  1  0.44873748  0.03948743  0.14058932  1
  O  O29  1  0.76217325  0.98458185  0.65582103  1
  O  O30  1  0.05916855  0.73731100  0.77716577  1
  O  O31  1  0.33144561  0.25532887  0.49144330  1
  O  O32  1  0.26217325  0.48458185  0.84417897  1
  O  O33  1  0.94083145  0.26268900  0.22283423  1
  O  O34  1  0.66855439  0.74467113  0.50855670  1
  O  O35  1  0.04782305  0.14511110  0.80178283  1
  O  O36  1  0.65182040  0.17845844  0.39115440  1
  O  O37  1  0.83144561  0.75532887  0.00855670  1
  O  O38  1  0.34817960  0.82154156  0.60884560  1
  O  O39  1  0.73782675  0.51541815  0.15582103  1
