# generated using pymatgen
data_TlGaBr4
_symmetry_space_group_name_H-M   'P 1'
_cell_length_a   11.61654914
_cell_length_b   12.74494316
_cell_length_c   13.10693077
_cell_angle_alpha   109.17917321
_cell_angle_beta   90.00000000
_cell_angle_gamma   90.00000000
_symmetry_Int_Tables_number   1
_chemical_formula_structural   TlGaBr4
_chemical_formula_sum   'Tl8 Ga8 Br32'
_cell_volume   1832.80430549
_cell_formula_units_Z   8
loop_
 _symmetry_equiv_pos_site_id
 _symmetry_equiv_pos_as_xyz
  1  'x, y, z'
loop_
 _atom_site_type_symbol
 _atom_site_label
 _atom_site_symmetry_multiplicity
 _atom_site_fract_x
 _atom_site_fract_y
 _atom_site_fract_z
 _atom_site_occupancy
  Tl  Tl0  1  0.13861703  0.29766168  0.37881583  1
  Tl  Tl1  1  0.36138297  0.29766168  0.87881583  1
  Tl  Tl2  1  0.84039182  0.20448216  0.01900040  1
  Tl  Tl3  1  0.15960818  0.79551784  0.98099960  1
  Tl  Tl4  1  0.34039182  0.79551784  0.48099960  1
  Tl  Tl5  1  0.63861703  0.70233832  0.12118417  1
  Tl  Tl6  1  0.65960818  0.20448216  0.51900040  1
  Tl  Tl7  1  0.86138297  0.70233832  0.62118417  1
  Ga  Ga8  1  0.63817854  0.51768454  0.78851263  1
  Ga  Ga9  1  0.36182146  0.48231546  0.21148737  1
  Ga  Ga10  1  0.42083055  0.99764807  0.27912704  1
  Ga  Ga11  1  0.57916945  0.00235193  0.72087296  1
  Ga  Ga12  1  0.86182146  0.51768454  0.28851263  1
  Ga  Ga13  1  0.13817854  0.48231546  0.71148737  1
  Ga  Ga14  1  0.07916945  0.99764807  0.77912704  1
  Ga  Ga15  1  0.92083055  0.00235193  0.22087296  1
  Br  Br16  1  0.24389720  0.97565338  0.35809659  1
  Br  Br17  1  0.74389720  0.02434662  0.14190341  1
  Br  Br18  1  0.92427533  0.09770666  0.40940250  1
  Br  Br19  1  0.12591693  0.49984305  0.89619722  1
  Br  Br20  1  0.21498257  0.35339434  0.12857895  1
  Br  Br21  1  0.95413017  0.81072181  0.18255937  1
  Br  Br22  1  0.28501743  0.35339434  0.62857895  1
  Br  Br23  1  0.32556797  0.66168116  0.20092668  1
  Br  Br24  1  0.96673288  0.41800127  0.61279198  1
  Br  Br25  1  0.57572467  0.09770666  0.90940250  1
  Br  Br26  1  0.67443203  0.33831884  0.79907332  1
  Br  Br27  1  0.82556797  0.33831884  0.29907332  1
  Br  Br28  1  0.54586983  0.81072181  0.68255937  1
  Br  Br29  1  0.53326712  0.41800127  0.11279198  1
  Br  Br30  1  0.42427533  0.90229334  0.09059750  1
  Br  Br31  1  0.71498257  0.64660566  0.37142105  1
  Br  Br32  1  0.93149474  0.91856705  0.85841103  1
  Br  Br33  1  0.07572467  0.90229334  0.59059750  1
  Br  Br34  1  0.56850526  0.91856705  0.35841103  1
  Br  Br35  1  0.25610280  0.97565338  0.85809659  1
  Br  Br36  1  0.04586983  0.18927819  0.81744063  1
  Br  Br37  1  0.75610280  0.02434662  0.64190341  1
  Br  Br38  1  0.03326712  0.58199873  0.38720802  1
  Br  Br39  1  0.46673288  0.58199873  0.88720802  1
  Br  Br40  1  0.78501743  0.64660566  0.87142105  1
  Br  Br41  1  0.62591693  0.50015695  0.60380278  1
  Br  Br42  1  0.37408307  0.49984305  0.39619722  1
  Br  Br43  1  0.17443203  0.66168116  0.70092668  1
  Br  Br44  1  0.87408307  0.50015695  0.10380278  1
  Br  Br45  1  0.45413017  0.18927819  0.31744063  1
  Br  Br46  1  0.43149474  0.08143295  0.64158897  1
  Br  Br47  1  0.06850526  0.08143295  0.14158897  1
