# generated using pymatgen
data_Pr23Mg4Ni7
_symmetry_space_group_name_H-M   'P 1'
_cell_length_a   10.03246275
_cell_length_b   10.03246257
_cell_length_c   22.75325953
_cell_angle_alpha   90.00000000
_cell_angle_beta   90.00000000
_cell_angle_gamma   120.00000064
_symmetry_Int_Tables_number   1
_chemical_formula_structural   Pr23Mg4Ni7
_chemical_formula_sum   'Pr46 Mg8 Ni14'
_cell_volume   1983.30429930
_cell_formula_units_Z   2
loop_
 _symmetry_equiv_pos_site_id
 _symmetry_equiv_pos_as_xyz
  1  'x, y, z'
loop_
 _atom_site_type_symbol
 _atom_site_label
 _atom_site_symmetry_multiplicity
 _atom_site_fract_x
 _atom_site_fract_y
 _atom_site_fract_z
 _atom_site_occupancy
  Pr  Pr0  1  0.79281138  0.20718862  0.94833331  1
  Pr  Pr1  1  0.07905428  0.53952714  0.58659117  1
  Pr  Pr2  1  0.41437723  0.20718862  0.94833331  1
  Pr  Pr3  1  0.66666700  0.33333300  0.64532366  1
  Pr  Pr4  1  0.79281138  0.58562277  0.94833331  1
  Pr  Pr5  1  0.92094572  0.46047286  0.08659117  1
  Pr  Pr6  1  0.79325218  0.20674782  0.21989523  1
  Pr  Pr7  1  0.20674782  0.79325218  0.71989523  1
  Pr  Pr8  1  0.21187097  0.42374193  0.99249114  1
  Pr  Pr9  1  0.20674782  0.41349564  0.71989523  1
  Pr  Pr10  1  0.87210291  0.74420582  0.63311299  1
  Pr  Pr11  1  0.12789709  0.87210291  0.13311299  1
  Pr  Pr12  1  0.08619695  0.54309847  0.85654721  1
  Pr  Pr13  1  0.25579418  0.12789709  0.63311299  1
  Pr  Pr14  1  0.00000000  0.00000000  0.99843411  1
  Pr  Pr15  1  0.20718862  0.41437723  0.44833331  1
  Pr  Pr16  1  0.58650436  0.79325218  0.71989523  1
  Pr  Pr17  1  0.57625807  0.78812903  0.99249114  1
  Pr  Pr18  1  0.79325218  0.58650436  0.21989523  1
  Pr  Pr19  1  0.20512190  0.79487810  0.28216652  1
  Pr  Pr20  1  0.79487810  0.20512190  0.78216652  1
  Pr  Pr21  1  0.79487810  0.58975619  0.78216652  1
  Pr  Pr22  1  0.45690153  0.54309847  0.85654721  1
  Pr  Pr23  1  0.00000000  0.00000000  0.49843411  1
  Pr  Pr24  1  0.74420582  0.87210291  0.13311299  1
  Pr  Pr25  1  0.78812903  0.21187097  0.49249114  1
  Pr  Pr26  1  0.12789709  0.25579418  0.13311299  1
  Pr  Pr27  1  0.53952714  0.46047286  0.08659117  1
  Pr  Pr28  1  0.33333300  0.66666700  0.14532366  1
  Pr  Pr29  1  0.45690153  0.91380305  0.85654721  1
  Pr  Pr30  1  0.20718862  0.79281138  0.44833331  1
  Pr  Pr31  1  0.91380305  0.45690153  0.35654721  1
  Pr  Pr32  1  0.42374193  0.21187097  0.49249114  1
  Pr  Pr33  1  0.21187097  0.78812903  0.99249114  1
  Pr  Pr34  1  0.54309847  0.08619695  0.35654721  1
  Pr  Pr35  1  0.46047286  0.92094572  0.58659117  1
  Pr  Pr36  1  0.54309847  0.45690153  0.35654721  1
  Pr  Pr37  1  0.58562277  0.79281138  0.44833331  1
  Pr  Pr38  1  0.46047286  0.53952714  0.58659117  1
  Pr  Pr39  1  0.41349564  0.20674782  0.21989523  1
  Pr  Pr40  1  0.20512190  0.41024381  0.28216652  1
  Pr  Pr41  1  0.41024381  0.20512190  0.78216652  1
  Pr  Pr42  1  0.58975619  0.79487810  0.28216652  1
  Pr  Pr43  1  0.87210291  0.12789709  0.63311299  1
  Pr  Pr44  1  0.78812903  0.57625807  0.49249114  1
  Pr  Pr45  1  0.53952714  0.07905428  0.08659117  1
  Mg  Mg46  1  0.89449914  0.78899828  0.36341822  1
  Mg  Mg47  1  0.00000000  0.00000000  0.74980133  1
  Mg  Mg48  1  0.21100172  0.10550086  0.36341822  1
  Mg  Mg49  1  0.78899828  0.89449914  0.86341822  1
  Mg  Mg50  1  0.89449914  0.10550086  0.36341822  1
  Mg  Mg51  1  0.10550086  0.21100172  0.86341822  1
  Mg  Mg52  1  0.00000000  0.00000000  0.24980133  1
  Mg  Mg53  1  0.10550086  0.89449914  0.86341822  1
  Ni  Ni54  1  0.28539739  0.14269870  0.06361937  1
  Ni  Ni55  1  0.33333300  0.66666700  0.36287873  1
  Ni  Ni56  1  0.47874606  0.52125394  0.21120556  1
  Ni  Ni57  1  0.85730130  0.71460261  0.06361937  1
  Ni  Ni58  1  0.14269870  0.28539739  0.56361937  1
  Ni  Ni59  1  0.04250788  0.52125394  0.21120556  1
  Ni  Ni60  1  0.14269870  0.85730130  0.56361937  1
  Ni  Ni61  1  0.66666700  0.33333300  0.86287873  1
  Ni  Ni62  1  0.85730130  0.14269870  0.06361937  1
  Ni  Ni63  1  0.71460261  0.85730130  0.56361937  1
  Ni  Ni64  1  0.52125394  0.04250788  0.71120556  1
  Ni  Ni65  1  0.95749212  0.47874606  0.71120556  1
  Ni  Ni66  1  0.52125394  0.47874606  0.71120556  1
  Ni  Ni67  1  0.47874606  0.95749212  0.21120556  1
