# generated using pymatgen
data_K4Sn(TeSe)2
_symmetry_space_group_name_H-M   'P 1'
_cell_length_a   8.56550886
_cell_length_b   10.83446247
_cell_length_c   15.24578970
_cell_angle_alpha   90.00000000
_cell_angle_beta   90.00000000
_cell_angle_gamma   90.00000000
_symmetry_Int_Tables_number   1
_chemical_formula_structural   K4Sn(TeSe)2
_chemical_formula_sum   'K16 Sn4 Te8 Se8'
_cell_volume   1414.85020813
_cell_formula_units_Z   4
loop_
 _symmetry_equiv_pos_site_id
 _symmetry_equiv_pos_as_xyz
  1  'x, y, z'
loop_
 _atom_site_type_symbol
 _atom_site_label
 _atom_site_symmetry_multiplicity
 _atom_site_fract_x
 _atom_site_fract_y
 _atom_site_fract_z
 _atom_site_occupancy
  K  K0  1  0.50000000  0.50000000  0.50000000  1
  K  K1  1  0.14491537  0.46315610  0.72865378  1
  K  K2  1  0.14491537  0.03684390  0.72865378  1
  K  K3  1  0.98175828  0.75000000  0.56492963  1
  K  K4  1  0.01824172  0.25000000  0.43507037  1
  K  K5  1  0.64491537  0.96315610  0.77134622  1
  K  K6  1  0.35508463  0.03684390  0.22865378  1
  K  K7  1  0.85508463  0.96315610  0.27134622  1
  K  K8  1  0.35508463  0.46315610  0.22865378  1
  K  K9  1  0.00000000  0.50000000  0.00000000  1
  K  K10  1  0.48175828  0.25000000  0.93507037  1
  K  K11  1  0.64491537  0.53684390  0.77134622  1
  K  K12  1  0.51824172  0.75000000  0.06492963  1
  K  K13  1  0.00000000  0.00000000  0.00000000  1
  K  K14  1  0.85508463  0.53684390  0.27134622  1
  K  K15  1  0.50000000  0.00000000  0.50000000  1
  Sn  Sn16  1  0.73738095  0.25000000  0.16168441  1
  Sn  Sn17  1  0.76261905  0.25000000  0.66168441  1
  Sn  Sn18  1  0.23738095  0.75000000  0.33831559  1
  Sn  Sn19  1  0.26261905  0.75000000  0.83831559  1
  Te  Te20  1  0.56403762  0.75000000  0.33410613  1
  Te  Te21  1  0.43596238  0.25000000  0.66589387  1
  Te  Te22  1  0.37320614  0.75000000  0.66482619  1
  Te  Te23  1  0.12679386  0.75000000  0.16482619  1
  Te  Te24  1  0.06403762  0.25000000  0.16589387  1
  Te  Te25  1  0.93596238  0.75000000  0.83410613  1
  Te  Te26  1  0.62679386  0.25000000  0.33517381  1
  Te  Te27  1  0.87320614  0.25000000  0.83517381  1
  Se  Se28  1  0.85554142  0.44495624  0.58416460  1
  Se  Se29  1  0.64445858  0.05504376  0.08416460  1
  Se  Se30  1  0.35554142  0.94495624  0.91583540  1
  Se  Se31  1  0.35554142  0.55504376  0.91583540  1
  Se  Se32  1  0.14445858  0.55504376  0.41583540  1
  Se  Se33  1  0.85554142  0.05504376  0.58416460  1
  Se  Se34  1  0.14445858  0.94495624  0.41583540  1
  Se  Se35  1  0.64445858  0.44495624  0.08416460  1
