# generated using pymatgen
data_La4Al5Br2
_symmetry_space_group_name_H-M   'P 1'
_cell_length_a   4.36389285
_cell_length_b   11.87201419
_cell_length_c   11.87201474
_cell_angle_alpha   93.68466755
_cell_angle_beta   90.00000000
_cell_angle_gamma   90.00000000
_symmetry_Int_Tables_number   1
_chemical_formula_structural   La4Al5Br2
_chemical_formula_sum   'La8 Al10 Br4'
_cell_volume   613.79625207
_cell_formula_units_Z   2
loop_
 _symmetry_equiv_pos_site_id
 _symmetry_equiv_pos_as_xyz
  1  'x, y, z'
loop_
 _atom_site_type_symbol
 _atom_site_label
 _atom_site_symmetry_multiplicity
 _atom_site_fract_x
 _atom_site_fract_y
 _atom_site_fract_z
 _atom_site_occupancy
  La  La0  1  0.00000000  0.73494893  0.73494893  1
  La  La1  1  0.50000000  0.67689248  0.04030632  1
  La  La2  1  0.00000000  0.63628752  0.36371248  1
  La  La3  1  0.50000000  0.32310752  0.95969368  1
  La  La4  1  0.00000000  0.26505107  0.26505107  1
  La  La5  1  0.00000000  0.36371248  0.63628752  1
  La  La6  1  0.50000000  0.04030632  0.67689248  1
  La  La7  1  0.50000000  0.95969368  0.32310752  1
  Al  Al8  1  0.50000000  0.57915809  0.57915809  1
  Al  Al9  1  0.50000000  0.42084191  0.42084191  1
  Al  Al10  1  0.50000000  0.47971818  0.21609365  1
  Al  Al11  1  0.50000000  0.52028182  0.78390635  1
  Al  Al12  1  0.00000000  0.89797329  0.52856149  1
  Al  Al13  1  0.50000000  0.78390635  0.52028182  1
  Al  Al14  1  0.00000000  0.10202671  0.47143851  1
  Al  Al15  1  0.00000000  0.47143851  0.10202671  1
  Al  Al16  1  0.50000000  0.21609365  0.47971818  1
  Al  Al17  1  0.00000000  0.52856149  0.89797329  1
  Br  Br18  1  0.50000000  0.87736560  0.87736560  1
  Br  Br19  1  0.00000000  0.82773388  0.17226612  1
  Br  Br20  1  0.50000000  0.12263440  0.12263440  1
  Br  Br21  1  0.00000000  0.17226612  0.82773388  1
