# generated using pymatgen
data_K2Sr(NbCl3)6
_symmetry_space_group_name_H-M   'P 1'
_cell_length_a   10.41062871
_cell_length_b   10.41062792
_cell_length_c   10.41062857
_cell_angle_alpha   54.47104309
_cell_angle_beta   54.47104617
_cell_angle_gamma   54.47104646
_symmetry_Int_Tables_number   1
_chemical_formula_structural   K2Sr(NbCl3)6
_chemical_formula_sum   'K2 Sr1 Nb6 Cl18'
_cell_volume   694.98778856
_cell_formula_units_Z   1
loop_
 _symmetry_equiv_pos_site_id
 _symmetry_equiv_pos_as_xyz
  1  'x, y, z'
loop_
 _atom_site_type_symbol
 _atom_site_label
 _atom_site_symmetry_multiplicity
 _atom_site_fract_x
 _atom_site_fract_y
 _atom_site_fract_z
 _atom_site_occupancy
  K  K0  1  0.22169959  0.22169959  0.22169959  1
  K  K1  1  0.77830041  0.77830041  0.77830041  1
  Sr  Sr2  1  0.50000000  0.50000000  0.50000000  1
  Nb  Nb3  1  0.79227267  0.92633136  0.14584361  1
  Nb  Nb4  1  0.20772733  0.07366864  0.85415639  1
  Nb  Nb5  1  0.92633136  0.14584361  0.79227267  1
  Nb  Nb6  1  0.07366864  0.85415639  0.20772733  1
  Nb  Nb7  1  0.14584361  0.79227267  0.92633136  1
  Nb  Nb8  1  0.85415639  0.20772733  0.07366864  1
  Cl  Cl9  1  0.47713000  0.16089848  0.67236043  1
  Cl  Cl10  1  0.08276610  0.92599689  0.66953020  1
  Cl  Cl11  1  0.07400311  0.33046980  0.91723390  1
  Cl  Cl12  1  0.92599689  0.66953020  0.08276610  1
  Cl  Cl13  1  0.25802766  0.58473566  0.15737096  1
  Cl  Cl14  1  0.66953020  0.08276610  0.92599689  1
  Cl  Cl15  1  0.16089848  0.67236043  0.47713000  1
  Cl  Cl16  1  0.84262904  0.74197234  0.41526434  1
  Cl  Cl17  1  0.74197234  0.41526434  0.84262904  1
  Cl  Cl18  1  0.83910152  0.32763957  0.52287000  1
  Cl  Cl19  1  0.15737096  0.25802766  0.58473566  1
  Cl  Cl20  1  0.41526434  0.84262904  0.74197234  1
  Cl  Cl21  1  0.91723390  0.07400311  0.33046980  1
  Cl  Cl22  1  0.32763957  0.52287000  0.83910152  1
  Cl  Cl23  1  0.58473566  0.15737096  0.25802766  1
  Cl  Cl24  1  0.33046980  0.91723390  0.07400311  1
  Cl  Cl25  1  0.52287000  0.83910152  0.32763957  1
  Cl  Cl26  1  0.67236043  0.47713000  0.16089848  1
