# generated using pymatgen
data_P3NCl12
_symmetry_space_group_name_H-M   'P 1'
_cell_length_a   12.17217784
_cell_length_b   14.93526538
_cell_length_c   21.76179433
_cell_angle_alpha   90.00000000
_cell_angle_beta   90.00000000
_cell_angle_gamma   106.33445396
_symmetry_Int_Tables_number   1
_chemical_formula_structural   P3NCl12
_chemical_formula_sum   'P24 N8 Cl96'
_cell_volume   3796.49316009
_cell_formula_units_Z   8
loop_
 _symmetry_equiv_pos_site_id
 _symmetry_equiv_pos_as_xyz
  1  'x, y, z'
loop_
 _atom_site_type_symbol
 _atom_site_label
 _atom_site_symmetry_multiplicity
 _atom_site_fract_x
 _atom_site_fract_y
 _atom_site_fract_z
 _atom_site_occupancy
  P  P0  1  0.92903693  0.87055662  0.29276075  1
  P  P1  1  0.79183335  0.33338023  0.52999570  1
  P  P2  1  0.00939766  0.04679833  0.22484969  1
  P  P3  1  0.75507090  0.34268459  0.96342441  1
  P  P4  1  0.41276156  0.93590960  0.28372617  1
  P  P5  1  0.58723844  0.06409040  0.71627383  1
  P  P6  1  0.50939766  0.54679833  0.27515031  1
  P  P7  1  0.70816665  0.16661977  0.02999570  1
  P  P8  1  0.76057058  0.71546382  0.52966855  1
  P  P9  1  0.20816665  0.66661977  0.47000430  1
  P  P10  1  0.25507090  0.84268459  0.53657559  1
  P  P11  1  0.23942942  0.28453618  0.47033145  1
  P  P12  1  0.49060234  0.45320167  0.72484969  1
  P  P13  1  0.57096307  0.62944338  0.79276075  1
  P  P14  1  0.99060234  0.95320167  0.77515031  1
  P  P15  1  0.91276156  0.43590960  0.21627383  1
  P  P16  1  0.24492910  0.65731541  0.03657559  1
  P  P17  1  0.29183335  0.83338023  0.97000430  1
  P  P18  1  0.42903693  0.37055662  0.20723925  1
  P  P19  1  0.73942942  0.78453618  0.02966855  1
  P  P20  1  0.08723844  0.56409040  0.78372617  1
  P  P21  1  0.74492910  0.15731541  0.46342441  1
  P  P22  1  0.26057058  0.21546382  0.97033145  1
  P  P23  1  0.07096307  0.12944338  0.70723925  1
  N  N24  1  0.29424463  0.73087490  0.98457258  1
  N  N25  1  0.01239006  0.05911229  0.75910436  1
  N  N26  1  0.79424463  0.23087490  0.51542742  1
  N  N27  1  0.20575537  0.76912510  0.48457258  1
  N  N28  1  0.98760994  0.94088771  0.24089564  1
  N  N29  1  0.51239006  0.55911229  0.74089564  1
  N  N30  1  0.70575537  0.26912510  0.01542742  1
  N  N31  1  0.48760994  0.44088771  0.25910436  1
  Cl  Cl32  1  0.85077616  0.64702785  0.59068610  1
  Cl  Cl33  1  0.42228768  0.86921565  0.54923184  1
  Cl  Cl34  1  0.86576948  0.08445574  0.21646213  1
  Cl  Cl35  1  0.76483831  0.86272664  0.30444266  1
  Cl  Cl36  1  0.63559911  0.34389696  0.54495465  1
  Cl  Cl37  1  0.67089235  0.78556920  0.46761751  1
  Cl  Cl38  1  0.50514738  0.14191959  0.77626256  1
  Cl  Cl39  1  0.33876354  0.98536159  0.20369832  1
  Cl  Cl40  1  0.85658035  0.42341978  0.46340466  1
  Cl  Cl41  1  0.16123646  0.51463841  0.70369832  1
  Cl  Cl42  1  0.99485262  0.35808041  0.27626256  1
  Cl  Cl43  1  0.81665779  0.19644384  0.38227123  1
  Cl  Cl44  1  0.82791988  0.74568658  0.10691332  1
  Cl  Cl45  1  0.07771232  0.63078435  0.04923184  1
  Cl  Cl46  1  0.15042803  0.32253059  0.54876195  1
  Cl  Cl47  1  0.26334040  0.81606667  0.29009643  1
  Cl  Cl48  1  0.49740495  0.59842558  0.87417863  1
  Cl  Cl49  1  0.60236825  0.65390802  0.03907025  1
  Cl  Cl50  1  0.88289631  0.37810516  0.60458001  1
  Cl  Cl51  1  0.36440089  0.65610304  0.45504535  1
  Cl  Cl52  1  0.41001514  0.42657339  0.64558894  1
  Cl  Cl53  1  0.26483831  0.36272664  0.19555734  1
  Cl  Cl54  1  0.83290372  0.51475722  0.15684795  1
  Cl  Cl55  1  0.76334040  0.31606667  0.20990357  1
  Cl  Cl56  1  0.08998486  0.07342661  0.14558894  1
  Cl  Cl57  1  0.22529091  0.96195597  0.51489338  1
  Cl  Cl58  1  0.98826913  0.38724240  0.13688601  1
  Cl  Cl59  1  0.51173087  0.11275760  0.63688601  1
  Cl  Cl60  1  0.18334221  0.80355616  0.61772877  1
  Cl  Cl61  1  0.87577006  0.91305864  0.01891629  1
  Cl  Cl62  1  0.35658035  0.92341978  0.03659534  1
  Cl  Cl63  1  0.14922384  0.35297215  0.40931390  1
  Cl  Cl64  1  0.48826913  0.88724240  0.36311399  1
  Cl  Cl65  1  0.77470909  0.03804403  0.48510662  1
  Cl  Cl66  1  0.56228874  0.75523748  0.77089026  1
  Cl  Cl67  1  0.23516169  0.13727336  0.69555734  1
  Cl  Cl68  1  0.72529091  0.46195597  0.98510662  1
  Cl  Cl69  1  0.56345655  0.05691052  0.27627130  1
  Cl  Cl70  1  0.43654345  0.94308948  0.72372870  1
  Cl  Cl71  1  0.32910765  0.21443080  0.53238249  1
  Cl  Cl72  1  0.00514738  0.64191959  0.72373744  1
  Cl  Cl73  1  0.49485262  0.85808041  0.22373744  1
  Cl  Cl74  1  0.17089235  0.28556920  0.03238249  1
  Cl  Cl75  1  0.64341965  0.07658022  0.96340466  1
  Cl  Cl76  1  0.06345655  0.55691052  0.22372870  1
  Cl  Cl77  1  0.99740495  0.09842558  0.62582137  1
  Cl  Cl78  1  0.68334221  0.30355616  0.88227123  1
  Cl  Cl79  1  0.64922384  0.85297215  0.09068610  1
  Cl  Cl80  1  0.39671311  0.36802537  0.78695987  1
  Cl  Cl81  1  0.89671311  0.86802537  0.71304013  1
  Cl  Cl82  1  0.36576948  0.58445574  0.28353787  1
  Cl  Cl83  1  0.84957197  0.67746941  0.45123805  1
  Cl  Cl84  1  0.73665960  0.18393333  0.70990357  1
  Cl  Cl85  1  0.39763175  0.34609198  0.96092975  1
  Cl  Cl86  1  0.13423052  0.91554426  0.78353787  1
  Cl  Cl87  1  0.93654345  0.44308948  0.77627130  1
  Cl  Cl88  1  0.66709628  0.98524278  0.65684795  1
  Cl  Cl89  1  0.34957197  0.17746941  0.04876195  1
  Cl  Cl90  1  0.62422994  0.58694136  0.51891629  1
  Cl  Cl91  1  0.17208012  0.25431342  0.89308668  1
  Cl  Cl92  1  0.06228874  0.25523748  0.72910974  1
  Cl  Cl93  1  0.57771232  0.13078435  0.45076816  1
  Cl  Cl94  1  0.10328689  0.13197463  0.28695987  1
  Cl  Cl95  1  0.73516169  0.63727336  0.80444266  1
  Cl  Cl96  1  0.00259505  0.90157442  0.37417863  1
  Cl  Cl97  1  0.93771126  0.74476252  0.27089026  1
  Cl  Cl98  1  0.91001514  0.92657339  0.85441106  1
  Cl  Cl99  1  0.60328689  0.63197463  0.21304013  1
  Cl  Cl100  1  0.65042803  0.82253059  0.95123805  1
  Cl  Cl101  1  0.35077616  0.14702785  0.90931390  1
  Cl  Cl102  1  0.11710369  0.62189484  0.39541999  1
  Cl  Cl103  1  0.58998486  0.57342661  0.35441106  1
  Cl  Cl104  1  0.23665960  0.68393333  0.79009643  1
  Cl  Cl105  1  0.66123646  0.01463841  0.79630168  1
  Cl  Cl106  1  0.31665779  0.69644384  0.11772877  1
  Cl  Cl107  1  0.63423052  0.41554426  0.71646213  1
  Cl  Cl108  1  0.01173087  0.61275760  0.86311399  1
  Cl  Cl109  1  0.61710369  0.12189484  0.10458001  1
  Cl  Cl110  1  0.33290372  0.01475722  0.34315205  1
  Cl  Cl111  1  0.13559911  0.84389696  0.95504535  1
  Cl  Cl112  1  0.27470909  0.53804403  0.01489338  1
  Cl  Cl113  1  0.50259505  0.40157442  0.12582137  1
  Cl  Cl114  1  0.12422994  0.08694136  0.98108371  1
  Cl  Cl115  1  0.16709628  0.48524278  0.84315205  1
  Cl  Cl116  1  0.82910765  0.71443080  0.96761751  1
  Cl  Cl117  1  0.43771126  0.24476252  0.22910974  1
  Cl  Cl118  1  0.86440089  0.15610304  0.04495465  1
  Cl  Cl119  1  0.10236825  0.15390802  0.46092975  1
  Cl  Cl120  1  0.37577006  0.41305864  0.48108371  1
  Cl  Cl121  1  0.38289631  0.87810516  0.89541999  1
  Cl  Cl122  1  0.14341965  0.57658022  0.53659534  1
  Cl  Cl123  1  0.89763175  0.84609198  0.53907025  1
  Cl  Cl124  1  0.32791988  0.24568658  0.39308668  1
  Cl  Cl125  1  0.67208012  0.75431342  0.60691332  1
  Cl  Cl126  1  0.92228768  0.36921565  0.95076816  1
  Cl  Cl127  1  0.83876354  0.48536159  0.29630168  1
