# generated using pymatgen
data_Lu6AgTe2
_symmetry_space_group_name_H-M   'P 1'
_cell_length_a   3.98268710
_cell_length_b   11.38229228
_cell_length_c   21.46912452
_cell_angle_alpha   90.00000000
_cell_angle_beta   90.00000000
_cell_angle_gamma   90.00000000
_symmetry_Int_Tables_number   1
_chemical_formula_structural   Lu6AgTe2
_chemical_formula_sum   'Lu24 Ag4 Te8'
_cell_volume   973.24068497
_cell_formula_units_Z   4
loop_
 _symmetry_equiv_pos_site_id
 _symmetry_equiv_pos_as_xyz
  1  'x, y, z'
loop_
 _atom_site_type_symbol
 _atom_site_label
 _atom_site_symmetry_multiplicity
 _atom_site_fract_x
 _atom_site_fract_y
 _atom_site_fract_z
 _atom_site_occupancy
  Lu  Lu0  1  0.75000000  0.68221623  0.89123250  1
  Lu  Lu1  1  0.25000000  0.37916181  0.47134835  1
  Lu  Lu2  1  0.75000000  0.87916181  0.02865165  1
  Lu  Lu3  1  0.75000000  0.97121760  0.83986220  1
  Lu  Lu4  1  0.25000000  0.18221623  0.60876750  1
  Lu  Lu5  1  0.25000000  0.74075308  0.26762463  1
  Lu  Lu6  1  0.75000000  0.11130078  0.49122743  1
  Lu  Lu7  1  0.75000000  0.56098326  0.14014353  1
  Lu  Lu8  1  0.25000000  0.31778377  0.10876750  1
  Lu  Lu9  1  0.25000000  0.02878240  0.16013780  1
  Lu  Lu10  1  0.25000000  0.47121760  0.66013780  1
  Lu  Lu11  1  0.25000000  0.75924692  0.76762463  1
  Lu  Lu12  1  0.75000000  0.52878240  0.33986220  1
  Lu  Lu13  1  0.75000000  0.93901674  0.64014353  1
  Lu  Lu14  1  0.25000000  0.61130078  0.00877257  1
  Lu  Lu15  1  0.75000000  0.25924692  0.73237537  1
  Lu  Lu16  1  0.75000000  0.24075308  0.23237537  1
  Lu  Lu17  1  0.75000000  0.62083819  0.52865165  1
  Lu  Lu18  1  0.75000000  0.81778377  0.39123250  1
  Lu  Lu19  1  0.25000000  0.12083819  0.97134835  1
  Lu  Lu20  1  0.25000000  0.88869922  0.50877257  1
  Lu  Lu21  1  0.75000000  0.38869922  0.99122743  1
  Lu  Lu22  1  0.25000000  0.43901674  0.85985647  1
  Lu  Lu23  1  0.25000000  0.06098326  0.35985647  1
  Ag  Ag24  1  0.75000000  0.13359675  0.07616150  1
  Ag  Ag25  1  0.25000000  0.63359675  0.42383850  1
  Ag  Ag26  1  0.25000000  0.86640325  0.92383850  1
  Ag  Ag27  1  0.75000000  0.36640325  0.57616150  1
  Te  Te28  1  0.25000000  0.76824951  0.12703927  1
  Te  Te29  1  0.25000000  0.73175049  0.62703927  1
  Te  Te30  1  0.25000000  0.04297891  0.73653694  1
  Te  Te31  1  0.75000000  0.26824951  0.37296073  1
  Te  Te32  1  0.75000000  0.54297891  0.76346306  1
  Te  Te33  1  0.25000000  0.45702109  0.23653694  1
  Te  Te34  1  0.75000000  0.95702109  0.26346306  1
  Te  Te35  1  0.75000000  0.23175049  0.87296073  1
