# generated using pymatgen
data_TlIO4
_symmetry_space_group_name_H-M   'P 1'
_cell_length_a   5.99764240
_cell_length_b   5.99764240
_cell_length_c   7.86525039
_cell_angle_alpha   112.41266458
_cell_angle_beta   112.41266465
_cell_angle_gamma   90.00000002
_symmetry_Int_Tables_number   1
_chemical_formula_structural   TlIO4
_chemical_formula_sum   'Tl2 I2 O8'
_cell_volume   238.27373176
_cell_formula_units_Z   2
loop_
 _symmetry_equiv_pos_site_id
 _symmetry_equiv_pos_as_xyz
  1  'x, y, z'
loop_
 _atom_site_type_symbol
 _atom_site_label
 _atom_site_symmetry_multiplicity
 _atom_site_fract_x
 _atom_site_fract_y
 _atom_site_fract_z
 _atom_site_occupancy
  O  O0  1  0.91848597  0.33088525  0.59651481  1
  O  O1  1  0.26562956  0.41848597  0.09651481  1
  O  O2  1  0.83088525  0.17802885  0.09651481  1
  O  O3  1  0.67802885  0.76562956  0.59651481  1
  O  O4  1  0.32197115  0.23437044  0.40348519  1
  O  O5  1  0.16911475  0.82197115  0.90348519  1
  O  O6  1  0.73437044  0.58151403  0.90348519  1
  O  O7  1  0.08151403  0.66911475  0.40348519  1
  I  I8  1  0.87500000  0.62500000  0.75000000  1
  I  I9  1  0.12500000  0.37500000  0.25000000  1
  Tl  Tl10  1  0.37500000  0.12500000  0.75000000  1
  Tl  Tl11  1  0.62500000  0.87500000  0.25000000  1
