# generated using pymatgen
data_Cs2Lu7CCl18
_symmetry_space_group_name_H-M   'P 1'
_cell_length_a   10.78157446
_cell_length_b   10.78157447
_cell_length_c   10.78157414
_cell_angle_alpha   54.90569079
_cell_angle_beta   54.90569073
_cell_angle_gamma   54.90568772
_symmetry_Int_Tables_number   1
_chemical_formula_structural   Cs2Lu7CCl18
_chemical_formula_sum   'Cs2 Lu7 C1 Cl18'
_cell_volume   781.11865117
_cell_formula_units_Z   1
loop_
 _symmetry_equiv_pos_site_id
 _symmetry_equiv_pos_as_xyz
  1  'x, y, z'
loop_
 _atom_site_type_symbol
 _atom_site_label
 _atom_site_symmetry_multiplicity
 _atom_site_fract_x
 _atom_site_fract_y
 _atom_site_fract_z
 _atom_site_occupancy
  Cs  Cs0  1  0.77779647  0.77779647  0.77779647  1
  Cs  Cs1  1  0.22220353  0.22220353  0.22220353  1
  Lu  Lu2  1  0.77628967  0.17740287  0.89175290  1
  Lu  Lu3  1  0.17740287  0.89175290  0.77628967  1
  Lu  Lu4  1  0.82259713  0.10824710  0.22371033  1
  Lu  Lu5  1  0.22371033  0.82259713  0.10824710  1
  Lu  Lu6  1  0.50000000  0.50000000  0.50000000  1
  Lu  Lu7  1  0.10824710  0.22371033  0.82259713  1
  Lu  Lu8  1  0.89175290  0.77628967  0.17740287  1
  C  C9  1  0.00000000  0.00000000  0.00000000  1
  Cl  Cl10  1  0.12960884  0.57804081  0.28475060  1
  Cl  Cl11  1  0.35688311  0.78355700  0.52525677  1
  Cl  Cl12  1  0.34353938  0.05302182  0.93282980  1
  Cl  Cl13  1  0.94697818  0.06717020  0.65646062  1
  Cl  Cl14  1  0.52525677  0.35688311  0.78355700  1
  Cl  Cl15  1  0.28475060  0.12960884  0.57804081  1
  Cl  Cl16  1  0.42195919  0.71524940  0.87039116  1
  Cl  Cl17  1  0.21644300  0.47474323  0.64311689  1
  Cl  Cl18  1  0.93282980  0.34353938  0.05302182  1
  Cl  Cl19  1  0.57804081  0.28475060  0.12960884  1
  Cl  Cl20  1  0.71524940  0.87039116  0.42195919  1
  Cl  Cl21  1  0.87039116  0.42195919  0.71524940  1
  Cl  Cl22  1  0.06717020  0.65646062  0.94697818  1
  Cl  Cl23  1  0.64311689  0.21644300  0.47474323  1
  Cl  Cl24  1  0.78355700  0.52525677  0.35688311  1
  Cl  Cl25  1  0.47474323  0.64311689  0.21644300  1
  Cl  Cl26  1  0.65646062  0.94697818  0.06717020  1
  Cl  Cl27  1  0.05302182  0.93282980  0.34353938  1
