# generated using pymatgen
data_Cr2B
_symmetry_space_group_name_H-M   'P 1'
_cell_length_a   4.22935063
_cell_length_b   4.22935063
_cell_length_c   7.59320530
_cell_angle_alpha   97.92710417
_cell_angle_beta   97.92710417
_cell_angle_gamma   120.31759819
_symmetry_Int_Tables_number   1
_chemical_formula_structural   Cr2B
_chemical_formula_sum   'Cr8 B4'
_cell_volume   112.65446052
_cell_formula_units_Z   4
loop_
 _symmetry_equiv_pos_site_id
 _symmetry_equiv_pos_as_xyz
  1  'x, y, z'
loop_
 _atom_site_type_symbol
 _atom_site_label
 _atom_site_symmetry_multiplicity
 _atom_site_fract_x
 _atom_site_fract_y
 _atom_site_fract_z
 _atom_site_occupancy
  Cr  Cr0  1  0.66573639  0.33426361  -0.00000000  1
  Cr  Cr1  1  0.33426361  0.66573639  -0.00000000  1
  Cr  Cr2  1  0.91573639  0.08426361  0.50000000  1
  Cr  Cr3  1  0.58426361  0.41573639  0.50000000  1
  Cr  Cr4  1  0.08273422  0.08273422  0.16546843  1
  Cr  Cr5  1  0.91726578  0.91726578  0.83453157  1
  Cr  Cr6  1  0.16726578  0.66726578  0.33453157  1
  Cr  Cr7  1  0.33273422  0.83273422  0.66546843  1
  B  B8  1  0.37463450  0.37463450  0.74926900  1
  B  B9  1  0.62536550  0.62536550  0.25073100  1
  B  B10  1  0.87536550  0.37536550  0.75073100  1
  B  B11  1  0.62463450  0.12463450  0.24926900  1
