# generated using pymatgen
data_Hg9P5I6
_symmetry_space_group_name_H-M   'P 1'
_cell_length_a   12.71593073
_cell_length_b   13.42696415
_cell_length_c   16.01910652
_cell_angle_alpha   106.91042758
_cell_angle_beta   90.00000000
_cell_angle_gamma   90.00000000
_symmetry_Int_Tables_number   1
_chemical_formula_structural   Hg9P5I6
_chemical_formula_sum   'Hg36 P20 I24'
_cell_volume   2616.78223297
_cell_formula_units_Z   4
loop_
 _symmetry_equiv_pos_site_id
 _symmetry_equiv_pos_as_xyz
  1  'x, y, z'
loop_
 _atom_site_type_symbol
 _atom_site_label
 _atom_site_symmetry_multiplicity
 _atom_site_fract_x
 _atom_site_fract_y
 _atom_site_fract_z
 _atom_site_occupancy
  Hg  Hg0  1  0.10458526  0.97966430  0.73802476  1
  Hg  Hg1  1  0.81986086  0.07597148  0.72528167  1
  Hg  Hg2  1  0.52485015  0.97229554  0.57000652  1
  Hg  Hg3  1  0.90196952  0.58756115  0.71125107  1
  Hg  Hg4  1  0.47514985  0.02770446  0.42999348  1
  Hg  Hg5  1  0.55559636  0.24511307  0.80248910  1
  Hg  Hg6  1  0.27353056  0.67683579  0.46159110  1
  Hg  Hg7  1  0.31583281  0.21070403  0.31310575  1
  Hg  Hg8  1  0.59803048  0.08756115  0.21125107  1
  Hg  Hg9  1  0.89541474  0.02033570  0.26197524  1
  Hg  Hg10  1  0.82771790  0.57032957  0.45003369  1
  Hg  Hg11  1  0.09803048  0.41243885  0.28874893  1
  Hg  Hg12  1  0.17228210  0.42967043  0.54996631  1
  Hg  Hg13  1  0.97514985  0.47229554  0.07000652  1
  Hg  Hg14  1  0.22646944  0.17683579  0.96159110  1
  Hg  Hg15  1  0.68416719  0.78929597  0.68689425  1
  Hg  Hg16  1  0.81583281  0.28929597  0.18689425  1
  Hg  Hg17  1  0.32771790  0.92967043  0.04996631  1
  Hg  Hg18  1  0.40196952  0.91243885  0.78874893  1
  Hg  Hg19  1  0.39541474  0.47966430  0.23802476  1
  Hg  Hg20  1  0.94440364  0.74511307  0.30248910  1
  Hg  Hg21  1  0.67228210  0.07032957  0.95003369  1
  Hg  Hg22  1  0.02485015  0.52770446  0.92999348  1
  Hg  Hg23  1  0.50000000  0.50000000  0.50000000  1
  Hg  Hg24  1  0.31986086  0.42402852  0.77471833  1
  Hg  Hg25  1  0.72646944  0.32316421  0.53840890  1
  Hg  Hg26  1  0.44440364  0.75488693  0.19751090  1
  Hg  Hg27  1  0.60458526  0.52033570  0.76197524  1
  Hg  Hg28  1  0.18416719  0.71070403  0.81310575  1
  Hg  Hg29  1  0.77353056  0.82316421  0.03840890  1
  Hg  Hg30  1  0.18013914  0.92402852  0.27471833  1
  Hg  Hg31  1  0.68013914  0.57597148  0.22528167  1
  Hg  Hg32  1  0.00000000  0.00000000  0.00000000  1
  Hg  Hg33  1  0.05559636  0.25488693  0.69751090  1
  Hg  Hg34  1  0.50000000  0.50000000  0.00000000  1
  Hg  Hg35  1  0.00000000  0.00000000  0.50000000  1
  P  P36  1  0.99443265  0.07315567  0.65919263  1
  P  P37  1  0.00556735  0.92684433  0.34080737  1
  P  P38  1  0.85377736  0.57960017  0.29547002  1
  P  P39  1  0.14622264  0.42039983  0.70452998  1
  P  P40  1  0.69291989  0.50654580  0.53821412  1
  P  P41  1  0.35377736  0.92039983  0.20452998  1
  P  P42  1  0.50556735  0.57315567  0.15919263  1
  P  P43  1  0.80708011  0.00654580  0.03821412  1
  P  P44  1  0.71511357  0.60202221  0.67326988  1
  P  P45  1  0.93621199  0.44196137  0.21423673  1
  P  P46  1  0.49443265  0.42684433  0.84080737  1
  P  P47  1  0.78488643  0.10202221  0.17326988  1
  P  P48  1  0.06378801  0.55803863  0.78576327  1
  P  P49  1  0.30708011  0.49345420  0.46178588  1
  P  P50  1  0.64622264  0.07960017  0.79547002  1
  P  P51  1  0.19291989  0.99345420  0.96178588  1
  P  P52  1  0.28488643  0.39797779  0.32673012  1
  P  P53  1  0.56378801  0.94196137  0.71423673  1
  P  P54  1  0.21511357  0.89797779  0.82673012  1
  P  P55  1  0.43621199  0.05803863  0.28576327  1
  I  I56  1  0.18824046  0.66258566  0.27728105  1
  I  I57  1  0.49103817  0.30165581  0.59500538  1
  I  I58  1  0.81175954  0.33741434  0.72271895  1
  I  I59  1  0.24583673  0.88533770  0.54503334  1
  I  I60  1  0.99103817  0.19834419  0.90499462  1
  I  I61  1  0.68824046  0.83741434  0.22271895  1
  I  I62  1  0.31175954  0.16258566  0.77728105  1
  I  I63  1  0.97951644  0.34844107  0.43954237  1
  I  I64  1  0.74583673  0.61466230  0.95496666  1
  I  I65  1  0.11508193  0.14583558  0.19421005  1
  I  I66  1  0.71978654  0.33764653  0.02646797  1
  I  I67  1  0.52048356  0.84844107  0.93954237  1
  I  I68  1  0.78021346  0.83764653  0.52646797  1
  I  I69  1  0.61508193  0.35416442  0.30578995  1
  I  I70  1  0.88491807  0.85416442  0.80578995  1
  I  I71  1  0.25416327  0.38533770  0.04503334  1
  I  I72  1  0.38491807  0.64583558  0.69421005  1
  I  I73  1  0.75416327  0.11466230  0.45496666  1
  I  I74  1  0.02048356  0.65155893  0.56045763  1
  I  I75  1  0.21978654  0.16235347  0.47353203  1
  I  I76  1  0.00896183  0.80165581  0.09500538  1
  I  I77  1  0.47951644  0.15155893  0.06045763  1
  I  I78  1  0.50896183  0.69834419  0.40499462  1
  I  I79  1  0.28021346  0.66235347  0.97353203  1
