# generated using pymatgen
data_CsEr(NbBr3)6
_symmetry_space_group_name_H-M   'P 1'
_cell_length_a   9.94917046
_cell_length_b   9.94917027
_cell_length_c   18.54517582
_cell_angle_alpha   90.00000000
_cell_angle_beta   90.00000000
_cell_angle_gamma   120.00000065
_symmetry_Int_Tables_number   1
_chemical_formula_structural   CsEr(NbBr3)6
_chemical_formula_sum   'Cs2 Er2 Nb12 Br36'
_cell_volume   1589.77373963
_cell_formula_units_Z   2
loop_
 _symmetry_equiv_pos_site_id
 _symmetry_equiv_pos_as_xyz
  1  'x, y, z'
loop_
 _atom_site_type_symbol
 _atom_site_label
 _atom_site_symmetry_multiplicity
 _atom_site_fract_x
 _atom_site_fract_y
 _atom_site_fract_z
 _atom_site_occupancy
  Cs  Cs0  1  0.66666700  0.33333300  0.75000000  1
  Cs  Cs1  1  0.33333300  0.66666700  0.25000000  1
  Er  Er2  1  0.33333300  0.66666700  0.75000000  1
  Er  Er3  1  0.66666700  0.33333300  0.25000000  1
  Nb  Nb4  1  0.03787631  0.18763071  0.93499546  1
  Nb  Nb5  1  0.18763071  0.03787631  0.43499546  1
  Nb  Nb6  1  0.14975441  0.18763071  0.56500454  1
  Nb  Nb7  1  0.85024559  0.81236929  0.43499546  1
  Nb  Nb8  1  0.81236929  0.96212369  0.56500454  1
  Nb  Nb9  1  0.96212369  0.14975441  0.43499546  1
  Nb  Nb10  1  0.81236929  0.85024559  0.93499546  1
  Nb  Nb11  1  0.14975441  0.96212369  0.93499546  1
  Nb  Nb12  1  0.85024559  0.03787631  0.06500454  1
  Nb  Nb13  1  0.96212369  0.81236929  0.06500454  1
  Nb  Nb14  1  0.03787631  0.85024559  0.56500454  1
  Nb  Nb15  1  0.18763071  0.14975441  0.06500454  1
  Br  Br16  1  0.14035810  0.72538749  0.00092462  1
  Br  Br17  1  0.04539004  0.23033833  0.15939659  1
  Br  Br18  1  0.63686733  0.54996829  0.33741040  1
  Br  Br19  1  0.85964190  0.27461251  0.99907538  1
  Br  Br20  1  0.72538749  0.14035810  0.50092462  1
  Br  Br21  1  0.72538749  0.58502939  0.99907538  1
  Br  Br22  1  0.23033833  0.04539004  0.65939659  1
  Br  Br23  1  0.41497061  0.14035810  0.99907538  1
  Br  Br24  1  0.81505170  0.76966167  0.65939659  1
  Br  Br25  1  0.95460996  0.76966167  0.84060341  1
  Br  Br26  1  0.76966167  0.81505170  0.15939659  1
  Br  Br27  1  0.85964190  0.58502939  0.50092462  1
  Br  Br28  1  0.36313267  0.45003171  0.66258960  1
  Br  Br29  1  0.91310096  0.54996829  0.16258960  1
  Br  Br30  1  0.81505170  0.04539004  0.84060341  1
  Br  Br31  1  0.58502939  0.72538749  0.49907538  1
  Br  Br32  1  0.08689904  0.63686733  0.66258960  1
  Br  Br33  1  0.08689904  0.45003171  0.83741040  1
  Br  Br34  1  0.54996829  0.63686733  0.83741040  1
  Br  Br35  1  0.14035810  0.41497061  0.49907538  1
  Br  Br36  1  0.23033833  0.18494830  0.84060341  1
  Br  Br37  1  0.95460996  0.18494830  0.65939659  1
  Br  Br38  1  0.27461251  0.85964190  0.49907538  1
  Br  Br39  1  0.36313267  0.91310096  0.83741040  1
  Br  Br40  1  0.27461251  0.41497061  0.00092462  1
  Br  Br41  1  0.04539004  0.81505170  0.34060341  1
  Br  Br42  1  0.45003171  0.36313267  0.16258960  1
  Br  Br43  1  0.18494830  0.95460996  0.15939659  1
  Br  Br44  1  0.76966167  0.95460996  0.34060341  1
  Br  Br45  1  0.41497061  0.27461251  0.50092462  1
  Br  Br46  1  0.58502939  0.85964190  0.00092462  1
  Br  Br47  1  0.18494830  0.23033833  0.34060341  1
  Br  Br48  1  0.91310096  0.36313267  0.33741040  1
  Br  Br49  1  0.54996829  0.91310096  0.66258960  1
  Br  Br50  1  0.63686733  0.08689904  0.16258960  1
  Br  Br51  1  0.45003171  0.08689904  0.33741040  1
