# generated using pymatgen
data_KBi(PSe3)2
_symmetry_space_group_name_H-M   'P 1'
_cell_length_a   7.74437113
_cell_length_b   12.64685263
_cell_length_c   12.80255984
_cell_angle_alpha   111.34080617
_cell_angle_beta   90.00000000
_cell_angle_gamma   90.00000000
_symmetry_Int_Tables_number   1
_chemical_formula_structural   KBi(PSe3)2
_chemical_formula_sum   'K4 Bi4 P8 Se24'
_cell_volume   1167.92973640
_cell_formula_units_Z   4
loop_
 _symmetry_equiv_pos_site_id
 _symmetry_equiv_pos_as_xyz
  1  'x, y, z'
loop_
 _atom_site_type_symbol
 _atom_site_label
 _atom_site_symmetry_multiplicity
 _atom_site_fract_x
 _atom_site_fract_y
 _atom_site_fract_z
 _atom_site_occupancy
  K  K0  1  0.58292454  0.40804934  0.13727979  1
  K  K1  1  0.41707546  0.59195066  0.86272021  1
  K  K2  1  0.91707546  0.40804934  0.63727979  1
  K  K3  1  0.08292454  0.59195066  0.36272021  1
  Bi  Bi4  1  0.65473235  0.88148716  0.66858118  1
  Bi  Bi5  1  0.15473235  0.11851284  0.83141882  1
  Bi  Bi6  1  0.34526765  0.11851284  0.33141882  1
  Bi  Bi7  1  0.84526765  0.88148716  0.16858118  1
  P  P8  1  0.09432064  0.23773454  0.18448883  1
  P  P9  1  0.62646664  0.23554797  0.80248634  1
  P  P10  1  0.87353336  0.23554797  0.30248634  1
  P  P11  1  0.12646664  0.76445203  0.69751366  1
  P  P12  1  0.40567936  0.23773454  0.68448883  1
  P  P13  1  0.59432064  0.76226546  0.31551117  1
  P  P14  1  0.37353336  0.76445203  0.19751366  1
  P  P15  1  0.90567936  0.76226546  0.81551117  1
  Se  Se16  1  0.50408490  0.16326979  0.92143667  1
  Se  Se17  1  0.23181769  0.59466504  0.61868297  1
  Se  Se18  1  0.70136549  0.66460154  0.69725350  1
  Se  Se19  1  0.31523521  0.88736510  0.80951968  1
  Se  Se20  1  0.49591510  0.83673021  0.07856333  1
  Se  Se21  1  0.18476479  0.88736510  0.30951968  1
  Se  Se22  1  0.20136549  0.33539846  0.80274650  1
  Se  Se23  1  0.79863451  0.66460154  0.19725350  1
  Se  Se24  1  0.73181769  0.40533496  0.88131703  1
  Se  Se25  1  0.49558104  0.30567639  0.56037647  1
  Se  Se26  1  0.26818231  0.59466504  0.11868297  1
  Se  Se27  1  0.81152683  0.94197563  0.88445600  1
  Se  Se28  1  0.81523521  0.11263490  0.69048032  1
  Se  Se29  1  0.50441896  0.69432361  0.43962353  1
  Se  Se30  1  0.29863451  0.33539846  0.30274650  1
  Se  Se31  1  0.31152683  0.05802437  0.61554400  1
  Se  Se32  1  0.18847317  0.05802437  0.11554400  1
  Se  Se33  1  0.68476479  0.11263490  0.19048032  1
  Se  Se34  1  0.99591510  0.16326979  0.42143667  1
  Se  Se35  1  0.00408490  0.83673021  0.57856333  1
  Se  Se36  1  0.99558104  0.69432361  0.93962353  1
  Se  Se37  1  0.68847317  0.94197563  0.38445600  1
  Se  Se38  1  0.00441896  0.30567639  0.06037647  1
  Se  Se39  1  0.76818231  0.40533496  0.38131703  1
