# generated using pymatgen
data_Yb2(ZnGe)3
_symmetry_space_group_name_H-M   'P 1'
_cell_length_a   4.31030960
_cell_length_b   8.23080075
_cell_length_c   9.61855833
_cell_angle_alpha   80.83075258
_cell_angle_beta   77.05226719
_cell_angle_gamma   74.82072069
_symmetry_Int_Tables_number   1
_chemical_formula_structural   Yb2(ZnGe)3
_chemical_formula_sum   'Yb4 Zn6 Ge6'
_cell_volume   319.11747436
_cell_formula_units_Z   2
loop_
 _symmetry_equiv_pos_site_id
 _symmetry_equiv_pos_as_xyz
  1  'x, y, z'
loop_
 _atom_site_type_symbol
 _atom_site_label
 _atom_site_symmetry_multiplicity
 _atom_site_fract_x
 _atom_site_fract_y
 _atom_site_fract_z
 _atom_site_occupancy
  Yb  Yb0  1  0.43241433  0.22522636  0.90994499  1
  Yb  Yb1  1  0.56758567  0.77477364  0.09005501  1
  Yb  Yb2  1  0.73885830  0.85575679  0.66652661  1
  Yb  Yb3  1  0.26114170  0.14424321  0.33347339  1
  Zn  Zn4  1  0.23206435  0.63747446  0.89839685  1
  Zn  Zn5  1  0.93805900  0.79918345  0.32469854  1
  Zn  Zn6  1  0.76793565  0.36252554  0.10160315  1
  Zn  Zn7  1  0.58022256  0.48175442  0.35780046  1
  Zn  Zn8  1  0.06194100  0.20081655  0.67530146  1
  Zn  Zn9  1  0.41977744  0.51824558  0.64219954  1
  Ge  Ge10  1  0.08367907  0.95530157  0.87734029  1
  Ge  Ge11  1  0.15431167  0.51464315  0.17673351  1
  Ge  Ge12  1  0.91632093  0.04469843  0.12265971  1
  Ge  Ge13  1  0.38271453  0.77562768  0.45894326  1
  Ge  Ge14  1  0.84568833  0.48535685  0.82326649  1
  Ge  Ge15  1  0.61728547  0.22437232  0.54105674  1
