# generated using pymatgen
data_CuSe
_symmetry_space_group_name_H-M   'P 1'
_cell_length_a   4.00869109
_cell_length_b   4.03037285
_cell_length_c   17.43492252
_cell_angle_alpha   90.00000000
_cell_angle_beta   90.00000000
_cell_angle_gamma   119.82220341
_symmetry_Int_Tables_number   1
_chemical_formula_structural   CuSe
_chemical_formula_sum   'Cu6 Se6'
_cell_volume   244.38456047
_cell_formula_units_Z   6
loop_
 _symmetry_equiv_pos_site_id
 _symmetry_equiv_pos_as_xyz
  1  'x, y, z'
loop_
 _atom_site_type_symbol
 _atom_site_label
 _atom_site_symmetry_multiplicity
 _atom_site_fract_x
 _atom_site_fract_y
 _atom_site_fract_z
 _atom_site_occupancy
  Cu  Cu0  1  0.65949009  0.31898019  0.10791336  1
  Cu  Cu1  1  0.34050991  0.68101981  0.89208664  1
  Cu  Cu2  1  0.34050991  0.68101981  0.60791336  1
  Cu  Cu3  1  0.65949009  0.31898019  0.39208664  1
  Cu  Cu4  1  0.63360076  0.26720153  0.75000000  1
  Cu  Cu5  1  0.36639924  0.73279847  0.25000000  1
  Se  Se6  1  0.30198495  0.60396989  0.75000000  1
  Se  Se7  1  0.69801505  0.39603011  0.25000000  1
  Se  Se8  1  0.00680234  0.01360469  0.56957215  1
  Se  Se9  1  0.99319766  0.98639531  0.06957215  1
  Se  Se10  1  0.00680234  0.01360469  0.93042785  1
  Se  Se11  1  0.99319766  0.98639531  0.43042785  1
