# generated using pymatgen
data_RbAuCl4
_symmetry_space_group_name_H-M   'P 1'
_cell_length_a   6.08634831
_cell_length_b   7.11341660
_cell_length_c   10.33414382
_cell_angle_alpha   101.18066558
_cell_angle_beta   90.00000000
_cell_angle_gamma   115.32850936
_symmetry_Int_Tables_number   1
_chemical_formula_structural   RbAuCl4
_chemical_formula_sum   'Rb2 Au2 Cl8'
_cell_volume   394.98878314
_cell_formula_units_Z   2
loop_
 _symmetry_equiv_pos_site_id
 _symmetry_equiv_pos_as_xyz
  1  'x, y, z'
loop_
 _atom_site_type_symbol
 _atom_site_label
 _atom_site_symmetry_multiplicity
 _atom_site_fract_x
 _atom_site_fract_y
 _atom_site_fract_z
 _atom_site_occupancy
  Rb  Rb0  1  0.72593117  0.50000000  0.25000000  1
  Rb  Rb1  1  0.27406883  0.50000000  0.75000000  1
  Au  Au2  1  0.00000000  0.00000000  0.00000000  1
  Au  Au3  1  0.50000000  0.00000000  0.50000000  1
  Cl  Cl4  1  0.83521283  0.63265386  0.93142754  1
  Cl  Cl5  1  0.30472180  0.03577525  0.85786772  1
  Cl  Cl6  1  0.70255897  0.36734614  0.56857246  1
  Cl  Cl7  1  0.16478717  0.36734614  0.06857246  1
  Cl  Cl8  1  0.69527820  0.96422475  0.14213228  1
  Cl  Cl9  1  0.76894654  0.96422475  0.64213228  1
  Cl  Cl10  1  0.23105346  0.03577525  0.35786772  1
  Cl  Cl11  1  0.29744103  0.63265386  0.43142754  1
