# generated using pymatgen
data_BaYbSn3
_symmetry_space_group_name_H-M   'P 1'
_cell_length_a   9.32101947
_cell_length_b   9.32101995
_cell_length_c   17.42966827
_cell_angle_alpha   90.00000000
_cell_angle_beta   90.00000000
_cell_angle_gamma   118.72952396
_symmetry_Int_Tables_number   1
_chemical_formula_structural   BaYbSn3
_chemical_formula_sum   'Ba8 Yb8 Sn24'
_cell_volume   1327.89992670
_cell_formula_units_Z   8
loop_
 _symmetry_equiv_pos_site_id
 _symmetry_equiv_pos_as_xyz
  1  'x, y, z'
loop_
 _atom_site_type_symbol
 _atom_site_label
 _atom_site_symmetry_multiplicity
 _atom_site_fract_x
 _atom_site_fract_y
 _atom_site_fract_z
 _atom_site_occupancy
  Yb  Yb0  1  0.35370445  0.62232350  0.72750527  1
  Yb  Yb1  1  0.12232350  0.85370445  0.77249473  1
  Yb  Yb2  1  0.62232350  0.35370445  0.72750527  1
  Yb  Yb3  1  0.85370445  0.12232350  0.77249473  1
  Yb  Yb4  1  0.14629555  0.87767650  0.22750527  1
  Yb  Yb5  1  0.87767650  0.14629555  0.22750527  1
  Yb  Yb6  1  0.37767650  0.64629555  0.27249473  1
  Yb  Yb7  1  0.64629555  0.37767650  0.27249473  1
  Ba  Ba8  1  0.78431339  0.21568661  0.00000000  1
  Ba  Ba9  1  0.21568661  0.78431339  0.00000000  1
  Ba  Ba10  1  0.32492010  0.32492010  0.91390337  1
  Ba  Ba11  1  0.28431339  0.71568661  0.50000000  1
  Ba  Ba12  1  0.67507990  0.67507990  0.08609663  1
  Ba  Ba13  1  0.71568661  0.28431339  0.50000000  1
  Ba  Ba14  1  0.82492010  0.82492010  0.58609663  1
  Ba  Ba15  1  0.17507990  0.17507990  0.41390337  1
  Sn  Sn16  1  0.19753636  0.43439581  0.09295601  1
  Sn  Sn17  1  0.01237687  0.45811251  0.33561883  1
  Sn  Sn18  1  0.51237687  0.95811251  0.16438117  1
  Sn  Sn19  1  0.21828500  0.21828500  0.72030418  1
  Sn  Sn20  1  0.93512510  0.93512510  0.91361771  1
  Sn  Sn21  1  0.04188749  0.48762313  0.83561883  1
  Sn  Sn22  1  0.95811251  0.51237687  0.16438117  1
  Sn  Sn23  1  0.48762313  0.04188749  0.83561883  1
  Sn  Sn24  1  0.06487490  0.06487490  0.08638229  1
  Sn  Sn25  1  0.78171500  0.78171500  0.27969582  1
  Sn  Sn26  1  0.69753636  0.93439581  0.40704399  1
  Sn  Sn27  1  0.93439581  0.69753636  0.40704399  1
  Sn  Sn28  1  0.71828500  0.71828500  0.77969582  1
  Sn  Sn29  1  0.80246364  0.56560419  0.90704399  1
  Sn  Sn30  1  0.56487490  0.56487490  0.41361771  1
  Sn  Sn31  1  0.30246364  0.06560419  0.59295601  1
  Sn  Sn32  1  0.56560419  0.80246364  0.90704399  1
  Sn  Sn33  1  0.06560419  0.30246364  0.59295601  1
  Sn  Sn34  1  0.98762313  0.54188749  0.66438117  1
  Sn  Sn35  1  0.45811251  0.01237687  0.33561883  1
  Sn  Sn36  1  0.43512510  0.43512510  0.58638229  1
  Sn  Sn37  1  0.54188749  0.98762313  0.66438117  1
  Sn  Sn38  1  0.28171500  0.28171500  0.22030418  1
  Sn  Sn39  1  0.43439581  0.19753636  0.09295601  1
