# generated using pymatgen
data_Tb3P4Pd7
_symmetry_space_group_name_H-M   'P 1'
_cell_length_a   4.02176028
_cell_length_b   8.23416391
_cell_length_c   7.97233840
_cell_angle_alpha   71.09456574
_cell_angle_beta   75.39208447
_cell_angle_gamma   75.86326994
_symmetry_Int_Tables_number   1
_chemical_formula_structural   Tb3P4Pd7
_chemical_formula_sum   'Tb3 P4 Pd7'
_cell_volume   237.85545596
_cell_formula_units_Z   1
loop_
 _symmetry_equiv_pos_site_id
 _symmetry_equiv_pos_as_xyz
  1  'x, y, z'
loop_
 _atom_site_type_symbol
 _atom_site_label
 _atom_site_symmetry_multiplicity
 _atom_site_fract_x
 _atom_site_fract_y
 _atom_site_fract_z
 _atom_site_occupancy
  Tb  Tb0  1  0.31941859  0.67766680  0.68351680  1
  Tb  Tb1  1  0.68058141  0.32233320  0.31648320  1
  Tb  Tb2  1  0.00000000  0.00000000  0.00000000  1
  P  P3  1  0.65943433  0.74581799  0.93533353  1
  P  P4  1  0.34056567  0.25418201  0.06466647  1
  P  P5  1  0.10600195  0.18003952  0.60800738  1
  P  P6  1  0.89399805  0.81996048  0.39199262  1
  Pd  Pd7  1  0.69477273  0.97045449  0.64008427  1
  Pd  Pd8  1  0.30522727  0.02954551  0.35991573  1
  Pd  Pd9  1  0.49023784  0.28320895  0.73636035  1
  Pd  Pd10  1  0.16764562  0.57930427  0.08541620  1
  Pd  Pd11  1  0.50976216  0.71679105  0.26363965  1
  Pd  Pd12  1  0.83235438  0.42069573  0.91458380  1
  Pd  Pd13  1  0.00000000  0.50000000  0.50000000  1
