# generated using pymatgen
data_Sr8In4Cu3N5
_symmetry_space_group_name_H-M   'P 1'
_cell_length_a   3.85980576
_cell_length_b   11.55337862
_cell_length_c   11.55337866
_cell_angle_alpha   65.31263777
_cell_angle_beta   80.38410814
_cell_angle_gamma   80.38410368
_symmetry_Int_Tables_number   1
_chemical_formula_structural   Sr8In4Cu3N5
_chemical_formula_sum   'Sr8 In4 Cu3 N5'
_cell_volume   458.81286596
_cell_formula_units_Z   1
loop_
 _symmetry_equiv_pos_site_id
 _symmetry_equiv_pos_as_xyz
  1  'x, y, z'
loop_
 _atom_site_type_symbol
 _atom_site_label
 _atom_site_symmetry_multiplicity
 _atom_site_fract_x
 _atom_site_fract_y
 _atom_site_fract_z
 _atom_site_occupancy
  Sr  Sr0  1  0.28909850  0.56268935  0.85911364  1
  Sr  Sr1  1  0.09836238  0.74942326  0.05385198  1
  Sr  Sr2  1  0.71090150  0.43731065  0.14088636  1
  Sr  Sr3  1  0.28909850  0.85911364  0.56268935  1
  Sr  Sr4  1  0.71090150  0.14088636  0.43731065  1
  Sr  Sr5  1  0.90163762  0.25057674  0.94614802  1
  Sr  Sr6  1  0.09836238  0.05385198  0.74942326  1
  Sr  Sr7  1  0.90163762  0.94614802  0.25057674  1
  In  In8  1  0.50000000  0.64774549  0.35225451  1
  In  In9  1  0.50000000  0.35225451  0.64774549  1
  In  In10  1  0.08392763  0.41607237  0.41607237  1
  In  In11  1  0.91607237  0.58392763  0.58392763  1
  Cu  Cu12  1  0.30757832  0.19242168  0.19242168  1
  Cu  Cu13  1  0.69242168  0.80757832  0.80757832  1
  Cu  Cu14  1  0.50000000  0.00000000  0.00000000  1
  N  N15  1  0.30570334  0.34563281  0.04296051  1
  N  N16  1  0.69429666  0.95703949  0.65436719  1
  N  N17  1  0.30570334  0.04296051  0.34563281  1
  N  N18  1  0.00000000  0.00000000  0.00000000  1
  N  N19  1  0.69429666  0.65436719  0.95703949  1
