# generated using pymatgen
data_Cs2LiInCl6
_symmetry_space_group_name_H-M   'P 1'
_cell_length_a   13.03615116
_cell_length_b   13.03615129
_cell_length_c   13.03615059
_cell_angle_alpha   33.31001089
_cell_angle_beta   33.31001002
_cell_angle_gamma   33.31001049
_symmetry_Int_Tables_number   1
_chemical_formula_structural   Cs2LiInCl6
_chemical_formula_sum   'Cs4 Li2 In2 Cl12'
_cell_volume   594.87651957
_cell_formula_units_Z   2
loop_
 _symmetry_equiv_pos_site_id
 _symmetry_equiv_pos_as_xyz
  1  'x, y, z'
loop_
 _atom_site_type_symbol
 _atom_site_label
 _atom_site_symmetry_multiplicity
 _atom_site_fract_x
 _atom_site_fract_y
 _atom_site_fract_z
 _atom_site_occupancy
  Cs  Cs0  1  0.12613576  0.12613576  0.12613576  1
  Cs  Cs1  1  0.28929732  0.28929732  0.28929732  1
  Cs  Cs2  1  0.87386424  0.87386424  0.87386424  1
  Cs  Cs3  1  0.71070268  0.71070268  0.71070268  1
  Li  Li4  1  0.58910150  0.58910150  0.58910150  1
  Li  Li5  1  0.41089850  0.41089850  0.41089850  1
  In  In6  1  0.00000000  0.00000000  0.00000000  1
  In  In7  1  0.50000000  0.50000000  0.50000000  1
  Cl  Cl8  1  0.79814378  0.79814378  0.28454906  1
  Cl  Cl9  1  0.20185622  0.20185622  0.71545094  1
  Cl  Cl10  1  0.85479744  0.38549759  0.38549759  1
  Cl  Cl11  1  0.38549759  0.38549759  0.85479744  1
  Cl  Cl12  1  0.14520256  0.61450241  0.61450241  1
  Cl  Cl13  1  0.38549759  0.85479744  0.38549759  1
  Cl  Cl14  1  0.28454906  0.79814378  0.79814378  1
  Cl  Cl15  1  0.61450241  0.14520256  0.61450241  1
  Cl  Cl16  1  0.20185622  0.71545094  0.20185622  1
  Cl  Cl17  1  0.61450241  0.61450241  0.14520256  1
  Cl  Cl18  1  0.71545094  0.20185622  0.20185622  1
  Cl  Cl19  1  0.79814378  0.28454906  0.79814378  1
