# generated using pymatgen
data_Pr3CCl5
_symmetry_space_group_name_H-M   'P 1'
_cell_length_a   8.32508907
_cell_length_b   8.32508904
_cell_length_c   16.00403003
_cell_angle_alpha   83.77838006
_cell_angle_beta   83.77838009
_cell_angle_gamma   63.85259250
_symmetry_Int_Tables_number   1
_chemical_formula_structural   Pr3CCl5
_chemical_formula_sum   'Pr12 C4 Cl20'
_cell_volume   987.53126552
_cell_formula_units_Z   4
loop_
 _symmetry_equiv_pos_site_id
 _symmetry_equiv_pos_as_xyz
  1  'x, y, z'
loop_
 _atom_site_type_symbol
 _atom_site_label
 _atom_site_symmetry_multiplicity
 _atom_site_fract_x
 _atom_site_fract_y
 _atom_site_fract_z
 _atom_site_occupancy
  Pr  Pr0  1  0.09044854  0.34361006  0.29775716  1
  Pr  Pr1  1  0.28578697  0.45708313  0.93751709  1
  Pr  Pr2  1  0.90955146  0.65638994  0.70224284  1
  Pr  Pr3  1  0.54291687  0.71421303  0.56248291  1
  Pr  Pr4  1  0.99627214  0.28974393  0.54570559  1
  Pr  Pr5  1  0.65638994  0.90955146  0.20224284  1
  Pr  Pr6  1  0.71025607  0.00372786  0.95429441  1
  Pr  Pr7  1  0.71421303  0.54291687  0.06248291  1
  Pr  Pr8  1  0.00372786  0.71025607  0.45429441  1
  Pr  Pr9  1  0.45708313  0.28578697  0.43751709  1
  Pr  Pr10  1  0.34361006  0.09044854  0.79775716  1
  Pr  Pr11  1  0.28974393  0.99627214  0.04570559  1
  C  C12  1  0.84960221  0.60925456  0.57032581  1
  C  C13  1  0.39074544  0.15039779  0.92967419  1
  C  C14  1  0.60925456  0.84960221  0.07032581  1
  C  C15  1  0.15039779  0.39074544  0.42967419  1
  Cl  Cl16  1  0.61784250  0.34759220  0.57905184  1
  Cl  Cl17  1  0.38215750  0.65240780  0.42094816  1
  Cl  Cl18  1  0.98894066  0.28267418  0.73467357  1
  Cl  Cl19  1  0.90527066  0.15282321  0.40104396  1
  Cl  Cl20  1  0.09472934  0.84717679  0.59895604  1
  Cl  Cl21  1  0.01105934  0.71732582  0.26532643  1
  Cl  Cl22  1  0.46308982  0.27897849  0.25827931  1
  Cl  Cl23  1  0.90173159  0.62335712  0.90749019  1
  Cl  Cl24  1  0.65240780  0.38215750  0.92094816  1
  Cl  Cl25  1  0.53691018  0.72102151  0.74172069  1
  Cl  Cl26  1  0.27897849  0.46308982  0.75827931  1
  Cl  Cl27  1  0.28267418  0.98894066  0.23467357  1
  Cl  Cl28  1  0.15282321  0.90527066  0.90104396  1
  Cl  Cl29  1  0.84717679  0.09472934  0.09895604  1
  Cl  Cl30  1  0.37664288  0.09826841  0.59250981  1
  Cl  Cl31  1  0.62335712  0.90173159  0.40749019  1
  Cl  Cl32  1  0.72102151  0.53691018  0.24172069  1
  Cl  Cl33  1  0.71732582  0.01105934  0.76532643  1
  Cl  Cl34  1  0.09826841  0.37664288  0.09250981  1
  Cl  Cl35  1  0.34759220  0.61784250  0.07905184  1
