# generated using pymatgen
data_KTiPSe5
_symmetry_space_group_name_H-M   'P 1'
_cell_length_a   6.90934112
_cell_length_b   7.48534585
_cell_length_c   10.11478506
_cell_angle_alpha   111.71685356
_cell_angle_beta   98.27509468
_cell_angle_gamma   89.99999975
_symmetry_Int_Tables_number   1
_chemical_formula_structural   KTiPSe5
_chemical_formula_sum   'K2 Ti2 P2 Se10'
_cell_volume   480.12766091
_cell_formula_units_Z   2
loop_
 _symmetry_equiv_pos_site_id
 _symmetry_equiv_pos_as_xyz
  1  'x, y, z'
loop_
 _atom_site_type_symbol
 _atom_site_label
 _atom_site_symmetry_multiplicity
 _atom_site_fract_x
 _atom_site_fract_y
 _atom_site_fract_z
 _atom_site_occupancy
  K  K0  1  0.76650360  0.26874721  0.53749442  1
  K  K1  1  0.23349640  0.73125279  0.46250558  1
  Ti  Ti2  1  0.00000000  0.72315729  1.00000000  1
  Ti  Ti3  1  1.00000000  0.27684271  0.00000000  1
  P  P4  1  0.21130718  0.13609254  0.27218507  1
  P  P5  1  0.78869282  0.86390746  0.72781493  1
  Se  Se6  1  0.10618891  0.91650348  0.83300696  1
  Se  Se7  1  0.18293188  0.44177158  0.88354316  1
  Se  Se8  1  0.67266735  0.15450097  0.82967167  1
  Se  Se9  1  0.89381109  0.08349652  0.16699304  1
  Se  Se10  1  0.32733265  0.84549903  0.17032833  1
  Se  Se11  1  0.67266735  0.67517070  0.82967167  1
  Se  Se12  1  0.81706812  0.55822842  0.11645684  1
  Se  Se13  1  0.25758295  0.25322373  0.50644746  1
  Se  Se14  1  0.32733265  0.32482930  0.17032833  1
  Se  Se15  1  0.74241705  0.74677627  0.49355254  1
