# generated using pymatgen
data_Fe2(PO4)3
_symmetry_space_group_name_H-M   'P 1'
_cell_length_a   8.71382819
_cell_length_b   12.13575987
_cell_length_c   8.76714115
_cell_angle_alpha   90.00790265
_cell_angle_beta   90.01453676
_cell_angle_gamma   90.47547224
_symmetry_Int_Tables_number   1
_chemical_formula_structural   Fe2(PO4)3
_chemical_formula_sum   'Fe8 P12 O48'
_cell_volume   927.08380313
_cell_formula_units_Z   4
loop_
 _symmetry_equiv_pos_site_id
 _symmetry_equiv_pos_as_xyz
  1  'x, y, z'
loop_
 _atom_site_type_symbol
 _atom_site_label
 _atom_site_symmetry_multiplicity
 _atom_site_fract_x
 _atom_site_fract_y
 _atom_site_fract_z
 _atom_site_occupancy
  Fe  Fe0  1  0.25028938  0.38284797  0.96544711  1
  Fe  Fe1  1  0.75054845  0.11906583  0.96566451  1
  Fe  Fe2  1  0.75023961  0.88285354  0.53457785  1
  Fe  Fe3  1  0.24976039  0.11714646  0.46542215  1
  Fe  Fe4  1  0.24945155  0.88093417  0.03433549  1
  Fe  Fe5  1  0.74942109  0.38095389  0.46562551  1
  Fe  Fe6  1  0.25057891  0.61904611  0.53437449  1
  Fe  Fe7  1  0.74971062  0.61715203  0.03455289  1
  P  P8  1  0.89432496  0.14647961  0.61156589  1
  P  P9  1  0.96606456  0.50400702  0.75042089  1
  P  P10  1  0.10567504  0.85352039  0.38843411  1
  P  P11  1  0.03393544  0.49599298  0.24957911  1
  P  P12  1  0.89417422  0.85534104  0.89053680  1
  P  P13  1  0.39439091  0.64654102  0.88849650  1
  P  P14  1  0.60560909  0.35345898  0.11150350  1
  P  P15  1  0.53392952  0.99601079  0.25041615  1
  P  P16  1  0.10582578  0.14465896  0.10946320  1
  P  P17  1  0.39414367  0.35534981  0.60945585  1
  P  P18  1  0.60585633  0.64465019  0.39054415  1
  P  P19  1  0.46607048  0.00398921  0.74958385  1
  O  O20  1  0.34655029  0.26328746  0.49868204  1
  O  O21  1  0.06052193  0.43148213  0.85809885  1
  O  O22  1  0.83735424  0.56315274  0.83683295  1
  O  O23  1  0.84021723  0.82504469  0.72846824  1
  O  O24  1  0.93947807  0.56851787  0.14190115  1
  O  O25  1  0.15159472  0.97242322  0.42731351  1
  O  O26  1  0.66266355  0.93682822  0.33682840  1
  O  O27  1  0.65978820  0.67496173  0.22846362  1
  O  O28  1  0.56663435  0.66611590  0.91539239  1
  O  O29  1  0.93123802  0.40706418  0.32518628  1
  O  O30  1  0.84840528  0.02757678  0.57268649  1
  O  O31  1  0.33733645  0.06317178  0.66317160  1
  O  O32  1  0.89379313  0.42809888  0.62966626  1
  O  O33  1  0.07017401  0.87085427  0.89190916  1
  O  O34  1  0.63424418  0.32967846  0.28240041  1
  O  O35  1  0.43947742  0.06851565  0.35810135  1
  O  O36  1  0.57020769  0.37085152  0.60809325  1
  O  O37  1  0.36575582  0.67032154  0.71759959  1
  O  O38  1  0.60619960  0.07189878  0.12966951  1
  O  O39  1  0.06876198  0.59293582  0.67481372  1
  O  O40  1  0.34843761  0.52767037  0.92725889  1
  O  O41  1  0.56875736  0.09294569  0.82519082  1
  O  O42  1  0.81962469  0.96357590  0.94246090  1
  O  O43  1  0.18037531  0.03642410  0.05753910  1
  O  O44  1  0.92982599  0.12914573  0.10809084  1
  O  O45  1  0.65156239  0.47232963  0.07274111  1
  O  O46  1  0.65344971  0.73671254  0.50131796  1
  O  O47  1  0.93317962  0.83382410  0.41537834  1
  O  O48  1  0.56052258  0.93148435  0.64189865  1
  O  O49  1  0.80171659  0.22492211  0.50931775  1
  O  O50  1  0.31962850  0.46357451  0.55754258  1
  O  O51  1  0.43124264  0.90705431  0.17480918  1
  O  O52  1  0.19828341  0.77507789  0.49068225  1
  O  O53  1  0.84655357  0.76329327  0.00130659  1
  O  O54  1  0.34021180  0.32503827  0.77153638  1
  O  O55  1  0.06682038  0.16617590  0.58462166  1
  O  O56  1  0.10620687  0.57190112  0.37033374  1
  O  O57  1  0.86577094  0.17037169  0.78252686  1
  O  O58  1  0.15344643  0.23670673  0.99869341  1
  O  O59  1  0.43336565  0.33388410  0.08460761  1
  O  O60  1  0.69818338  0.27514107  0.00946097  1
  O  O61  1  0.13422906  0.82962831  0.21747314  1
  O  O62  1  0.42979231  0.62914848  0.39190675  1
  O  O63  1  0.39380040  0.92810122  0.87033049  1
  O  O64  1  0.30181662  0.72485893  0.99053903  1
  O  O65  1  0.15978277  0.17495531  0.27153176  1
  O  O66  1  0.68037150  0.53642549  0.44245742  1
  O  O67  1  0.16264576  0.43684726  0.16316705  1
