# generated using pymatgen
data_TlHg3Sb2Br3
_symmetry_space_group_name_H-M   'P 1'
_cell_length_a   6.76356339
_cell_length_b   13.48534510
_cell_length_c   13.51803001
_cell_angle_alpha   90.00000000
_cell_angle_beta   90.00000000
_cell_angle_gamma   90.00000000
_symmetry_Int_Tables_number   1
_chemical_formula_structural   TlHg3Sb2Br3
_chemical_formula_sum   'Tl4 Hg12 Sb8 Br12'
_cell_volume   1232.96581561
_cell_formula_units_Z   4
loop_
 _symmetry_equiv_pos_site_id
 _symmetry_equiv_pos_as_xyz
  1  'x, y, z'
loop_
 _atom_site_type_symbol
 _atom_site_label
 _atom_site_symmetry_multiplicity
 _atom_site_fract_x
 _atom_site_fract_y
 _atom_site_fract_z
 _atom_site_occupancy
  Tl  Tl0  1  -0.00187848  0.75000000  0.24247221  1
  Tl  Tl1  1  1.00187848  0.75000000  0.74247221  1
  Tl  Tl2  1  -0.00187848  0.25000000  0.25752779  1
  Tl  Tl3  1  1.00187848  0.25000000  0.75752779  1
  Hg  Hg4  1  0.46705615  0.00000000  0.25000000  1
  Hg  Hg5  1  0.53568238  0.75000000  0.98675704  1
  Hg  Hg6  1  0.46705615  0.50000000  0.25000000  1
  Hg  Hg7  1  0.53294385  0.00000000  0.75000000  1
  Hg  Hg8  1  0.46431762  0.25000000  0.01324296  1
  Hg  Hg9  1  0.00000000  0.50000000  0.00000000  1
  Hg  Hg10  1  0.00000000  0.50000000  0.50000000  1
  Hg  Hg11  1  0.53568238  0.25000000  0.51324296  1
  Hg  Hg12  1  0.46431762  0.75000000  0.48675704  1
  Hg  Hg13  1  0.53294385  0.50000000  0.75000000  1
  Hg  Hg14  1  0.00000000  0.00000000  0.00000000  1
  Hg  Hg15  1  0.00000000  0.00000000  0.50000000  1
  Sb  Sb16  1  0.37170620  0.94365379  0.44013455  1
  Sb  Sb17  1  0.62829380  0.94365379  0.94013455  1
  Sb  Sb18  1  0.37170620  0.55634621  0.44013455  1
  Sb  Sb19  1  0.62829380  0.55634621  0.94013455  1
  Sb  Sb20  1  0.37170620  0.44365379  0.05986545  1
  Sb  Sb21  1  0.37170620  0.05634621  0.05986545  1
  Sb  Sb22  1  0.62829380  0.44365379  0.55986545  1
  Sb  Sb23  1  0.62829380  0.05634621  0.55986545  1
  Br  Br24  1  0.53289768  0.75000000  0.20251660  1
  Br  Br25  1  0.53289768  0.25000000  0.29748340  1
  Br  Br26  1  0.89687355  0.25000000  0.00940204  1
  Br  Br27  1  0.89879252  0.00000000  0.25000000  1
  Br  Br28  1  0.46710232  0.75000000  0.70251660  1
  Br  Br29  1  0.89879252  0.50000000  0.25000000  1
  Br  Br30  1  0.10312645  0.75000000  0.99059796  1
  Br  Br31  1  0.10120748  0.50000000  0.75000000  1
  Br  Br32  1  0.89687355  0.75000000  0.49059796  1
  Br  Br33  1  0.10120748  0.00000000  0.75000000  1
  Br  Br34  1  0.10312645  0.25000000  0.50940204  1
  Br  Br35  1  0.46710232  0.25000000  0.79748340  1
