# generated using pymatgen
data_CsGa3
_symmetry_space_group_name_H-M   'P 1'
_cell_length_a   6.46482706
_cell_length_b   6.46482731
_cell_length_c   9.01643016
_cell_angle_alpha   111.00826112
_cell_angle_beta   111.00826190
_cell_angle_gamma   89.99999888
_symmetry_Int_Tables_number   1
_chemical_formula_structural   CsGa3
_chemical_formula_sum   'Cs3 Ga9'
_cell_volume   324.80955267
_cell_formula_units_Z   3
loop_
 _symmetry_equiv_pos_site_id
 _symmetry_equiv_pos_as_xyz
  1  'x, y, z'
loop_
 _atom_site_type_symbol
 _atom_site_label
 _atom_site_symmetry_multiplicity
 _atom_site_fract_x
 _atom_site_fract_y
 _atom_site_fract_z
 _atom_site_occupancy
  Cs  Cs0  1  -0.00000000  -0.00000000  -0.00000000  1
  Cs  Cs1  1  0.12982249  0.62982249  0.25964498  1
  Cs  Cs2  1  0.37017751  0.87017751  0.74035502  1
  Ga  Ga3  1  0.77600015  0.56245034  0.55200030  1
  Ga  Ga4  1  0.08547663  0.39424558  0.78849117  1
  Ga  Ga5  1  0.70301454  0.39424558  0.78849117  1
  Ga  Ga6  1  0.77600015  0.98954997  0.55200030  1
  Ga  Ga7  1  0.01045003  0.22399985  0.44799970  1
  Ga  Ga8  1  0.43754966  0.22399985  0.44799970  1
  Ga  Ga9  1  0.60575442  0.29698546  0.21150883  1
  Ga  Ga10  1  0.60575442  0.91452337  0.21150883  1
  Ga  Ga11  1  0.50000000  0.50000000  -0.00000000  1
