# generated using pymatgen
data_Er14(InPd)3
_symmetry_space_group_name_H-M   'P 1'
_cell_length_a   9.63643329
_cell_length_b   9.63643329
_cell_length_c   23.39381931
_cell_angle_alpha   90.00000000
_cell_angle_beta   90.00000000
_cell_angle_gamma   90.00000000
_symmetry_Int_Tables_number   1
_chemical_formula_structural   Er14(InPd)3
_chemical_formula_sum   'Er56 In12 Pd12'
_cell_volume   2172.36986523
_cell_formula_units_Z   4
loop_
 _symmetry_equiv_pos_site_id
 _symmetry_equiv_pos_as_xyz
  1  'x, y, z'
loop_
 _atom_site_type_symbol
 _atom_site_label
 _atom_site_symmetry_multiplicity
 _atom_site_fract_x
 _atom_site_fract_y
 _atom_site_fract_z
 _atom_site_occupancy
  Er  Er0  1  0.25000000  0.44309958  0.46620527  1
  Er  Er1  1  0.25000000  0.56205030  0.98318067  1
  Er  Er2  1  0.25000000  0.93794970  0.98318067  1
  Er  Er3  1  0.43606460  0.44194658  0.60425736  1
  Er  Er4  1  0.55805342  0.93606460  0.89574264  1
  Er  Er5  1  0.93423861  0.43423861  0.25000000  1
  Er  Er6  1  0.44194658  0.43606460  0.10425736  1
  Er  Er7  1  0.93606460  0.94194658  0.39574264  1
  Er  Er8  1  0.75000000  0.43794970  0.01681933  1
  Er  Er9  1  0.55690042  0.75000000  0.03379473  1
  Er  Er10  1  0.75000000  0.25000000  0.14564950  1
  Er  Er11  1  0.06393540  0.05805342  0.60425736  1
  Er  Er12  1  0.75000000  0.55690042  0.53379473  1
  Er  Er13  1  0.43423861  0.93423861  0.75000000  1
  Er  Er14  1  0.75000000  0.94309958  0.53379473  1
  Er  Er15  1  0.06576139  0.93423861  0.75000000  1
  Er  Er16  1  0.94309958  0.75000000  0.03379473  1
  Er  Er17  1  0.44309958  0.25000000  0.96620527  1
  Er  Er18  1  0.03762100  0.75000000  0.19245612  1
  Er  Er19  1  0.75000000  0.75000000  0.78688988  1
  Er  Er20  1  0.93794970  0.25000000  0.48318067  1
  Er  Er21  1  0.94194658  0.56393540  0.89574264  1
  Er  Er22  1  0.43423861  0.56576139  0.75000000  1
  Er  Er23  1  0.06205030  0.75000000  0.51681933  1
  Er  Er24  1  0.53762100  0.25000000  0.80754388  1
  Er  Er25  1  0.25000000  0.75000000  0.64564950  1
  Er  Er26  1  0.96237900  0.25000000  0.80754388  1
  Er  Er27  1  0.25000000  0.75000000  0.85435050  1
  Er  Er28  1  0.06393540  0.44194658  0.60425736  1
  Er  Er29  1  0.43606460  0.05805342  0.60425736  1
  Er  Er30  1  0.56393540  0.94194658  0.39574264  1
  Er  Er31  1  0.56576139  0.06576139  0.25000000  1
  Er  Er32  1  0.75000000  0.06205030  0.01681933  1
  Er  Er33  1  0.25000000  0.25000000  0.71311012  1
  Er  Er34  1  0.43794970  0.75000000  0.51681933  1
  Er  Er35  1  0.75000000  0.03762100  0.69245612  1
  Er  Er36  1  0.05805342  0.06393540  0.10425736  1
  Er  Er37  1  0.05690042  0.25000000  0.96620527  1
  Er  Er38  1  0.93423861  0.06576139  0.25000000  1
  Er  Er39  1  0.75000000  0.25000000  0.35435050  1
  Er  Er40  1  0.56205030  0.25000000  0.48318067  1
  Er  Er41  1  0.44194658  0.06393540  0.10425736  1
  Er  Er42  1  0.25000000  0.05690042  0.46620527  1
  Er  Er43  1  0.46237900  0.75000000  0.19245612  1
  Er  Er44  1  0.55805342  0.56393540  0.89574264  1
  Er  Er45  1  0.25000000  0.25000000  0.21311012  1
  Er  Er46  1  0.56576139  0.43423861  0.25000000  1
  Er  Er47  1  0.25000000  0.53762100  0.30754388  1
  Er  Er48  1  0.25000000  0.96237900  0.30754388  1
  Er  Er49  1  0.05805342  0.43606460  0.10425736  1
  Er  Er50  1  0.06576139  0.56576139  0.75000000  1
  Er  Er51  1  0.56393540  0.55805342  0.39574264  1
  Er  Er52  1  0.94194658  0.93606460  0.89574264  1
  Er  Er53  1  0.75000000  0.46237900  0.69245612  1
  Er  Er54  1  0.75000000  0.75000000  0.28688988  1
  Er  Er55  1  0.93606460  0.55805342  0.39574264  1
  In  In56  1  0.25000000  0.08859044  0.85512111  1
  In  In57  1  0.75000000  0.25000000  0.59176307  1
  In  In58  1  0.75000000  0.91140956  0.14487889  1
  In  In59  1  0.58859044  0.75000000  0.64487889  1
  In  In60  1  0.25000000  0.75000000  0.09176307  1
  In  In61  1  0.41140956  0.25000000  0.35512111  1
  In  In62  1  0.25000000  0.75000000  0.40823693  1
  In  In63  1  0.91140956  0.75000000  0.64487889  1
  In  In64  1  0.25000000  0.41140956  0.85512111  1
  In  In65  1  0.75000000  0.58859044  0.14487889  1
  In  In66  1  0.75000000  0.25000000  0.90823693  1
  In  In67  1  0.08859044  0.25000000  0.35512111  1
  Pd  Pd68  1  0.25000000  0.25000000  0.55373850  1
  Pd  Pd69  1  0.25000000  0.25000000  0.05373850  1
  Pd  Pd70  1  0.25000000  0.53703090  0.18934898  1
  Pd  Pd71  1  0.46296910  0.75000000  0.31065102  1
  Pd  Pd72  1  0.75000000  0.03703090  0.81065102  1
  Pd  Pd73  1  0.96296910  0.25000000  0.68934898  1
  Pd  Pd74  1  0.53703090  0.25000000  0.68934898  1
  Pd  Pd75  1  0.25000000  0.96296910  0.18934898  1
  Pd  Pd76  1  0.75000000  0.75000000  0.44626150  1
  Pd  Pd77  1  0.75000000  0.46296910  0.81065102  1
  Pd  Pd78  1  0.03703090  0.75000000  0.31065102  1
  Pd  Pd79  1  0.75000000  0.75000000  0.94626150  1
