# generated using pymatgen
data_Ni(PO3)4
_symmetry_space_group_name_H-M   'P 1'
_cell_length_a   7.39741981
_cell_length_b   7.39929864
_cell_length_c   10.05116920
_cell_angle_alpha   86.75470809
_cell_angle_beta   68.79595466
_cell_angle_gamma   115.53358485
_symmetry_Int_Tables_number   1
_chemical_formula_structural   Ni(PO3)4
_chemical_formula_sum   'Ni2 P8 O24'
_cell_volume   447.80565393
_cell_formula_units_Z   2
loop_
 _symmetry_equiv_pos_site_id
 _symmetry_equiv_pos_as_xyz
  1  'x, y, z'
loop_
 _atom_site_type_symbol
 _atom_site_label
 _atom_site_symmetry_multiplicity
 _atom_site_fract_x
 _atom_site_fract_y
 _atom_site_fract_z
 _atom_site_occupancy
  Ni  Ni0  1  0.00008673  -0.00004979  0.49993181  1
  Ni  Ni1  1  -0.00001709  0.49999829  0.99997123  1
  P  P2  1  0.26128007  0.26321930  0.98428961  1
  P  P3  1  0.74762786  0.24569881  0.51532508  1
  P  P4  1  0.99984181  0.66947565  0.31258888  1
  P  P5  1  0.25236612  0.75429803  0.48468130  1
  P  P6  1  0.73872050  0.73679341  0.01571748  1
  P  P7  1  0.48230516  0.31237890  0.18737913  1
  P  P8  1  0.51770423  0.68762516  0.81262055  1
  P  P9  1  0.00014477  0.33051159  0.68741751  1
  O  O10  1  0.47356086  0.45246301  0.84843853  1
  O  O11  1  0.94909968  0.33046802  0.84414416  1
  O  O12  1  0.05088983  0.66952149  0.15587058  1
  O  O13  1  0.10975185  0.33997793  0.07501382  1
  O  O14  1  0.08506304  0.81538701  0.57525091  1
  O  O15  1  0.19856458  0.67724404  0.34901977  1
  O  O16  1  0.04654899  0.15685659  0.64370960  1
  O  O17  1  0.21142776  0.54878256  0.58045108  1
  O  O18  1  0.37164356  0.20884468  0.07983801  1
  O  O19  1  0.49867165  0.90670376  0.41631885  1
  O  O20  1  0.52644233  0.54753740  0.15156576  1
  O  O21  1  0.32538442  0.20616802  0.34392479  1
  O  O22  1  0.30028418  0.69027044  0.85624863  1
  O  O23  1  0.82308447  0.91490965  0.08392235  1
  O  O24  1  0.17690281  0.08509037  0.91609593  1
  O  O25  1  0.91493039  0.18462461  0.42474778  1
  O  O26  1  0.67462684  0.79382628  0.65607515  1
  O  O27  1  0.89026115  0.66005440  0.92498228  1
  O  O28  1  0.50130724  0.09328288  0.58369493  1
  O  O29  1  0.62836200  0.79116312  0.92016632  1
  O  O30  1  0.78854306  0.45123475  0.41957017  1
  O  O31  1  0.95345410  0.84314978  0.35627872  1
  O  O32  1  0.80140833  0.32274386  0.65099908  1
  O  O33  1  0.69972672  0.30974399  0.14374722  1
