# generated using pymatgen
data_Nd2MoC2
_symmetry_space_group_name_H-M   'P 1'
_cell_length_a   5.84131955
_cell_length_b   5.84130618
_cell_length_c   10.38541345
_cell_angle_alpha   89.99985896
_cell_angle_beta   90.00005955
_cell_angle_gamma   90.00016606
_symmetry_Int_Tables_number   1
_chemical_formula_structural   Nd2MoC2
_chemical_formula_sum   'Nd8 Mo4 C8'
_cell_volume   354.36002752
_cell_formula_units_Z   4
loop_
 _symmetry_equiv_pos_site_id
 _symmetry_equiv_pos_as_xyz
  1  'x, y, z'
loop_
 _atom_site_type_symbol
 _atom_site_label
 _atom_site_symmetry_multiplicity
 _atom_site_fract_x
 _atom_site_fract_y
 _atom_site_fract_z
 _atom_site_occupancy
  Nd  Nd0  1  0.69814536  0.30185452  0.15595414  1
  Nd  Nd1  1  0.30185453  0.69814246  0.84404474  1
  Nd  Nd2  1  0.69814231  0.30185510  0.84404615  1
  Nd  Nd3  1  0.80184830  0.80185017  0.34405196  1
  Nd  Nd4  1  0.19815304  0.19815243  0.34405258  1
  Nd  Nd5  1  0.80184990  0.80185063  0.65594713  1
  Nd  Nd6  1  0.30185537  0.69814387  0.15595561  1
  Nd  Nd7  1  0.19815166  0.19815664  0.65594630  1
  Mo  Mo8  1  0.82406022  0.82405903  -0.00000037  1
  Mo  Mo9  1  0.67594149  0.32405940  0.50000187  1
  Mo  Mo10  1  0.17593769  0.17594106  0.00000047  1
  Mo  Mo11  1  0.32406272  0.67593893  0.50000027  1
  C  C12  1  0.50000120  -0.00000135  0.50000064  1
  C  C13  1  0.50000023  0.50000084  0.35595531  1
  C  C14  1  0.00000085  0.49999847  -0.00000060  1
  C  C15  1  0.49999884  0.49999943  0.64404361  1
  C  C16  1  0.99999933  0.99999892  0.85595879  1
  C  C17  1  0.00000038  0.00000113  0.14404110  1
  C  C18  1  0.99999807  0.49999916  0.50000062  1
  C  C19  1  0.49999851  0.99999916  -0.00000033  1
