# generated using pymatgen
data_Ni(PO3)4
_symmetry_space_group_name_H-M   'P 1'
_cell_length_a   8.60463708
_cell_length_b   8.60463707
_cell_length_c   7.75130165
_cell_angle_alpha   81.92301989
_cell_angle_beta   98.07698005
_cell_angle_gamma   67.33293462
_symmetry_Int_Tables_number   1
_chemical_formula_structural   Ni(PO3)4
_chemical_formula_sum   'Ni2 P8 O24'
_cell_volume   512.28427681
_cell_formula_units_Z   2
loop_
 _symmetry_equiv_pos_site_id
 _symmetry_equiv_pos_as_xyz
  1  'x, y, z'
loop_
 _atom_site_type_symbol
 _atom_site_label
 _atom_site_symmetry_multiplicity
 _atom_site_fract_x
 _atom_site_fract_y
 _atom_site_fract_z
 _atom_site_occupancy
  O  O0  1  0.68664779  0.64035587  0.92673999  1
  O  O1  1  0.87872855  0.87978870  0.75288344  1
  O  O2  1  0.12021128  0.12127117  0.25288389  1
  O  O3  1  0.10621382  0.35486608  0.82890426  1
  O  O4  1  0.00695346  0.73645345  0.50938581  1
  O  O5  1  0.15797656  0.62836637  0.83529541  1
  O  O6  1  0.35518721  0.10352611  0.68067504  1
  O  O7  1  0.09378672  0.85087161  0.17201908  1
  O  O8  1  0.14912792  0.90621287  0.67201866  1
  O  O9  1  0.37026916  0.38908543  0.73267185  1
  O  O10  1  0.35964411  0.31335217  0.42674040  1
  O  O11  1  0.34164951  0.35008556  0.05742788  1
  O  O12  1  0.62637745  0.15869167  0.67087411  1
  O  O13  1  0.26354607  0.99304727  0.00938603  1
  O  O14  1  0.37163368  0.84202331  0.33529455  1
  O  O15  1  0.99291151  0.26443518  0.49666431  1
  O  O16  1  0.61091419  0.62973062  0.23267223  1
  O  O17  1  0.89647381  0.64481349  0.18067403  1
  O  O18  1  0.84840520  0.09684449  0.33164305  1
  O  O19  1  0.64991495  0.65835031  0.55742758  1
  O  O20  1  0.90315569  0.15159403  0.83164279  1
  O  O21  1  0.64513366  0.89378650  0.32890458  1
  O  O22  1  0.84130891  0.37362292  0.17087326  1
  O  O23  1  0.73556558  0.00708818  0.99666488  1
  P  P24  1  0.57361592  0.75976936  0.36763182  1
  P  P25  1  0.76443159  0.57570359  0.12357530  1
  P  P26  1  0.04883709  0.79738373  0.67425005  1
  P  P27  1  0.24023024  0.42638314  0.86763279  1
  P  P28  1  0.42429660  0.23556843  0.62357492  1
  P  P29  1  0.20261670  0.95116362  0.17424912  1
  P  P30  1  0.79524452  0.05034244  0.83171177  1
  P  P31  1  0.94965657  0.20475567  0.33171071  1
  Ni  Ni32  1  0.87313856  0.87344259  0.25362915  1
  Ni  Ni33  1  0.12655688  0.12686144  0.75362867  1
