# generated using pymatgen
data_DyGaCo
_symmetry_space_group_name_H-M   'P 1'
_cell_length_a   4.39394970
_cell_length_b   6.90190359
_cell_length_c   7.01129964
_cell_angle_alpha   89.99157625
_cell_angle_beta   89.99517653
_cell_angle_gamma   89.99917778
_symmetry_Int_Tables_number   1
_chemical_formula_structural   DyGaCo
_chemical_formula_sum   'Dy4 Ga4 Co4'
_cell_volume   212.62899756
_cell_formula_units_Z   4
loop_
 _symmetry_equiv_pos_site_id
 _symmetry_equiv_pos_as_xyz
  1  'x, y, z'
loop_
 _atom_site_type_symbol
 _atom_site_label
 _atom_site_symmetry_multiplicity
 _atom_site_fract_x
 _atom_site_fract_y
 _atom_site_fract_z
 _atom_site_occupancy
  Dy  Dy0  1  0.24999947  0.19662592  0.01915133  1
  Dy  Dy1  1  0.24998573  0.30373122  0.51930294  1
  Dy  Dy2  1  0.75000475  0.69630617  0.48077002  1
  Dy  Dy3  1  0.75002563  0.80336492  0.98066114  1
  Ga  Ga4  1  0.25002142  0.89581173  0.69458736  1
  Ga  Ga5  1  0.74999992  0.39617689  0.80562204  1
  Ga  Ga6  1  0.25001560  0.60398832  0.19432632  1
  Ga  Ga7  1  0.74997717  0.10399098  0.30544182  1
  Co  Co8  1  0.24997839  0.93409645  0.34242316  1
  Co  Co9  1  0.25001835  0.56585188  0.84252003  1
  Co  Co10  1  0.74999381  0.06592506  0.65763561  1
  Co  Co11  1  0.74997977  0.43413047  0.15755823  1
