# generated using pymatgen
data_Zn(BH4)2
_symmetry_space_group_name_H-M   'P 1'
_cell_length_a   4.23295575
_cell_length_b   4.98437597
_cell_length_c   8.16089814
_cell_angle_alpha   90.00000000
_cell_angle_beta   90.00000000
_cell_angle_gamma   90.00000000
_symmetry_Int_Tables_number   1
_chemical_formula_structural   Zn(BH4)2
_chemical_formula_sum   'Zn2 B4 H16'
_cell_volume   172.18387578
_cell_formula_units_Z   2
loop_
 _symmetry_equiv_pos_site_id
 _symmetry_equiv_pos_as_xyz
  1  'x, y, z'
loop_
 _atom_site_type_symbol
 _atom_site_label
 _atom_site_symmetry_multiplicity
 _atom_site_fract_x
 _atom_site_fract_y
 _atom_site_fract_z
 _atom_site_occupancy
  Zn  Zn0  1  0.00000000  0.28331079  0.00996078  1
  Zn  Zn1  1  0.00000000  0.71668921  0.50996078  1
  B  B2  1  0.50000000  0.93789003  0.46986774  1
  B  B3  1  0.00000000  0.53796959  0.24853480  1
  B  B4  1  0.00000000  0.46203041  0.74853480  1
  B  B5  1  0.50000000  0.06210997  0.96986774  1
  H  H6  1  0.50000000  0.29889413  0.92966581  1
  H  H7  1  0.71960990  0.00592263  0.06732130  1
  H  H8  1  0.74998771  0.48479310  0.18005297  1
  H  H9  1  0.00000000  0.21760762  0.75996822  1
  H  H10  1  0.00000000  0.40161033  0.37557165  1
  H  H11  1  0.25001229  0.48479310  0.18005297  1
  H  H12  1  0.28039010  0.00592263  0.06732130  1
  H  H13  1  0.00000000  0.78239238  0.25996822  1
  H  H14  1  0.50000000  0.08068446  0.35273245  1
  H  H15  1  0.25001229  0.51520690  0.68005297  1
  H  H16  1  0.50000000  0.91931554  0.85273245  1
  H  H17  1  0.50000000  0.70110587  0.42966581  1
  H  H18  1  0.00000000  0.59838967  0.87557165  1
  H  H19  1  0.71960990  0.99407737  0.56732130  1
  H  H20  1  0.28039010  0.99407737  0.56732130  1
  H  H21  1  0.74998771  0.51520690  0.68005297  1
