# generated using pymatgen
data_Ba5Ga5Pb
_symmetry_space_group_name_H-M   'P 1'
_cell_length_a   6.13733458
_cell_length_b   6.13736781
_cell_length_c   10.88734403
_cell_angle_alpha   90.00070791
_cell_angle_beta   89.99967194
_cell_angle_gamma   119.99821750
_symmetry_Int_Tables_number   1
_chemical_formula_structural   Ba5Ga5Pb
_chemical_formula_sum   'Ba5 Ga5 Pb1'
_cell_volume   355.15859491
_cell_formula_units_Z   1
loop_
 _symmetry_equiv_pos_site_id
 _symmetry_equiv_pos_as_xyz
  1  'x, y, z'
loop_
 _atom_site_type_symbol
 _atom_site_label
 _atom_site_symmetry_multiplicity
 _atom_site_fract_x
 _atom_site_fract_y
 _atom_site_fract_z
 _atom_site_occupancy
  Ba  Ba0  1  0.99999785  0.99999521  0.33249270  1
  Ba  Ba1  1  0.66667155  0.33334218  0.20554001  1
  Ba  Ba2  1  0.66667405  0.33332869  0.79446204  1
  Ba  Ba3  1  0.99999784  0.00000490  0.66750502  1
  Ba  Ba4  1  0.33332773  0.66666577  0.00000342  1
  Ga  Ga5  1  0.33333295  0.66666625  0.67322102  1
  Ga  Ga6  1  0.51657657  0.48342254  0.49999942  1
  Ga  Ga7  1  0.51657795  0.03315609  0.49999888  1
  Ga  Ga8  1  0.33333265  0.66666694  0.32677826  1
  Ga  Ga9  1  0.96684503  0.48342263  0.49999933  1
  Pb  Pb10  1  -0.00000117  -0.00000420  0.99999989  1
