# generated using pymatgen
data_Ni2P3O11
_symmetry_space_group_name_H-M   'P 1'
_cell_length_a   7.31034053
_cell_length_b   7.31034053
_cell_length_c   9.07583823
_cell_angle_alpha   70.96870579
_cell_angle_beta   109.03129422
_cell_angle_gamma   107.05873111
_symmetry_Int_Tables_number   1
_chemical_formula_structural   Ni2P3O11
_chemical_formula_sum   'Ni4 P6 O22'
_cell_volume   423.85183259
_cell_formula_units_Z   2
loop_
 _symmetry_equiv_pos_site_id
 _symmetry_equiv_pos_as_xyz
  1  'x, y, z'
loop_
 _atom_site_type_symbol
 _atom_site_label
 _atom_site_symmetry_multiplicity
 _atom_site_fract_x
 _atom_site_fract_y
 _atom_site_fract_z
 _atom_site_occupancy
  O  O0  1  0.36765168  0.26524151  0.07282701  1
  O  O1  1  0.94678631  0.75760548  0.22603640  1
  O  O2  1  0.73536167  0.37356326  0.17498636  1
  O  O3  1  0.00513668  0.87180498  0.89891091  1
  O  O4  1  0.05316752  0.24234840  0.77397805  1
  O  O5  1  0.26462727  0.62637019  0.82507234  1
  O  O6  1  0.99482777  0.12815801  0.10108003  1
  O  O7  1  0.24234877  0.05316749  0.72602247  1
  O  O8  1  0.14892123  0.52837092  0.12987827  1
  O  O9  1  0.12815770  0.99482725  0.39891940  1
  O  O10  1  0.47158085  0.85103952  0.62990521  1
  O  O11  1  0.26524210  0.36765271  0.42717340  1
  O  O12  1  0.37356288  0.73536184  0.32501287  1
  O  O13  1  0.85103956  0.47158163  0.87009501  1
  O  O14  1  0.49168234  0.49168205  0.74999971  1
  O  O15  1  0.50827552  0.50827529  0.25000033  1
  O  O16  1  0.75760455  0.94678553  0.27396293  1
  O  O17  1  0.62637052  0.26462849  0.67492668  1
  O  O18  1  0.73469447  0.63235284  0.57280277  1
  O  O19  1  0.52837079  0.14892193  0.37012203  1
  O  O20  1  0.87180495  0.00513588  0.60108971  1
  O  O21  1  0.63235298  0.73469370  0.92719789  1
  P  P22  1  0.46248449  0.68294872  0.78498812  1
  P  P23  1  0.31699115  0.53748012  0.28497439  1
  P  P24  1  0.68294849  0.46248488  0.71501213  1
  P  P25  1  0.53748021  0.31699109  0.21502502  1
  P  P26  1  0.03893102  0.03893083  0.74999968  1
  P  P27  1  0.96097192  0.96097091  0.25000053  1
  Ni  Ni28  1  0.88266727  0.62301019  0.04819600  1
  Ni  Ni29  1  0.62300962  0.88266618  0.45180466  1
  Ni  Ni30  1  0.37692586  0.11730029  0.54818464  1
  Ni  Ni31  1  0.11729929  0.37692602  0.95181547  1
