# generated using pymatgen
data_La4MgRu
_symmetry_space_group_name_H-M   'P 1'
_cell_length_a   10.14708003
_cell_length_b   10.14694382
_cell_length_c   10.14794488
_cell_angle_alpha   60.00592875
_cell_angle_beta   59.99771547
_cell_angle_gamma   60.00014310
_symmetry_Int_Tables_number   1
_chemical_formula_structural   La4MgRu
_chemical_formula_sum   'La16 Mg4 Ru4'
_cell_volume   738.84249993
_cell_formula_units_Z   4
loop_
 _symmetry_equiv_pos_site_id
 _symmetry_equiv_pos_as_xyz
  1  'x, y, z'
loop_
 _atom_site_type_symbol
 _atom_site_label
 _atom_site_symmetry_multiplicity
 _atom_site_fract_x
 _atom_site_fract_y
 _atom_site_fract_z
 _atom_site_occupancy
  La  La0  1  0.93979452  0.93980192  0.56019957  1
  La  La1  1  0.93980974  0.56020481  0.93979370  1
  La  La2  1  0.56021171  0.93979047  0.56020215  1
  La  La3  1  0.56019312  0.56020846  0.93980010  1
  La  La4  1  0.34409349  0.96770545  0.34408367  1
  La  La5  1  0.81222319  0.81223194  0.18776342  1
  La  La6  1  0.18776603  0.81221759  0.81224463  1
  La  La7  1  0.81224291  0.18777040  0.18777043  1
  La  La8  1  0.34410053  0.34410223  0.96769871  1
  La  La9  1  0.18777556  0.18776145  0.81224512  1
  La  La10  1  0.96770758  0.34409445  0.34409588  1
  La  La11  1  0.34410286  0.34410182  0.34408824  1
  La  La12  1  0.56021207  0.93979633  0.93979897  1
  La  La13  1  0.93979321  0.56020642  0.56021389  1
  La  La14  1  0.81221536  0.18777932  0.81222478  1
  La  La15  1  0.18776934  0.81224341  0.18777035  1
  Mg  Mg16  1  0.57804158  0.57804005  0.57807422  1
  Mg  Mg17  1  0.57804544  0.57806885  0.26582310  1
  Mg  Mg18  1  0.26583511  0.57805525  0.57806369  1
  Mg  Mg19  1  0.57806222  0.26582609  0.57806903  1
  Ru  Ru20  1  0.13725591  0.13727063  0.58820006  1
  Ru  Ru21  1  0.13727700  0.13725975  0.13726720  1
  Ru  Ru22  1  0.58819503  0.13727244  0.13725385  1
  Ru  Ru23  1  0.13727648  0.58819047  0.13725525  1
