# generated using pymatgen
data_Pr4MgRu
_symmetry_space_group_name_H-M   'P 1'
_cell_length_a   10.09101019
_cell_length_b   10.09106576
_cell_length_c   10.09095120
_cell_angle_alpha   59.99984984
_cell_angle_beta   59.99913163
_cell_angle_gamma   60.00001643
_symmetry_Int_Tables_number   1
_chemical_formula_structural   Pr4MgRu
_chemical_formula_sum   'Pr16 Mg4 Ru4'
_cell_volume   726.58344766
_cell_formula_units_Z   4
loop_
 _symmetry_equiv_pos_site_id
 _symmetry_equiv_pos_as_xyz
  1  'x, y, z'
loop_
 _atom_site_type_symbol
 _atom_site_label
 _atom_site_symmetry_multiplicity
 _atom_site_fract_x
 _atom_site_fract_y
 _atom_site_fract_z
 _atom_site_occupancy
  Pr  Pr0  1  0.93863591  0.93863889  0.56135980  1
  Pr  Pr1  1  0.81158947  0.18841270  0.81158625  1
  Pr  Pr2  1  0.34463775  0.96607291  0.34464249  1
  Pr  Pr3  1  0.56136481  0.93863761  0.93863494  1
  Pr  Pr4  1  0.93863658  0.56136356  0.93863571  1
  Pr  Pr5  1  0.56136729  0.56136577  0.93863282  1
  Pr  Pr6  1  0.93863732  0.56135869  0.56136869  1
  Pr  Pr7  1  0.34464395  0.34464197  0.96607303  1
  Pr  Pr8  1  0.34464054  0.34463989  0.34464527  1
  Pr  Pr9  1  0.81158913  0.81159353  0.18841056  1
  Pr  Pr10  1  0.56136347  0.93863341  0.56136549  1
  Pr  Pr11  1  0.81159223  0.18841034  0.18840963  1
  Pr  Pr12  1  0.96607435  0.34463754  0.34464588  1
  Pr  Pr13  1  0.18841703  0.81158779  0.81158547  1
  Pr  Pr14  1  0.18840771  0.18840913  0.81159278  1
  Pr  Pr15  1  0.18840714  0.81159146  0.18841546  1
  Mg  Mg16  1  0.57846320  0.26461313  0.57846170  1
  Mg  Mg17  1  0.57846209  0.57846316  0.57846260  1
  Mg  Mg18  1  0.26461096  0.57846448  0.57846144  1
  Mg  Mg19  1  0.57846202  0.57846300  0.26461213  1
  Ru  Ru20  1  0.13800865  0.58597395  0.13800531  1
  Ru  Ru21  1  0.58597357  0.13800860  0.13801014  1
  Ru  Ru22  1  0.13800832  0.13801070  0.13800551  1
  Ru  Ru23  1  0.13800650  0.13800779  0.58597690  1
