# generated using pymatgen
data_Ca3InAu3
_symmetry_space_group_name_H-M   'P 1'
_cell_length_a   4.63163672
_cell_length_b   9.05368410
_cell_length_c   16.79575130
_cell_angle_alpha   90.00000000
_cell_angle_beta   90.00000000
_cell_angle_gamma   90.00000000
_symmetry_Int_Tables_number   1
_chemical_formula_structural   Ca3InAu3
_chemical_formula_sum   'Ca12 In4 Au12'
_cell_volume   704.30254991
_cell_formula_units_Z   4
loop_
 _symmetry_equiv_pos_site_id
 _symmetry_equiv_pos_as_xyz
  1  'x, y, z'
loop_
 _atom_site_type_symbol
 _atom_site_label
 _atom_site_symmetry_multiplicity
 _atom_site_fract_x
 _atom_site_fract_y
 _atom_site_fract_z
 _atom_site_occupancy
  Ca  Ca0  1  0.75000000  0.02541513  0.84467870  1
  Ca  Ca1  1  0.75000000  0.47458487  0.34467870  1
  Ca  Ca2  1  0.25000000  0.97458487  0.15532130  1
  Ca  Ca3  1  0.75000000  0.25047810  0.55548181  1
  Ca  Ca4  1  0.25000000  0.75047810  0.94451819  1
  Ca  Ca5  1  0.75000000  0.24952190  0.05548181  1
  Ca  Ca6  1  0.25000000  0.13047860  0.36641388  1
  Ca  Ca7  1  0.25000000  0.74952190  0.44451819  1
  Ca  Ca8  1  0.75000000  0.86952140  0.63358612  1
  Ca  Ca9  1  0.75000000  0.63047860  0.13358612  1
  Ca  Ca10  1  0.25000000  0.36952140  0.86641388  1
  Ca  Ca11  1  0.25000000  0.52541513  0.65532130  1
  In  In12  1  0.75000000  0.63625835  0.79301361  1
  In  In13  1  0.25000000  0.36374165  0.20698639  1
  In  In14  1  0.25000000  0.13625835  0.70698639  1
  In  In15  1  0.75000000  0.86374165  0.29301361  1
  Au  Au16  1  0.75000000  0.17408326  0.23821471  1
  Au  Au17  1  0.25000000  0.46647530  0.04753551  1
  Au  Au18  1  0.75000000  0.32591674  0.73821471  1
  Au  Au19  1  0.25000000  0.08542299  0.97021516  1
  Au  Au20  1  0.25000000  0.03352470  0.54753551  1
  Au  Au21  1  0.25000000  0.82591674  0.76178529  1
  Au  Au22  1  0.75000000  0.53352470  0.95246449  1
  Au  Au23  1  0.75000000  0.58542299  0.52978484  1
  Au  Au24  1  0.75000000  0.96647530  0.45246449  1
  Au  Au25  1  0.25000000  0.67408326  0.26178529  1
  Au  Au26  1  0.25000000  0.41457701  0.47021516  1
  Au  Au27  1  0.75000000  0.91457701  0.02978484  1
