# generated using pymatgen
data_CeAsSe
_symmetry_space_group_name_H-M   'P 1'
_cell_length_a   5.73710792
_cell_length_b   5.75300361
_cell_length_c   17.37520269
_cell_angle_alpha   90.00000000
_cell_angle_beta   90.00000000
_cell_angle_gamma   90.00000000
_symmetry_Int_Tables_number   1
_chemical_formula_structural   CeAsSe
_chemical_formula_sum   'Ce8 As8 Se8'
_cell_volume   573.47903464
_cell_formula_units_Z   8
loop_
 _symmetry_equiv_pos_site_id
 _symmetry_equiv_pos_as_xyz
  1  'x, y, z'
loop_
 _atom_site_type_symbol
 _atom_site_label
 _atom_site_symmetry_multiplicity
 _atom_site_fract_x
 _atom_site_fract_y
 _atom_site_fract_z
 _atom_site_occupancy
  Ce  Ce0  1  0.75000000  0.50506101  0.36494925  1
  Ce  Ce1  1  0.25000000  0.49493899  0.63505075  1
  Ce  Ce2  1  0.25000000  0.50490238  0.13893319  1
  Ce  Ce3  1  0.25000000  0.99493899  0.86494925  1
  Ce  Ce4  1  0.75000000  0.99509762  0.63893319  1
  Ce  Ce5  1  0.75000000  0.00506101  0.13505075  1
  Ce  Ce6  1  0.25000000  0.00490238  0.36106681  1
  Ce  Ce7  1  0.75000000  0.49509762  0.86106681  1
  As  As8  1  0.50098130  0.73180715  0.00004685  1
  As  As9  1  0.49901870  0.76819285  0.50004685  1
  As  As10  1  0.00098130  0.76819285  0.50004685  1
  As  As11  1  0.49901870  0.26819285  0.99995315  1
  As  As12  1  0.00098130  0.26819285  0.99995315  1
  As  As13  1  0.99901870  0.73180715  0.00004685  1
  As  As14  1  0.50098130  0.23180715  0.49995315  1
  As  As15  1  0.99901870  0.23180715  0.49995315  1
  Se  Se16  1  0.75000000  0.99327093  0.81755995  1
  Se  Se17  1  0.25000000  0.49338320  0.81440219  1
  Se  Se18  1  0.75000000  0.49327093  0.68244005  1
  Se  Se19  1  0.75000000  0.00661680  0.31440219  1
  Se  Se20  1  0.25000000  0.99338320  0.68559781  1
  Se  Se21  1  0.25000000  0.50672907  0.31755995  1
  Se  Se22  1  0.25000000  0.00672907  0.18244005  1
  Se  Se23  1  0.75000000  0.50661680  0.18559781  1
