# generated using pymatgen
data_Nd4MgRu
_symmetry_space_group_name_H-M   'P 1'
_cell_length_a   10.01572362
_cell_length_b   10.01572370
_cell_length_c   10.01572326
_cell_angle_alpha   59.99999807
_cell_angle_beta   59.99999776
_cell_angle_gamma   60.00000076
_symmetry_Int_Tables_number   1
_chemical_formula_structural   Nd4MgRu
_chemical_formula_sum   'Nd16 Mg4 Ru4'
_cell_volume   710.44747370
_cell_formula_units_Z   4
loop_
 _symmetry_equiv_pos_site_id
 _symmetry_equiv_pos_as_xyz
  1  'x, y, z'
loop_
 _atom_site_type_symbol
 _atom_site_label
 _atom_site_symmetry_multiplicity
 _atom_site_fract_x
 _atom_site_fract_y
 _atom_site_fract_z
 _atom_site_occupancy
  Nd  Nd0  1  0.81155058  0.18844942  0.81155058  1
  Nd  Nd1  1  0.06122048  0.43877952  0.43877952  1
  Nd  Nd2  1  0.06122048  0.43877952  0.06122048  1
  Nd  Nd3  1  0.43877952  0.06122048  0.43877952  1
  Nd  Nd4  1  0.03344265  0.65551912  0.65551912  1
  Nd  Nd5  1  0.43877952  0.06122048  0.06122048  1
  Nd  Nd6  1  0.18844942  0.81155058  0.18844942  1
  Nd  Nd7  1  0.43877952  0.43877952  0.06122048  1
  Nd  Nd8  1  0.81155058  0.18844942  0.18844942  1
  Nd  Nd9  1  0.65551912  0.65551912  0.03344265  1
  Nd  Nd10  1  0.18844942  0.18844942  0.81155058  1
  Nd  Nd11  1  0.06122048  0.06122048  0.43877952  1
  Nd  Nd12  1  0.18844942  0.81155058  0.81155058  1
  Nd  Nd13  1  0.65551912  0.65551912  0.65551912  1
  Nd  Nd14  1  0.81155058  0.81155058  0.18844942  1
  Nd  Nd15  1  0.65551912  0.03344265  0.65551912  1
  Mg  Mg16  1  0.73562682  0.42145773  0.42145773  1
  Mg  Mg17  1  0.42145773  0.73562682  0.42145773  1
  Mg  Mg18  1  0.42145773  0.42145773  0.73562682  1
  Mg  Mg19  1  0.42145773  0.42145773  0.42145773  1
  Ru  Ru20  1  0.86198434  0.86198434  0.41404697  1
  Ru  Ru21  1  0.86198434  0.41404697  0.86198434  1
  Ru  Ru22  1  0.86198434  0.86198434  0.86198434  1
  Ru  Ru23  1  0.41404697  0.86198434  0.86198434  1
