# generated using pymatgen
data_Li2B2Rh3
_symmetry_space_group_name_H-M   'P 1'
_cell_length_a   2.85568766
_cell_length_b   5.76706433
_cell_length_c   9.56716906
_cell_angle_alpha   90.00000000
_cell_angle_beta   90.00000000
_cell_angle_gamma   90.00000000
_symmetry_Int_Tables_number   1
_chemical_formula_structural   Li2B2Rh3
_chemical_formula_sum   'Li4 B4 Rh6'
_cell_volume   157.56108004
_cell_formula_units_Z   2
loop_
 _symmetry_equiv_pos_site_id
 _symmetry_equiv_pos_as_xyz
  1  'x, y, z'
loop_
 _atom_site_type_symbol
 _atom_site_label
 _atom_site_symmetry_multiplicity
 _atom_site_fract_x
 _atom_site_fract_y
 _atom_site_fract_z
 _atom_site_occupancy
  Li  Li0  1  0.50000000  0.84270504  0.57628800  1
  Li  Li1  1  0.50000000  0.15729496  0.42371200  1
  Li  Li2  1  0.50000000  0.65729496  0.07628800  1
  Li  Li3  1  0.50000000  0.34270504  0.92371200  1
  B  B4  1  0.50000000  0.56087319  0.33204775  1
  B  B5  1  0.50000000  0.06087319  0.16795225  1
  B  B6  1  0.50000000  0.93912681  0.83204775  1
  B  B7  1  0.50000000  0.43912681  0.66795225  1
  Rh  Rh8  1  0.00000000  0.83175560  0.27822694  1
  Rh  Rh9  1  -0.00000000  0.66824440  0.77822694  1
  Rh  Rh10  1  -0.00000000  0.00000000  -0.00000000  1
  Rh  Rh11  1  0.00000000  0.16824440  0.72177306  1
  Rh  Rh12  1  0.00000000  0.33175560  0.22177306  1
  Rh  Rh13  1  0.00000000  0.50000000  0.50000000  1
