# generated using pymatgen
data_Cs2SnCl6
_symmetry_space_group_name_H-M   'P 1'
_cell_length_a   7.54191895
_cell_length_b   7.54192102
_cell_length_c   7.54192087
_cell_angle_alpha   59.99999567
_cell_angle_beta   60.00005989
_cell_angle_gamma   60.00005943
_symmetry_Int_Tables_number   1
_chemical_formula_structural   Cs2SnCl6
_chemical_formula_sum   'Cs2 Sn1 Cl6'
_cell_volume   303.34105431
_cell_formula_units_Z   1
loop_
 _symmetry_equiv_pos_site_id
 _symmetry_equiv_pos_as_xyz
  1  'x, y, z'
loop_
 _atom_site_type_symbol
 _atom_site_label
 _atom_site_symmetry_multiplicity
 _atom_site_fract_x
 _atom_site_fract_y
 _atom_site_fract_z
 _atom_site_occupancy
  Cs  Cs0  1  0.25000016  0.24999973  0.25000010  1
  Cs  Cs1  1  0.75000004  0.75000016  0.75000007  1
  Sn  Sn2  1  0.00000004  0.00000012  -0.00000030  1
  Cl  Cl3  1  0.23292233  0.76707779  0.23292234  1
  Cl  Cl4  1  0.23292215  0.23292229  0.76707781  1
  Cl  Cl5  1  0.76707740  0.23292264  0.23292236  1
  Cl  Cl6  1  0.76707779  0.23292167  0.76707776  1
  Cl  Cl7  1  0.76707785  0.76707798  0.23292199  1
  Cl  Cl8  1  0.23292225  0.76707761  0.76707787  1
