# generated using pymatgen
data_PrZnRh
_symmetry_space_group_name_H-M   'P 1'
_cell_length_a   4.05842249
_cell_length_b   7.33788956
_cell_length_c   16.64895380
_cell_angle_alpha   90.00000000
_cell_angle_beta   90.00000000
_cell_angle_gamma   90.00000000
_symmetry_Int_Tables_number   1
_chemical_formula_structural   PrZnRh
_chemical_formula_sum   'Pr8 Zn8 Rh8'
_cell_volume   495.81010662
_cell_formula_units_Z   8
loop_
 _symmetry_equiv_pos_site_id
 _symmetry_equiv_pos_as_xyz
  1  'x, y, z'
loop_
 _atom_site_type_symbol
 _atom_site_label
 _atom_site_symmetry_multiplicity
 _atom_site_fract_x
 _atom_site_fract_y
 _atom_site_fract_z
 _atom_site_occupancy
  Pr  Pr0  1  0.75000000  0.95289534  0.71652582  1
  Pr  Pr1  1  0.75000000  0.45289534  0.78347418  1
  Pr  Pr2  1  0.75000000  0.33246064  0.56054431  1
  Pr  Pr3  1  0.25000000  0.54710466  0.21652582  1
  Pr  Pr4  1  0.25000000  0.66753936  0.43945569  1
  Pr  Pr5  1  0.25000000  0.04710466  0.28347418  1
  Pr  Pr6  1  0.75000000  0.83246064  0.93945569  1
  Pr  Pr7  1  0.25000000  0.16753936  0.06054431  1
  Zn  Zn8  1  0.25000000  0.49859556  0.93953399  1
  Zn  Zn9  1  0.75000000  0.00140444  0.43953399  1
  Zn  Zn10  1  0.75000000  0.50140444  0.06046601  1
  Zn  Zn11  1  0.25000000  0.12557737  0.84974108  1
  Zn  Zn12  1  0.75000000  0.87442263  0.15025892  1
  Zn  Zn13  1  0.75000000  0.37442263  0.34974108  1
  Zn  Zn14  1  0.25000000  0.99859556  0.56046601  1
  Zn  Zn15  1  0.25000000  0.62557737  0.65025892  1
  Rh  Rh16  1  0.25000000  0.74188480  0.06492419  1
  Rh  Rh17  1  0.75000000  0.75811520  0.56492419  1
  Rh  Rh18  1  0.25000000  0.74797231  0.81413896  1
  Rh  Rh19  1  0.75000000  0.75202769  0.31413896  1
  Rh  Rh20  1  0.25000000  0.24188480  0.43507581  1
  Rh  Rh21  1  0.75000000  0.25202769  0.18586104  1
  Rh  Rh22  1  0.75000000  0.25811520  0.93507581  1
  Rh  Rh23  1  0.25000000  0.24797231  0.68586104  1
