# generated using pymatgen
data_UFeGe
_symmetry_space_group_name_H-M   'P 1'
_cell_length_a   4.43672008
_cell_length_b   7.13657330
_cell_length_c   6.91394098
_cell_angle_alpha   94.09825100
_cell_angle_beta   90.00000000
_cell_angle_gamma   90.00000000
_symmetry_Int_Tables_number   1
_chemical_formula_structural   UFeGe
_chemical_formula_sum   'U4 Fe4 Ge4'
_cell_volume   218.35618596
_cell_formula_units_Z   4
loop_
 _symmetry_equiv_pos_site_id
 _symmetry_equiv_pos_as_xyz
  1  'x, y, z'
loop_
 _atom_site_type_symbol
 _atom_site_label
 _atom_site_symmetry_multiplicity
 _atom_site_fract_x
 _atom_site_fract_y
 _atom_site_fract_z
 _atom_site_occupancy
  U  U0  1  0.25000000  0.51669862  0.80482697  1
  U  U1  1  0.75000000  0.96076162  0.28380558  1
  U  U2  1  0.25000000  0.03923838  0.71619442  1
  U  U3  1  0.75000000  0.48330138  0.19517303  1
  Fe  Fe4  1  0.75000000  0.26098468  0.97008068  1
  Fe  Fe5  1  0.75000000  0.63431750  0.52792705  1
  Fe  Fe6  1  0.25000000  0.73901532  0.02991932  1
  Fe  Fe7  1  0.25000000  0.36568250  0.47207295  1
  Ge  Ge8  1  0.75000000  0.29034896  0.59311341  1
  Ge  Ge9  1  0.25000000  0.70965104  0.40688659  1
  Ge  Ge10  1  0.75000000  0.80335162  0.87513770  1
  Ge  Ge11  1  0.25000000  0.19664838  0.12486230  1
