# generated using pymatgen
data_Ni2P5O16
_symmetry_space_group_name_H-M   'P 1'
_cell_length_a   18.86735107
_cell_length_b   6.75948764
_cell_length_c   5.02526692
_cell_angle_alpha   90.00000000
_cell_angle_beta   89.37392872
_cell_angle_gamma   90.00000000
_symmetry_Int_Tables_number   1
_chemical_formula_structural   Ni2P5O16
_chemical_formula_sum   'Ni4 P10 O32'
_cell_volume   640.85225289
_cell_formula_units_Z   2
loop_
 _symmetry_equiv_pos_site_id
 _symmetry_equiv_pos_as_xyz
  1  'x, y, z'
loop_
 _atom_site_type_symbol
 _atom_site_label
 _atom_site_symmetry_multiplicity
 _atom_site_fract_x
 _atom_site_fract_y
 _atom_site_fract_z
 _atom_site_occupancy
  O  O0  1  0.60919938  0.01316004  0.56960557  1
  O  O1  1  0.99352064  0.77665626  0.34178975  1
  O  O2  1  0.93016604  0.93984305  0.95250689  1
  O  O3  1  0.91878006  0.34952507  0.07519211  1
  O  O4  1  0.00632644  0.22362648  0.65848706  1
  O  O5  1  0.06969716  0.06042502  0.04773741  1
  O  O6  1  0.08105427  0.65083819  0.92506230  1
  O  O7  1  0.10919951  0.98683990  0.56960466  1
  O  O8  1  0.11972412  0.58173901  0.44064944  1
  O  O9  1  0.13221470  0.31477162  0.78129263  1
  O  O10  1  0.19545678  0.86420362  0.15203758  1
  O  O11  1  0.21236939  0.59481656  0.79933747  1
  O  O12  1  0.28744645  0.59452502  0.20080857  1
  O  O13  1  0.30444677  0.86414238  0.84845138  1
  O  O14  1  0.36759832  0.31444254  0.21899304  1
  O  O15  1  0.38007675  0.58146674  0.55961809  1
  O  O16  1  0.39064759  0.98651191  0.43065837  1
  O  O17  1  0.41877965  0.65047487  0.07519328  1
  O  O18  1  0.43016563  0.06015689  0.95250806  1
  O  O19  1  0.49352077  0.22334369  0.34178885  1
  O  O20  1  0.88007662  0.41853320  0.55961899  1
  O  O21  1  0.56969703  0.93957493  0.04773625  1
  O  O22  1  0.58105414  0.34916175  0.92506320  1
  O  O23  1  0.89064746  0.01348803  0.43065927  1
  O  O24  1  0.61972399  0.41826093  0.44064829  1
  O  O25  1  0.63221511  0.68522833  0.78129351  1
  O  O26  1  0.69545666  0.13579632  0.15203643  1
  O  O27  1  0.71236926  0.40518338  0.79933632  1
  O  O28  1  0.78744633  0.40547492  0.20080742  1
  O  O29  1  0.80444664  0.13585756  0.84845228  1
  O  O30  1  0.86759819  0.68555741  0.21899394  1
  O  O31  1  0.50632632  0.77637346  0.65848591  1
  P  P32  1  0.57546430  0.86476589  0.75989063  1
  P  P33  1  0.63097921  0.45235624  0.73413656  1
  P  P34  1  0.74992969  0.25327038  0.00018858  1
  P  P35  1  0.86883589  0.45267918  0.26608473  1
  P  P36  1  0.07546443  0.13523405  0.75988973  1
  P  P37  1  0.13097934  0.54764371  0.73413566  1
  P  P38  1  0.24992982  0.74672957  0.00018768  1
  P  P39  1  0.36883601  0.54732076  0.26608383  1
  P  P40  1  0.42437538  0.13494450  0.24033749  1
  P  P41  1  0.92437525  0.86505545  0.24033633  1
  Ni  Ni42  1  0.90643225  0.17941261  0.75796031  1
  Ni  Ni43  1  0.59344858  0.17912204  0.24225724  1
  Ni  Ni44  1  0.40643238  0.82058734  0.75795941  1
  Ni  Ni45  1  0.09344871  0.82087791  0.24225634  1
