# generated using pymatgen
data_ReCl3O2
_symmetry_space_group_name_H-M   'P 1'
_cell_length_a   8.46708211
_cell_length_b   8.53562320
_cell_length_c   8.52115869
_cell_angle_alpha   90.00000000
_cell_angle_beta   90.00000000
_cell_angle_gamma   90.00000000
_symmetry_Int_Tables_number   1
_chemical_formula_structural   ReCl3O2
_chemical_formula_sum   'Re4 Cl12 O8'
_cell_volume   615.83966829
_cell_formula_units_Z   4
loop_
 _symmetry_equiv_pos_site_id
 _symmetry_equiv_pos_as_xyz
  1  'x, y, z'
loop_
 _atom_site_type_symbol
 _atom_site_label
 _atom_site_symmetry_multiplicity
 _atom_site_fract_x
 _atom_site_fract_y
 _atom_site_fract_z
 _atom_site_occupancy
  Re  Re0  1  0.00000000  0.43072970  0.73300583  1
  Re  Re1  1  0.50000000  0.06927030  0.23300583  1
  Re  Re2  1  0.00000000  0.56927030  0.26699417  1
  Re  Re3  1  0.50000000  0.93072970  0.76699417  1
  Cl  Cl4  1  0.00000000  0.18749550  0.61941421  1
  Cl  Cl5  1  0.50000000  0.80238051  0.26352803  1
  Cl  Cl6  1  0.50000000  0.19761949  0.73647197  1
  Cl  Cl7  1  0.80982220  0.50000000  0.50000000  1
  Cl  Cl8  1  0.50000000  0.68749550  0.88058579  1
  Cl  Cl9  1  0.69017780  0.00000000  0.00000000  1
  Cl  Cl10  1  0.00000000  0.30238051  0.23647197  1
  Cl  Cl11  1  0.19017780  0.50000000  0.50000000  1
  Cl  Cl12  1  0.00000000  0.81250450  0.38058579  1
  Cl  Cl13  1  0.00000000  0.69761949  0.76352803  1
  Cl  Cl14  1  0.30982220  0.00000000  0.00000000  1
  Cl  Cl15  1  0.50000000  0.31250450  0.11941421  1
  O  O16  1  0.16148907  0.39775629  0.84968764  1
  O  O17  1  0.33851093  0.10224371  0.34968764  1
  O  O18  1  0.33851093  0.89775629  0.65031236  1
  O  O19  1  0.66148907  0.89775629  0.65031236  1
  O  O20  1  0.66148907  0.10224371  0.34968764  1
  O  O21  1  0.83851093  0.60224371  0.15031236  1
  O  O22  1  0.16148907  0.60224371  0.15031236  1
  O  O23  1  0.83851093  0.39775629  0.84968764  1
