# generated using pymatgen
data_Ce(PPt2)2
_symmetry_space_group_name_H-M   'P 1'
_cell_length_a   4.19973351
_cell_length_b   7.40679097
_cell_length_c   15.56579069
_cell_angle_alpha   90.01553177
_cell_angle_beta   90.00006677
_cell_angle_gamma   89.99978461
_symmetry_Int_Tables_number   1
_chemical_formula_structural   Ce(PPt2)2
_chemical_formula_sum   'Ce4 P8 Pt16'
_cell_volume   484.19800114
_cell_formula_units_Z   4
loop_
 _symmetry_equiv_pos_site_id
 _symmetry_equiv_pos_as_xyz
  1  'x, y, z'
loop_
 _atom_site_type_symbol
 _atom_site_label
 _atom_site_symmetry_multiplicity
 _atom_site_fract_x
 _atom_site_fract_y
 _atom_site_fract_z
 _atom_site_occupancy
  Ce  Ce0  1  0.75000019  0.85311025  0.68171957  1
  Ce  Ce1  1  0.24999925  0.14690146  0.31822721  1
  Ce  Ce2  1  0.74999938  0.35306987  0.81820512  1
  Ce  Ce3  1  0.24999943  0.64685755  0.18178948  1
  P  P4  1  0.74999903  0.31013518  0.19140958  1
  P  P5  1  0.74999978  0.78645176  0.05641195  1
  P  P6  1  0.25000033  0.21352260  0.94371062  1
  P  P7  1  0.25000082  0.18995836  0.69146212  1
  P  P8  1  0.74999921  0.80985570  0.30848294  1
  P  P9  1  0.74999937  0.28652771  0.44372475  1
  P  P10  1  0.25000104  0.71351273  0.55634006  1
  P  P11  1  0.25000144  0.69005152  0.80853579  1
  Pt  Pt12  1  0.74999826  0.98018188  0.18216751  1
  Pt  Pt13  1  0.74999779  0.48024901  0.31785311  1
  Pt  Pt14  1  0.24999906  0.37277679  0.49744042  1
  Pt  Pt15  1  0.24999981  0.73783860  0.37638719  1
  Pt  Pt16  1  0.24999761  0.52806084  0.94183820  1
  Pt  Pt17  1  0.24999946  0.23789218  0.12358136  1
  Pt  Pt18  1  0.25000084  0.51982099  0.68210996  1
  Pt  Pt19  1  0.24999911  0.02808596  0.55812160  1
  Pt  Pt20  1  0.75000047  0.76213575  0.87642470  1
  Pt  Pt21  1  0.75000075  0.26213084  0.62357229  1
  Pt  Pt22  1  0.75000412  0.97184868  0.44183556  1
  Pt  Pt23  1  0.75000006  0.12725310  0.99738986  1
  Pt  Pt24  1  0.25000067  0.87274335  0.00268456  1
  Pt  Pt25  1  0.25000006  0.01977713  0.81781994  1
  Pt  Pt26  1  0.75000013  0.62725530  0.50257517  1
  Pt  Pt27  1  0.75000252  0.47199492  0.05817937  1
