# generated using pymatgen
data_NdZnRh
_symmetry_space_group_name_H-M   'P 1'
_cell_length_a   4.04067544
_cell_length_b   7.31106822
_cell_length_c   16.52465553
_cell_angle_alpha   90.00000000
_cell_angle_beta   90.00000000
_cell_angle_gamma   90.00000000
_symmetry_Int_Tables_number   1
_chemical_formula_structural   NdZnRh
_chemical_formula_sum   'Nd8 Zn8 Rh8'
_cell_volume   488.16565278
_cell_formula_units_Z   8
loop_
 _symmetry_equiv_pos_site_id
 _symmetry_equiv_pos_as_xyz
  1  'x, y, z'
loop_
 _atom_site_type_symbol
 _atom_site_label
 _atom_site_symmetry_multiplicity
 _atom_site_fract_x
 _atom_site_fract_y
 _atom_site_fract_z
 _atom_site_occupancy
  Nd  Nd0  1  0.25000000  0.66681961  0.43941107  1
  Nd  Nd1  1  0.25000000  0.16681961  0.06058893  1
  Nd  Nd2  1  0.75000000  0.83318039  0.93941107  1
  Nd  Nd3  1  0.75000000  0.45182060  0.78376196  1
  Nd  Nd4  1  0.75000000  0.33318039  0.56058893  1
  Nd  Nd5  1  0.75000000  0.95182060  0.71623804  1
  Nd  Nd6  1  0.25000000  0.54817940  0.21623804  1
  Nd  Nd7  1  0.25000000  0.04817940  0.28376196  1
  Zn  Zn8  1  0.75000000  0.50163591  0.06065731  1
  Zn  Zn9  1  0.25000000  0.12432348  0.84925538  1
  Zn  Zn10  1  0.75000000  0.87567652  0.15074462  1
  Zn  Zn11  1  0.25000000  0.99836409  0.56065731  1
  Zn  Zn12  1  0.75000000  0.00163591  0.43934269  1
  Zn  Zn13  1  0.25000000  0.49836409  0.93934269  1
  Zn  Zn14  1  0.25000000  0.62432348  0.65074462  1
  Zn  Zn15  1  0.75000000  0.37567652  0.34925538  1
  Rh  Rh16  1  0.75000000  0.25546024  0.93531350  1
  Rh  Rh17  1  0.25000000  0.74701107  0.81377350  1
  Rh  Rh18  1  0.75000000  0.75298893  0.31377350  1
  Rh  Rh19  1  0.75000000  0.25298893  0.18622650  1
  Rh  Rh20  1  0.25000000  0.74453976  0.06468650  1
  Rh  Rh21  1  0.25000000  0.24701107  0.68622650  1
  Rh  Rh22  1  0.75000000  0.75546024  0.56468650  1
  Rh  Rh23  1  0.25000000  0.24453976  0.43531350  1
