# generated using pymatgen
data_Ca3Ga3Rh2
_symmetry_space_group_name_H-M   'P 1'
_cell_length_a   5.84392669
_cell_length_b   8.12249333
_cell_length_c   14.99596641
_cell_angle_alpha   90.00000000
_cell_angle_beta   90.00000000
_cell_angle_gamma   90.00000000
_symmetry_Int_Tables_number   1
_chemical_formula_structural   Ca3Ga3Rh2
_chemical_formula_sum   'Ca12 Ga12 Rh8'
_cell_volume   711.81736996
_cell_formula_units_Z   4
loop_
 _symmetry_equiv_pos_site_id
 _symmetry_equiv_pos_as_xyz
  1  'x, y, z'
loop_
 _atom_site_type_symbol
 _atom_site_label
 _atom_site_symmetry_multiplicity
 _atom_site_fract_x
 _atom_site_fract_y
 _atom_site_fract_z
 _atom_site_occupancy
  Ca  Ca0  1  0.11441499  0.54619673  0.60904676  1
  Ca  Ca1  1  0.61834435  0.69738840  0.75000000  1
  Ca  Ca2  1  0.61441499  0.95380327  0.10904676  1
  Ca  Ca3  1  0.38558501  0.04619673  0.89095324  1
  Ca  Ca4  1  0.61441499  0.95380327  0.39095324  1
  Ca  Ca5  1  0.88165565  0.19738840  0.75000000  1
  Ca  Ca6  1  0.38165565  0.30261160  0.25000000  1
  Ca  Ca7  1  0.38558501  0.04619673  0.60904676  1
  Ca  Ca8  1  0.88558501  0.45380327  0.10904676  1
  Ca  Ca9  1  0.11441499  0.54619673  0.89095324  1
  Ca  Ca10  1  0.11834435  0.80261160  0.25000000  1
  Ca  Ca11  1  0.88558501  0.45380327  0.39095324  1
  Ga  Ga12  1  0.08109047  0.85263862  0.75000000  1
  Ga  Ga13  1  0.87680689  0.18050312  0.96028870  1
  Ga  Ga14  1  0.91890953  0.14736138  0.25000000  1
  Ga  Ga15  1  0.58109047  0.64736138  0.25000000  1
  Ga  Ga16  1  0.12319311  0.81949688  0.46028870  1
  Ga  Ga17  1  0.37680689  0.31949688  0.03971130  1
  Ga  Ga18  1  0.62319311  0.68050312  0.53971130  1
  Ga  Ga19  1  0.62319311  0.68050312  0.96028870  1
  Ga  Ga20  1  0.37680689  0.31949688  0.46028870  1
  Ga  Ga21  1  0.12319311  0.81949688  0.03971130  1
  Ga  Ga22  1  0.41890953  0.35263862  0.75000000  1
  Ga  Ga23  1  0.87680689  0.18050312  0.53971130  1
  Rh  Rh24  1  0.89544852  0.89142956  0.59726620  1
  Rh  Rh25  1  0.60455148  0.39142956  0.90273380  1
  Rh  Rh26  1  0.89544852  0.89142956  0.90273380  1
  Rh  Rh27  1  0.39544852  0.60857044  0.09726620  1
  Rh  Rh28  1  0.10455148  0.10857044  0.40273380  1
  Rh  Rh29  1  0.39544852  0.60857044  0.40273380  1
  Rh  Rh30  1  0.60455148  0.39142956  0.59726620  1
  Rh  Rh31  1  0.10455148  0.10857044  0.09726620  1
