# generated using pymatgen
data_La5S8
_symmetry_space_group_name_H-M   'P 1'
_cell_length_a   7.57566234
_cell_length_b   7.57566260
_cell_length_c   7.57566211
_cell_angle_alpha   109.43112020
_cell_angle_beta   109.55145334
_cell_angle_gamma   109.43112279
_symmetry_Int_Tables_number   1
_chemical_formula_structural   La5S8
_chemical_formula_sum   'La5 S8'
_cell_volume   334.68733230
_cell_formula_units_Z   1
loop_
 _symmetry_equiv_pos_site_id
 _symmetry_equiv_pos_as_xyz
  1  'x, y, z'
loop_
 _atom_site_type_symbol
 _atom_site_label
 _atom_site_symmetry_multiplicity
 _atom_site_fract_x
 _atom_site_fract_y
 _atom_site_fract_z
 _atom_site_occupancy
  La  La0  1  0.24412629  0.63435683  0.37424316  1
  La  La1  1  0.37500000  0.25000000  0.62500000  1
  La  La2  1  0.73988633  0.86564317  0.10976946  1
  La  La3  1  0.62575684  0.36988313  0.26011367  1
  La  La4  1  0.89023054  0.13011687  0.75587371  1
  S  S5  1  0.99315767  0.85113226  0.48079804  1
  S  S6  1  0.00279722  0.33549188  0.48386131  1
  S  S7  1  0.51613869  0.01893591  0.85163057  1
  S  S8  1  0.14836943  0.16450812  0.16730534  1
  S  S9  1  0.35797458  0.48764037  0.00684233  1
  S  S10  1  0.62966579  0.64886774  0.64202542  1
  S  S11  1  0.51920196  0.01235963  0.37033421  1
  S  S12  1  0.83269466  0.48106409  0.99720278  1
