# generated using pymatgen
data_Pu
_symmetry_space_group_name_H-M   'P 1'
_cell_length_a   4.55493361
_cell_length_b   6.01329122
_cell_length_c   10.95229714
_cell_angle_alpha   101.92945727
_cell_angle_beta   90.00000000
_cell_angle_gamma   90.00000000
_symmetry_Int_Tables_number   1
_chemical_formula_structural   Pu
_chemical_formula_sum   Pu16
_cell_volume   293.50615347
_cell_formula_units_Z   16
loop_
 _symmetry_equiv_pos_site_id
 _symmetry_equiv_pos_as_xyz
  1  'x, y, z'
loop_
 _atom_site_type_symbol
 _atom_site_label
 _atom_site_symmetry_multiplicity
 _atom_site_fract_x
 _atom_site_fract_y
 _atom_site_fract_z
 _atom_site_occupancy
  Pu  Pu0  1  0.75000000  0.35033214  0.53669618  1
  Pu  Pu1  1  0.75000000  0.66548856  0.84291615  1
  Pu  Pu2  1  0.25000000  0.01843328  0.61829503  1
  Pu  Pu3  1  0.25000000  0.64966786  0.46330382  1
  Pu  Pu4  1  0.25000000  0.30177626  0.92729245  1
  Pu  Pu5  1  0.25000000  0.86556541  0.89091822  1
  Pu  Pu6  1  0.75000000  0.55676380  0.36343076  1
  Pu  Pu7  1  0.25000000  0.74897380  0.17006965  1
  Pu  Pu8  1  0.75000000  0.69822374  0.07270755  1
  Pu  Pu9  1  0.75000000  0.89205241  0.67341305  1
  Pu  Pu10  1  0.75000000  0.98156672  0.38170497  1
  Pu  Pu11  1  0.25000000  0.44323620  0.63656924  1
  Pu  Pu12  1  0.75000000  0.25102620  0.82993035  1
  Pu  Pu13  1  0.25000000  0.33451144  0.15708385  1
  Pu  Pu14  1  0.75000000  0.13443459  0.10908178  1
  Pu  Pu15  1  0.25000000  0.10794759  0.32658695  1
