# generated using pymatgen
data_Cs2MnTe2
_symmetry_space_group_name_H-M   'P 1'
_cell_length_a   7.28899037
_cell_length_b   8.03620144
_cell_length_c   9.43121279
_cell_angle_alpha   115.20286219
_cell_angle_beta   112.53643858
_cell_angle_gamma   90.07534416
_symmetry_Int_Tables_number   1
_chemical_formula_structural   Cs2MnTe2
_chemical_formula_sum   'Cs4 Mn2 Te4'
_cell_volume   452.64624226
_cell_formula_units_Z   2
loop_
 _symmetry_equiv_pos_site_id
 _symmetry_equiv_pos_as_xyz
  1  'x, y, z'
loop_
 _atom_site_type_symbol
 _atom_site_label
 _atom_site_symmetry_multiplicity
 _atom_site_fract_x
 _atom_site_fract_y
 _atom_site_fract_z
 _atom_site_occupancy
  Cs  Cs0  1  0.14470370  0.47391672  0.28908596  1
  Cs  Cs1  1  0.35381526  0.18094225  0.70481518  1
  Cs  Cs2  1  0.64128054  0.81599260  0.28816212  1
  Cs  Cs3  1  0.85663867  0.52682587  0.71207045  1
  Mn  Mn4  1  0.74836456  0.00148700  0.99743807  1
  Mn  Mn5  1  0.25066404  0.99879928  0.99759014  1
  Te  Te6  1  0.90393896  0.08140144  0.80108962  1
  Te  Te7  1  0.40227431  0.72163860  0.79978138  1
  Te  Te8  1  0.59691506  0.27737209  0.19527016  1
  Te  Te9  1  0.09468490  0.91821315  0.19362693  1
