# generated using pymatgen
data_CeSnRu
_symmetry_space_group_name_H-M   'P 1'
_cell_length_a   4.84248364
_cell_length_b   6.31578552
_cell_length_c   10.01358737
_cell_angle_alpha   101.94211450
_cell_angle_beta   89.97632411
_cell_angle_gamma   112.61210920
_symmetry_Int_Tables_number   1
_chemical_formula_structural   CeSnRu
_chemical_formula_sum   'Ce4 Sn4 Ru4'
_cell_volume   275.53131247
_cell_formula_units_Z   4
loop_
 _symmetry_equiv_pos_site_id
 _symmetry_equiv_pos_as_xyz
  1  'x, y, z'
loop_
 _atom_site_type_symbol
 _atom_site_label
 _atom_site_symmetry_multiplicity
 _atom_site_fract_x
 _atom_site_fract_y
 _atom_site_fract_z
 _atom_site_occupancy
  Ce  Ce0  1  0.86619673  0.73888412  0.08739585  1
  Ce  Ce1  1  0.12826393  0.26326078  0.90975240  1
  Ce  Ce2  1  0.13373329  0.27325800  0.41077976  1
  Ce  Ce3  1  0.86222135  0.73010750  0.58683005  1
  Sn  Sn4  1  0.57977864  0.16496661  0.65179066  1
  Sn  Sn5  1  0.58690442  0.18033468  0.14972735  1
  Sn  Sn6  1  0.41611137  0.83893054  0.34573606  1
  Sn  Sn7  1  0.40850680  0.82272380  0.84751694  1
  Ru  Ru8  1  0.18293424  0.37086779  0.66196076  1
  Ru  Ru9  1  0.80693191  0.61997114  0.82803661  1
  Ru  Ru10  1  0.81311001  0.63260344  0.33644921  1
  Ru  Ru11  1  0.18842232  0.38349560  0.17056936  1
