# generated using pymatgen
data_EuMoClO4
_symmetry_space_group_name_H-M   'P 1'
_cell_length_a   6.50126216
_cell_length_b   6.50126234
_cell_length_c   6.98217299
_cell_angle_alpha   76.42581943
_cell_angle_beta   76.42581908
_cell_angle_gamma   70.55333817
_symmetry_Int_Tables_number   1
_chemical_formula_structural   EuMoClO4
_chemical_formula_sum   'Eu2 Mo2 Cl2 O8'
_cell_volume   266.52751672
_cell_formula_units_Z   2
loop_
 _symmetry_equiv_pos_site_id
 _symmetry_equiv_pos_as_xyz
  1  'x, y, z'
loop_
 _atom_site_type_symbol
 _atom_site_label
 _atom_site_symmetry_multiplicity
 _atom_site_fract_x
 _atom_site_fract_y
 _atom_site_fract_z
 _atom_site_occupancy
  Eu  Eu0  1  0.22547274  0.22547274  0.88377689  1
  Eu  Eu1  1  0.77452726  0.77452726  0.11622311  1
  Mo  Mo2  1  0.36371879  0.36371879  0.26690957  1
  Mo  Mo3  1  0.63628121  0.63628121  0.73309043  1
  Cl  Cl4  1  0.98931039  0.98931039  0.76166855  1
  Cl  Cl5  1  0.01068961  0.01068961  0.23833145  1
  O  O6  1  0.11685168  0.49106524  0.15344481  1
  O  O7  1  0.46141930  0.46141930  0.79393202  1
  O  O8  1  0.49106524  0.11685168  0.15344481  1
  O  O9  1  0.29410759  0.29410759  0.53019339  1
  O  O10  1  0.88314832  0.50893476  0.84655519  1
  O  O11  1  0.50893476  0.88314832  0.84655519  1
  O  O12  1  0.70589241  0.70589241  0.46980661  1
  O  O13  1  0.53858070  0.53858070  0.20606798  1
