# generated using pymatgen
data_RbCuPdF5
_symmetry_space_group_name_H-M   'P 1'
_cell_length_a   6.32015151
_cell_length_b   7.37562790
_cell_length_c   10.95104314
_cell_angle_alpha   89.97686908
_cell_angle_beta   89.93903528
_cell_angle_gamma   89.93713233
_symmetry_Int_Tables_number   1
_chemical_formula_structural   RbCuPdF5
_chemical_formula_sum   'Rb4 Cu4 Pd4 F20'
_cell_volume   510.48317815
_cell_formula_units_Z   4
loop_
 _symmetry_equiv_pos_site_id
 _symmetry_equiv_pos_as_xyz
  1  'x, y, z'
loop_
 _atom_site_type_symbol
 _atom_site_label
 _atom_site_symmetry_multiplicity
 _atom_site_fract_x
 _atom_site_fract_y
 _atom_site_fract_z
 _atom_site_occupancy
  Rb  Rb0  1  0.97521808  0.25014683  0.35550167  1
  Rb  Rb1  1  0.52479820  0.74991963  0.85549979  1
  Rb  Rb2  1  0.02476318  0.74985338  0.64459786  1
  Rb  Rb3  1  0.47518259  0.25008048  0.14440212  1
  Cu  Cu4  1  0.49994476  0.99995815  0.49997447  1
  Cu  Cu5  1  0.99995109  0.99995832  0.00002835  1
  Cu  Cu6  1  0.49994145  0.50004439  0.49997319  1
  Cu  Cu7  1  0.99993936  0.50004783  0.00002529  1
  Pd  Pd8  1  0.19611663  0.75004783  0.29368090  1
  Pd  Pd9  1  0.69603808  0.75006089  0.20635361  1
  Pd  Pd10  1  0.30395779  0.24993957  0.79383996  1
  Pd  Pd11  1  0.80388321  0.24995262  0.70612527  1
  F  F12  1  0.16860101  0.55353462  0.17064958  1
  F  F13  1  0.71728441  0.93840192  0.07380268  1
  F  F14  1  0.83143215  0.44647231  0.82936978  1
  F  F15  1  0.21714938  0.56165356  0.42622231  1
  F  F16  1  0.78249914  0.06150386  0.57359444  1
  F  F17  1  0.03313887  0.75014259  0.93767716  1
  F  F18  1  0.28281366  0.43838478  0.92637353  1
  F  F19  1  0.66867942  0.55341887  0.32936420  1
  F  F20  1  0.96683539  0.24985813  0.06237393  1
  F  F21  1  0.16863657  0.94656048  0.17057749  1
  F  F22  1  0.78289418  0.43848996  0.57357410  1
  F  F23  1  0.83138929  0.05342898  0.82943932  1
  F  F24  1  0.66855946  0.94650611  0.32944424  1
  F  F25  1  0.33136498  0.44658080  0.67061835  1
  F  F26  1  0.53315968  0.75028047  0.56233953  1
  F  F27  1  0.28276378  0.06145668  0.92640156  1
  F  F28  1  0.33146514  0.05349017  0.67053238  1
  F  F29  1  0.21754665  0.93834628  0.42620319  1
  F  F30  1  0.46682221  0.24971954  0.43761056  1
  F  F31  1  0.71723020  0.56175996  0.07382918  1
