# generated using pymatgen
data_Sr3BCNCl2
_symmetry_space_group_name_H-M   'P 1'
_cell_length_a   4.08981210
_cell_length_b   11.78330863
_cell_length_c   14.68718722
_cell_angle_alpha   90.00000000
_cell_angle_beta   90.00000000
_cell_angle_gamma   90.00000000
_symmetry_Int_Tables_number   1
_chemical_formula_structural   Sr3BCNCl2
_chemical_formula_sum   'Sr12 B4 C4 N4 Cl8'
_cell_volume   707.79785041
_cell_formula_units_Z   4
loop_
 _symmetry_equiv_pos_site_id
 _symmetry_equiv_pos_as_xyz
  1  'x, y, z'
loop_
 _atom_site_type_symbol
 _atom_site_label
 _atom_site_symmetry_multiplicity
 _atom_site_fract_x
 _atom_site_fract_y
 _atom_site_fract_z
 _atom_site_occupancy
  Sr  Sr0  1  0.75000000  0.69138243  0.32671578  1
  Sr  Sr1  1  0.25000000  0.13076948  0.88329890  1
  Sr  Sr2  1  0.75000000  0.86923052  0.11670110  1
  Sr  Sr3  1  0.25000000  0.36923052  0.38329890  1
  Sr  Sr4  1  0.75000000  0.05838636  0.35450809  1
  Sr  Sr5  1  0.25000000  0.55838636  0.14549191  1
  Sr  Sr6  1  0.75000000  0.44161364  0.85450809  1
  Sr  Sr7  1  0.25000000  0.94161364  0.64549191  1
  Sr  Sr8  1  0.75000000  0.80861757  0.82671578  1
  Sr  Sr9  1  0.75000000  0.63076948  0.61670110  1
  Sr  Sr10  1  0.25000000  0.19138243  0.17328422  1
  Sr  Sr11  1  0.25000000  0.30861757  0.67328422  1
  B  B12  1  0.25000000  0.61652882  0.74533515  1
  B  B13  1  0.75000000  0.11652882  0.75466485  1
  B  B14  1  0.75000000  0.38347118  0.25466485  1
  B  B15  1  0.25000000  0.88347118  0.24533515  1
  C  C16  1  0.75000000  0.23469171  0.78068662  1
  C  C17  1  0.25000000  0.76530829  0.21931338  1
  C  C18  1  0.25000000  0.73469171  0.71931338  1
  C  C19  1  0.75000000  0.26530829  0.28068662  1
  N  N20  1  0.25000000  0.99912487  0.25214451  1
  N  N21  1  0.75000000  0.49912487  0.24785549  1
  N  N22  1  0.25000000  0.50087513  0.75214451  1
  N  N23  1  0.75000000  0.00087513  0.74785549  1
  Cl  Cl24  1  0.25000000  0.89098700  0.96213071  1
  Cl  Cl25  1  0.25000000  0.13899942  0.49957286  1
  Cl  Cl26  1  0.25000000  0.36100058  0.99957286  1
  Cl  Cl27  1  0.75000000  0.10901300  0.03786929  1
  Cl  Cl28  1  0.75000000  0.39098700  0.53786929  1
  Cl  Cl29  1  0.75000000  0.86100058  0.50042714  1
  Cl  Cl30  1  0.25000000  0.60901300  0.46213071  1
  Cl  Cl31  1  0.75000000  0.63899942  0.00042714  1
