# generated using pymatgen
data_Cs2Na2IrO4
_symmetry_space_group_name_H-M   'P 1'
_cell_length_a   6.03134174
_cell_length_b   6.75490532
_cell_length_c   9.76526872
_cell_angle_alpha   102.48373425
_cell_angle_beta   90.00000000
_cell_angle_gamma   116.51560761
_symmetry_Int_Tables_number   1
_chemical_formula_structural   Cs2Na2IrO4
_chemical_formula_sum   'Cs4 Na4 Ir2 O8'
_cell_volume   345.45590750
_cell_formula_units_Z   2
loop_
 _symmetry_equiv_pos_site_id
 _symmetry_equiv_pos_as_xyz
  1  'x, y, z'
loop_
 _atom_site_type_symbol
 _atom_site_label
 _atom_site_symmetry_multiplicity
 _atom_site_fract_x
 _atom_site_fract_y
 _atom_site_fract_z
 _atom_site_occupancy
  Cs  Cs0  1  0.33305649  0.66611398  0.13621232  1
  Cs  Cs1  1  0.66694351  0.33388602  0.86378768  1
  Cs  Cs2  1  0.32981285  0.65962570  0.75855130  1
  Cs  Cs3  1  0.67018715  0.34037430  0.24144870  1
  Na  Na4  1  0.02614840  0.05229681  0.65959415  1
  Na  Na5  1  0.21656996  0.43313992  0.42576955  1
  Na  Na6  1  0.97385160  0.94770319  0.34040585  1
  Na  Na7  1  0.78343004  0.56686008  0.57423045  1
  Ir  Ir8  1  0.00000000  0.00000000  -0.00000000  1
  Ir  Ir9  1  0.50000000  0.00000000  0.50000000  1
  O  O10  1  0.15587392  0.76662836  0.46953408  1
  O  O11  1  0.38924556  0.23337164  0.53046592  1
  O  O12  1  0.12488723  0.24977547  0.90725008  1
  O  O13  1  0.10484995  0.20969891  0.18589155  1
  O  O14  1  0.84412608  0.23337164  0.53046592  1
  O  O15  1  0.87511277  0.75022453  0.09274992  1
  O  O16  1  0.89515005  0.79030109  0.81410845  1
  O  O17  1  0.61075444  0.76662836  0.46953408  1
