# generated using pymatgen
data_EuSO4
_symmetry_space_group_name_H-M   'P 1'
_cell_length_a   5.42838115
_cell_length_b   6.97525255
_cell_length_c   8.44249286
_cell_angle_alpha   90.00000000
_cell_angle_beta   90.00000000
_cell_angle_gamma   90.00000000
_symmetry_Int_Tables_number   1
_chemical_formula_structural   EuSO4
_chemical_formula_sum   'Eu4 S4 O16'
_cell_volume   319.66933111
_cell_formula_units_Z   4
loop_
 _symmetry_equiv_pos_site_id
 _symmetry_equiv_pos_as_xyz
  1  'x, y, z'
loop_
 _atom_site_type_symbol
 _atom_site_label
 _atom_site_symmetry_multiplicity
 _atom_site_fract_x
 _atom_site_fract_y
 _atom_site_fract_z
 _atom_site_occupancy
  Eu  Eu0  1  0.25000000  0.34095877  0.68884935  1
  Eu  Eu1  1  0.75000000  0.84095877  0.81115065  1
  Eu  Eu2  1  0.75000000  0.65904123  0.31115065  1
  Eu  Eu3  1  0.25000000  0.15904123  0.18884935  1
  S  S4  1  0.75000000  0.18654546  0.44265781  1
  S  S5  1  0.25000000  0.68654546  0.05734219  1
  S  S6  1  0.25000000  0.81345454  0.55734219  1
  S  S7  1  0.75000000  0.31345454  0.94265781  1
  O  O8  1  0.52527906  0.31130531  0.42476386  1
  O  O9  1  0.25000000  0.89921624  0.39789972  1
  O  O10  1  0.97472094  0.18869469  0.92476386  1
  O  O11  1  0.02527906  0.81130531  0.07523614  1
  O  O12  1  0.47472094  0.81130531  0.07523614  1
  O  O13  1  0.97472094  0.31130531  0.42476386  1
  O  O14  1  0.25000000  0.60078376  0.89789972  1
  O  O15  1  0.75000000  0.39921624  0.10210028  1
  O  O16  1  0.25000000  0.95879529  0.68629878  1
  O  O17  1  0.75000000  0.04120471  0.31370122  1
  O  O18  1  0.02527906  0.68869469  0.57523614  1
  O  O19  1  0.25000000  0.54120471  0.18629878  1
  O  O20  1  0.47472094  0.68869469  0.57523614  1
  O  O21  1  0.75000000  0.45879529  0.81370122  1
  O  O22  1  0.75000000  0.10078376  0.60210028  1
  O  O23  1  0.52527906  0.18869469  0.92476386  1
