# generated using pymatgen
data_Ti2S
_symmetry_space_group_name_H-M   'P 1'
_cell_length_a   3.32485835
_cell_length_b   11.36397802
_cell_length_c   14.03362672
_cell_angle_alpha   90.00000000
_cell_angle_beta   90.00000000
_cell_angle_gamma   90.00000000
_symmetry_Int_Tables_number   1
_chemical_formula_structural   Ti2S
_chemical_formula_sum   'Ti24 S12'
_cell_volume   530.24118004
_cell_formula_units_Z   12
loop_
 _symmetry_equiv_pos_site_id
 _symmetry_equiv_pos_as_xyz
  1  'x, y, z'
loop_
 _atom_site_type_symbol
 _atom_site_label
 _atom_site_symmetry_multiplicity
 _atom_site_fract_x
 _atom_site_fract_y
 _atom_site_fract_z
 _atom_site_occupancy
  Ti  Ti0  1  0.50000000  0.41392016  0.75536755  1
  Ti  Ti1  1  0.50000000  0.38017986  0.07781972  1
  Ti  Ti2  1  0.00000000  0.80837237  0.20771368  1
  Ti  Ti3  1  0.00000000  0.46925796  0.39024087  1
  Ti  Ti4  1  0.00000000  0.08607984  0.25536755  1
  Ti  Ti5  1  0.50000000  0.61982014  0.92218028  1
  Ti  Ti6  1  0.00000000  0.58773253  0.07922118  1
  Ti  Ti7  1  0.00000000  0.91392016  0.74463245  1
  Ti  Ti8  1  0.50000000  0.91226747  0.57922118  1
  Ti  Ti9  1  0.00000000  0.84607939  0.97939040  1
  Ti  Ti10  1  0.50000000  0.30837237  0.29228632  1
  Ti  Ti11  1  0.50000000  0.08773253  0.42077882  1
  Ti  Ti12  1  0.50000000  0.03074204  0.89024087  1
  Ti  Ti13  1  0.50000000  0.96925796  0.10975913  1
  Ti  Ti14  1  0.00000000  0.19162763  0.79228632  1
  Ti  Ti15  1  0.50000000  0.65392061  0.47939040  1
  Ti  Ti16  1  0.50000000  0.69162763  0.70771368  1
  Ti  Ti17  1  0.50000000  0.34607939  0.52060960  1
  Ti  Ti18  1  0.00000000  0.41226747  0.92077882  1
  Ti  Ti19  1  0.00000000  0.53074204  0.60975913  1
  Ti  Ti20  1  0.50000000  0.58607984  0.24463245  1
  Ti  Ti21  1  0.00000000  0.88017986  0.42218028  1
  Ti  Ti22  1  0.00000000  0.15392061  0.02060960  1
  Ti  Ti23  1  0.00000000  0.11982014  0.57781972  1
  S  S24  1  0.00000000  0.56832438  0.79329632  1
  S  S25  1  0.50000000  0.06832438  0.70670368  1
  S  S26  1  0.00000000  0.43167562  0.20670368  1
  S  S27  1  0.00000000  0.75496582  0.58765408  1
  S  S28  1  0.50000000  0.81552037  0.85019866  1
  S  S29  1  0.50000000  0.93167562  0.29329632  1
  S  S30  1  0.50000000  0.18447963  0.14980134  1
  S  S31  1  0.50000000  0.74503418  0.08765408  1
  S  S32  1  0.00000000  0.31552037  0.64980134  1
  S  S33  1  0.50000000  0.25496582  0.91234592  1
  S  S34  1  0.00000000  0.68447963  0.35019866  1
  S  S35  1  0.00000000  0.24503418  0.41234592  1
