# generated using pymatgen
data_K4MnMo4O15
_symmetry_space_group_name_H-M   'P 1'
_cell_length_a   10.56859121
_cell_length_b   10.56859077
_cell_length_c   8.35686990
_cell_angle_alpha   90.00000000
_cell_angle_beta   90.00000000
_cell_angle_gamma   120.00000137
_symmetry_Int_Tables_number   1
_chemical_formula_structural   K4MnMo4O15
_chemical_formula_sum   'K8 Mn2 Mo8 O30'
_cell_volume   808.36676232
_cell_formula_units_Z   2
loop_
 _symmetry_equiv_pos_site_id
 _symmetry_equiv_pos_as_xyz
  1  'x, y, z'
loop_
 _atom_site_type_symbol
 _atom_site_label
 _atom_site_symmetry_multiplicity
 _atom_site_fract_x
 _atom_site_fract_y
 _atom_site_fract_z
 _atom_site_occupancy
  K  K0  1  0.91173625  0.60690790  0.14030966  1
  K  K1  1  0.39309210  0.30482834  0.14030966  1
  K  K2  1  0.08826375  0.39309210  0.85969034  1
  K  K3  1  0.60690790  0.69517166  0.85969034  1
  K  K4  1  0.00000000  0.00000000  0.00000000  1
  K  K5  1  0.30482834  0.91173625  0.85969034  1
  K  K6  1  0.69517166  0.08826375  0.14030966  1
  K  K7  1  0.00000000  0.00000000  0.50000000  1
  Mn  Mn8  1  0.66666700  0.33333300  0.46658496  1
  Mn  Mn9  1  0.33333300  0.66666700  0.53341504  1
  Mo  Mo10  1  0.01711914  0.34201720  0.36021557  1
  Mo  Mo11  1  0.67510194  0.01711914  0.63978443  1
  Mo  Mo12  1  0.33333300  0.66666700  0.14220864  1
  Mo  Mo13  1  0.65798280  0.67510194  0.36021557  1
  Mo  Mo14  1  0.66666700  0.33333300  0.85779136  1
  Mo  Mo15  1  0.34201720  0.32489806  0.63978443  1
  Mo  Mo16  1  0.32489806  0.98288086  0.36021557  1
  Mo  Mo17  1  0.98288086  0.65798280  0.63978443  1
  O  O18  1  0.47986503  0.82249835  0.04963128  1
  O  O19  1  0.21835995  0.21110839  0.79127059  1
  O  O20  1  0.52013497  0.17750165  0.95036872  1
  O  O21  1  0.66570977  0.18650076  0.66226809  1
  O  O22  1  0.18650076  0.52079099  0.33773191  1
  O  O23  1  0.27522027  0.25844627  0.44637849  1
  O  O24  1  0.49407150  0.85734641  0.66042996  1
  O  O25  1  0.78164005  0.78889161  0.20872941  1
  O  O26  1  0.50592850  0.14265359  0.33957004  1
  O  O27  1  0.81349924  0.47920901  0.66226809  1
  O  O28  1  0.98322599  0.72477973  0.44637849  1
  O  O29  1  0.47920901  0.66570977  0.33773191  1
  O  O30  1  0.85734641  0.36327491  0.33957004  1
  O  O31  1  0.65736667  0.47986503  0.95036872  1
  O  O32  1  0.34263333  0.52013497  0.04963128  1
  O  O33  1  0.17750165  0.65736667  0.04963128  1
  O  O34  1  0.36327491  0.50592850  0.66042996  1
  O  O35  1  0.63672509  0.49407150  0.33957004  1
  O  O36  1  0.01677401  0.27522027  0.55362151  1
  O  O37  1  0.21110839  0.99274844  0.20872941  1
  O  O38  1  0.14265359  0.63672509  0.66042996  1
  O  O39  1  0.25844627  0.98322599  0.55362151  1
  O  O40  1  0.00725156  0.21835995  0.20872941  1
  O  O41  1  0.78889161  0.00725156  0.79127059  1
  O  O42  1  0.82249835  0.34263333  0.95036872  1
  O  O43  1  0.52079099  0.33429023  0.66226809  1
  O  O44  1  0.74155373  0.01677401  0.44637849  1
  O  O45  1  0.72477973  0.74155373  0.55362151  1
  O  O46  1  0.33429023  0.81349924  0.33773191  1
  O  O47  1  0.99274844  0.78164005  0.79127059  1
