# generated using pymatgen
data_In3Te3I
_symmetry_space_group_name_H-M   'P 1'
_cell_length_a   4.40787401
_cell_length_b   11.90034433
_cell_length_c   20.44382035
_cell_angle_alpha   90.00097056
_cell_angle_beta   90.02899287
_cell_angle_gamma   90.00500522
_symmetry_Int_Tables_number   1
_chemical_formula_structural   In3Te3I
_chemical_formula_sum   'In12 Te12 I4'
_cell_volume   1072.38492272
_cell_formula_units_Z   4
loop_
 _symmetry_equiv_pos_site_id
 _symmetry_equiv_pos_as_xyz
  1  'x, y, z'
loop_
 _atom_site_type_symbol
 _atom_site_label
 _atom_site_symmetry_multiplicity
 _atom_site_fract_x
 _atom_site_fract_y
 _atom_site_fract_z
 _atom_site_occupancy
  In  In0  1  0.75024433  0.81916894  0.01278570  1
  In  In1  1  0.75000810  0.34791559  0.13292446  1
  In  In2  1  0.74982735  0.94422705  0.89422616  1
  In  In3  1  0.24997910  0.05587878  0.10573282  1
  In  In4  1  0.25002263  0.18083670  0.98715459  1
  In  In5  1  0.25005808  0.55591935  0.39427928  1
  In  In6  1  0.25014534  0.65226205  0.86694953  1
  In  In7  1  0.74997517  0.44419837  0.60585252  1
  In  In8  1  0.24990662  0.68077054  0.51278870  1
  In  In9  1  0.75010731  0.31918721  0.48717323  1
  In  In10  1  0.75017902  0.84800052  0.36704225  1
  In  In11  1  0.24999819  0.15211227  0.63295598  1
  Te  Te12  1  0.24998462  0.24057241  0.19777830  1
  Te  Te13  1  0.25017565  0.16069949  0.49377742  1
  Te  Te14  1  0.74980103  0.83920927  0.50626114  1
  Te  Te15  1  0.75002635  0.33927482  0.99375638  1
  Te  Te16  1  0.24988523  0.66067942  0.00624618  1
  Te  Te17  1  0.75012114  0.91158607  0.14229654  1
  Te  Te18  1  0.74989049  0.41161379  0.35766866  1
  Te  Te19  1  0.75003680  0.25940174  0.69782575  1
  Te  Te20  1  0.24990530  0.58832448  0.64233970  1
  Te  Te21  1  0.24989428  0.08833208  0.85769015  1
  Te  Te22  1  0.24985591  0.74050471  0.30218717  1
  Te  Te23  1  0.75023109  0.75930149  0.80224508  1
  I  I24  1  0.74997285  0.07007979  0.32734737  1
  I  I25  1  0.24992662  0.92993170  0.67266856  1
  I  I26  1  0.74993476  0.57002011  0.17266098  1
  I  I27  1  0.24990663  0.42999124  0.82738539  1
