# generated using pymatgen
data_LiP5
_symmetry_space_group_name_H-M   'P 1'
_cell_length_a   6.12669839
_cell_length_b   8.07888509
_cell_length_c   9.51208590
_cell_angle_alpha   90.00000000
_cell_angle_beta   90.00000000
_cell_angle_gamma   90.00000000
_symmetry_Int_Tables_number   1
_chemical_formula_structural   LiP5
_chemical_formula_sum   'Li4 P20'
_cell_volume   470.81869109
_cell_formula_units_Z   4
loop_
 _symmetry_equiv_pos_site_id
 _symmetry_equiv_pos_as_xyz
  1  'x, y, z'
loop_
 _atom_site_type_symbol
 _atom_site_label
 _atom_site_symmetry_multiplicity
 _atom_site_fract_x
 _atom_site_fract_y
 _atom_site_fract_z
 _atom_site_occupancy
  Li  Li0  1  0.23486336  0.63158818  0.36370767  1
  Li  Li1  1  0.23486336  0.86841182  0.86370767  1
  Li  Li2  1  0.73486336  0.13158818  0.13629233  1
  Li  Li3  1  0.73486336  0.36841182  0.63629233  1
  P  P4  1  0.14273606  0.50923376  0.11387242  1
  P  P5  1  0.14273606  0.99076624  0.61387242  1
  P  P6  1  0.28140516  0.55416014  0.89724554  1
  P  P7  1  0.07150561  0.14187439  -0.04418342  1
  P  P8  1  0.28936372  0.24813710  0.61510155  1
  P  P9  1  0.07150561  0.35812561  0.45581658  1
  P  P10  1  0.28936372  0.25186290  0.11510155  1
  P  P11  1  0.28140516  0.94583986  0.39724554  1
  P  P12  1  0.59812609  0.65809583  0.19963559  1
  P  P13  1  0.59812609  0.84190417  0.69963559  1
  P  P14  1  0.64273606  0.00923376  0.38612758  1
  P  P15  1  0.64273606  0.49076624  0.88612758  1
  P  P16  1  0.78936372  0.74813710  0.88489845  1
  P  P17  1  0.78140516  0.44583986  0.10275446  1
  P  P18  1  0.57150561  0.85812561  1.04418342  1
  P  P19  1  0.78936372  0.75186290  0.38489845  1
  P  P20  1  0.78140516  0.05416014  0.60275446  1
  P  P21  1  0.57150561  0.64187439  0.54418342  1
  P  P22  1  0.09812609  0.15809583  0.30036441  1
  P  P23  1  0.09812609  0.34190417  0.80036441  1
