# generated using pymatgen
data_Cs2CuCl4
_symmetry_space_group_name_H-M   'P 1'
_cell_length_a   7.78238181
_cell_length_b   9.96156779
_cell_length_c   12.39000553
_cell_angle_alpha   90.00000000
_cell_angle_beta   90.00000000
_cell_angle_gamma   90.00000000
_symmetry_Int_Tables_number   1
_chemical_formula_structural   Cs2CuCl4
_chemical_formula_sum   'Cs8 Cu4 Cl16'
_cell_volume   960.53175867
_cell_formula_units_Z   4
loop_
 _symmetry_equiv_pos_site_id
 _symmetry_equiv_pos_as_xyz
  1  'x, y, z'
loop_
 _atom_site_type_symbol
 _atom_site_label
 _atom_site_symmetry_multiplicity
 _atom_site_fract_x
 _atom_site_fract_y
 _atom_site_fract_z
 _atom_site_occupancy
  Cs  Cs0  1  0.25000000  0.13378102  0.10228382  1
  Cs  Cs1  1  0.75000000  0.36621898  0.60228382  1
  Cs  Cs2  1  0.25000000  0.63378102  0.39771618  1
  Cs  Cs3  1  0.25000000  0.00890434  0.67322656  1
  Cs  Cs4  1  0.75000000  0.99109566  0.32677344  1
  Cs  Cs5  1  0.75000000  0.86621898  0.89771618  1
  Cs  Cs6  1  0.25000000  0.50890434  0.82677344  1
  Cs  Cs7  1  0.75000000  0.49109566  0.17322656  1
  Cu  Cu8  1  0.25000000  0.73193413  0.08400436  1
  Cu  Cu9  1  0.25000000  0.23193413  0.41599564  1
  Cu  Cu10  1  0.75000000  0.76806587  0.58400436  1
  Cu  Cu11  1  0.75000000  0.26806587  0.91599564  1
  Cl  Cl12  1  0.51636408  0.28254216  0.35949590  1
  Cl  Cl13  1  0.98363592  0.28254216  0.35949590  1
  Cl  Cl14  1  0.51636408  0.78254216  0.14050410  1
  Cl  Cl15  1  0.25000000  0.35792188  0.56929017  1
  Cl  Cl16  1  0.01636408  0.71745784  0.64050410  1
  Cl  Cl17  1  0.25000000  0.85792188  0.93070983  1
  Cl  Cl18  1  0.48363592  0.21745784  0.85949590  1
  Cl  Cl19  1  0.75000000  0.49245124  0.88086670  1
  Cl  Cl20  1  0.98363592  0.78254216  0.14050410  1
  Cl  Cl21  1  0.25000000  0.50754876  0.11913330  1
  Cl  Cl22  1  0.01636408  0.21745784  0.85949590  1
  Cl  Cl23  1  0.75000000  0.99245124  0.61913330  1
  Cl  Cl24  1  0.48363592  0.71745784  0.64050410  1
  Cl  Cl25  1  0.75000000  0.64207812  0.43070983  1
  Cl  Cl26  1  0.75000000  0.14207812  0.06929017  1
  Cl  Cl27  1  0.25000000  0.00754876  0.38086670  1
