# generated using pymatgen
data_InCu6ClO8
_symmetry_space_group_name_H-M   'P 1'
_cell_length_a   6.52029865
_cell_length_b   6.51915790
_cell_length_c   6.52054946
_cell_angle_alpha   60.05264942
_cell_angle_beta   60.06582532
_cell_angle_gamma   60.05631544
_symmetry_Int_Tables_number   1
_chemical_formula_structural   InCu6ClO8
_chemical_formula_sum   'In1 Cu6 Cl1 O8'
_cell_volume   196.24620859
_cell_formula_units_Z   1
loop_
 _symmetry_equiv_pos_site_id
 _symmetry_equiv_pos_as_xyz
  1  'x, y, z'
loop_
 _atom_site_type_symbol
 _atom_site_label
 _atom_site_symmetry_multiplicity
 _atom_site_fract_x
 _atom_site_fract_y
 _atom_site_fract_z
 _atom_site_occupancy
  In  In0  1  0.49999937  0.49999945  0.50000136  1
  Cu  Cu1  1  0.50000008  0.00000208  0.49999491  1
  Cu  Cu2  1  0.50000185  0.50000013  0.99999921  1
  Cu  Cu3  1  0.99999981  0.50000112  0.49999919  1
  Cu  Cu4  1  -0.00000251  0.50000018  0.00000316  1
  Cu  Cu5  1  0.00000246  -0.00000100  0.49999936  1
  Cu  Cu6  1  0.50000284  0.99999760  0.00000056  1
  Cl  Cl7  1  0.99999927  0.00000012  0.00000014  1
  O  O8  1  0.64262980  0.07241192  0.64265015  1
  O  O9  1  0.07240484  0.64258242  0.64265680  1
  O  O10  1  0.64265856  0.64260607  0.07240494  1
  O  O11  1  0.92759279  0.35741749  0.35734559  1
  O  O12  1  0.64257034  0.64247421  0.64254141  1
  O  O13  1  0.35742967  0.35752588  0.35745873  1
  O  O14  1  0.35736935  0.92758785  0.35734980  1
  O  O15  1  0.35734149  0.35739447  0.92759468  1
