# generated using pymatgen
data_DyGe2Pt
_symmetry_space_group_name_H-M   'P 1'
_cell_length_a   4.35084494
_cell_length_b   8.80624200
_cell_length_c   9.54992143
_cell_angle_alpha   117.45576246
_cell_angle_beta   103.16727255
_cell_angle_gamma   90.00000357
_symmetry_Int_Tables_number   1
_chemical_formula_structural   DyGe2Pt
_chemical_formula_sum   'Dy4 Ge8 Pt4'
_cell_volume   313.80812387
_cell_formula_units_Z   4
loop_
 _symmetry_equiv_pos_site_id
 _symmetry_equiv_pos_as_xyz
  1  'x, y, z'
loop_
 _atom_site_type_symbol
 _atom_site_label
 _atom_site_symmetry_multiplicity
 _atom_site_fract_x
 _atom_site_fract_y
 _atom_site_fract_z
 _atom_site_occupancy
  Dy  Dy0  1  0.79725964  0.29725964  0.59451928  1
  Dy  Dy1  1  1.00000000  0.71998910  1.00000000  1
  Dy  Dy2  1  0.00000000  0.28001090  0.00000000  1
  Dy  Dy3  1  0.20274036  0.70274036  0.40548072  1
  Ge  Ge4  1  0.42542931  0.92542931  0.85085861  1
  Ge  Ge5  1  0.57457069  0.07457069  0.14914139  1
  Ge  Ge6  1  0.57498083  0.57498083  0.14996166  1
  Ge  Ge7  1  0.80085283  0.64933171  0.60170567  1
  Ge  Ge8  1  0.42501917  0.42501917  0.85003834  1
  Ge  Ge9  1  0.80085283  0.95237395  0.60170567  1
  Ge  Ge10  1  0.19914717  0.35066829  0.39829433  1
  Ge  Ge11  1  0.19914717  0.04762605  0.39829433  1
  Pt  Pt12  1  0.35206226  0.60333811  0.70412452  1
  Pt  Pt13  1  0.64793774  0.39666189  0.29587548  1
  Pt  Pt14  1  0.35206226  0.10078641  0.70412452  1
  Pt  Pt15  1  0.64793774  0.89921359  0.29587548  1
