# generated using pymatgen
data_CuCO3
_symmetry_space_group_name_H-M   'P 1'
_cell_length_a   3.09153654
_cell_length_b   4.64141771
_cell_length_c   4.64141784
_cell_angle_alpha   62.57684735
_cell_angle_beta   97.67368547
_cell_angle_gamma   97.67367395
_symmetry_Int_Tables_number   1
_chemical_formula_structural   CuCO3
_chemical_formula_sum   'Cu1 C1 O3'
_cell_volume   58.39016346
_cell_formula_units_Z   1
loop_
 _symmetry_equiv_pos_site_id
 _symmetry_equiv_pos_as_xyz
  1  'x, y, z'
loop_
 _atom_site_type_symbol
 _atom_site_label
 _atom_site_symmetry_multiplicity
 _atom_site_fract_x
 _atom_site_fract_y
 _atom_site_fract_z
 _atom_site_occupancy
  Cu  Cu0  1  0.46210587  0.43654585  0.43654585  1
  C  C1  1  0.11058810  0.02146358  0.02146358  1
  O  O2  1  0.97761453  0.17164675  0.70691002  1
  O  O3  1  0.97761453  0.70691002  0.17164675  1
  O  O4  1  0.38707797  0.15343380  0.15343380  1
