# generated using pymatgen
data_Hf8MnTe6
_symmetry_space_group_name_H-M   'P 1'
_cell_length_a   3.74896666
_cell_length_b   7.69958044
_cell_length_c   26.09395667
_cell_angle_alpha   90.03457178
_cell_angle_beta   89.99989145
_cell_angle_gamma   90.00009139
_symmetry_Int_Tables_number   1
_chemical_formula_structural   Hf8MnTe6
_chemical_formula_sum   'Hf16 Mn2 Te12'
_cell_volume   753.21419583
_cell_formula_units_Z   2
loop_
 _symmetry_equiv_pos_site_id
 _symmetry_equiv_pos_as_xyz
  1  'x, y, z'
loop_
 _atom_site_type_symbol
 _atom_site_label
 _atom_site_symmetry_multiplicity
 _atom_site_fract_x
 _atom_site_fract_y
 _atom_site_fract_z
 _atom_site_occupancy
  Hf  Hf0  1  0.25000279  0.57204979  0.24999928  1
  Hf  Hf1  1  0.75000206  0.55883595  0.55157017  1
  Hf  Hf2  1  0.25000157  0.44677534  0.84897295  1
  Hf  Hf3  1  0.74999840  0.55337199  0.15098110  1
  Hf  Hf4  1  0.74999969  0.76258482  0.81728995  1
  Hf  Hf5  1  0.74999989  0.42768128  0.75000237  1
  Hf  Hf6  1  0.25000044  0.03788314  0.75000216  1
  Hf  Hf7  1  0.25000082  0.23741074  0.18263858  1
  Hf  Hf8  1  0.75000071  0.96230300  0.24999875  1
  Hf  Hf9  1  0.74999859  0.76250680  0.68271621  1
  Hf  Hf10  1  0.25000137  0.44101917  0.05159732  1
  Hf  Hf11  1  0.75000192  0.55327469  0.34906695  1
  Hf  Hf12  1  0.25000162  0.23748104  0.31736798  1
  Hf  Hf13  1  0.24999902  0.44113902  0.44849168  1
  Hf  Hf14  1  0.25000032  0.44686854  0.65097749  1
  Hf  Hf15  1  0.75000173  0.55896497  0.94833106  1
  Mn  Mn16  1  0.74998674  0.31870686  0.25005244  1
  Mn  Mn17  1  0.24998170  0.68096041  0.74995319  1
  Te  Te18  1  0.25000066  0.80070005  0.59369031  1
  Te  Te19  1  0.75000210  0.72125394  0.04796570  1
  Te  Te20  1  0.75000121  0.19904295  0.09368539  1
  Te  Te21  1  0.25000195  0.27870705  0.54797744  1
  Te  Te22  1  0.75000084  0.15136599  0.83158938  1
  Te  Te23  1  0.75000442  0.72133092  0.45206099  1
  Te  Te24  1  0.75000185  0.15130567  0.66841289  1
  Te  Te25  1  0.25000196  0.27879652  0.95199293  1
  Te  Te26  1  0.25000232  0.80095422  0.90628838  1
  Te  Te27  1  0.75000105  0.19928433  0.40633847  1
  Te  Te28  1  0.25000098  0.84870057  0.16837449  1
  Te  Te29  1  0.25000128  0.84874023  0.33161400  1
