# generated using pymatgen
data_K2Fe2As2O9
_symmetry_space_group_name_H-M   'P 1'
_cell_length_a   5.84330649
_cell_length_b   8.67223733
_cell_length_c   18.26067132
_cell_angle_alpha   90.00000000
_cell_angle_beta   90.00000000
_cell_angle_gamma   90.00000000
_symmetry_Int_Tables_number   1
_chemical_formula_structural   K2Fe2As2O9
_chemical_formula_sum   'K8 Fe8 As8 O36'
_cell_volume   925.35113153
_cell_formula_units_Z   4
loop_
 _symmetry_equiv_pos_site_id
 _symmetry_equiv_pos_as_xyz
  1  'x, y, z'
loop_
 _atom_site_type_symbol
 _atom_site_label
 _atom_site_symmetry_multiplicity
 _atom_site_fract_x
 _atom_site_fract_y
 _atom_site_fract_z
 _atom_site_occupancy
  K  K0  1  0.75000000  0.95576202  0.26548771  1
  K  K1  1  0.25000000  0.09958757  0.13300699  1
  K  K2  1  0.75000000  0.45576202  0.23451229  1
  K  K3  1  0.75000000  0.90041243  0.86699301  1
  K  K4  1  0.25000000  0.54423798  0.76548771  1
  K  K5  1  0.25000000  0.04423798  0.73451229  1
  K  K6  1  0.25000000  0.59958757  0.36699301  1
  K  K7  1  0.75000000  0.40041243  0.63300699  1
  Fe  Fe8  1  0.25000000  0.71500797  0.56594269  1
  Fe  Fe9  1  0.75000000  0.78499203  0.06594269  1
  Fe  Fe10  1  0.25000000  0.21500797  0.93405731  1
  Fe  Fe11  1  0.00000000  0.50000000  0.00000000  1
  Fe  Fe12  1  0.75000000  0.28499203  0.43405731  1
  Fe  Fe13  1  0.50000000  0.00000000  0.50000000  1
  Fe  Fe14  1  0.00000000  0.00000000  0.50000000  1
  Fe  Fe15  1  0.50000000  0.50000000  0.00000000  1
  As  As16  1  0.25000000  0.82341509  0.94152901  1
  As  As17  1  0.25000000  0.68219150  0.14773905  1
  As  As18  1  0.75000000  0.81780850  0.64773905  1
  As  As19  1  0.75000000  0.17658491  0.05847099  1
  As  As20  1  0.75000000  0.31780850  0.85226095  1
  As  As21  1  0.25000000  0.18219150  0.35226095  1
  As  As22  1  0.75000000  0.67658491  0.44152901  1
  As  As23  1  0.25000000  0.32341509  0.55847099  1
  O  O24  1  0.75000000  0.45793172  0.92270655  1
  O  O25  1  0.00987571  0.30086328  0.36171669  1
  O  O26  1  0.49547037  0.73239771  0.97601635  1
  O  O27  1  0.00452963  0.73239771  0.97601635  1
  O  O28  1  0.75000000  0.41442912  0.77287270  1
  O  O29  1  0.25000000  0.00802876  0.97513833  1
  O  O30  1  0.99547037  0.76760229  0.47601635  1
  O  O31  1  0.25000000  0.44182410  0.93398816  1
  O  O32  1  0.25000000  0.94182410  0.56601184  1
  O  O33  1  0.25000000  0.54206828  0.07729345  1
  O  O34  1  0.25000000  0.81796855  0.84924726  1
  O  O35  1  0.50987571  0.69913672  0.63828331  1
  O  O36  1  0.25000000  0.08557088  0.27287270  1
  O  O37  1  0.00452963  0.23239771  0.52398365  1
  O  O38  1  0.25000000  0.04206828  0.42270655  1
  O  O39  1  0.49012429  0.30086328  0.36171669  1
  O  O40  1  0.75000000  0.95793172  0.57729345  1
  O  O41  1  0.75000000  0.05817590  0.43398816  1
  O  O42  1  0.99012429  0.69913672  0.63828331  1
  O  O43  1  0.99547037  0.26760229  0.02398365  1
  O  O44  1  0.75000000  0.68203145  0.34924726  1
  O  O45  1  0.75000000  0.49197124  0.47513833  1
  O  O46  1  0.49012429  0.80086328  0.13828331  1
  O  O47  1  0.25000000  0.58557088  0.22712730  1
  O  O48  1  0.50452963  0.76760229  0.47601635  1
  O  O49  1  0.75000000  0.91442912  0.72712730  1
  O  O50  1  0.49547037  0.23239771  0.52398365  1
  O  O51  1  0.50452963  0.26760229  0.02398365  1
  O  O52  1  0.25000000  0.50802876  0.52486167  1
  O  O53  1  0.50987571  0.19913672  0.86171669  1
  O  O54  1  0.25000000  0.31796855  0.65075274  1
  O  O55  1  0.75000000  0.55817590  0.06601184  1
  O  O56  1  0.00987571  0.80086328  0.13828331  1
  O  O57  1  0.75000000  0.99197124  0.02486167  1
  O  O58  1  0.75000000  0.18203145  0.15075274  1
  O  O59  1  0.99012429  0.19913672  0.86171669  1
