# generated using pymatgen
data_ReHgO4
_symmetry_space_group_name_H-M   'P 1'
_cell_length_a   5.20278675
_cell_length_b   5.82510400
_cell_length_c   14.63964400
_cell_angle_alpha   91.60862382
_cell_angle_beta   90.00000000
_cell_angle_gamma   90.00000000
_symmetry_Int_Tables_number   1
_chemical_formula_structural   ReHgO4
_chemical_formula_sum   'Re4 Hg4 O16'
_cell_volume   443.50552682
_cell_formula_units_Z   4
loop_
 _symmetry_equiv_pos_site_id
 _symmetry_equiv_pos_as_xyz
  1  'x, y, z'
loop_
 _atom_site_type_symbol
 _atom_site_label
 _atom_site_symmetry_multiplicity
 _atom_site_fract_x
 _atom_site_fract_y
 _atom_site_fract_z
 _atom_site_occupancy
  Re  Re0  1  0.85781075  0.98519410  0.84404670  1
  Re  Re1  1  0.14218925  0.01480590  0.15595330  1
  Re  Re2  1  0.35781075  0.51480590  0.65595330  1
  Re  Re3  1  0.64218925  0.48519410  0.34404670  1
  Hg  Hg4  1  0.17266470  0.04295930  0.43795386  1
  Hg  Hg5  1  0.32733530  0.54295930  0.93795386  1
  Hg  Hg6  1  0.67266470  0.45704070  0.06204614  1
  Hg  Hg7  1  0.82733530  0.95704070  0.56204614  1
  O  O8  1  0.98349790  0.71027140  0.86910618  1
  O  O9  1  0.01650210  0.28972860  0.13089382  1
  O  O10  1  0.42638031  0.45121960  0.76974095  1
  O  O11  1  0.48349790  0.78972860  0.63089382  1
  O  O12  1  0.98672600  0.19905103  0.91708346  1
  O  O13  1  0.97394686  0.47256020  0.36147463  1
  O  O14  1  0.51327400  0.69905103  0.41708346  1
  O  O15  1  0.92638031  0.04878040  0.73025905  1
  O  O16  1  0.51650210  0.21027140  0.36910618  1
  O  O17  1  0.52605314  0.97256020  0.86147463  1
  O  O18  1  0.02605314  0.52743980  0.63852537  1
  O  O19  1  0.57361969  0.54878040  0.23025905  1
  O  O20  1  0.47394686  0.02743980  0.13852537  1
  O  O21  1  0.07361969  0.95121960  0.26974095  1
  O  O22  1  0.48672600  0.30094897  0.58291654  1
  O  O23  1  0.01327400  0.80094897  0.08291654  1
