# generated using pymatgen
data_CsUVO6
_symmetry_space_group_name_H-M   'P 1'
_cell_length_a   7.83956462
_cell_length_b   8.49540596
_cell_length_c   10.62829453
_cell_angle_alpha   90.00000000
_cell_angle_beta   106.07022686
_cell_angle_gamma   90.00000000
_symmetry_Int_Tables_number   1
_chemical_formula_structural   CsUVO6
_chemical_formula_sum   'Cs4 U4 V4 O24'
_cell_volume   680.18697047
_cell_formula_units_Z   4
loop_
 _symmetry_equiv_pos_site_id
 _symmetry_equiv_pos_as_xyz
  1  'x, y, z'
loop_
 _atom_site_type_symbol
 _atom_site_label
 _atom_site_symmetry_multiplicity
 _atom_site_fract_x
 _atom_site_fract_y
 _atom_site_fract_z
 _atom_site_occupancy
  Cs  Cs0  1  0.46549328  0.73292160  0.13573338  1
  Cs  Cs1  1  0.53450672  0.23292160  0.36426662  1
  Cs  Cs2  1  0.53450672  0.26707840  0.86426662  1
  Cs  Cs3  1  0.46549328  0.76707840  0.63573338  1
  U  U4  1  0.01042808  0.51829462  0.31985864  1
  U  U5  1  0.98957192  0.01829462  0.18014136  1
  U  U6  1  0.98957192  0.48170538  0.68014136  1
  U  U7  1  0.01042808  0.98170538  0.81985864  1
  V  V8  1  0.90057307  0.85217656  0.44245232  1
  V  V9  1  0.09942693  0.35217656  0.05754768  1
  V  V10  1  0.09942693  0.14782344  0.55754768  1
  V  V11  1  0.90057307  0.64782344  0.94245232  1
  O  O12  1  0.24892387  0.55980232  0.38020652  1
  O  O13  1  0.75107613  0.05980232  0.11979348  1
  O  O14  1  0.75107613  0.44019768  0.61979348  1
  O  O15  1  0.24892387  0.94019768  0.88020652  1
  O  O16  1  0.22686652  0.97420668  0.23984686  1
  O  O17  1  0.77313348  0.47420668  0.26015314  1
  O  O18  1  0.77313348  0.02579332  0.76015314  1
  O  O19  1  0.22686652  0.52579332  0.73984686  1
  O  O20  1  0.97093267  0.65501551  0.50499940  1
  O  O21  1  0.02906733  0.15501551  -0.00499940  1
  O  O22  1  0.02906733  0.34498449  0.49500060  1
  O  O23  1  0.97093267  0.84498449  0.00499940  1
  O  O24  1  0.68691657  0.86617023  0.42982223  1
  O  O25  1  0.31308343  0.36617023  0.07017777  1
  O  O26  1  0.31308343  0.13382977  0.57017777  1
  O  O27  1  0.68691657  0.63382977  0.92982223  1
  O  O28  1  0.03087541  0.55961082  0.10703301  1
  O  O29  1  0.96912459  0.05961082  0.39296699  1
  O  O30  1  0.96912459  0.44038918  0.89296699  1
  O  O31  1  0.03087541  0.94038918  0.60703301  1
  O  O32  1  0.92724904  0.78861718  0.28282486  1
  O  O33  1  0.07275096  0.28861718  0.21717514  1
  O  O34  1  0.07275096  0.21138282  0.71717514  1
  O  O35  1  0.92724904  0.71138282  0.78282486  1
