# generated using pymatgen
data_RbTa(CuTe2)2
_symmetry_space_group_name_H-M   'P 1'
_cell_length_a   6.02425557
_cell_length_b   8.25062573
_cell_length_c   20.49239306
_cell_angle_alpha   90.00000000
_cell_angle_beta   90.00000000
_cell_angle_gamma   90.00000000
_symmetry_Int_Tables_number   1
_chemical_formula_structural   RbTa(CuTe2)2
_chemical_formula_sum   'Rb4 Ta4 Cu8 Te16'
_cell_volume   1018.55140479
_cell_formula_units_Z   4
loop_
 _symmetry_equiv_pos_site_id
 _symmetry_equiv_pos_as_xyz
  1  'x, y, z'
loop_
 _atom_site_type_symbol
 _atom_site_label
 _atom_site_symmetry_multiplicity
 _atom_site_fract_x
 _atom_site_fract_y
 _atom_site_fract_z
 _atom_site_occupancy
  Rb  Rb0  1  0.74267811  0.25649716  0.06343454  1
  Rb  Rb1  1  0.24267811  0.24350284  0.56343454  1
  Rb  Rb2  1  0.24267811  0.74350284  0.93656546  1
  Rb  Rb3  1  0.74267811  0.75649716  0.43656546  1
  Ta  Ta4  1  0.49954411  0.75533412  0.14514859  1
  Ta  Ta5  1  0.99954411  0.74466588  0.64514859  1
  Ta  Ta6  1  0.99954411  0.24466588  0.85485141  1
  Ta  Ta7  1  0.49954411  0.25533412  0.35485141  1
  Cu  Cu8  1  0.50005092  0.24487708  0.85514502  1
  Cu  Cu9  1  0.00005092  0.25512292  0.35514502  1
  Cu  Cu10  1  0.98858883  0.49645284  0.75083124  1
  Cu  Cu11  1  0.48858883  0.50354716  0.24916876  1
  Cu  Cu12  1  0.50005092  0.74487708  0.64485498  1
  Cu  Cu13  1  0.48858883  0.00354716  0.25083124  1
  Cu  Cu14  1  0.98858883  0.99645284  0.74916876  1
  Cu  Cu15  1  0.00005092  0.75512292  0.14485498  1
  Te  Te16  1  0.24724876  0.99415714  0.35732929  1
  Te  Te17  1  0.25756841  0.74640361  0.75086719  1
  Te  Te18  1  0.25756841  0.24640361  0.74913281  1
  Te  Te19  1  0.74724876  0.50584286  0.85732929  1
  Te  Te20  1  0.74704365  0.98360105  0.85531759  1
  Te  Te21  1  0.24927720  0.74112884  0.54003708  1
  Te  Te22  1  0.75756841  0.25359639  0.24913281  1
  Te  Te23  1  0.74927720  0.75887116  0.04003708  1
  Te  Te24  1  0.74704365  0.48360105  0.64468241  1
  Te  Te25  1  0.74927720  0.25887116  0.45996292  1
  Te  Te26  1  0.24704365  0.51639895  0.35531759  1
  Te  Te27  1  0.74724876  0.00584286  0.64267071  1
  Te  Te28  1  0.24927720  0.24112884  0.95996292  1
  Te  Te29  1  0.24724876  0.49415714  0.14267071  1
  Te  Te30  1  0.75756841  0.75359639  0.25086719  1
  Te  Te31  1  0.24704365  0.01639895  0.14468241  1
