# generated using pymatgen
data_K2NaMnO4
_symmetry_space_group_name_H-M   'P 1'
_cell_length_a   7.81866659
_cell_length_b   7.81866697
_cell_length_c   10.14696487
_cell_angle_alpha   110.70893373
_cell_angle_beta   110.70893481
_cell_angle_gamma   94.71222894
_symmetry_Int_Tables_number   1
_chemical_formula_structural   K2NaMnO4
_chemical_formula_sum   'K8 Na4 Mn4 O16'
_cell_volume   527.29499909
_cell_formula_units_Z   4
loop_
 _symmetry_equiv_pos_site_id
 _symmetry_equiv_pos_as_xyz
  1  'x, y, z'
loop_
 _atom_site_type_symbol
 _atom_site_label
 _atom_site_symmetry_multiplicity
 _atom_site_fract_x
 _atom_site_fract_y
 _atom_site_fract_z
 _atom_site_occupancy
  K  K0  1  0.05795492  0.30795492  0.25000000  1
  K  K1  1  0.69204508  0.94204508  0.25000000  1
  K  K2  1  0.30795492  0.05795492  0.75000000  1
  K  K3  1  0.73529990  0.48529990  0.97059980  1
  K  K4  1  0.48529990  0.73529990  0.47059980  1
  K  K5  1  0.26470010  0.51470010  0.02940020  1
  K  K6  1  0.94204508  0.69204508  0.75000000  1
  K  K7  1  0.51470010  0.26470010  0.52940020  1
  Na  Na8  1  0.71669461  0.96669461  0.93338923  1
  Na  Na9  1  0.96669461  0.71669461  0.43338923  1
  Na  Na10  1  0.28330539  0.03330539  0.06661077  1
  Na  Na11  1  0.03330539  0.28330539  0.56661077  1
  Mn  Mn12  1  0.86881416  0.13118584  0.75000000  1
  Mn  Mn13  1  0.13118584  0.86881416  0.25000000  1
  Mn  Mn14  1  0.61881416  0.38118584  0.25000000  1
  Mn  Mn15  1  0.38118584  0.61881416  0.75000000  1
  O  O16  1  0.91793928  0.35643744  0.76244178  1
  O  O17  1  0.35643744  0.91793928  0.26244178  1
  O  O18  1  0.61581969  0.20397971  0.08843440  1
  O  O19  1  0.08206072  0.64356256  0.23755822  1
  O  O20  1  0.38418031  0.79602029  0.91156560  1
  O  O21  1  0.20397971  0.61581969  0.58843440  1
  O  O22  1  0.88445469  0.97261471  0.58843440  1
  O  O23  1  0.64356256  0.08206072  0.73755822  1
  O  O24  1  0.97261471  0.88445469  0.08843440  1
  O  O25  1  0.40600434  0.34450250  0.26244178  1
  O  O26  1  0.65549750  0.59399566  0.23755822  1
  O  O27  1  0.34450250  0.40600434  0.76244178  1
  O  O28  1  0.59399566  0.65549750  0.73755822  1
  O  O29  1  0.02738529  0.11554531  0.91156560  1
  O  O30  1  0.79602029  0.38418031  0.41156560  1
  O  O31  1  0.11554531  0.02738529  0.41156560  1
