# generated using pymatgen
data_Tm2MgS4
_symmetry_space_group_name_H-M   'P 1'
_cell_length_a   7.11790526
_cell_length_b   7.11790503
_cell_length_c   7.11790509
_cell_angle_alpha   110.43438502
_cell_angle_beta   110.43438477
_cell_angle_gamma   107.56159716
_symmetry_Int_Tables_number   1
_chemical_formula_structural   Tm2MgS4
_chemical_formula_sum   'Tm4 Mg2 S8'
_cell_volume   277.37942935
_cell_formula_units_Z   2
loop_
 _symmetry_equiv_pos_site_id
 _symmetry_equiv_pos_as_xyz
  1  'x, y, z'
loop_
 _atom_site_type_symbol
 _atom_site_label
 _atom_site_symmetry_multiplicity
 _atom_site_fract_x
 _atom_site_fract_y
 _atom_site_fract_z
 _atom_site_occupancy
  Mg  Mg0  1  0.62500000  0.37500000  0.25000000  1
  Mg  Mg1  1  0.87500000  0.12500000  0.75000000  1
  S  S2  1  0.00500835  0.88487731  0.51131955  1
  S  S3  1  0.49499165  0.00631120  0.87986896  1
  S  S4  1  0.11512269  0.12644224  0.12013104  1
  S  S5  1  0.38487731  0.50500835  0.01131955  1
  S  S6  1  0.62644224  0.61512269  0.62013104  1
  S  S7  1  0.50631120  0.99499165  0.37986896  1
  S  S8  1  0.87355776  0.49368880  0.98868045  1
  S  S9  1  0.99368880  0.37355776  0.48868045  1
  Tm  Tm10  1  0.11719378  0.75000000  0.86719378  1
  Tm  Tm11  1  0.25000000  0.61719378  0.36719378  1
  Tm  Tm12  1  0.38280622  0.25000000  0.63280622  1
  Tm  Tm13  1  0.75000000  0.88280622  0.13280622  1
