# generated using pymatgen
data_Sr2VClO4
_symmetry_space_group_name_H-M   'P 1'
_cell_length_a   6.65209120
_cell_length_b   7.58982873
_cell_length_c   11.64674080
_cell_angle_alpha   90.00000000
_cell_angle_beta   90.00000000
_cell_angle_gamma   90.00000000
_symmetry_Int_Tables_number   1
_chemical_formula_structural   Sr2VClO4
_chemical_formula_sum   'Sr8 V4 Cl4 O16'
_cell_volume   588.02336209
_cell_formula_units_Z   4
loop_
 _symmetry_equiv_pos_site_id
 _symmetry_equiv_pos_as_xyz
  1  'x, y, z'
loop_
 _atom_site_type_symbol
 _atom_site_label
 _atom_site_symmetry_multiplicity
 _atom_site_fract_x
 _atom_site_fract_y
 _atom_site_fract_z
 _atom_site_occupancy
  Sr  Sr0  1  0.86230217  0.53336632  0.75000000  1
  Sr  Sr1  1  0.37566406  0.75000000  0.50000000  1
  Sr  Sr2  1  0.13769783  0.46663368  0.25000000  1
  Sr  Sr3  1  0.37566406  0.75000000  0.00000000  1
  Sr  Sr4  1  0.13769783  0.03336632  0.75000000  1
  Sr  Sr5  1  0.86230217  0.96663368  0.25000000  1
  Sr  Sr6  1  0.62433594  0.25000000  0.50000000  1
  Sr  Sr7  1  0.62433594  0.25000000  0.00000000  1
  V  V8  1  0.12793672  0.25000000  0.00000000  1
  V  V9  1  0.12793672  0.25000000  0.50000000  1
  V  V10  1  0.87206328  0.75000000  0.50000000  1
  V  V11  1  0.87206328  0.75000000  0.00000000  1
  Cl  Cl12  1  0.49288981  0.19176177  0.25000000  1
  Cl  Cl13  1  0.50711019  0.69176177  0.25000000  1
  Cl  Cl14  1  0.50711019  0.80823823  0.75000000  1
  Cl  Cl15  1  0.49288981  0.30823823  0.75000000  1
  O  O16  1  0.28523267  0.07267974  0.97040051  1
  O  O17  1  0.28523267  0.42732026  0.02959949  1
  O  O18  1  0.02827830  0.77414522  0.61974043  1
  O  O19  1  0.97172170  0.22585478  0.11974043  1
  O  O20  1  0.71476733  0.92732026  0.02959949  1
  O  O21  1  0.02827830  0.72585478  0.11974043  1
  O  O22  1  0.71476733  0.57267974  0.52959949  1
  O  O23  1  0.97172170  0.27414522  0.88025957  1
  O  O24  1  0.97172170  0.27414522  0.61974043  1
  O  O25  1  0.71476733  0.57267974  0.97040051  1
  O  O26  1  0.02827830  0.77414522  0.88025957  1
  O  O27  1  0.02827830  0.72585478  0.38025957  1
  O  O28  1  0.97172170  0.22585478  0.38025957  1
  O  O29  1  0.28523267  0.07267974  0.52959949  1
  O  O30  1  0.71476733  0.92732026  0.47040051  1
  O  O31  1  0.28523267  0.42732026  0.47040051  1
