# generated using pymatgen
data_RbPO3
_symmetry_space_group_name_H-M   'P 1'
_cell_length_a   4.62081093
_cell_length_b   12.28849644
_cell_length_c   14.46938514
_cell_angle_alpha   114.60132862
_cell_angle_beta   90.00000000
_cell_angle_gamma   90.00000000
_symmetry_Int_Tables_number   1
_chemical_formula_structural   RbPO3
_chemical_formula_sum   'Rb8 P8 O24'
_cell_volume   747.03179606
_cell_formula_units_Z   8
loop_
 _symmetry_equiv_pos_site_id
 _symmetry_equiv_pos_as_xyz
  1  'x, y, z'
loop_
 _atom_site_type_symbol
 _atom_site_label
 _atom_site_symmetry_multiplicity
 _atom_site_fract_x
 _atom_site_fract_y
 _atom_site_fract_z
 _atom_site_occupancy
  Rb  Rb0  1  0.78582541  0.81106341  0.37935333  1
  Rb  Rb1  1  0.26786822  0.16972641  0.08201579  1
  Rb  Rb2  1  0.73213178  0.83027359  0.91798421  1
  Rb  Rb3  1  0.21417459  0.18893659  0.62064667  1
  Rb  Rb4  1  0.76786822  0.33027359  0.41798421  1
  Rb  Rb5  1  0.71417459  0.31106341  0.87935333  1
  Rb  Rb6  1  0.23213178  0.66972641  0.58201579  1
  Rb  Rb7  1  0.28582541  0.68893659  0.12064667  1
  P  P8  1  0.68013130  0.48612778  0.69044326  1
  P  P9  1  0.81771168  0.45107415  0.16425415  1
  P  P10  1  0.81986870  0.98612778  0.19044326  1
  P  P11  1  0.18228832  0.54892585  0.83574585  1
  P  P12  1  0.31986870  0.51387222  0.30955674  1
  P  P13  1  0.68228832  0.95107415  0.66425415  1
  P  P14  1  0.31771168  0.04892585  0.33574585  1
  P  P15  1  0.18013130  0.01387222  0.80955674  1
  O  O16  1  0.24815069  0.17175947  0.41541170  1
  O  O17  1  0.25184931  0.67175947  0.91541170  1
  O  O18  1  0.20370088  0.14694949  0.84647891  1
  O  O19  1  0.29629912  0.64694949  0.34647891  1
  O  O20  1  0.79629912  0.85305051  0.15352109  1
  O  O21  1  0.71260454  0.05853277  0.64131190  1
  O  O22  1  0.24513038  0.45650619  0.38011340  1
  O  O23  1  0.21260454  0.44146723  0.85868810  1
  O  O24  1  0.14731399  0.44389515  0.20198011  1
  O  O25  1  0.28739546  0.94146723  0.35868810  1
  O  O26  1  0.64678551  0.46941051  0.26894878  1
  O  O27  1  0.14678551  0.03058949  0.23105122  1
  O  O28  1  0.35321449  0.53058949  0.73105122  1
  O  O29  1  0.85268601  0.55610485  0.79801989  1
  O  O30  1  0.78739546  0.55853277  0.14131190  1
  O  O31  1  0.75184931  0.82824053  0.58458830  1
  O  O32  1  0.35268601  0.94389515  0.70198011  1
  O  O33  1  0.25486962  0.95650619  0.88011340  1
  O  O34  1  0.70370088  0.35305051  0.65352109  1
  O  O35  1  0.85321449  0.96941051  0.76894878  1
  O  O36  1  0.74513038  0.04349381  0.11988660  1
  O  O37  1  0.75486962  0.54349381  0.61988660  1
  O  O38  1  0.64731399  0.05610485  0.29801989  1
  O  O39  1  0.74815069  0.32824053  0.08458830  1
