# generated using pymatgen
data_In4Te3
_symmetry_space_group_name_H-M   'P 1'
_cell_length_a   4.51586541
_cell_length_b   12.99524208
_cell_length_c   16.00012950
_cell_angle_alpha   90.00000000
_cell_angle_beta   90.00000000
_cell_angle_gamma   90.00000000
_symmetry_Int_Tables_number   1
_chemical_formula_structural   In4Te3
_chemical_formula_sum   'In16 Te12'
_cell_volume   938.96382694
_cell_formula_units_Z   4
loop_
 _symmetry_equiv_pos_site_id
 _symmetry_equiv_pos_as_xyz
  1  'x, y, z'
loop_
 _atom_site_type_symbol
 _atom_site_label
 _atom_site_symmetry_multiplicity
 _atom_site_fract_x
 _atom_site_fract_y
 _atom_site_fract_z
 _atom_site_occupancy
  In  In0  1  0.00000000  0.65517773  0.28516681  1
  In  In1  1  0.00000000  0.34482227  0.71483319  1
  In  In2  1  0.00000000  0.47451653  0.18304838  1
  In  In3  1  0.00000000  0.60312181  0.57250738  1
  In  In4  1  0.50000000  0.15517773  0.21483319  1
  In  In5  1  0.50000000  0.89687819  0.07250738  1
  In  In6  1  0.00000000  0.35362140  0.03564574  1
  In  In7  1  0.50000000  0.84482227  0.78516681  1
  In  In8  1  0.50000000  0.14637860  0.53564574  1
  In  In9  1  0.00000000  0.52548347  0.81695162  1
  In  In10  1  0.50000000  0.85362140  0.46435426  1
  In  In11  1  0.00000000  0.64637860  0.96435426  1
  In  In12  1  0.50000000  0.10312181  0.92749262  1
  In  In13  1  0.50000000  0.97451653  0.31695162  1
  In  In14  1  0.50000000  0.02548347  0.68304838  1
  In  In15  1  0.00000000  0.39687819  0.42749262  1
  Te  Te16  1  0.50000000  0.35166487  0.92258473  1
  Te  Te17  1  0.00000000  0.86384059  0.22552800  1
  Te  Te18  1  0.00000000  0.85166487  0.57741527  1
  Te  Te19  1  0.00000000  0.13942390  0.09599650  1
  Te  Te20  1  0.00000000  0.13615941  0.77447200  1
  Te  Te21  1  0.50000000  0.64833513  0.07741527  1
  Te  Te22  1  0.50000000  0.36384059  0.27447200  1
  Te  Te23  1  0.50000000  0.63942390  0.40400350  1
  Te  Te24  1  0.00000000  0.86057610  0.90400350  1
  Te  Te25  1  0.00000000  0.14833513  0.42258473  1
  Te  Te26  1  0.50000000  0.36057610  0.59599650  1
  Te  Te27  1  0.50000000  0.63615941  0.72552800  1
