# generated using pymatgen
data_Li2Mn15O32
_symmetry_space_group_name_H-M   'P 1'
_cell_length_a   5.82324960
_cell_length_b   5.82324873
_cell_length_c   23.46387209
_cell_angle_alpha   60.24061353
_cell_angle_beta   60.24061238
_cell_angle_gamma   60.00000106
_symmetry_Int_Tables_number   1
_chemical_formula_structural   Li2Mn15O32
_chemical_formula_sum   'Li2 Mn15 O32'
_cell_volume   564.65784585
_cell_formula_units_Z   1
loop_
 _symmetry_equiv_pos_site_id
 _symmetry_equiv_pos_as_xyz
  1  'x, y, z'
loop_
 _atom_site_type_symbol
 _atom_site_label
 _atom_site_symmetry_multiplicity
 _atom_site_fract_x
 _atom_site_fract_y
 _atom_site_fract_z
 _atom_site_occupancy
  Li  Li0  1  0.12603960  0.12603960  0.03047030  1
  Li  Li1  1  0.87884214  0.87884214  0.96586839  1
  Mn  Mn2  1  0.01131665  0.50203678  0.12115245  1
  Mn  Mn3  1  0.50203678  0.50203678  0.12115245  1
  Mn  Mn4  1  0.00206901  0.49333135  0.37781707  1
  Mn  Mn5  1  0.50203678  0.01131665  0.12115245  1
  Mn  Mn6  1  0.49333135  0.49333135  0.37781707  1
  Mn  Mn7  1  0.99850840  0.49917425  0.62578578  1
  Mn  Mn8  1  0.49808718  0.49808718  0.50143461  1
  Mn  Mn9  1  0.87906400  0.87906400  0.21570200  1
  Mn  Mn10  1  0.49333135  0.00206901  0.37781707  1
  Mn  Mn11  1  0.49917425  0.49917425  0.62578578  1
  Mn  Mn12  1  0.99481251  0.50179503  0.87539936  1
  Mn  Mn13  1  0.49917425  0.99850840  0.62578578  1
  Mn  Mn14  1  0.49879098  0.49879098  0.75090676  1
  Mn  Mn15  1  0.50179503  0.50179503  0.87539936  1
  Mn  Mn16  1  0.50179503  0.99481251  0.87539936  1
  O  O17  1  0.24725928  0.24725928  0.07180164  1
  O  O18  1  0.26771938  0.26771938  0.17421047  1
  O  O19  1  0.24725928  0.71827490  0.07180164  1
  O  O20  1  0.71827490  0.24725928  0.07180164  1
  O  O21  1  0.24948600  0.24948600  0.32509562  1
  O  O22  1  0.28655718  0.75097874  0.17787134  1
  O  O23  1  0.25970808  0.25970808  0.43021894  1
  O  O24  1  0.24948600  0.70064552  0.32509562  1
  O  O25  1  0.73944293  0.73944293  0.07041781  1
  O  O26  1  0.75097874  0.28655718  0.17787134  1
  O  O27  1  0.70064552  0.24948600  0.32509562  1
  O  O28  1  0.75097874  0.75097874  0.17787134  1
  O  O29  1  0.26400197  0.26400197  0.56699989  1
  O  O30  1  0.29404084  0.73298566  0.43499696  1
  O  O31  1  0.26474035  0.26474035  0.67644474  1
  O  O32  1  0.26400197  0.70399649  0.56699989  1
  O  O33  1  0.73711505  0.73711505  0.32216371  1
  O  O34  1  0.73298566  0.29404084  0.43499696  1
  O  O35  1  0.70399649  0.26400197  0.56699989  1
  O  O36  1  0.73298566  0.73298566  0.43499696  1
  O  O37  1  0.26593937  0.26593937  0.81634213  1
  O  O38  1  0.29446736  0.73489761  0.68393435  1
  O  O39  1  0.26295842  0.26295842  0.92778119  1
  O  O40  1  0.73356207  0.73356207  0.57482845  1
  O  O41  1  0.26593937  0.70275275  0.81634213  1
  O  O42  1  0.73489761  0.29446736  0.68393435  1
  O  O43  1  0.70275275  0.26593937  0.81634213  1
  O  O44  1  0.73489761  0.73489761  0.68393435  1
  O  O45  1  0.28317610  0.75949880  0.92445657  1
  O  O46  1  0.73554245  0.73554245  0.82334316  1
  O  O47  1  0.75949880  0.28317610  0.92445657  1
  O  O48  1  0.75949880  0.75949880  0.92445657  1
