# generated using pymatgen
data_CsHg2Br5
_symmetry_space_group_name_H-M   'P 1'
_cell_length_a   6.56869430
_cell_length_b   8.63027154
_cell_length_c   11.62938661
_cell_angle_alpha   107.29253879
_cell_angle_beta   90.00000000
_cell_angle_gamma   90.00000000
_symmetry_Int_Tables_number   1
_chemical_formula_structural   CsHg2Br5
_chemical_formula_sum   'Cs2 Hg4 Br10'
_cell_volume   629.46633813
_cell_formula_units_Z   2
loop_
 _symmetry_equiv_pos_site_id
 _symmetry_equiv_pos_as_xyz
  1  'x, y, z'
loop_
 _atom_site_type_symbol
 _atom_site_label
 _atom_site_symmetry_multiplicity
 _atom_site_fract_x
 _atom_site_fract_y
 _atom_site_fract_z
 _atom_site_occupancy
  Cs  Cs0  1  0.25000000  0.47113427  0.74583177  1
  Cs  Cs1  1  0.75000000  0.52886573  0.25416823  1
  Hg  Hg2  1  0.75000000  0.03776487  0.85905088  1
  Hg  Hg3  1  0.75000000  0.12836848  0.44383506  1
  Hg  Hg4  1  0.25000000  0.96223513  0.14094912  1
  Hg  Hg5  1  0.25000000  0.87163152  0.55616494  1
  Br  Br6  1  0.25000000  0.01277766  0.78803785  1
  Br  Br7  1  0.75000000  0.98722234  0.21196215  1
  Br  Br8  1  0.25000000  0.57441403  0.43247353  1
  Br  Br9  1  0.75000000  0.75841312  0.87531089  1
  Br  Br10  1  0.75000000  0.42558597  0.56752647  1
  Br  Br11  1  0.75000000  0.33702789  0.89929892  1
  Br  Br12  1  0.25000000  0.24158688  0.12468911  1
  Br  Br13  1  0.25000000  0.09802116  0.43803976  1
  Br  Br14  1  0.25000000  0.66297211  0.10070108  1
  Br  Br15  1  0.75000000  0.90197884  0.56196024  1
