# generated using pymatgen
data_ClF3
_symmetry_space_group_name_H-M   'P 1'
_cell_length_a   4.46775975
_cell_length_b   8.15960016
_cell_length_c   14.84646181
_cell_angle_alpha   96.20930980
_cell_angle_beta   90.00000000
_cell_angle_gamma   90.00000000
_symmetry_Int_Tables_number   1
_chemical_formula_structural   ClF3
_chemical_formula_sum   'Cl8 F24'
_cell_volume   538.05456513
_cell_formula_units_Z   8
loop_
 _symmetry_equiv_pos_site_id
 _symmetry_equiv_pos_as_xyz
  1  'x, y, z'
loop_
 _atom_site_type_symbol
 _atom_site_label
 _atom_site_symmetry_multiplicity
 _atom_site_fract_x
 _atom_site_fract_y
 _atom_site_fract_z
 _atom_site_occupancy
  Cl  Cl0  1  0.95936467  0.79401188  0.58988576  1
  Cl  Cl1  1  0.00536167  0.39144600  0.13340848  1
  Cl  Cl2  1  0.49463833  0.39144600  0.63340848  1
  Cl  Cl3  1  0.50536167  0.60855400  0.36659152  1
  Cl  Cl4  1  0.04063533  0.20598812  0.41011424  1
  Cl  Cl5  1  0.45936467  0.20598812  0.91011424  1
  Cl  Cl6  1  0.99463833  0.60855400  0.86659152  1
  Cl  Cl7  1  0.54063533  0.79401188  0.08988576  1
  F  F8  1  0.71167236  0.56902793  0.94704537  1
  F  F9  1  0.25819519  0.66080676  0.78927440  1
  F  F10  1  0.73975888  0.11665356  0.96977840  1
  F  F11  1  0.24180481  0.66080676  0.28927440  1
  F  F12  1  0.37111288  0.20234124  0.62589450  1
  F  F13  1  0.99855937  0.05807237  0.32772445  1
  F  F14  1  0.00144063  0.94192763  0.67227555  1
  F  F15  1  0.23975888  0.88334644  0.53022160  1
  F  F16  1  0.78832764  0.56902793  0.44704537  1
  F  F17  1  0.26024112  0.88334644  0.03022160  1
  F  F18  1  0.62888712  0.79765876  0.37410550  1
  F  F19  1  0.67934883  0.70994997  0.65714872  1
  F  F20  1  0.12888712  0.20234124  0.12589450  1
  F  F21  1  0.74180481  0.33919324  0.21072560  1
  F  F22  1  0.17934883  0.29005003  0.84285128  1
  F  F23  1  0.50144063  0.05807237  0.82772445  1
  F  F24  1  0.32065117  0.29005003  0.34285128  1
  F  F25  1  0.76024112  0.11665356  0.46977840  1
  F  F26  1  0.82065117  0.70994997  0.15714872  1
  F  F27  1  0.21167236  0.43097207  0.55295463  1
  F  F28  1  0.28832764  0.43097207  0.05295463  1
  F  F29  1  0.49855937  0.94192763  0.17227555  1
  F  F30  1  0.75819519  0.33919324  0.71072560  1
  F  F31  1  0.87111288  0.79765876  0.87410550  1
