# generated using pymatgen
data_Pb3(IO)2
_symmetry_space_group_name_H-M   'P 1'
_cell_length_a   6.04274530
_cell_length_b   7.74109635
_cell_length_c   18.35385093
_cell_angle_alpha   90.00000000
_cell_angle_beta   90.00000000
_cell_angle_gamma   90.00000000
_symmetry_Int_Tables_number   1
_chemical_formula_structural   Pb3(IO)2
_chemical_formula_sum   'Pb12 I8 O8'
_cell_volume   858.54677708
_cell_formula_units_Z   4
loop_
 _symmetry_equiv_pos_site_id
 _symmetry_equiv_pos_as_xyz
  1  'x, y, z'
loop_
 _atom_site_type_symbol
 _atom_site_label
 _atom_site_symmetry_multiplicity
 _atom_site_fract_x
 _atom_site_fract_y
 _atom_site_fract_z
 _atom_site_occupancy
  Pb  Pb0  1  0.75000000  0.02249528  0.16006865  1
  Pb  Pb1  1  0.75000000  0.47750472  0.66006865  1
  Pb  Pb2  1  0.75000000  0.64720359  0.47303994  1
  Pb  Pb3  1  0.25000000  0.14720359  0.02696006  1
  Pb  Pb4  1  0.25000000  0.35279641  0.52696006  1
  Pb  Pb5  1  0.75000000  0.21306206  0.39407826  1
  Pb  Pb6  1  0.75000000  0.28693794  0.89407826  1
  Pb  Pb7  1  0.25000000  0.71306206  0.10592174  1
  Pb  Pb8  1  0.25000000  0.52249528  0.33993135  1
  Pb  Pb9  1  0.25000000  0.78693794  0.60592174  1
  Pb  Pb10  1  0.75000000  0.85279641  0.97303994  1
  Pb  Pb11  1  0.25000000  0.97750472  0.83993135  1
  I  I12  1  0.75000000  0.40339506  0.06377728  1
  I  I13  1  0.25000000  0.59660494  0.93622272  1
  I  I14  1  0.25000000  0.32568293  0.74165294  1
  I  I15  1  0.75000000  0.09660494  0.56377728  1
  I  I16  1  0.25000000  0.17431707  0.24165294  1
  I  I17  1  0.75000000  0.67431707  0.25834706  1
  I  I18  1  0.25000000  0.90339506  0.43622272  1
  I  I19  1  0.75000000  0.82568293  0.75834706  1
  O  O20  1  0.00024547  0.91835376  0.07470705  1
  O  O21  1  0.50024547  0.08164624  0.92529295  1
  O  O22  1  0.50024547  0.41835376  0.42529295  1
  O  O23  1  0.49975453  0.58164624  0.57470705  1
  O  O24  1  0.00024547  0.58164624  0.57470705  1
  O  O25  1  0.49975453  0.91835376  0.07470705  1
  O  O26  1  -0.00024547  0.08164624  0.92529295  1
  O  O27  1  -0.00024547  0.41835376  0.42529295  1
