# generated using pymatgen
data_MoCl2
_symmetry_space_group_name_H-M   'P 1'
_cell_length_a   9.38911030
_cell_length_b   9.38910993
_cell_length_c   11.56425736
_cell_angle_alpha   90.00000000
_cell_angle_beta   90.00000000
_cell_angle_gamma   104.04260142
_symmetry_Int_Tables_number   1
_chemical_formula_structural   MoCl2
_chemical_formula_sum   'Mo12 Cl24'
_cell_volume   988.98588400
_cell_formula_units_Z   12
loop_
 _symmetry_equiv_pos_site_id
 _symmetry_equiv_pos_as_xyz
  1  'x, y, z'
loop_
 _atom_site_type_symbol
 _atom_site_label
 _atom_site_symmetry_multiplicity
 _atom_site_fract_x
 _atom_site_fract_y
 _atom_site_fract_z
 _atom_site_occupancy
  Mo  Mo0  1  0.62576223  0.37423777  0.50000000  1
  Mo  Mo1  1  0.35378170  0.35378170  0.56603478  1
  Mo  Mo2  1  0.64621830  0.64621830  0.43396522  1
  Mo  Mo3  1  0.14621830  0.14621830  0.06603478  1
  Mo  Mo4  1  0.93389794  0.93389794  0.14612156  1
  Mo  Mo5  1  0.87423777  0.12576223  0.00000000  1
  Mo  Mo6  1  0.56610206  0.56610206  0.64612156  1
  Mo  Mo7  1  0.06610206  0.06610206  0.85387844  1
  Mo  Mo8  1  0.85378170  0.85378170  0.93396522  1
  Mo  Mo9  1  0.12576223  0.87423777  0.00000000  1
  Mo  Mo10  1  0.43389794  0.43389794  0.35387844  1
  Mo  Mo11  1  0.37423777  0.62576223  0.50000000  1
  Cl  Cl12  1  0.19550512  0.95853616  0.20132809  1
  Cl  Cl13  1  0.18003088  0.41697825  0.42314018  1
  Cl  Cl14  1  0.08302175  0.31996912  0.92314018  1
  Cl  Cl15  1  0.34758165  0.34758165  0.15256382  1
  Cl  Cl16  1  0.95853616  0.19550512  0.20132809  1
  Cl  Cl17  1  0.31996912  0.08302175  0.92314018  1
  Cl  Cl18  1  0.04146384  0.80449488  0.79867191  1
  Cl  Cl19  1  0.71287909  0.28712091  0.00000000  1
  Cl  Cl20  1  0.65241835  0.65241835  0.84743618  1
  Cl  Cl21  1  0.21287909  0.78712091  0.50000000  1
  Cl  Cl22  1  0.84758165  0.84758165  0.34743618  1
  Cl  Cl23  1  0.69550512  0.45853616  0.29867191  1
  Cl  Cl24  1  0.81996912  0.58302175  0.57685982  1
  Cl  Cl25  1  0.41697825  0.18003088  0.42314018  1
  Cl  Cl26  1  0.68003088  0.91697825  0.07685982  1
  Cl  Cl27  1  0.58302175  0.81996912  0.57685982  1
  Cl  Cl28  1  0.54146384  0.30449488  0.70132809  1
  Cl  Cl29  1  0.80449488  0.04146384  0.79867191  1
  Cl  Cl30  1  0.28712091  0.71287909  0.00000000  1
  Cl  Cl31  1  0.91697825  0.68003088  0.07685982  1
  Cl  Cl32  1  0.78712091  0.21287909  0.50000000  1
  Cl  Cl33  1  0.15241835  0.15241835  0.65256382  1
  Cl  Cl34  1  0.30449488  0.54146384  0.70132809  1
  Cl  Cl35  1  0.45853616  0.69550512  0.29867191  1
