# generated using pymatgen
data_NaSr2AlP3
_symmetry_space_group_name_H-M   'P 1'
_cell_length_a   8.13861727
_cell_length_b   8.13861755
_cell_length_c   11.57185664
_cell_angle_alpha   76.12206252
_cell_angle_beta   76.12206206
_cell_angle_gamma   67.91943552
_symmetry_Int_Tables_number   1
_chemical_formula_structural   NaSr2AlP3
_chemical_formula_sum   'Na4 Sr8 Al4 P12'
_cell_volume   679.92282955
_cell_formula_units_Z   4
loop_
 _symmetry_equiv_pos_site_id
 _symmetry_equiv_pos_as_xyz
  1  'x, y, z'
loop_
 _atom_site_type_symbol
 _atom_site_label
 _atom_site_symmetry_multiplicity
 _atom_site_fract_x
 _atom_site_fract_y
 _atom_site_fract_z
 _atom_site_occupancy
  Na  Na0  1  0.69896450  0.30103550  1.00000000  1
  Na  Na1  1  0.35728023  0.35728023  0.23115594  1
  Na  Na2  1  0.64271977  0.64271977  0.76884406  1
  Na  Na3  1  0.30103550  0.69896450  0.00000000  1
  Sr  Sr4  1  0.19240501  0.74876045  0.68584906  1
  Sr  Sr5  1  0.80759499  0.25123955  0.31415094  1
  Sr  Sr6  1  0.74876045  0.19240501  0.68584906  1
  Sr  Sr7  1  0.00000000  0.50000000  0.50000000  1
  Sr  Sr8  1  0.25123955  0.80759499  0.31415094  1
  Sr  Sr9  1  0.50000000  0.00000000  0.00000000  1
  Sr  Sr10  1  0.00000000  0.50000000  0.00000000  1
  Sr  Sr11  1  0.50000000  0.00000000  0.50000000  1
  Al  Al12  1  0.69751498  0.69751498  0.26744355  1
  Al  Al13  1  0.09014129  0.09014129  0.88218958  1
  Al  Al14  1  0.90985871  0.90985871  0.11781042  1
  Al  Al15  1  0.30248502  0.30248502  0.73255645  1
  P  P16  1  0.61272187  0.02104359  0.22853448  1
  P  P17  1  0.59069977  0.59069977  0.13661955  1
  P  P18  1  0.38727813  0.97895641  0.77146552  1
  P  P19  1  0.08717490  0.08717490  0.48649216  1
  P  P20  1  0.58643546  0.58643546  0.48789281  1
  P  P21  1  0.90983015  0.90983015  0.90585094  1
  P  P22  1  0.09016985  0.09016985  0.09414906  1
  P  P23  1  0.40930023  0.40930023  0.86338045  1
  P  P24  1  0.02104359  0.61272187  0.22853448  1
  P  P25  1  0.91282510  0.91282510  0.51350784  1
  P  P26  1  0.97895641  0.38727813  0.77146552  1
  P  P27  1  0.41356454  0.41356454  0.51210719  1
