# generated using pymatgen
data_Ba3InAs3
_symmetry_space_group_name_H-M   'P 1'
_cell_length_a   4.67979905
_cell_length_b   14.20530958
_cell_length_c   14.70589085
_cell_angle_alpha   89.99986368
_cell_angle_beta   90.00001244
_cell_angle_gamma   90.00003928
_symmetry_Int_Tables_number   1
_chemical_formula_structural   Ba3InAs3
_chemical_formula_sum   'Ba12 In4 As12'
_cell_volume   977.61812777
_cell_formula_units_Z   4
loop_
 _symmetry_equiv_pos_site_id
 _symmetry_equiv_pos_as_xyz
  1  'x, y, z'
loop_
 _atom_site_type_symbol
 _atom_site_label
 _atom_site_symmetry_multiplicity
 _atom_site_fract_x
 _atom_site_fract_y
 _atom_site_fract_z
 _atom_site_occupancy
  Ba  Ba0  1  0.75000368  0.92260971  0.89247667  1
  Ba  Ba1  1  0.75000238  0.63555710  0.99684959  1
  Ba  Ba2  1  0.75000316  0.72233798  0.70234349  1
  Ba  Ba3  1  0.25000273  0.77766284  0.20234475  1
  Ba  Ba4  1  0.25000318  0.86444058  0.49685008  1
  Ba  Ba5  1  0.75000163  0.42261118  0.60752406  1
  Ba  Ba6  1  0.24999326  0.27766116  0.29765631  1
  Ba  Ba7  1  0.25000200  0.36444454  0.00315141  1
  Ba  Ba8  1  0.74999679  0.22233720  0.79765578  1
  Ba  Ba9  1  0.25000053  0.57738854  0.39247477  1
  Ba  Ba10  1  0.24999644  0.07739037  0.10752311  1
  Ba  Ba11  1  0.74999500  0.13555625  0.50315212  1
  In  In12  1  0.24999930  0.05522506  0.70300897  1
  In  In13  1  0.25000018  0.55522570  0.79699078  1
  In  In14  1  0.75000092  0.94477524  0.29699083  1
  In  In15  1  0.74999934  0.44477440  0.20300889  1
  As  As16  1  0.25000137  0.73418423  0.87265775  1
  As  As17  1  0.24999939  0.23418454  0.62734219  1
  As  As18  1  0.25000036  0.08850227  0.88490012  1
  As  As19  1  0.75000012  0.76581588  0.37265739  1
  As  As20  1  0.74999827  0.26581606  0.12734182  1
  As  As21  1  0.25000025  0.58850276  0.61509941  1
  As  As22  1  0.74999978  0.41149787  0.38489992  1
  As  As23  1  0.74999980  0.91149770  0.11509932  1
  As  As24  1  0.25000135  0.54231165  0.14929162  1
  As  As25  1  0.74999919  0.95768874  0.64929206  1
  As  As26  1  0.74999843  0.45768926  0.85070816  1
  As  As27  1  0.25000119  0.04231117  0.35070860  1
