# generated using pymatgen
data_Cs2KMn3F12
_symmetry_space_group_name_H-M   'P 1'
_cell_length_a   7.75147319
_cell_length_b   7.75147325
_cell_length_c   12.96440803
_cell_angle_alpha   73.74254334
_cell_angle_beta   73.74254320
_cell_angle_gamma   59.97243562
_symmetry_Int_Tables_number   1
_chemical_formula_structural   Cs2KMn3F12
_chemical_formula_sum   'Cs4 K2 Mn6 F24'
_cell_volume   638.22117925
_cell_formula_units_Z   2
loop_
 _symmetry_equiv_pos_site_id
 _symmetry_equiv_pos_as_xyz
  1  'x, y, z'
loop_
 _atom_site_type_symbol
 _atom_site_label
 _atom_site_symmetry_multiplicity
 _atom_site_fract_x
 _atom_site_fract_y
 _atom_site_fract_z
 _atom_site_occupancy
  Cs  Cs0  1  0.47498108  0.90450260  0.67745148  1
  Cs  Cs1  1  0.52501892  0.09549740  0.32254852  1
  Cs  Cs2  1  0.09549740  0.52501892  0.82254852  1
  Cs  Cs3  1  0.90450260  0.47498108  0.17745148  1
  K  K4  1  0.77207466  0.22792534  0.75000000  1
  K  K5  1  0.22792534  0.77207466  0.25000000  1
  Mn  Mn6  1  0.00000000  0.50000000  0.50000000  1
  Mn  Mn7  1  0.50000000  0.00000000  0.00000000  1
  Mn  Mn8  1  0.00000000  0.00000000  0.50000000  1
  Mn  Mn9  1  0.00000000  0.00000000  0.00000000  1
  Mn  Mn10  1  0.50000000  0.50000000  0.50000000  1
  Mn  Mn11  1  0.50000000  0.50000000  0.00000000  1
  F  F12  1  0.96202084  0.89527626  0.64801822  1
  F  F13  1  0.89260460  0.51347747  0.64763077  1
  F  F14  1  0.41215687  0.26195620  0.02984268  1
  F  F15  1  0.21588813  0.68182075  0.02874945  1
  F  F16  1  0.51347747  0.89260460  0.14763077  1
  F  F17  1  0.48652253  0.10739540  0.85236923  1
  F  F18  1  0.10739540  0.48652253  0.35236923  1
  F  F19  1  0.31817925  0.78411187  0.47125055  1
  F  F20  1  0.03797916  0.10472374  0.35198178  1
  F  F21  1  0.73804380  0.58784313  0.47015732  1
  F  F22  1  0.51145930  0.45387382  0.14677976  1
  F  F23  1  0.26195620  0.41215687  0.52984268  1
  F  F24  1  0.45387382  0.51145930  0.64677976  1
  F  F25  1  0.92909997  0.82147361  0.46384628  1
  F  F26  1  0.07090003  0.17852639  0.53615372  1
  F  F27  1  0.48854070  0.54612618  0.85322024  1
  F  F28  1  0.82147361  0.92909997  0.96384628  1
  F  F29  1  0.54612618  0.48854070  0.35322024  1
  F  F30  1  0.58784313  0.73804380  0.97015732  1
  F  F31  1  0.89527626  0.96202084  0.14801822  1
  F  F32  1  0.17852639  0.07090003  0.03615372  1
  F  F33  1  0.78411187  0.31817925  0.97125055  1
  F  F34  1  0.10472374  0.03797916  0.85198178  1
  F  F35  1  0.68182075  0.21588813  0.52874945  1
