# generated using pymatgen
data_ScU8S17
_symmetry_space_group_name_H-M   'P 1'
_cell_length_a   7.84058188
_cell_length_b   7.84058126
_cell_length_c   10.50045457
_cell_angle_alpha   80.63109079
_cell_angle_beta   80.63109165
_cell_angle_gamma   64.86932512
_symmetry_Int_Tables_number   1
_chemical_formula_structural   ScU8S17
_chemical_formula_sum   'Sc1 U8 S17'
_cell_volume   573.43557517
_cell_formula_units_Z   1
loop_
 _symmetry_equiv_pos_site_id
 _symmetry_equiv_pos_as_xyz
  1  'x, y, z'
loop_
 _atom_site_type_symbol
 _atom_site_label
 _atom_site_symmetry_multiplicity
 _atom_site_fract_x
 _atom_site_fract_y
 _atom_site_fract_z
 _atom_site_occupancy
  Sc  Sc0  1  0.00000000  0.00000000  0.00000000  1
  U  U1  1  0.79516331  0.79516331  0.45947734  1
  U  U2  1  0.20483669  0.20483669  0.54052266  1
  U  U3  1  0.69889242  0.18347688  0.69725527  1
  U  U4  1  0.18347688  0.69889242  0.69725527  1
  U  U5  1  0.81652312  0.30110758  0.30274473  1
  U  U6  1  0.68148851  0.68148851  0.98216701  1
  U  U7  1  0.31851149  0.31851149  0.01783299  1
  U  U8  1  0.30110758  0.81652312  0.30274473  1
  S  S9  1  0.47945996  0.47945996  0.16975614  1
  S  S10  1  0.69621302  0.69621302  0.24768436  1
  S  S11  1  0.56806662  0.17754005  0.46616407  1
  S  S12  1  0.05823214  0.66921347  0.96362111  1
  S  S13  1  0.21061465  0.21061465  0.27885709  1
  S  S14  1  0.43193338  0.82245995  0.53383593  1
  S  S15  1  0.52054004  0.52054004  0.83024386  1
  S  S16  1  0.66921347  0.05823214  0.96362111  1
  S  S17  1  0.93846472  0.93846472  0.23544081  1
  S  S18  1  0.06153528  0.06153528  0.76455919  1
  S  S19  1  0.30378698  0.30378698  0.75231564  1
  S  S20  1  0.33078653  0.94176786  0.03637889  1
  S  S21  1  0.82245995  0.43193338  0.53383593  1
  S  S22  1  0.94176786  0.33078653  0.03637889  1
  S  S23  1  0.17754005  0.56806662  0.46616407  1
  S  S24  1  0.00000000  0.00000000  0.50000000  1
  S  S25  1  0.78938535  0.78938535  0.72114291  1
