# generated using pymatgen
data_ReOF4
_symmetry_space_group_name_H-M   'P 1'
_cell_length_a   5.66675549
_cell_length_b   10.03259049
_cell_length_c   14.40097187
_cell_angle_alpha   72.67755376
_cell_angle_beta   78.65308064
_cell_angle_gamma   73.59546609
_symmetry_Int_Tables_number   1
_chemical_formula_structural   ReOF4
_chemical_formula_sum   'Re8 O8 F32'
_cell_volume   744.08088843
_cell_formula_units_Z   8
loop_
 _symmetry_equiv_pos_site_id
 _symmetry_equiv_pos_as_xyz
  1  'x, y, z'
loop_
 _atom_site_type_symbol
 _atom_site_label
 _atom_site_symmetry_multiplicity
 _atom_site_fract_x
 _atom_site_fract_y
 _atom_site_fract_z
 _atom_site_occupancy
  Re  Re0  1  0.04526243  0.12083373  0.61134015  1
  Re  Re1  1  0.95473757  0.87916627  0.38865985  1
  Re  Re2  1  0.52715774  0.95938755  0.81897025  1
  Re  Re3  1  0.30551554  0.54061245  0.68102975  1
  Re  Re4  1  0.77743630  0.37916627  0.88865985  1
  Re  Re5  1  0.22256370  0.62083373  0.11134015  1
  Re  Re6  1  0.69448446  0.45938755  0.31897025  1
  Re  Re7  1  0.47284226  0.04061245  0.18102975  1
  O  O8  1  0.71648541  0.86909542  0.47843021  1
  O  O9  1  0.50595773  0.35289802  0.38341651  1
  O  O10  1  0.93598896  0.36909542  0.97843021  1
  O  O11  1  0.75772774  0.85289802  0.88341651  1
  O  O12  1  0.06401104  0.63090458  0.02156979  1
  O  O13  1  0.24227226  0.14710198  0.11658349  1
  O  O14  1  0.49404227  0.64710198  0.61658349  1
  O  O15  1  0.28351459  0.13090458  0.52156979  1
  F  F16  1  0.69936486  0.10491948  0.73226073  1
  F  F17  1  0.57408028  0.87834283  0.71194207  1
  F  F18  1  0.04447863  0.38837207  0.77779202  1
  F  F19  1  0.07135169  0.92217605  0.66595754  1
  F  F20  1  0.95552137  0.61162793  0.22220798  1
  F  F21  1  0.42591972  0.12165717  0.28805793  1
  F  F22  1  0.63202348  0.90021685  0.11149777  1
  F  F23  1  0.10599866  0.68602977  0.38924783  1
  F  F24  1  0.01328153  0.63335389  0.62198133  1
  F  F25  1  0.26861675  0.86664611  0.87801867  1
  F  F26  1  0.34051473  0.42217605  0.16595754  1
  F  F27  1  0.78935728  0.88837207  0.27779202  1
  F  F28  1  0.20344596  0.87562279  0.46004467  1
  F  F29  1  0.16436518  0.62165717  0.78805793  1
  F  F30  1  0.46345492  0.60491948  0.23226073  1
  F  F31  1  0.36797652  0.09978315  0.88850223  1
  F  F32  1  0.21064272  0.11162793  0.72220798  1
  F  F33  1  0.18127627  0.81397023  0.11075217  1
  F  F34  1  0.64373810  0.59978315  0.38850223  1
  F  F35  1  0.53911342  0.62437721  0.03995533  1
  F  F36  1  0.79655404  0.12437721  0.53995533  1
  F  F37  1  0.81872373  0.18602977  0.88924783  1
  F  F38  1  0.89400134  0.31397023  0.61075217  1
  F  F39  1  0.65948527  0.57782395  0.83404246  1
  F  F40  1  0.83563482  0.37834283  0.21194207  1
  F  F41  1  0.53654508  0.39508052  0.76773927  1
  F  F42  1  0.46088658  0.37562279  0.96004467  1
  F  F43  1  0.73138325  0.13335389  0.12198133  1
  F  F44  1  0.92864831  0.07782395  0.33404246  1
  F  F45  1  0.98671847  0.36664611  0.37801867  1
  F  F46  1  0.30063514  0.89508052  0.26773927  1
  F  F47  1  0.35626190  0.40021685  0.61149777  1
