# generated using pymatgen
data_SmInAu
_symmetry_space_group_name_H-M   'P 1'
_cell_length_a   7.83544704
_cell_length_b   7.83426958
_cell_length_c   4.12554978
_cell_angle_alpha   89.98292194
_cell_angle_beta   89.98351065
_cell_angle_gamma   120.01381920
_symmetry_Int_Tables_number   1
_chemical_formula_structural   SmInAu
_chemical_formula_sum   'Sm3 In3 Au3'
_cell_volume   219.28765682
_cell_formula_units_Z   3
loop_
 _symmetry_equiv_pos_site_id
 _symmetry_equiv_pos_as_xyz
  1  'x, y, z'
loop_
 _atom_site_type_symbol
 _atom_site_label
 _atom_site_symmetry_multiplicity
 _atom_site_fract_x
 _atom_site_fract_y
 _atom_site_fract_z
 _atom_site_occupancy
  Sm  Sm0  1  0.00017660  0.58998514  0.50018240  1
  Sm  Sm1  1  0.59002477  -0.00011176  0.49995404  1
  Sm  Sm2  1  0.40992406  0.41006081  0.50001715  1
  In  In3  1  0.99981676  0.25519977  0.00010240  1
  In  In4  1  0.25536114  0.00012921  0.00002714  1
  In  In5  1  0.74485600  0.74477024  -0.00016130  1
  Au  Au6  1  0.00000280  0.00000859  0.49989948  1
  Au  Au7  1  0.66664002  0.33329017  0.00005040  1
  Au  Au8  1  0.33319785  0.66666784  -0.00007171  1
