# generated using pymatgen
data_Co2PClO4
_symmetry_space_group_name_H-M   'P 1'
_cell_length_a   8.22751113
_cell_length_b   8.22751170
_cell_length_c   8.23882207
_cell_angle_alpha   105.29751103
_cell_angle_beta   111.07744744
_cell_angle_gamma   112.06648297
_symmetry_Int_Tables_number   1
_chemical_formula_structural   Co2PClO4
_chemical_formula_sum   'Co8 P4 Cl4 O16'
_cell_volume   427.88203911
_cell_formula_units_Z   4
loop_
 _symmetry_equiv_pos_site_id
 _symmetry_equiv_pos_as_xyz
  1  'x, y, z'
loop_
 _atom_site_type_symbol
 _atom_site_label
 _atom_site_symmetry_multiplicity
 _atom_site_fract_x
 _atom_site_fract_y
 _atom_site_fract_z
 _atom_site_occupancy
  Co  Co0  1  0.73323780  0.92595577  0.17428992  1
  Co  Co1  1  0.26676220  0.07404423  0.82571008  1
  Co  Co2  1  0.25166585  0.55894788  0.32571008  1
  Co  Co3  1  0.97596659  0.72596659  0.25000000  1
  Co  Co4  1  0.50000000  0.00000000  0.50000000  1
  Co  Co5  1  0.74833415  0.44105212  0.67428992  1
  Co  Co6  1  0.02403341  0.27403341  0.75000000  1
  Co  Co7  1  0.00000000  0.00000000  0.00000000  1
  P  P8  1  0.24462637  0.22467445  0.48535279  1
  P  P9  1  0.75537363  0.77532555  0.51464721  1
  P  P10  1  0.23932166  0.75927359  0.01464721  1
  P  P11  1  0.76067834  0.24072641  0.98535279  1
  Cl  Cl12  1  0.26434508  0.33890204  0.07406041  1
  Cl  Cl13  1  0.23515837  0.80971533  0.57406041  1
  Cl  Cl14  1  0.73565492  0.66109796  0.92593959  1
  Cl  Cl15  1  0.76484163  0.19028467  0.42593959  1
  O  O16  1  0.55532252  0.77661918  0.47579958  1
  O  O17  1  0.19918040  0.92047706  0.97579958  1
  O  O18  1  0.24073337  0.77888453  0.21237321  1
  O  O19  1  0.75926663  0.22111547  0.78762679  1
  O  O20  1  0.74613131  0.59416891  0.52984908  1
  O  O21  1  0.20823063  0.21441786  0.65717114  1
  O  O22  1  0.44467748  0.22338082  0.52420042  1
  O  O23  1  0.94275328  0.44894051  0.15717114  1
  O  O24  1  0.43568016  0.78371776  0.02984908  1
  O  O25  1  0.80081960  0.07952294  0.02420042  1
  O  O26  1  0.05724672  0.55105949  0.84282886  1
  O  O27  1  0.56431984  0.21628224  0.97015092  1
  O  O28  1  0.25386869  0.40583109  0.47015092  1
  O  O29  1  0.79176937  0.78558214  0.34282886  1
  O  O30  1  0.93348868  0.97163984  0.71237321  1
  O  O31  1  0.06651132  0.02836016  0.28762679  1
