# generated using pymatgen
data_NdInAu
_symmetry_space_group_name_H-M   'P 1'
_cell_length_a   7.84093287
_cell_length_b   7.84166715
_cell_length_c   4.22161158
_cell_angle_alpha   90.03221962
_cell_angle_beta   89.90420921
_cell_angle_gamma   119.97018298
_symmetry_Int_Tables_number   1
_chemical_formula_structural   NdInAu
_chemical_formula_sum   'Nd3 In3 Au3'
_cell_volume   224.86135510
_cell_formula_units_Z   3
loop_
 _symmetry_equiv_pos_site_id
 _symmetry_equiv_pos_as_xyz
  1  'x, y, z'
loop_
 _atom_site_type_symbol
 _atom_site_label
 _atom_site_symmetry_multiplicity
 _atom_site_fract_x
 _atom_site_fract_y
 _atom_site_fract_z
 _atom_site_occupancy
  Nd  Nd0  1  0.00004375  0.58741830  0.50013745  1
  Nd  Nd1  1  0.58732027  -0.00005386  0.50024207  1
  Nd  Nd2  1  0.41258960  0.41260629  0.49969538  1
  In  In3  1  -0.00006092  0.25143107  0.00000450  1
  In  In4  1  0.25149839  0.00011052  0.00003755  1
  In  In5  1  0.74858243  0.74850744  0.99995660  1
  Au  Au6  1  -0.00005604  -0.00002626  0.49996324  1
  Au  Au7  1  0.66671915  0.33334235  0.99993037  1
  Au  Au8  1  0.33336336  0.66666415  0.00003285  1
