# generated using pymatgen
data_La2GeS5
_symmetry_space_group_name_H-M   'P 1'
_cell_length_a   7.71542164
_cell_length_b   7.96877680
_cell_length_c   12.81514905
_cell_angle_alpha   90.00000000
_cell_angle_beta   90.00000000
_cell_angle_gamma   101.30782358
_symmetry_Int_Tables_number   1
_chemical_formula_structural   La2GeS5
_chemical_formula_sum   'La8 Ge4 S20'
_cell_volume   772.61211909
_cell_formula_units_Z   4
loop_
 _symmetry_equiv_pos_site_id
 _symmetry_equiv_pos_as_xyz
  1  'x, y, z'
loop_
 _atom_site_type_symbol
 _atom_site_label
 _atom_site_symmetry_multiplicity
 _atom_site_fract_x
 _atom_site_fract_y
 _atom_site_fract_z
 _atom_site_occupancy
  La  La0  1  0.84011682  0.36515511  0.16649903  1
  La  La1  1  0.23839226  0.04191294  0.09346209  1
  La  La2  1  0.76160774  0.45808706  0.59346209  1
  La  La3  1  0.23839226  0.54191294  0.40653791  1
  La  La4  1  0.15988318  0.63484489  0.83350097  1
  La  La5  1  0.76160774  0.95808706  0.90653791  1
  La  La6  1  0.15988318  0.13484489  0.66649903  1
  La  La7  1  0.84011682  0.86515511  0.33350097  1
  Ge  Ge8  1  0.66210643  0.90895584  0.61668362  1
  Ge  Ge9  1  0.33789357  0.59104416  0.11668362  1
  Ge  Ge10  1  0.33789357  0.09104416  0.38331638  1
  Ge  Ge11  1  0.66210643  0.40895584  0.88331638  1
  S  S12  1  0.87221186  0.80286795  0.70564293  1
  S  S13  1  0.16965875  0.38087873  0.02582800  1
  S  S14  1  0.53647458  0.54705356  0.23353830  1
  S  S15  1  0.83034125  0.11912127  0.52582800  1
  S  S16  1  0.87221186  0.30286795  0.79435707  1
  S  S17  1  0.12778814  0.19713205  0.29435707  1
  S  S18  1  0.12778814  0.69713205  0.20564293  1
  S  S19  1  0.13785924  0.99905883  0.87898224  1
  S  S20  1  0.83034125  0.61912127  0.97417200  1
  S  S21  1  0.13785924  0.49905883  0.62101776  1
  S  S22  1  0.57908982  0.71557325  0.49285149  1
  S  S23  1  0.46352542  0.45294644  0.76646170  1
  S  S24  1  0.16965875  0.88087873  0.47417200  1
  S  S25  1  0.42091018  0.78442675  0.99285149  1
  S  S26  1  0.86214076  0.50094117  0.37898224  1
  S  S27  1  0.42091018  0.28442675  0.50714851  1
  S  S28  1  0.57908982  0.21557325  0.00714851  1
  S  S29  1  0.86214076  0.00094117  0.12101776  1
  S  S30  1  0.46352542  0.95294644  0.73353830  1
  S  S31  1  0.53647458  0.04705356  0.26646170  1
