# generated using pymatgen
data_CsSO3F
_symmetry_space_group_name_H-M   'P 1'
_cell_length_a   8.21275635
_cell_length_b   7.90822270
_cell_length_c   8.28359985
_cell_angle_alpha   90.00000000
_cell_angle_beta   90.00000000
_cell_angle_gamma   114.15851501
_symmetry_Int_Tables_number   1
_chemical_formula_structural   CsSO3F
_chemical_formula_sum   'Cs4 S4 O12 F4'
_cell_volume   490.88544782
_cell_formula_units_Z   4
loop_
 _symmetry_equiv_pos_site_id
 _symmetry_equiv_pos_as_xyz
  1  'x, y, z'
loop_
 _atom_site_type_symbol
 _atom_site_label
 _atom_site_symmetry_multiplicity
 _atom_site_fract_x
 _atom_site_fract_y
 _atom_site_fract_z
 _atom_site_occupancy
  Cs  Cs0  1  0.28173090  0.27637202  0.37909458  1
  Cs  Cs1  1  0.21826910  0.72362798  0.87909458  1
  Cs  Cs2  1  0.78173090  0.27637202  0.12090542  1
  Cs  Cs3  1  0.71826910  0.72362798  0.62090542  1
  S  S4  1  0.21349114  0.74216044  0.38313730  1
  S  S5  1  0.78650886  0.25783956  0.61686270  1
  S  S6  1  0.71349114  0.74216044  0.11686270  1
  S  S7  1  0.28650886  0.25783956  0.88313730  1
  O  O8  1  0.90071540  0.17375207  0.55342656  1
  O  O9  1  0.59928460  0.82624793  0.05342656  1
  O  O10  1  0.86104908  0.39387053  0.74432025  1
  O  O11  1  0.13895092  0.60612947  0.25567975  1
  O  O12  1  0.68228916  0.30600938  0.49738770  1
  O  O13  1  0.31771084  0.69399062  0.50261230  1
  O  O14  1  0.81771084  0.69399062  0.99738770  1
  O  O15  1  0.09928460  0.82624793  0.44657344  1
  O  O16  1  0.40071540  0.17375207  0.94657344  1
  O  O17  1  0.63895092  0.60612947  0.24432025  1
  O  O18  1  0.36104908  0.39387053  0.75567975  1
  O  O19  1  0.18228916  0.30600938  0.00261230  1
  F  F20  1  0.86557596  0.91853809  0.21429400  1
  F  F21  1  0.63442404  0.08146191  0.71429400  1
  F  F22  1  0.36557596  0.91853809  0.28570600  1
  F  F23  1  0.13442404  0.08146191  0.78570600  1
