# generated using pymatgen
data_BaCdGaF7
_symmetry_space_group_name_H-M   'P 1'
_cell_length_a   5.45189029
_cell_length_b   7.57635178
_cell_length_c   15.24153970
_cell_angle_alpha   91.49499186
_cell_angle_beta   90.00000000
_cell_angle_gamma   111.08770132
_symmetry_Int_Tables_number   1
_chemical_formula_structural   BaCdGaF7
_chemical_formula_sum   'Ba4 Cd4 Ga4 F28'
_cell_volume   587.16776525
_cell_formula_units_Z   4
loop_
 _symmetry_equiv_pos_site_id
 _symmetry_equiv_pos_as_xyz
  1  'x, y, z'
loop_
 _atom_site_type_symbol
 _atom_site_label
 _atom_site_symmetry_multiplicity
 _atom_site_fract_x
 _atom_site_fract_y
 _atom_site_fract_z
 _atom_site_occupancy
  Ba  Ba0  1  0.15542344  0.38185664  0.62315795  1
  Ba  Ba1  1  0.77356680  0.61814336  0.87684205  1
  Ba  Ba2  1  0.22643320  0.38185664  0.12315795  1
  Ba  Ba3  1  0.84457656  0.61814336  0.37684205  1
  Cd  Cd4  1  0.45570219  0.00000000  0.75000000  1
  Cd  Cd5  1  0.54429781  0.00000000  0.25000000  1
  Cd  Cd6  1  0.50000000  0.00000000  0.50000000  1
  Cd  Cd7  1  0.50000000  0.00000000  0.00000000  1
  Ga  Ga8  1  0.88782185  0.75464865  0.62517179  1
  Ga  Ga9  1  0.11217815  0.24535135  0.37482821  1
  Ga  Ga10  1  0.86682680  0.75464865  0.12517179  1
  Ga  Ga11  1  0.13317320  0.24535135  0.87482821  1
  F  F12  1  0.88180188  0.99230501  0.34668402  1
  F  F13  1  0.61954072  0.67395968  0.22203763  1
  F  F14  1  0.16623482  0.72724837  0.54953879  1
  F  F15  1  0.38045928  0.32604032  0.77796237  1
  F  F16  1  0.80277940  0.49776692  0.09283178  1
  F  F17  1  0.93011906  0.17589003  0.98012952  1
  F  F18  1  0.14556241  0.75457016  0.20024781  1
  F  F19  1  0.85443759  0.24542984  0.79975219  1
  F  F20  1  0.94558104  0.32604032  0.27796237  1
  F  F21  1  0.43898645  0.27275163  0.95046121  1
  F  F22  1  0.33575691  0.87465450  0.37130553  1
  F  F23  1  0.75422903  0.82410997  0.51987048  1
  F  F24  1  0.24577097  0.17589003  0.48012952  1
  F  F25  1  0.66424309  0.12534550  0.62869447  1
  F  F26  1  0.11819812  0.00769499  0.65331598  1
  F  F27  1  0.30501249  0.50223308  0.40716822  1
  F  F28  1  0.19722060  0.50223308  0.90716822  1
  F  F29  1  0.05441896  0.67395968  0.72203763  1
  F  F30  1  0.06988094  0.82410997  0.01987048  1
  F  F31  1  0.53889759  0.87465450  0.87130553  1
  F  F32  1  0.60900774  0.75457016  0.70024781  1
  F  F33  1  0.69498751  0.49776692  0.59283178  1
  F  F34  1  0.56101355  0.72724837  0.04953879  1
  F  F35  1  0.46110241  0.12534550  0.12869447  1
  F  F36  1  0.11050313  0.99230501  0.84668402  1
  F  F37  1  0.39099226  0.24542984  0.29975219  1
  F  F38  1  0.83376518  0.27275163  0.45046121  1
  F  F39  1  0.88949687  0.00769499  0.15331598  1
