# generated using pymatgen
data_YInAu
_symmetry_space_group_name_H-M   'P 1'
_cell_length_a   7.74673101
_cell_length_b   7.74673067
_cell_length_c   4.04341390
_cell_angle_alpha   90.00000000
_cell_angle_beta   90.00000000
_cell_angle_gamma   120.00000141
_symmetry_Int_Tables_number   1
_chemical_formula_structural   YInAu
_chemical_formula_sum   'Y3 In3 Au3'
_cell_volume   210.14340189
_cell_formula_units_Z   3
loop_
 _symmetry_equiv_pos_site_id
 _symmetry_equiv_pos_as_xyz
  1  'x, y, z'
loop_
 _atom_site_type_symbol
 _atom_site_label
 _atom_site_symmetry_multiplicity
 _atom_site_fract_x
 _atom_site_fract_y
 _atom_site_fract_z
 _atom_site_occupancy
  Y  Y0  1  1.00000000  0.59424082  0.50000000  1
  Y  Y1  1  0.59424082  0.00000000  0.50000000  1
  Y  Y2  1  0.40575918  0.40575918  0.50000000  1
  In  In3  1  1.00000000  0.25917394  0.00000000  1
  In  In4  1  0.25917394  0.00000000  0.00000000  1
  In  In5  1  0.74082606  0.74082606  0.00000000  1
  Au  Au6  1  0.00000000  0.00000000  0.50000000  1
  Au  Au7  1  0.66666700  0.33333300  0.00000000  1
  Au  Au8  1  0.33333300  0.66666700  0.00000000  1
