# generated using pymatgen
data_RbV2SbO8
_symmetry_space_group_name_H-M   'P 1'
_cell_length_a   5.65659737
_cell_length_b   8.82964424
_cell_length_c   15.01666513
_cell_angle_alpha   90.00000000
_cell_angle_beta   90.00000000
_cell_angle_gamma   90.00000000
_symmetry_Int_Tables_number   1
_chemical_formula_structural   RbV2SbO8
_chemical_formula_sum   'Rb4 V8 Sb4 O32'
_cell_volume   750.01848808
_cell_formula_units_Z   4
loop_
 _symmetry_equiv_pos_site_id
 _symmetry_equiv_pos_as_xyz
  1  'x, y, z'
loop_
 _atom_site_type_symbol
 _atom_site_label
 _atom_site_symmetry_multiplicity
 _atom_site_fract_x
 _atom_site_fract_y
 _atom_site_fract_z
 _atom_site_occupancy
  Rb  Rb0  1  0.25000000  0.54838770  0.38570162  1
  Rb  Rb1  1  0.25000000  0.95161230  0.88570162  1
  Rb  Rb2  1  0.75000000  0.45161230  0.61429838  1
  Rb  Rb3  1  0.75000000  0.04838770  0.11429838  1
  V  V4  1  0.25000000  0.29653753  0.02473090  1
  V  V5  1  0.75000000  0.48984652  0.21689274  1
  V  V6  1  0.25000000  0.98984652  0.28310726  1
  V  V7  1  0.75000000  0.70346247  0.97526910  1
  V  V8  1  0.25000000  0.51015348  0.78310726  1
  V  V9  1  0.75000000  0.79653753  0.47526910  1
  V  V10  1  0.75000000  0.01015348  0.71689274  1
  V  V11  1  0.25000000  0.20346247  0.52473090  1
  Sb  Sb12  1  0.25000000  0.81883186  0.62172867  1
  Sb  Sb13  1  0.25000000  0.68116814  0.12172867  1
  Sb  Sb14  1  0.75000000  0.18116814  0.37827133  1
  Sb  Sb15  1  0.75000000  0.31883186  0.87827133  1
  O  O16  1  0.99100602  0.10587530  0.29153078  1
  O  O17  1  0.00298805  0.76407942  0.03967430  1
  O  O18  1  0.25000000  0.30902422  0.61449358  1
  O  O19  1  0.99701195  0.23592058  0.96032570  1
  O  O20  1  0.25000000  0.62675569  0.86695896  1
  O  O21  1  0.25000000  0.61578694  0.68095463  1
  O  O22  1  0.49100602  0.60587530  0.20846922  1
  O  O23  1  0.50298805  0.23592058  0.96032570  1
  O  O24  1  0.75000000  0.69097578  0.38550642  1
  O  O25  1  0.50298805  0.26407942  0.46032570  1
  O  O26  1  0.00899398  0.89412470  0.70846922  1
  O  O27  1  0.00899398  0.60587530  0.20846922  1
  O  O28  1  0.50899398  0.10587530  0.29153078  1
  O  O29  1  0.75000000  0.12675569  0.63304104  1
  O  O30  1  0.99701195  0.26407942  0.46032570  1
  O  O31  1  0.49701195  0.73592058  0.53967430  1
  O  O32  1  0.25000000  0.48917765  0.05139548  1
  O  O33  1  0.25000000  0.88421306  0.18095463  1
  O  O34  1  0.75000000  0.37324431  0.13304104  1
  O  O35  1  0.49701195  0.76407942  0.03967430  1
  O  O36  1  0.50899398  0.39412470  0.79153078  1
  O  O37  1  0.49100602  0.89412470  0.70846922  1
  O  O38  1  0.25000000  0.87324431  0.36695896  1
  O  O39  1  0.75000000  0.51082235  0.94860452  1
  O  O40  1  0.75000000  0.38421306  0.31904537  1
  O  O41  1  0.99100602  0.39412470  0.79153078  1
  O  O42  1  0.25000000  0.19097578  0.11449358  1
  O  O43  1  0.75000000  0.98917765  0.44860452  1
  O  O44  1  0.75000000  0.80902422  0.88550642  1
  O  O45  1  0.75000000  0.11578694  0.81904537  1
  O  O46  1  0.00298805  0.73592058  0.53967430  1
  O  O47  1  0.25000000  0.01082235  0.55139548  1
