# generated using pymatgen
data_K3V3(BiO6)2
_symmetry_space_group_name_H-M   'P 1'
_cell_length_a   7.28800313
_cell_length_b   9.99295084
_cell_length_c   9.99295068
_cell_angle_alpha   89.82386521
_cell_angle_beta   73.80502541
_cell_angle_gamma   73.80502485
_symmetry_Int_Tables_number   1
_chemical_formula_structural   K3V3(BiO6)2
_chemical_formula_sum   'K6 V6 Bi4 O24'
_cell_volume   668.95409250
_cell_formula_units_Z   2
loop_
 _symmetry_equiv_pos_site_id
 _symmetry_equiv_pos_as_xyz
  1  'x, y, z'
loop_
 _atom_site_type_symbol
 _atom_site_label
 _atom_site_symmetry_multiplicity
 _atom_site_fract_x
 _atom_site_fract_y
 _atom_site_fract_z
 _atom_site_occupancy
  K  K0  1  0.25000000  0.98836539  0.01163461  1
  K  K1  1  0.75000000  0.01163461  0.98836539  1
  K  K2  1  0.75000000  0.27269819  0.72730181  1
  K  K3  1  0.00000000  0.50000000  0.50000000  1
  K  K4  1  0.25000000  0.72730181  0.27269819  1
  K  K5  1  0.50000000  0.50000000  0.50000000  1
  V  V6  1  0.63746615  0.64876049  0.86623236  1
  V  V7  1  0.36253385  0.35123951  0.13376764  1
  V  V8  1  0.13746615  0.86623236  0.64876049  1
  V  V9  1  0.75000000  0.75329265  0.24670735  1
  V  V10  1  0.25000000  0.24670735  0.75329265  1
  V  V11  1  0.86253385  0.13376764  0.35123951  1
  Bi  Bi12  1  0.15414865  0.61711457  0.91479822  1
  Bi  Bi13  1  0.65414865  0.91479822  0.61711457  1
  Bi  Bi14  1  0.34585135  0.08520178  0.38288543  1
  Bi  Bi15  1  0.84585135  0.38288543  0.08520178  1
  O  O16  1  0.95376229  0.75902110  0.10213592  1
  O  O17  1  0.90333839  0.98650083  0.65833467  1
  O  O18  1  0.85034808  0.29170289  0.42221152  1
  O  O19  1  0.65216534  0.81793598  0.84667834  1
  O  O20  1  0.32380648  0.39575921  0.75832238  1
  O  O21  1  0.59666161  0.34166533  0.01349917  1
  O  O22  1  0.34435823  0.92473947  0.54815798  1
  O  O23  1  0.04623771  0.24097890  0.89786408  1
  O  O24  1  0.34783466  0.18206402  0.15332166  1
  O  O25  1  0.15564177  0.45184202  0.07526053  1
  O  O26  1  0.67619352  0.60424079  0.24167762  1
  O  O27  1  0.54623771  0.89786408  0.24097890  1
  O  O28  1  0.65564177  0.07526053  0.45184202  1
  O  O29  1  0.35034808  0.42221152  0.29170289  1
  O  O30  1  0.84435823  0.54815798  0.92473947  1
  O  O31  1  0.82380648  0.75832238  0.39575921  1
  O  O32  1  0.14965192  0.70829711  0.57778848  1
  O  O33  1  0.64965192  0.57778848  0.70829711  1
  O  O34  1  0.45376229  0.10213592  0.75902110  1
  O  O35  1  0.15216534  0.84667834  0.81793598  1
  O  O36  1  0.40333839  0.65833467  0.98650083  1
  O  O37  1  0.09666161  0.01349917  0.34166533  1
  O  O38  1  0.17619352  0.24167762  0.60424079  1
  O  O39  1  0.84783466  0.15332166  0.18206402  1
