# generated using pymatgen
data_V3O7
_symmetry_space_group_name_H-M   'P 1'
_cell_length_a   3.68722680
_cell_length_b   11.41869312
_cell_length_c   18.66971213
_cell_angle_alpha   95.16038863
_cell_angle_beta   89.96893525
_cell_angle_gamma   99.30061996
_symmetry_Int_Tables_number   1
_chemical_formula_structural   V3O7
_chemical_formula_sum   'V18 O42'
_cell_volume   772.50071408
_cell_formula_units_Z   6
loop_
 _symmetry_equiv_pos_site_id
 _symmetry_equiv_pos_as_xyz
  1  'x, y, z'
loop_
 _atom_site_type_symbol
 _atom_site_label
 _atom_site_symmetry_multiplicity
 _atom_site_fract_x
 _atom_site_fract_y
 _atom_site_fract_z
 _atom_site_occupancy
  V  V0  1  0.28172830  0.06091845  0.94462973  1
  V  V1  1  0.71793828  0.93681418  0.05470661  1
  V  V2  1  0.59655906  0.60983236  0.05923109  1
  V  V3  1  0.21992759  0.93840495  0.55468702  1
  V  V4  1  0.58680684  0.67673414  0.24577631  1
  V  V5  1  0.09008269  0.67642238  0.74596419  1
  V  V6  1  0.78506936  0.00007921  0.24920337  1
  V  V7  1  0.58026905  0.65712911  0.87435235  1
  V  V8  1  0.01474800  0.61090089  0.55899332  1
  V  V9  1  0.91009454  0.32386517  0.25414950  1
  V  V10  1  0.07789360  0.65822364  0.37393831  1
  V  V11  1  0.78182951  0.06242347  0.44417864  1
  V  V12  1  0.41855540  0.32301229  0.75415451  1
  V  V13  1  0.40453384  0.38826158  0.94125502  1
  V  V14  1  0.98934231  0.38970719  0.44100901  1
  V  V15  1  0.42114442  0.34175738  0.12631341  1
  V  V16  1  0.21630766  0.99957620  0.74983057  1
  V  V17  1  0.92884207  0.34149883  0.62574636  1
  O  O18  1  0.35026898  0.21021747  0.93770607  1
  O  O19  1  0.24495802  0.99475899  0.85914970  1
  O  O20  1  0.42261396  0.34597496  0.23182177  1
  O  O21  1  0.53453806  0.57193882  0.95058376  1
  O  O22  1  0.04521866  0.59378429  0.66481256  1
  O  O23  1  0.06689433  0.63035216  0.84472475  1
  O  O24  1  0.46650224  0.42629717  0.04958358  1
  O  O25  1  0.44162851  0.36848499  0.65523294  1
  O  O26  1  0.34037409  0.17796550  0.76561754  1
  O  O27  1  0.45392928  0.40514792  0.83544638  1
  O  O28  1  0.74027870  0.99962667  0.74990282  1
  O  O29  1  0.46266590  0.38889193  0.44102686  1
  O  O30  1  0.07723707  0.65552150  0.26845122  1
  O  O31  1  0.65037508  0.78770275  0.06264395  1
  O  O32  1  0.86387499  0.21170620  0.43728149  1
  O  O33  1  0.35110579  0.20458565  0.09386391  1
  O  O34  1  0.65179867  0.79405634  0.90796567  1
  O  O35  1  0.07175907  0.61071796  0.05926542  1
  O  O36  1  0.84177160  0.17840499  0.26498117  1
  O  O37  1  0.92921112  0.34520025  0.73138782  1
  O  O38  1  0.26138531  0.00012570  0.24913787  1
  O  O39  1  0.75227184  0.99651107  0.35886357  1
  O  O40  1  0.22787079  0.95435145  0.02490465  1
  O  O41  1  0.75578292  0.00379128  0.13977173  1
  O  O42  1  0.56460097  0.63093858  0.34456065  1
  O  O43  1  0.04042575  0.57344962  0.45060850  1
  O  O44  1  0.95763174  0.40619531  0.33551640  1
  O  O45  1  0.93471637  0.36956010  0.15551602  1
  O  O46  1  0.15864702  0.82147752  0.73366195  1
  O  O47  1  0.14486230  0.79558392  0.40661617  1
  O  O48  1  0.72851497  0.95657965  0.52503586  1
  O  O49  1  0.57920658  0.65530807  0.76876089  1
  O  O50  1  0.96410305  0.42726571  0.54959264  1
  O  O51  1  0.93014976  0.38742164  0.94120901  1
  O  O52  1  0.77212466  0.04318757  0.97421982  1
  O  O53  1  0.13765305  0.78886685  0.56149879  1
  O  O54  1  0.27323271  0.04441027  0.47401673  1
  O  O55  1  0.54122566  0.61170318  0.55913475  1
  O  O56  1  0.24941196  0.00385840  0.64025121  1
  O  O57  1  0.86466212  0.20490669  0.59260400  1
  O  O58  1  0.55011765  0.59337619  0.16491561  1
  O  O59  1  0.66425418  0.82173030  0.23365947  1
