# generated using pymatgen
data_NaMoAsO6
_symmetry_space_group_name_H-M   'P 1'
_cell_length_a   6.65703334
_cell_length_b   10.29085043
_cell_length_c   15.04959634
_cell_angle_alpha   90.00000000
_cell_angle_beta   90.00000000
_cell_angle_gamma   90.00000000
_symmetry_Int_Tables_number   1
_chemical_formula_structural   NaMoAsO6
_chemical_formula_sum   'Na8 Mo8 As8 O48'
_cell_volume   1030.99568951
_cell_formula_units_Z   8
loop_
 _symmetry_equiv_pos_site_id
 _symmetry_equiv_pos_as_xyz
  1  'x, y, z'
loop_
 _atom_site_type_symbol
 _atom_site_label
 _atom_site_symmetry_multiplicity
 _atom_site_fract_x
 _atom_site_fract_y
 _atom_site_fract_z
 _atom_site_occupancy
  Na  Na0  1  0.76285156  0.31029157  0.56452576  1
  Na  Na1  1  0.23714844  0.81029157  0.43547424  1
  Na  Na2  1  0.76285156  0.81029157  0.93547424  1
  Na  Na3  1  0.27026816  0.33521645  0.68235281  1
  Na  Na4  1  0.72973184  0.33521645  0.18235281  1
  Na  Na5  1  0.72973184  0.83521645  0.31764719  1
  Na  Na6  1  0.27026816  0.83521645  0.81764719  1
  Na  Na7  1  0.23714844  0.31029157  0.06452576  1
  Mo  Mo8  1  0.00905221  0.50129225  0.84977989  1
  Mo  Mo9  1  0.48811728  0.14664019  0.40032517  1
  Mo  Mo10  1  0.99094779  0.50129225  0.34977989  1
  Mo  Mo11  1  0.99094779  0.00129225  0.15022011  1
  Mo  Mo12  1  0.51188272  0.64664019  0.59967483  1
  Mo  Mo13  1  0.51188272  0.14664019  0.90032517  1
  Mo  Mo14  1  0.00905221  0.00129225  0.65022011  1
  Mo  Mo15  1  0.48811728  0.64664019  0.09967483  1
  As  As16  1  0.49448862  0.98379418  0.10545777  1
  As  As17  1  0.01324729  0.16273283  0.85591926  1
  As  As18  1  0.49448862  0.48379418  0.39454223  1
  As  As19  1  0.98675271  0.16273283  0.35591926  1
  As  As20  1  0.01324729  0.66273283  0.64408074  1
  As  As21  1  0.98675271  0.66273283  0.14408074  1
  As  As22  1  0.50551138  0.48379418  0.89454223  1
  As  As23  1  0.50551138  0.98379418  0.60545777  1
  O  O24  1  0.69226356  0.98797944  0.18062737  1
  O  O25  1  0.98074171  0.29965309  0.29282376  1
  O  O26  1  0.50017410  0.34692163  0.45777168  1
  O  O27  1  0.21162450  0.15712802  0.93062465  1
  O  O28  1  0.21162450  0.65712802  0.56937535  1
  O  O29  1  0.49982590  0.34692163  0.95777168  1
  O  O30  1  0.01484976  0.66790264  0.87251528  1
  O  O31  1  0.49949950  0.62558690  0.45386798  1
  O  O32  1  0.51089118  0.71437645  0.20519398  1
  O  O33  1  0.01484976  0.16790264  0.62748472  1
  O  O34  1  0.80289910  0.66518794  0.57582350  1
  O  O35  1  0.80289910  0.16518794  0.92417650  1
  O  O36  1  0.51089118  0.21437645  0.29480602  1
  O  O37  1  0.49949950  0.12558690  0.04613202  1
  O  O38  1  0.71666426  0.98586641  0.67300772  1
  O  O39  1  0.19710090  0.16518794  0.42417650  1
  O  O40  1  0.01925829  0.79965309  0.70717624  1
  O  O41  1  0.78837550  0.65712802  0.06937535  1
  O  O42  1  0.97357022  0.93326466  0.04457202  1
  O  O43  1  0.01925829  0.29965309  0.79282376  1
  O  O44  1  0.69226356  0.48797944  0.31937263  1
  O  O45  1  0.19710090  0.66518794  0.07582350  1
  O  O46  1  0.48910882  0.71437645  0.70519398  1
  O  O47  1  0.50017410  0.84692163  0.04222832  1
  O  O48  1  0.97357022  0.43326466  0.45542798  1
  O  O49  1  0.28333574  0.98586641  0.17300772  1
  O  O50  1  0.01339943  0.02076634  0.79659845  1
  O  O51  1  0.01339943  0.52076634  0.70340155  1
  O  O52  1  0.98660057  0.02076634  0.29659845  1
  O  O53  1  0.48910882  0.21437645  0.79480602  1
  O  O54  1  0.98660057  0.52076634  0.20340155  1
  O  O55  1  0.71666426  0.48586641  0.82699228  1
  O  O56  1  0.49982590  0.84692163  0.54222832  1
  O  O57  1  0.78837550  0.15712802  0.43062465  1
  O  O58  1  0.02642978  0.93326466  0.54457202  1
  O  O59  1  0.98515024  0.16790264  0.12748472  1
  O  O60  1  0.28333574  0.48586641  0.32699228  1
  O  O61  1  0.50050050  0.12558690  0.54613202  1
  O  O62  1  0.51627801  0.97999904  0.87748627  1
  O  O63  1  0.51627801  0.47999904  0.62251373  1
  O  O64  1  0.02642978  0.43326466  0.95542798  1
  O  O65  1  0.30773644  0.98797944  0.68062737  1
  O  O66  1  0.50050050  0.62558690  0.95386798  1
  O  O67  1  0.98515024  0.66790264  0.37251528  1
  O  O68  1  0.30773644  0.48797944  0.81937263  1
  O  O69  1  0.48372199  0.47999904  0.12251373  1
  O  O70  1  0.98074171  0.79965309  0.20717624  1
  O  O71  1  0.48372199  0.97999904  0.37748627  1
