# generated using pymatgen
data_TlV2SbO8
_symmetry_space_group_name_H-M   'P 1'
_cell_length_a   5.66482632
_cell_length_b   8.82748946
_cell_length_c   14.93464601
_cell_angle_alpha   90.00000000
_cell_angle_beta   90.05551487
_cell_angle_gamma   90.00000000
_symmetry_Int_Tables_number   1
_chemical_formula_structural   TlV2SbO8
_chemical_formula_sum   'Tl4 V8 Sb4 O32'
_cell_volume   746.82446421
_cell_formula_units_Z   4
loop_
 _symmetry_equiv_pos_site_id
 _symmetry_equiv_pos_as_xyz
  1  'x, y, z'
loop_
 _atom_site_type_symbol
 _atom_site_label
 _atom_site_symmetry_multiplicity
 _atom_site_fract_x
 _atom_site_fract_y
 _atom_site_fract_z
 _atom_site_occupancy
  Tl  Tl0  1  0.75003161  0.05857537  0.38563365  1
  Tl  Tl1  1  0.24996839  0.55857537  0.11436635  1
  Tl  Tl2  1  0.24996839  0.94142463  0.61436635  1
  Tl  Tl3  1  0.75003161  0.44142463  0.88563365  1
  V  V4  1  0.75010570  0.00907044  0.78237515  1
  V  V5  1  0.75048210  0.79597268  0.02567183  1
  V  V6  1  0.24951790  0.20402732  0.97432817  1
  V  V7  1  0.24989430  0.99092956  0.21762485  1
  V  V8  1  0.24951790  0.29597268  0.47432817  1
  V  V9  1  0.24989430  0.50907044  0.71762485  1
  V  V10  1  0.75010570  0.49092956  0.28237515  1
  V  V11  1  0.75048210  0.70402732  0.52567183  1
  Sb  Sb12  1  0.75002244  0.18130636  0.12175091  1
  Sb  Sb13  1  0.75002244  0.31869364  0.62175091  1
  Sb  Sb14  1  0.24997756  0.81869364  0.87824909  1
  Sb  Sb15  1  0.24997756  0.68130636  0.37824909  1
  O  O16  1  0.99556501  0.26269754  0.03853956  1
  O  O17  1  0.75049549  0.80877152  0.61662179  1
  O  O18  1  0.00958737  0.60697283  0.29032833  1
  O  O19  1  0.50919507  0.10697996  0.20933308  1
  O  O20  1  0.99556501  0.23730246  0.53853956  1
  O  O21  1  0.49080493  0.89302004  0.79066692  1
  O  O22  1  0.50353575  0.26244291  0.03869526  1
  O  O23  1  0.00443499  0.73730246  0.96146044  1
  O  O24  1  0.24974724  0.01113431  0.94825861  1
  O  O25  1  0.75011671  0.11511007  0.68045349  1
  O  O26  1  0.50353575  0.23755709  0.53869526  1
  O  O27  1  0.75067366  0.12636608  0.86677999  1
  O  O28  1  0.75067366  0.37363392  0.36677999  1
  O  O29  1  0.00443499  0.76269754  0.46146044  1
  O  O30  1  0.24950451  0.30877152  0.88337821  1
  O  O31  1  0.24932634  0.87363392  0.13322001  1
  O  O32  1  0.99041263  0.10697283  0.20967167  1
  O  O33  1  0.00958737  0.89302717  0.79032833  1
  O  O34  1  0.75011671  0.38488993  0.18045349  1
  O  O35  1  0.99041263  0.39302717  0.70967167  1
  O  O36  1  0.24932634  0.62636608  0.63322001  1
  O  O37  1  0.49646425  0.76244291  0.46130474  1
  O  O38  1  0.75049549  0.69122848  0.11662179  1
  O  O39  1  0.24974724  0.48886569  0.44825861  1
  O  O40  1  0.75025276  0.51113431  0.55174139  1
  O  O41  1  0.24988329  0.61511007  0.81954651  1
  O  O42  1  0.75025276  0.98886569  0.05174139  1
  O  O43  1  0.49080493  0.60697996  0.29066692  1
  O  O44  1  0.24988329  0.88488993  0.31954651  1
  O  O45  1  0.24950451  0.19122848  0.38337821  1
  O  O46  1  0.50919507  0.39302004  0.70933308  1
  O  O47  1  0.49646425  0.73755709  0.96130474  1
