# generated using pymatgen
data_UGa5Ir
_symmetry_space_group_name_H-M   'P 1'
_cell_length_a   4.34673649
_cell_length_b   4.34676100
_cell_length_c   6.74649157
_cell_angle_alpha   90.00020424
_cell_angle_beta   89.99997481
_cell_angle_gamma   89.99990509
_symmetry_Int_Tables_number   1
_chemical_formula_structural   UGa5Ir
_chemical_formula_sum   'U1 Ga5 Ir1'
_cell_volume   127.46972734
_cell_formula_units_Z   1
loop_
 _symmetry_equiv_pos_site_id
 _symmetry_equiv_pos_as_xyz
  1  'x, y, z'
loop_
 _atom_site_type_symbol
 _atom_site_label
 _atom_site_symmetry_multiplicity
 _atom_site_fract_x
 _atom_site_fract_y
 _atom_site_fract_z
 _atom_site_occupancy
  U  U0  1  0.00000059  0.00000064  0.00000178  1
  Ga  Ga1  1  0.00000050  0.50000009  0.29754468  1
  Ga  Ga2  1  0.50000017  0.99999933  0.29754448  1
  Ga  Ga3  1  0.49999955  0.50000059  0.99999988  1
  Ga  Ga4  1  0.49999955  0.00000019  0.70245491  1
  Ga  Ga5  1  0.99999973  0.50000027  0.70245467  1
  Ir  Ir6  1  -0.00000009  -0.00000111  0.49999961  1
