# generated using pymatgen
data_TiCdF6
_symmetry_space_group_name_H-M   'P 1'
_cell_length_a   5.77930036
_cell_length_b   5.77930016
_cell_length_c   5.77930040
_cell_angle_alpha   54.88326521
_cell_angle_beta   54.88326655
_cell_angle_gamma   54.88326300
_symmetry_Int_Tables_number   1
_chemical_formula_structural   TiCdF6
_chemical_formula_sum   'Ti1 Cd1 F6'
_cell_volume   120.23576220
_cell_formula_units_Z   1
loop_
 _symmetry_equiv_pos_site_id
 _symmetry_equiv_pos_as_xyz
  1  'x, y, z'
loop_
 _atom_site_type_symbol
 _atom_site_label
 _atom_site_symmetry_multiplicity
 _atom_site_fract_x
 _atom_site_fract_y
 _atom_site_fract_z
 _atom_site_occupancy
  Ti  Ti0  1  0.50000000  0.50000000  0.50000000  1
  Cd  Cd1  1  0.00000000  0.00000000  0.00000000  1
  F  F2  1  0.85264334  0.59776505  0.27386600  1
  F  F3  1  0.72613400  0.14735667  0.40223495  1
  F  F4  1  0.27386600  0.85264333  0.59776505  1
  F  F5  1  0.59776505  0.27386600  0.85264333  1
  F  F6  1  0.14735666  0.40223495  0.72613400  1
  F  F7  1  0.40223495  0.72613400  0.14735667  1
