# generated using pymatgen
data_DyFeGe2O7
_symmetry_space_group_name_H-M   'P 1'
_cell_length_a   6.74204830
_cell_length_b   8.68055800
_cell_length_c   9.81920065
_cell_angle_alpha   90.00000000
_cell_angle_beta   100.59627466
_cell_angle_gamma   90.00000000
_symmetry_Int_Tables_number   1
_chemical_formula_structural   DyFeGe2O7
_chemical_formula_sum   'Dy4 Fe4 Ge8 O28'
_cell_volume   564.86657242
_cell_formula_units_Z   4
loop_
 _symmetry_equiv_pos_site_id
 _symmetry_equiv_pos_as_xyz
  1  'x, y, z'
loop_
 _atom_site_type_symbol
 _atom_site_label
 _atom_site_symmetry_multiplicity
 _atom_site_fract_x
 _atom_site_fract_y
 _atom_site_fract_z
 _atom_site_occupancy
  Dy  Dy0  1  0.74988478  0.95738272  0.74739818  1
  Dy  Dy1  1  0.25011522  0.45738272  0.25260182  1
  Dy  Dy2  1  0.25011522  0.04261728  0.25260182  1
  Dy  Dy3  1  0.74988478  0.54261728  0.74739818  1
  Fe  Fe4  1  0.75143382  0.94485894  0.24858942  1
  Fe  Fe5  1  0.24856618  0.05514106  0.75141058  1
  Fe  Fe6  1  0.24856618  0.44485894  0.75141058  1
  Fe  Fe7  1  0.75143382  0.55514106  0.24858942  1
  Ge  Ge8  1  0.54606757  0.25000000  0.03328480  1
  Ge  Ge9  1  0.95178354  0.25000000  0.46939764  1
  Ge  Ge10  1  0.52260193  0.75000000  0.44601924  1
  Ge  Ge11  1  0.04821646  0.75000000  0.53060236  1
  Ge  Ge12  1  0.45393243  0.75000000  0.96671520  1
  Ge  Ge13  1  0.97951165  0.75000000  0.05024557  1
  Ge  Ge14  1  0.47739807  0.25000000  0.55398076  1
  Ge  Ge15  1  0.02048835  0.25000000  0.94975443  1
  O  O16  1  0.24935071  0.75000000  0.43421633  1
  O  O17  1  0.04218671  0.58536077  0.63822098  1
  O  O18  1  0.97226810  0.57332639  0.13995340  1
  O  O19  1  0.46761026  0.07273593  0.64061079  1
  O  O20  1  0.54034074  0.41426656  0.14111951  1
  O  O21  1  0.97226810  0.92667361  0.13995340  1
  O  O22  1  0.95781329  0.08536077  0.36177902  1
  O  O23  1  0.45965926  0.91426656  0.85888049  1
  O  O24  1  0.74703355  0.25000000  0.93825929  1
  O  O25  1  0.15099363  0.25000000  0.12077136  1
  O  O26  1  0.02773190  0.42667361  0.86004660  1
  O  O27  1  0.34330737  0.25000000  0.88609574  1
  O  O28  1  0.54034074  0.08573344  0.14111951  1
  O  O29  1  0.15094072  0.25000000  0.61897371  1
  O  O30  1  0.02773190  0.07332639  0.86004660  1
  O  O31  1  0.34346927  0.25000000  0.38403304  1
  O  O32  1  0.45965926  0.58573344  0.85888049  1
  O  O33  1  0.25296645  0.75000000  0.06174071  1
  O  O34  1  0.53238974  0.57273593  0.35938921  1
  O  O35  1  0.65669263  0.75000000  0.11390426  1
  O  O36  1  0.84900637  0.75000000  0.87922864  1
  O  O37  1  0.84905928  0.75000000  0.38102629  1
  O  O38  1  0.75064929  0.25000000  0.56578367  1
  O  O39  1  0.95781329  0.41463923  0.36177902  1
  O  O40  1  0.53238974  0.92726407  0.35938921  1
  O  O41  1  0.65653073  0.75000000  0.61596696  1
  O  O42  1  0.04218671  0.91463923  0.63822098  1
  O  O43  1  0.46761026  0.42726407  0.64061079  1
