# generated using pymatgen
data_Gd4Au2O9
_symmetry_space_group_name_H-M   'P 1'
_cell_length_a   6.02102234
_cell_length_b   11.89697354
_cell_length_c   11.91201831
_cell_angle_alpha   90.00000000
_cell_angle_beta   90.00000000
_cell_angle_gamma   90.00000000
_symmetry_Int_Tables_number   1
_chemical_formula_structural   Gd4Au2O9
_chemical_formula_sum   'Gd16 Au8 O36'
_cell_volume   853.28102211
_cell_formula_units_Z   4
loop_
 _symmetry_equiv_pos_site_id
 _symmetry_equiv_pos_as_xyz
  1  'x, y, z'
loop_
 _atom_site_type_symbol
 _atom_site_label
 _atom_site_symmetry_multiplicity
 _atom_site_fract_x
 _atom_site_fract_y
 _atom_site_fract_z
 _atom_site_occupancy
  Gd  Gd0  1  0.24050986  0.41016994  0.51071117  1
  Gd  Gd1  1  0.74050986  0.08983006  0.01071117  1
  Gd  Gd2  1  0.25949014  0.58983006  0.01071117  1
  Gd  Gd3  1  0.75949014  0.91016994  0.51071117  1
  Gd  Gd4  1  0.30323717  0.26408807  0.15933382  1
  Gd  Gd5  1  0.74050986  0.41016994  0.98928883  1
  Gd  Gd6  1  0.69676283  0.76408807  0.15933382  1
  Gd  Gd7  1  0.69676283  0.73591193  0.84066618  1
  Gd  Gd8  1  0.75949014  0.58983006  0.48928883  1
  Gd  Gd9  1  0.30323717  0.23591193  0.84066618  1
  Gd  Gd10  1  0.25949014  0.91016994  0.98928883  1
  Gd  Gd11  1  0.19676283  0.76408807  0.34066618  1
  Gd  Gd12  1  0.19676283  0.73591193  0.65933382  1
  Gd  Gd13  1  0.80323717  0.26408807  0.34066618  1
  Gd  Gd14  1  0.24050986  0.08983006  0.48928883  1
  Gd  Gd15  1  0.80323717  0.23591193  0.65933382  1
  Au  Au16  1  0.07838164  0.48890964  0.77107403  1
  Au  Au17  1  0.92161836  0.98890964  0.77107403  1
  Au  Au18  1  0.42161836  0.98890964  0.72892597  1
  Au  Au19  1  0.57838164  0.48890964  0.72892597  1
  Au  Au20  1  0.92161836  0.51109036  0.22892597  1
  Au  Au21  1  0.07838164  0.01109036  0.22892597  1
  Au  Au22  1  0.42161836  0.51109036  0.27107403  1
  Au  Au23  1  0.57838164  0.01109036  0.27107403  1
  O  O24  1  0.94042192  0.35081316  0.16287532  1
  O  O25  1  0.12463265  0.16088666  0.30369017  1
  O  O26  1  0.43970200  0.05489368  0.88685541  1
  O  O27  1  0.93970200  0.05489368  0.61314459  1
  O  O28  1  0.62463265  0.16088666  0.19630983  1
  O  O29  1  0.06029800  0.55489368  0.61314459  1
  O  O30  1  0.11087980  0.08887509  0.07594987  1
  O  O31  1  0.61087980  0.08887509  0.42405013  1
  O  O32  1  0.94042192  0.14918684  0.83712468  1
  O  O33  1  0.37536735  0.83911334  0.80369017  1
  O  O34  1  0.88912020  0.58887509  0.07594987  1
  O  O35  1  0.87536735  0.66088666  0.30369017  1
  O  O36  1  0.61087980  0.41112491  0.57594987  1
  O  O37  1  0.38912020  0.58887509  0.42405013  1
  O  O38  1  0.55957808  0.85081316  0.33712468  1
  O  O39  1  0.44042192  0.14918684  0.66287532  1
  O  O40  1  0.47651902  0.75000000  0.00000000  1
  O  O41  1  0.56029800  0.94510632  0.11314459  1
  O  O42  1  0.88912020  0.91112491  0.92405013  1
  O  O43  1  0.97651902  0.75000000  0.50000000  1
  O  O44  1  0.43970200  0.44510632  0.11314459  1
  O  O45  1  0.44042192  0.35081316  0.33712468  1
  O  O46  1  0.12463265  0.33911334  0.69630983  1
  O  O47  1  0.02348098  0.25000000  0.50000000  1
  O  O48  1  0.05957808  0.64918684  0.83712468  1
  O  O49  1  0.37536735  0.66088666  0.19630983  1
  O  O50  1  0.87536735  0.83911334  0.69630983  1
  O  O51  1  0.11087980  0.41112491  0.92405013  1
  O  O52  1  0.05957808  0.85081316  0.16287532  1
  O  O53  1  0.56029800  0.55489368  0.88685541  1
  O  O54  1  0.62463265  0.33911334  0.80369017  1
  O  O55  1  0.93970200  0.44510632  0.38685541  1
  O  O56  1  0.55957808  0.64918684  0.66287532  1
  O  O57  1  0.52348098  0.25000000  0.00000000  1
  O  O58  1  0.38912020  0.91112491  0.57594987  1
  O  O59  1  0.06029800  0.94510632  0.38685541  1
