# generated using pymatgen
data_RbV2SeO7
_symmetry_space_group_name_H-M   'P 1'
_cell_length_a   5.53949015
_cell_length_b   7.20655973
_cell_length_c   18.86288683
_cell_angle_alpha   90.00000000
_cell_angle_beta   90.00000000
_cell_angle_gamma   90.00000000
_symmetry_Int_Tables_number   1
_chemical_formula_structural   RbV2SeO7
_chemical_formula_sum   'Rb4 V8 Se4 O28'
_cell_volume   753.01901700
_cell_formula_units_Z   4
loop_
 _symmetry_equiv_pos_site_id
 _symmetry_equiv_pos_as_xyz
  1  'x, y, z'
loop_
 _atom_site_type_symbol
 _atom_site_label
 _atom_site_symmetry_multiplicity
 _atom_site_fract_x
 _atom_site_fract_y
 _atom_site_fract_z
 _atom_site_occupancy
  Rb  Rb0  1  0.25000000  0.24710731  0.53347343  1
  Rb  Rb1  1  0.75000000  0.74710731  0.96652657  1
  Rb  Rb2  1  0.25000000  0.25289269  0.03347343  1
  Rb  Rb3  1  0.75000000  0.75289269  0.46652657  1
  V  V4  1  0.25000000  0.73026291  0.62251549  1
  V  V5  1  0.25000000  0.55836299  0.31249041  1
  V  V6  1  0.75000000  0.26973709  0.37748451  1
  V  V7  1  0.75000000  0.05836299  0.18750959  1
  V  V8  1  0.25000000  0.94163701  0.81249041  1
  V  V9  1  0.25000000  0.76973709  0.12251549  1
  V  V10  1  0.75000000  0.44163701  0.68750959  1
  V  V11  1  0.75000000  0.23026291  0.87748451  1
  Se  Se12  1  0.75000000  0.51654090  0.15285554  1
  Se  Se13  1  0.25000000  0.01654090  0.34714446  1
  Se  Se14  1  0.75000000  0.98345910  0.65285554  1
  Se  Se15  1  0.25000000  0.48345910  0.84714446  1
  O  O16  1  0.25000000  0.64488215  0.54072945  1
  O  O17  1  0.98848696  0.92730284  0.59893608  1
  O  O18  1  0.50381025  0.43222912  0.33319599  1
  O  O19  1  0.49618975  0.56777088  0.66680401  1
  O  O20  1  0.01151304  0.07269716  0.40106392  1
  O  O21  1  0.75000000  0.38012749  0.77382316  1
  O  O22  1  0.48848696  0.42730284  0.90106392  1
  O  O23  1  0.25000000  0.72603568  0.86767206  1
  O  O24  1  0.00381025  0.93222912  0.16680401  1
  O  O25  1  0.75000000  0.27396432  0.13232794  1
  O  O26  1  0.00381025  0.56777088  0.66680401  1
  O  O27  1  0.99618975  0.06777088  0.83319599  1
  O  O28  1  0.48848696  0.07269716  0.40106392  1
  O  O29  1  0.49618975  0.93222912  0.16680401  1
  O  O30  1  0.50381025  0.06777088  0.83319599  1
  O  O31  1  0.75000000  0.35511785  0.45927055  1
  O  O32  1  0.25000000  0.77396432  0.36767206  1
  O  O33  1  0.75000000  0.11987251  0.27382316  1
  O  O34  1  0.75000000  0.22603568  0.63232794  1
  O  O35  1  0.25000000  0.61987251  0.22617684  1
  O  O36  1  0.25000000  0.85511785  0.04072945  1
  O  O37  1  0.51151304  0.92730284  0.59893608  1
  O  O38  1  0.75000000  0.14488215  0.95927055  1
  O  O39  1  0.98848696  0.57269716  0.09893608  1
  O  O40  1  0.01151304  0.42730284  0.90106392  1
  O  O41  1  0.51151304  0.57269716  0.09893608  1
  O  O42  1  0.99618975  0.43222912  0.33319599  1
  O  O43  1  0.25000000  0.88012749  0.72617684  1
