# generated using pymatgen
data_Lu(HO)3
_symmetry_space_group_name_H-M   'P 1'
_cell_length_a   7.11335103
_cell_length_b   7.11335103
_cell_length_c   7.08455528
_cell_angle_alpha   109.38923797
_cell_angle_beta   109.38923797
_cell_angle_gamma   109.55307873
_symmetry_Int_Tables_number   1
_chemical_formula_structural   Lu(HO)3
_chemical_formula_sum   'Lu4 H12 O12'
_cell_volume   276.23429307
_cell_formula_units_Z   4
loop_
 _symmetry_equiv_pos_site_id
 _symmetry_equiv_pos_as_xyz
  1  'x, y, z'
loop_
 _atom_site_type_symbol
 _atom_site_label
 _atom_site_symmetry_multiplicity
 _atom_site_fract_x
 _atom_site_fract_y
 _atom_site_fract_z
 _atom_site_occupancy
  Lu  Lu0  1  0.50000000  0.00000000  0.00000000  1
  Lu  Lu1  1  0.00000000  0.00000000  0.50000000  1
  Lu  Lu2  1  0.00000000  0.50000000  0.00000000  1
  Lu  Lu3  1  0.50000000  0.50000000  0.50000000  1
  H  H4  1  0.31658837  0.27179748  0.95485760  1
  H  H5  1  0.68341163  0.72820252  0.04514240  1
  H  H6  1  0.44265883  0.60999734  0.16724576  1
  H  H7  1  0.55734117  0.39000266  0.83275424  1
  H  H8  1  0.83266149  0.44265883  0.27541306  1
  H  H9  1  0.16733851  0.55734117  0.72458694  1
  H  H10  1  0.04479089  0.31658837  0.36173077  1
  H  H11  1  0.95520911  0.68341163  0.63826923  1
  H  H12  1  0.27179748  0.95520911  0.31693988  1
  H  H13  1  0.72820252  0.04479089  0.68306012  1
  H  H14  1  0.60999734  0.16733851  0.44275158  1
  H  H15  1  0.39000266  0.83266149  0.55724842  1
  O  O16  1  0.31994776  0.15209144  0.83378667  1
  O  O17  1  0.68005224  0.84790856  0.16621333  1
  O  O18  1  0.32337071  0.48902136  0.16855288  1
  O  O19  1  0.67662929  0.51097864  0.83144712  1
  O  O20  1  0.83434934  0.32337071  0.15481782  1
  O  O21  1  0.16565066  0.67662929  0.84518218  1
  O  O22  1  0.16785633  0.31994776  0.48616109  1
  O  O23  1  0.83214367  0.68005224  0.51383891  1
  O  O24  1  0.15209144  0.83214367  0.31830476  1
  O  O25  1  0.84790856  0.16785633  0.68169524  1
  O  O26  1  0.48902136  0.16565066  0.32046848  1
  O  O27  1  0.51097864  0.83434934  0.67953152  1
