# generated using pymatgen
data_V2H3O5
_symmetry_space_group_name_H-M   'P 1'
_cell_length_a   6.32492785
_cell_length_b   6.32492785
_cell_length_c   4.87899564
_cell_angle_alpha   81.53991165
_cell_angle_beta   98.46008835
_cell_angle_gamma   151.71726092
_symmetry_Int_Tables_number   1
_chemical_formula_structural   V2H3O5
_chemical_formula_sum   'V2 H3 O5'
_cell_volume   91.41150426
_cell_formula_units_Z   1
loop_
 _symmetry_equiv_pos_site_id
 _symmetry_equiv_pos_as_xyz
  1  'x, y, z'
loop_
 _atom_site_type_symbol
 _atom_site_label
 _atom_site_symmetry_multiplicity
 _atom_site_fract_x
 _atom_site_fract_y
 _atom_site_fract_z
 _atom_site_occupancy
  V  V0  1  0.86575664  0.13424336  0.59683095  1
  V  V1  1  0.14218379  0.85781621  0.39002103  1
  H  H2  1  0.35304641  0.64695359  0.04638709  1
  H  H3  1  0.52706271  0.47293729  0.02321744  1
  H  H4  1  0.66915770  0.33084230  0.84926904  1
  O  O5  1  0.99612128  0.00387872  0.50827321  1
  O  O6  1  0.39151116  0.60848884  0.87778106  1
  O  O7  1  0.60585563  0.39414437  0.11566103  1
  O  O8  1  0.69719951  0.30280049  0.66434119  1
  O  O9  1  0.30274016  0.69725984  0.35616995  1
