# generated using pymatgen
data_Re3Se4Br
_symmetry_space_group_name_H-M   'P 1'
_cell_length_a   6.70580362
_cell_length_b   10.48646394
_cell_length_c   12.09168188
_cell_angle_alpha   90.00000000
_cell_angle_beta   90.00000000
_cell_angle_gamma   100.55354194
_symmetry_Int_Tables_number   1
_chemical_formula_structural   Re3Se4Br
_chemical_formula_sum   'Re12 Se16 Br4'
_cell_volume   835.90576396
_cell_formula_units_Z   4
loop_
 _symmetry_equiv_pos_site_id
 _symmetry_equiv_pos_as_xyz
  1  'x, y, z'
loop_
 _atom_site_type_symbol
 _atom_site_label
 _atom_site_symmetry_multiplicity
 _atom_site_fract_x
 _atom_site_fract_y
 _atom_site_fract_z
 _atom_site_occupancy
  Re  Re0  1  0.24062852  0.93741729  0.97997670  1
  Re  Re1  1  0.12174457  0.15822785  0.93478708  1
  Re  Re2  1  0.09034995  0.06140940  0.14132376  1
  Re  Re3  1  0.37825543  0.34177215  0.43478708  1
  Re  Re4  1  0.75937148  0.06258271  0.02002330  1
  Re  Re5  1  0.59034995  0.56140940  0.35867624  1
  Re  Re6  1  0.90965005  0.93859060  0.85867624  1
  Re  Re7  1  0.25937148  0.56258271  0.47997670  1
  Re  Re8  1  0.74062852  0.43741729  0.52002330  1
  Re  Re9  1  0.62174457  0.65822785  0.56521292  1
  Re  Re10  1  0.40965005  0.43859060  0.64132376  1
  Re  Re11  1  0.87825543  0.84177215  0.06521292  1
  Se  Se12  1  0.52937653  0.22845942  0.59097994  1
  Se  Se13  1  0.06890079  0.33355736  0.55900105  1
  Se  Se14  1  0.97062347  0.27154058  0.09097994  1
  Se  Se15  1  0.19999205  0.84425973  0.17381296  1
  Se  Se16  1  0.80000795  0.15574027  0.82618704  1
  Se  Se17  1  0.30000795  0.65574027  0.67381296  1
  Se  Se18  1  0.75911687  0.52793003  0.71469068  1
  Se  Se19  1  0.02937653  0.72845942  0.90902006  1
  Se  Se20  1  0.74088313  0.97206997  0.21469068  1
  Se  Se21  1  0.93109921  0.66644264  0.44099895  1
  Se  Se22  1  0.43109921  0.16644264  0.05900105  1
  Se  Se23  1  0.25911687  0.02793003  0.78530932  1
  Se  Se24  1  0.69999205  0.34425973  0.32618704  1
  Se  Se25  1  0.24088313  0.47206997  0.28530932  1
  Se  Se26  1  0.47062347  0.77154058  0.40902006  1
  Se  Se27  1  0.56890079  0.83355736  0.94099895  1
  Br  Br28  1  0.20855426  0.11289537  0.35152140  1
  Br  Br29  1  0.29144574  0.38710463  0.85152140  1
  Br  Br30  1  0.70855426  0.61289537  0.14847860  1
  Br  Br31  1  0.79144574  0.88710463  0.64847860  1
