# generated using pymatgen
data_Nb4Co2PdSe12
_symmetry_space_group_name_H-M   'P 1'
_cell_length_a   3.43618052
_cell_length_b   6.92235065
_cell_length_c   18.50429643
_cell_angle_alpha   86.64829088
_cell_angle_beta   84.56551303
_cell_angle_gamma   75.43411045
_symmetry_Int_Tables_number   1
_chemical_formula_structural   Nb4Co2PdSe12
_chemical_formula_sum   'Nb4 Co2 Pd1 Se12'
_cell_volume   423.81547428
_cell_formula_units_Z   1
loop_
 _symmetry_equiv_pos_site_id
 _symmetry_equiv_pos_as_xyz
  1  'x, y, z'
loop_
 _atom_site_type_symbol
 _atom_site_label
 _atom_site_symmetry_multiplicity
 _atom_site_fract_x
 _atom_site_fract_y
 _atom_site_fract_z
 _atom_site_occupancy
  Nb  Nb0  1  0.74153008  0.91646339  0.59522015  1
  Nb  Nb1  1  0.25557345  0.07709647  0.40544346  1
  Nb  Nb2  1  0.61756069  0.90663384  0.85101136  1
  Nb  Nb3  1  0.37884769  0.08948267  0.14958743  1
  Co  Co4  1  0.77193201  0.17077073  0.28301097  1
  Co  Co5  1  0.22540405  0.82461892  0.71809853  1
  Pd  Pd6  1  0.00149361  0.99856918  -0.00006269  1
  Se  Se7  1  0.86877107  0.80506754  0.45410682  1
  Se  Se8  1  0.03565908  0.81064010  0.11829201  1
  Se  Se9  1  0.80803828  0.61281495  0.76673380  1
  Se  Se10  1  0.39999952  0.91717616  0.28100804  1
  Se  Se11  1  0.19279408  0.69059017  0.92743166  1
  Se  Se12  1  0.59385147  0.07913971  0.71934116  1
  Se  Se13  1  0.12889833  0.18837512  0.54691383  1
  Se  Se14  1  0.80582712  0.30623459  0.07256562  1
  Se  Se15  1  0.37888819  0.63241607  0.61249453  1
  Se  Se16  1  0.96342091  0.18645771  0.88227667  1
  Se  Se17  1  0.18688937  0.38354758  0.23409465  1
  Se  Se18  1  0.61858401  0.36131010  0.38880498  1
