# generated using pymatgen
data_CsNb(BO3)2
_symmetry_space_group_name_H-M   'P 1'
_cell_length_a   4.10354969
_cell_length_b   7.64461368
_cell_length_c   9.88035437
_cell_angle_alpha   90.00000000
_cell_angle_beta   90.00000000
_cell_angle_gamma   90.00000000
_symmetry_Int_Tables_number   1
_chemical_formula_structural   CsNb(BO3)2
_chemical_formula_sum   'Cs2 Nb2 B4 O12'
_cell_volume   309.94723132
_cell_formula_units_Z   2
loop_
 _symmetry_equiv_pos_site_id
 _symmetry_equiv_pos_as_xyz
  1  'x, y, z'
loop_
 _atom_site_type_symbol
 _atom_site_label
 _atom_site_symmetry_multiplicity
 _atom_site_fract_x
 _atom_site_fract_y
 _atom_site_fract_z
 _atom_site_occupancy
  B  B0  1  0.98932975  0.66321608  0.95492846  1
  B  B1  1  0.01067025  0.83678392  0.45492846  1
  B  B2  1  0.01067025  0.16321608  0.45492846  1
  B  B3  1  0.98932975  0.33678392  0.95492846  1
  O  O4  1  0.93711619  0.80837574  0.03225205  1
  O  O5  1  0.06288381  0.69162426  0.53225205  1
  O  O6  1  0.06288381  0.30837574  0.53225205  1
  O  O7  1  0.93711619  0.19162426  0.03225205  1
  O  O8  1  0.94304220  0.82238135  0.32042089  1
  O  O9  1  0.05695780  0.67761865  0.82042089  1
  O  O10  1  0.05695780  0.32238135  0.82042089  1
  O  O11  1  0.94304220  0.17761865  0.32042089  1
  O  O12  1  0.44202021  0.00000000  0.16636280  1
  O  O13  1  0.55797979  0.50000000  0.66636280  1
  O  O14  1  0.03329546  0.00000000  0.52044111  1
  O  O15  1  0.96670454  0.50000000  0.02044111  1
  Nb  Nb16  1  0.11601321  0.50000000  0.66684271  1
  Nb  Nb17  1  0.88398679  0.00000000  0.16684271  1
  Cs  Cs18  1  0.46830109  0.50000000  0.27477058  1
  Cs  Cs19  1  0.53169891  0.00000000  0.77477058  1
