# generated using pymatgen
data_La9B3C6Br5
_symmetry_space_group_name_H-M   'P 1'
_cell_length_a   3.88929551
_cell_length_b   7.98151147
_cell_length_c   33.32192090
_cell_angle_alpha   90.00000000
_cell_angle_beta   90.00000000
_cell_angle_gamma   90.00000000
_symmetry_Int_Tables_number   1
_chemical_formula_structural   La9B3C6Br5
_chemical_formula_sum   'La18 B6 C12 Br10'
_cell_volume   1034.39428747
_cell_formula_units_Z   2
loop_
 _symmetry_equiv_pos_site_id
 _symmetry_equiv_pos_as_xyz
  1  'x, y, z'
loop_
 _atom_site_type_symbol
 _atom_site_label
 _atom_site_symmetry_multiplicity
 _atom_site_fract_x
 _atom_site_fract_y
 _atom_site_fract_z
 _atom_site_occupancy
  La  La0  1  0.25000000  0.19525766  0.99079125  1
  La  La1  1  0.25000000  0.34971146  0.86694839  1
  La  La2  1  0.25000000  0.91525144  0.90440261  1
  La  La3  1  0.75000000  0.04997911  0.69450040  1
  La  La4  1  0.25000000  0.54870913  0.25000000  1
  La  La5  1  0.75000000  0.65028854  0.13305161  1
  La  La6  1  0.75000000  0.80474234  0.00920875  1
  La  La7  1  0.75000000  0.08474856  0.09559739  1
  La  La8  1  0.75000000  0.65028854  0.36694839  1
  La  La9  1  0.75000000  0.08474856  0.40440261  1
  La  La10  1  0.25000000  0.95002089  0.19450040  1
  La  La11  1  0.25000000  0.95002089  0.30549960  1
  La  La12  1  0.75000000  0.80474234  0.49079125  1
  La  La13  1  0.75000000  0.04997911  0.80549960  1
  La  La14  1  0.25000000  0.91525144  0.59559739  1
  La  La15  1  0.25000000  0.34971146  0.63305161  1
  La  La16  1  0.25000000  0.19525766  0.50920875  1
  La  La17  1  0.75000000  0.45129087  0.75000000  1
  B  B18  1  0.75000000  0.13700480  0.92014271  1
  B  B19  1  0.25000000  0.86299520  0.42014271  1
  B  B20  1  0.75000000  0.77318705  0.25000000  1
  B  B21  1  0.25000000  0.86299520  0.07985729  1
  B  B22  1  0.75000000  0.13700480  0.57985729  1
  B  B23  1  0.25000000  0.22681295  0.75000000  1
  C  C24  1  0.25000000  0.27192623  0.79341348  1
  C  C25  1  0.25000000  0.97292862  0.04356477  1
  C  C26  1  0.75000000  0.13510186  0.87541349  1
  C  C27  1  0.75000000  0.02707138  0.54356477  1
  C  C28  1  0.25000000  0.86489814  0.37541349  1
  C  C29  1  0.75000000  0.72807377  0.29341348  1
  C  C30  1  0.25000000  0.86489814  0.12458651  1
  C  C31  1  0.75000000  0.02707138  0.95643523  1
  C  C32  1  0.75000000  0.72807377  0.20658652  1
  C  C33  1  0.25000000  0.97292862  0.45643523  1
  C  C34  1  0.25000000  0.27192623  0.70658652  1
  C  C35  1  0.75000000  0.13510186  0.62458651  1
  Br  Br36  1  0.75000000  0.42573201  0.45197198  1
  Br  Br37  1  0.75000000  0.67323693  0.84797888  1
  Br  Br38  1  0.25000000  0.78560800  0.75000000  1
  Br  Br39  1  0.25000000  0.57426799  0.54802802  1
  Br  Br40  1  0.25000000  0.57426799  0.95197198  1
  Br  Br41  1  0.25000000  0.32676307  0.34797888  1
  Br  Br42  1  0.75000000  0.21439200  0.25000000  1
  Br  Br43  1  0.25000000  0.32676307  0.15202112  1
  Br  Br44  1  0.75000000  0.42573201  0.04802802  1
  Br  Br45  1  0.75000000  0.67323693  0.65202112  1
