# generated using pymatgen
data_Hf8FeTe6
_symmetry_space_group_name_H-M   'P 1'
_cell_length_a   3.73826629
_cell_length_b   7.69172530
_cell_length_c   26.07673618
_cell_angle_alpha   90.00025660
_cell_angle_beta   90.00019146
_cell_angle_gamma   89.99987534
_symmetry_Int_Tables_number   1
_chemical_formula_structural   Hf8FeTe6
_chemical_formula_sum   'Hf16 Fe2 Te12'
_cell_volume   749.80310285
_cell_formula_units_Z   2
loop_
 _symmetry_equiv_pos_site_id
 _symmetry_equiv_pos_as_xyz
  1  'x, y, z'
loop_
 _atom_site_type_symbol
 _atom_site_label
 _atom_site_symmetry_multiplicity
 _atom_site_fract_x
 _atom_site_fract_y
 _atom_site_fract_z
 _atom_site_occupancy
  Hf  Hf0  1  0.75000069  0.76080126  0.68388499  1
  Hf  Hf1  1  0.25000103  0.23919671  0.31612260  1
  Hf  Hf2  1  0.74999987  0.42622355  0.75000256  1
  Hf  Hf3  1  0.24999800  0.44231628  0.05153718  1
  Hf  Hf4  1  0.25000126  0.23919348  0.18387130  1
  Hf  Hf5  1  0.75000140  0.55768295  0.94847002  1
  Hf  Hf6  1  0.74999835  0.55613008  0.15060506  1
  Hf  Hf7  1  0.24999990  0.44386552  0.84939293  1
  Hf  Hf8  1  0.24999853  0.44387403  0.65061306  1
  Hf  Hf9  1  0.75000078  0.55767892  0.55153785  1
  Hf  Hf10  1  0.25000064  0.04077965  0.75000389  1
  Hf  Hf11  1  0.25000201  0.57379144  0.24999448  1
  Hf  Hf12  1  0.75000070  0.95922143  0.24999649  1
  Hf  Hf13  1  0.24999845  0.44231502  0.44846314  1
  Hf  Hf14  1  0.74999987  0.55613162  0.34938592  1
  Hf  Hf15  1  0.74999827  0.76079782  0.81612043  1
  Fe  Fe16  1  0.24999803  0.68383499  0.74999925  1
  Fe  Fe17  1  0.75000598  0.31618930  0.24999398  1
  Te  Te18  1  0.24999986  0.80059888  0.59413359  1
  Te  Te19  1  0.25000109  0.85068361  0.33213839  1
  Te  Te20  1  0.74999919  0.14931070  0.66786290  1
  Te  Te21  1  0.25000049  0.85068156  0.16785688  1
  Te  Te22  1  0.74999849  0.19939850  0.40586688  1
  Te  Te23  1  0.74999878  0.19940652  0.09413049  1
  Te  Te24  1  0.74999958  0.72452387  0.45250407  1
  Te  Te25  1  0.25000084  0.27547246  0.95250767  1
  Te  Te26  1  0.25000044  0.27547038  0.54749674  1
  Te  Te27  1  0.74999897  0.14930636  0.83214096  1
  Te  Te28  1  0.74999989  0.72452625  0.04749787  1
  Te  Te29  1  0.24999860  0.80059690  0.90586844  1
