# generated using pymatgen
data_Eu(ClO4)3
_symmetry_space_group_name_H-M   'P 1'
_cell_length_a   9.62345537
_cell_length_b   9.62345582
_cell_length_c   5.98430810
_cell_angle_alpha   90.00000000
_cell_angle_beta   90.00000000
_cell_angle_gamma   119.99999846
_symmetry_Int_Tables_number   1
_chemical_formula_structural   Eu(ClO4)3
_chemical_formula_sum   'Eu2 Cl6 O24'
_cell_volume   479.96180365
_cell_formula_units_Z   2
loop_
 _symmetry_equiv_pos_site_id
 _symmetry_equiv_pos_as_xyz
  1  'x, y, z'
loop_
 _atom_site_type_symbol
 _atom_site_label
 _atom_site_symmetry_multiplicity
 _atom_site_fract_x
 _atom_site_fract_y
 _atom_site_fract_z
 _atom_site_occupancy
  Eu  Eu0  1  0.66666700  0.33333300  0.75000000  1
  Eu  Eu1  1  0.33333300  0.66666700  0.25000000  1
  Cl  Cl2  1  0.09419889  0.38651389  0.75000000  1
  Cl  Cl3  1  0.29231500  0.90580111  0.75000000  1
  Cl  Cl4  1  0.38651389  0.29231500  0.25000000  1
  Cl  Cl5  1  0.90580111  0.61348611  0.25000000  1
  Cl  Cl6  1  0.61348611  0.70768500  0.75000000  1
  Cl  Cl7  1  0.70768500  0.09419889  0.25000000  1
  O  O8  1  0.80596291  0.02189822  0.25000000  1
  O  O9  1  0.46382844  0.02377895  0.75000000  1
  O  O10  1  0.21593531  0.19403709  0.25000000  1
  O  O11  1  0.97622105  0.44004949  0.75000000  1
  O  O12  1  0.80292318  0.54685639  0.44869141  1
  O  O13  1  0.19707682  0.45314361  0.55130859  1
  O  O14  1  0.02189822  0.21593531  0.75000000  1
  O  O15  1  0.45314361  0.25606678  0.44869141  1
  O  O16  1  0.25606678  0.80292318  0.55130859  1
  O  O17  1  0.53617156  0.97622105  0.25000000  1
  O  O18  1  0.19403709  0.97810178  0.75000000  1
  O  O19  1  0.74393322  0.19707682  0.05130859  1
  O  O20  1  0.55995051  0.53617156  0.75000000  1
  O  O21  1  0.54685639  0.74393322  0.55130859  1
  O  O22  1  0.78406469  0.80596291  0.75000000  1
  O  O23  1  0.44004949  0.46382844  0.25000000  1
  O  O24  1  0.02377895  0.55995051  0.25000000  1
  O  O25  1  0.19707682  0.45314361  0.94869141  1
  O  O26  1  0.97810178  0.78406469  0.25000000  1
  O  O27  1  0.54685639  0.74393322  0.94869141  1
  O  O28  1  0.25606678  0.80292318  0.94869141  1
  O  O29  1  0.45314361  0.25606678  0.05130859  1
  O  O30  1  0.74393322  0.19707682  0.44869141  1
  O  O31  1  0.80292318  0.54685639  0.05130859  1
