# generated using pymatgen
data_HoHO2
_symmetry_space_group_name_H-M   'P 1'
_cell_length_a   6.01452197
_cell_length_b   3.64651828
_cell_length_c   4.30362819
_cell_angle_alpha   89.94182575
_cell_angle_beta   110.04072481
_cell_angle_gamma   90.01276043
_symmetry_Int_Tables_number   1
_chemical_formula_structural   HoHO2
_chemical_formula_sum   'Ho2 H2 O4'
_cell_volume   88.67217591
_cell_formula_units_Z   2
loop_
 _symmetry_equiv_pos_site_id
 _symmetry_equiv_pos_as_xyz
  1  'x, y, z'
loop_
 _atom_site_type_symbol
 _atom_site_label
 _atom_site_symmetry_multiplicity
 _atom_site_fract_x
 _atom_site_fract_y
 _atom_site_fract_z
 _atom_site_occupancy
  Ho  Ho0  1  0.18856397  0.75048569  0.33763411  1
  Ho  Ho1  1  0.81036105  0.25011048  0.66324209  1
  H  H2  1  0.59519538  0.75095334  0.98743353  1
  H  H3  1  0.39792440  0.25472896  0.01072654  1
  O  O4  1  0.04825495  0.74975643  0.76680187  1
  O  O5  1  0.95132496  0.25019329  0.23414218  1
  O  O6  1  0.56702647  0.74953403  0.75046686  1
  O  O7  1  0.43162081  0.25057879  0.24899381  1
