# generated using pymatgen
data_YHO2
_symmetry_space_group_name_H-M   'P 1'
_cell_length_a   4.34605156
_cell_length_b   3.67079744
_cell_length_c   6.14608856
_cell_angle_alpha   90.00000000
_cell_angle_beta   112.06400441
_cell_angle_gamma   90.00000000
_symmetry_Int_Tables_number   1
_chemical_formula_structural   YHO2
_chemical_formula_sum   'Y2 H2 O4'
_cell_volume   90.87065144
_cell_formula_units_Z   2
loop_
 _symmetry_equiv_pos_site_id
 _symmetry_equiv_pos_as_xyz
  1  'x, y, z'
loop_
 _atom_site_type_symbol
 _atom_site_label
 _atom_site_symmetry_multiplicity
 _atom_site_fract_x
 _atom_site_fract_y
 _atom_site_fract_z
 _atom_site_occupancy
  Y  Y0  1  0.64690127  0.25000000  0.31069479  1
  Y  Y1  1  0.35309873  0.75000000  0.68930521  1
  H  H2  1  0.11160427  0.75000000  0.09770584  1
  H  H3  1  0.88839573  0.25000000  0.90229416  1
  O  O4  1  0.78528341  0.75000000  0.55020752  1
  O  O5  1  0.21471659  0.25000000  0.44979248  1
  O  O6  1  0.31653871  0.75000000  0.06753454  1
  O  O7  1  0.68346129  0.25000000  0.93246546  1
