# generated using pymatgen
data_VHO2
_symmetry_space_group_name_H-M   'P 1'
_cell_length_a   4.64299450
_cell_length_b   10.07827133
_cell_length_c   3.14025001
_cell_angle_alpha   90.00000000
_cell_angle_beta   90.00000000
_cell_angle_gamma   90.00000000
_symmetry_Int_Tables_number   1
_chemical_formula_structural   VHO2
_chemical_formula_sum   'V4 H4 O8'
_cell_volume   146.94284404
_cell_formula_units_Z   4
loop_
 _symmetry_equiv_pos_site_id
 _symmetry_equiv_pos_as_xyz
  1  'x, y, z'
loop_
 _atom_site_type_symbol
 _atom_site_label
 _atom_site_symmetry_multiplicity
 _atom_site_fract_x
 _atom_site_fract_y
 _atom_site_fract_z
 _atom_site_occupancy
  V  V0  1  0.55842922  0.64372770  0.25000000  1
  V  V1  1  0.94157078  0.14372770  0.25000000  1
  V  V2  1  0.44157078  0.35627230  0.75000000  1
  V  V3  1  0.05842922  0.85627230  0.75000000  1
  H  H4  1  0.89343363  0.40824877  0.25000000  1
  H  H5  1  0.60656637  0.90824877  0.25000000  1
  H  H6  1  0.10656637  0.59175123  0.75000000  1
  H  H7  1  0.39343363  0.09175123  0.75000000  1
  O  O8  1  0.19124851  0.30097177  0.25000000  1
  O  O9  1  0.30875149  0.80097177  0.25000000  1
  O  O10  1  0.80875149  0.69902823  0.75000000  1
  O  O11  1  0.69124851  0.19902823  0.75000000  1
  O  O12  1  0.69218571  0.44266068  0.25000000  1
  O  O13  1  0.80781429  0.94266068  0.25000000  1
  O  O14  1  0.30781429  0.55733932  0.75000000  1
  O  O15  1  0.19218571  0.05733932  0.75000000  1
