# generated using pymatgen
data_In(HO)3
_symmetry_space_group_name_H-M   'P 1'
_cell_length_a   6.99671249
_cell_length_b   6.99671249
_cell_length_c   7.02077709
_cell_angle_alpha   109.54090825
_cell_angle_beta   109.54090825
_cell_angle_gamma   109.40144321
_symmetry_Int_Tables_number   1
_chemical_formula_structural   In(HO)3
_chemical_formula_sum   'In4 H12 O12'
_cell_volume   264.34866228
_cell_formula_units_Z   4
loop_
 _symmetry_equiv_pos_site_id
 _symmetry_equiv_pos_as_xyz
  1  'x, y, z'
loop_
 _atom_site_type_symbol
 _atom_site_label
 _atom_site_symmetry_multiplicity
 _atom_site_fract_x
 _atom_site_fract_y
 _atom_site_fract_z
 _atom_site_occupancy
  In  In0  1  0.50000000  0.00000000  0.00000000  1
  In  In1  1  0.00000000  0.00000000  0.50000000  1
  In  In2  1  0.00000000  0.50000000  0.00000000  1
  In  In3  1  0.50000000  0.50000000  0.50000000  1
  H  H4  1  0.44498843  0.27153154  0.82553610  1
  H  H5  1  0.55501157  0.72846846  0.17446390  1
  H  H6  1  0.31676726  0.36308255  0.04630498  1
  H  H7  1  0.68323274  0.63691745  0.95369502  1
  H  H8  1  0.95368471  0.31676726  0.27046227  1
  H  H9  1  0.04631529  0.68323274  0.72953773  1
  H  H10  1  0.17345689  0.44498843  0.61945233  1
  H  H11  1  0.82654311  0.55501157  0.38054767  1
  H  H12  1  0.27153154  0.82654311  0.44599544  1
  H  H13  1  0.72846846  0.17345689  0.55400456  1
  H  H14  1  0.36308255  0.04631529  0.31677757  1
  H  H15  1  0.63691745  0.95368471  0.68322243  1
  O  O16  1  0.32274755  0.15555591  0.83182180  1
  O  O17  1  0.67725245  0.84444409  0.16817820  1
  O  O18  1  0.32150440  0.49226459  0.16875140  1
  O  O19  1  0.67849560  0.50773541  0.83124860  1
  O  O20  1  0.82923981  0.32150440  0.15275300  1
  O  O21  1  0.17076019  0.67849560  0.84724700  1
  O  O22  1  0.16719165  0.32274755  0.49092576  1
  O  O23  1  0.83280835  0.67725245  0.50907424  1
  O  O24  1  0.15555591  0.83280835  0.32373411  1
  O  O25  1  0.84444409  0.16719165  0.67626589  1
  O  O26  1  0.49226459  0.17076019  0.32351319  1
  O  O27  1  0.50773541  0.82923981  0.67648681  1
