# generated using pymatgen
data_LaHO2
_symmetry_space_group_name_H-M   'P 1'
_cell_length_a   4.49418121
_cell_length_b   3.94023170
_cell_length_c   6.64099785
_cell_angle_alpha   90.00000000
_cell_angle_beta   112.47067327
_cell_angle_gamma   90.00000000
_symmetry_Int_Tables_number   1
_chemical_formula_structural   LaHO2
_chemical_formula_sum   'La2 H2 O4'
_cell_volume   108.67084283
_cell_formula_units_Z   2
loop_
 _symmetry_equiv_pos_site_id
 _symmetry_equiv_pos_as_xyz
  1  'x, y, z'
loop_
 _atom_site_type_symbol
 _atom_site_label
 _atom_site_symmetry_multiplicity
 _atom_site_fract_x
 _atom_site_fract_y
 _atom_site_fract_z
 _atom_site_occupancy
  La  La0  1  0.63875576  0.25000000  0.30737530  1
  La  La1  1  0.36124424  0.75000000  0.69262470  1
  H  H2  1  0.10218374  0.75000000  0.07953795  1
  H  H3  1  0.89781626  0.25000000  0.92046205  1
  O  O4  1  0.78102364  0.75000000  0.54282305  1
  O  O5  1  0.21897636  0.25000000  0.45717695  1
  O  O6  1  0.30891948  0.75000000  0.06295812  1
  O  O7  1  0.69108052  0.25000000  0.93704188  1
