# generated using pymatgen
data_NaPH3NO3
_symmetry_space_group_name_H-M   'P 1'
_cell_length_a   5.80670538
_cell_length_b   5.80580981
_cell_length_c   6.14105217
_cell_angle_alpha   90.00000000
_cell_angle_beta   90.00000000
_cell_angle_gamma   119.99581267
_symmetry_Int_Tables_number   1
_chemical_formula_structural   NaPH3NO3
_chemical_formula_sum   'Na2 P2 H6 N2 O6'
_cell_volume   179.30167129
_cell_formula_units_Z   2
loop_
 _symmetry_equiv_pos_site_id
 _symmetry_equiv_pos_as_xyz
  1  'x, y, z'
loop_
 _atom_site_type_symbol
 _atom_site_label
 _atom_site_symmetry_multiplicity
 _atom_site_fract_x
 _atom_site_fract_y
 _atom_site_fract_z
 _atom_site_occupancy
  Na  Na0  1  0.00000083  0.00000095  0.49930680  1
  Na  Na1  1  -0.00000083  -0.00000095  0.99930680  1
  P  P2  1  0.66686587  0.33353099  0.80764722  1
  P  P3  1  0.33313413  0.66646901  0.30764722  1
  H  H4  1  0.84498896  0.49176843  0.16246909  1
  H  H5  1  0.64676853  0.15504781  0.16246188  1
  H  H6  1  0.50819796  0.35321815  0.16248603  1
  H  H7  1  0.15501104  0.50823157  0.66246909  1
  H  H8  1  0.35323147  0.84495219  0.66246188  1
  H  H9  1  0.49180204  0.64678185  0.66248603  1
  N  N10  1  0.66665207  0.33326192  0.10176739  1
  N  N11  1  0.33334793  0.66673808  0.60176739  1
  O  O12  1  0.37482450  0.14796366  0.74999395  1
  O  O13  1  0.77303547  0.62492912  0.75003998  1
  O  O14  1  0.85191303  0.22690400  0.75002767  1
  O  O15  1  0.62517550  0.85203634  0.24999395  1
  O  O16  1  0.22696453  0.37507088  0.25003998  1
  O  O17  1  0.14808697  0.77309600  0.25002767  1
