# generated using pymatgen
data_Hf6Fe16Si7
_symmetry_space_group_name_H-M   'P 1'
_cell_length_a   8.06801211
_cell_length_b   8.06750803
_cell_length_c   8.06819535
_cell_angle_alpha   59.99518517
_cell_angle_beta   59.99781992
_cell_angle_gamma   59.99584019
_symmetry_Int_Tables_number   1
_chemical_formula_structural   Hf6Fe16Si7
_chemical_formula_sum   'Hf6 Fe16 Si7'
_cell_volume   371.30495121
_cell_formula_units_Z   1
loop_
 _symmetry_equiv_pos_site_id
 _symmetry_equiv_pos_as_xyz
  1  'x, y, z'
loop_
 _atom_site_type_symbol
 _atom_site_label
 _atom_site_symmetry_multiplicity
 _atom_site_fract_x
 _atom_site_fract_y
 _atom_site_fract_z
 _atom_site_occupancy
  Hf  Hf0  1  0.20519065  0.20510320  0.79489514  1
  Hf  Hf1  1  0.79489976  0.20524720  0.20523973  1
  Hf  Hf2  1  0.20529219  0.79497479  0.79465432  1
  Hf  Hf3  1  0.79466274  0.79477668  0.20533726  1
  Hf  Hf4  1  0.79487097  0.20529307  0.79466798  1
  Hf  Hf5  1  0.20524723  0.79500281  0.20515162  1
  Fe  Fe6  1  0.62106796  0.13687020  0.62100403  1
  Fe  Fe7  1  0.47366667  0.17538694  0.17545312  1
  Fe  Fe8  1  0.37892545  0.37889811  0.86321568  1
  Fe  Fe9  1  0.17540817  0.17535923  0.17541895  1
  Fe  Fe10  1  0.17541615  0.47368103  0.17543121  1
  Fe  Fe11  1  0.82456670  0.82463756  0.52621944  1
  Fe  Fe12  1  0.62103886  0.62102011  0.13691705  1
  Fe  Fe13  1  0.82458195  0.52621359  0.82461645  1
  Fe  Fe14  1  0.82451692  0.82459133  0.82455047  1
  Fe  Fe15  1  0.17541531  0.17536808  0.47374615  1
  Fe  Fe16  1  0.62108772  0.62107241  0.62102514  1
  Fe  Fe17  1  0.86326199  0.37887019  0.37893401  1
  Fe  Fe18  1  0.37891003  0.37887752  0.37894046  1
  Fe  Fe19  1  0.37891760  0.86318222  0.37895097  1
  Fe  Fe20  1  0.52629349  0.82460364  0.82456348  1
  Fe  Fe21  1  0.13671111  0.62111028  0.62106439  1
  Si  Si22  1  0.49977243  0.00001347  0.00012187  1
  Si  Si23  1  0.49999337  -0.00003782  0.50005237  1
  Si  Si24  1  0.50019308  0.50001912  0.49985459  1
  Si  Si25  1  0.99993287  0.49970026  0.00017870  1
  Si  Si26  1  0.50019948  0.50002913  -0.00007617  1
  Si  Si27  1  0.00007801  0.00021615  0.49972244  1
  Si  Si28  1  0.99988112  0.49991949  0.50014916  1
