# generated using pymatgen
data_Mo3S7Cl4
_symmetry_space_group_name_H-M   'P 1'
_cell_length_a   9.58697132
_cell_length_b   12.25757252
_cell_length_c   12.35868217
_cell_angle_alpha   90.00000000
_cell_angle_beta   90.00000000
_cell_angle_gamma   98.79398252
_symmetry_Int_Tables_number   1
_chemical_formula_structural   Mo3S7Cl4
_chemical_formula_sum   'Mo12 S28 Cl16'
_cell_volume   1435.23310869
_cell_formula_units_Z   4
loop_
 _symmetry_equiv_pos_site_id
 _symmetry_equiv_pos_as_xyz
  1  'x, y, z'
loop_
 _atom_site_type_symbol
 _atom_site_label
 _atom_site_symmetry_multiplicity
 _atom_site_fract_x
 _atom_site_fract_y
 _atom_site_fract_z
 _atom_site_occupancy
  Mo  Mo0  1  0.58579339  0.70629227  0.25449498  1
  Mo  Mo1  1  0.14082732  0.78252688  0.61931477  1
  Mo  Mo2  1  0.17686550  0.77710746  0.83982902  1
  Mo  Mo3  1  0.32313450  0.72289254  0.33982902  1
  Mo  Mo4  1  0.35917268  0.71747312  0.11931477  1
  Mo  Mo5  1  0.64082732  0.28252688  0.88068523  1
  Mo  Mo6  1  0.67686550  0.27710746  0.66017098  1
  Mo  Mo7  1  0.91420661  0.79370773  0.75449498  1
  Mo  Mo8  1  0.85917268  0.21747312  0.38068523  1
  Mo  Mo9  1  0.82313450  0.22289254  0.16017098  1
  Mo  Mo10  1  0.41420661  0.29370773  0.74550502  1
  Mo  Mo11  1  0.08579339  0.20629227  0.24550502  1
  S  S12  1  0.53766981  0.14004871  0.76445708  1
  S  S13  1  0.96076698  0.78192594  0.95274378  1
  S  S14  1  0.99829927  0.06924158  0.37833995  1
  S  S15  1  0.31363792  0.90546550  0.71910148  1
  S  S16  1  0.39580467  0.29266089  0.94739634  1
  S  S17  1  0.46076698  0.28192594  0.54725622  1
  S  S18  1  0.49829927  0.56924158  0.12166005  1
  S  S19  1  0.63387820  0.24860364  0.29257511  1
  S  S20  1  0.10419533  0.20733911  0.44739634  1
  S  S21  1  0.45607771  0.57600586  0.37746849  1
  S  S22  1  0.03766981  0.64004871  0.73554292  1
  S  S23  1  0.36612180  0.75139636  0.70742489  1
  S  S24  1  0.04392229  0.92399414  0.87746849  1
  S  S25  1  0.96233019  0.35995129  0.26445708  1
  S  S26  1  0.00170073  0.93075842  0.62166005  1
  S  S27  1  0.81363792  0.40546550  0.78089852  1
  S  S28  1  0.95607771  0.07600586  0.12253151  1
  S  S29  1  0.50170073  0.43075842  0.87833995  1
  S  S30  1  0.68636208  0.09453450  0.28089852  1
  S  S31  1  0.53923302  0.71807406  0.45274378  1
  S  S32  1  0.18636208  0.59453450  0.21910148  1
  S  S33  1  0.60419533  0.70733911  0.05260366  1
  S  S34  1  0.13387820  0.74860364  0.20742489  1
  S  S35  1  0.89580467  0.79266089  0.55260366  1
  S  S36  1  0.54392229  0.42399414  0.62253151  1
  S  S37  1  0.03923302  0.21807406  0.04725622  1
  S  S38  1  0.46233019  0.85995129  0.23554292  1
  S  S39  1  0.86612180  0.25139636  0.79257511  1
  Cl  Cl40  1  0.76436335  0.38109506  0.04817779  1
  Cl  Cl41  1  0.29193161  0.35811662  0.23636366  1
  Cl  Cl42  1  0.26436335  0.88109506  0.45182221  1
  Cl  Cl43  1  0.27515949  0.09554413  0.21585034  1
  Cl  Cl44  1  0.77515949  0.59554413  0.28414966  1
  Cl  Cl45  1  0.65681241  0.12980393  0.01209328  1
  Cl  Cl46  1  0.22484051  0.40445587  0.71585034  1
  Cl  Cl47  1  0.15681241  0.62980393  0.48790672  1
  Cl  Cl48  1  0.34318759  0.87019607  0.98790672  1
  Cl  Cl49  1  0.23563665  0.61890494  0.95182221  1
  Cl  Cl50  1  0.79193161  0.85811662  0.26363634  1
  Cl  Cl51  1  0.20806839  0.14188338  0.73636366  1
  Cl  Cl52  1  0.72484051  0.90445587  0.78414966  1
  Cl  Cl53  1  0.84318759  0.37019607  0.51209328  1
  Cl  Cl54  1  0.73563665  0.11890494  0.54817779  1
  Cl  Cl55  1  0.70806839  0.64188338  0.76363634  1
