# generated using pymatgen
data_VBi(PbO3)2
_symmetry_space_group_name_H-M   'P 1'
_cell_length_a   5.82473338
_cell_length_b   7.90925806
_cell_length_c   29.96893119
_cell_angle_alpha   94.72921719
_cell_angle_beta   90.00000000
_cell_angle_gamma   90.00000000
_symmetry_Int_Tables_number   1
_chemical_formula_structural   VBi(PbO3)2
_chemical_formula_sum   'V8 Bi8 Pb16 O48'
_cell_volume   1375.94781163
_cell_formula_units_Z   8
loop_
 _symmetry_equiv_pos_site_id
 _symmetry_equiv_pos_as_xyz
  1  'x, y, z'
loop_
 _atom_site_type_symbol
 _atom_site_label
 _atom_site_symmetry_multiplicity
 _atom_site_fract_x
 _atom_site_fract_y
 _atom_site_fract_z
 _atom_site_occupancy
  V  V0  1  0.22088743  0.00244098  0.69284402  1
  V  V1  1  0.27911257  0.50244098  0.19284402  1
  V  V2  1  0.23178461  0.82392461  0.45165482  1
  V  V3  1  0.76821539  0.17607539  0.54834518  1
  V  V4  1  0.77911257  0.99755902  0.30715598  1
  V  V5  1  0.73178461  0.67607539  0.04834518  1
  V  V6  1  0.72088743  0.49755902  0.80715598  1
  V  V7  1  0.26821539  0.32392461  0.95165482  1
  Bi  Bi8  1  0.74648267  0.21749657  0.14941747  1
  Bi  Bi9  1  0.74466571  0.53122348  0.39130775  1
  Bi  Bi10  1  0.25351733  0.78250343  0.85058253  1
  Bi  Bi11  1  0.75533429  0.03122348  0.89130775  1
  Bi  Bi12  1  0.24466571  0.96877652  0.10869225  1
  Bi  Bi13  1  0.25533429  0.46877652  0.60869225  1
  Bi  Bi14  1  0.24648267  0.28250343  0.35058253  1
  Bi  Bi15  1  0.75351733  0.71749657  0.64941747  1
  Pb  Pb16  1  0.71556248  0.25896433  0.67576284  1
  Pb  Pb17  1  0.22047014  0.41702659  0.07890371  1
  Pb  Pb18  1  0.78443752  0.75896433  0.17576284  1
  Pb  Pb19  1  0.75246946  0.67299029  0.52605460  1
  Pb  Pb20  1  0.28443752  0.74103567  0.32423716  1
  Pb  Pb21  1  0.77864962  0.46398379  0.27077894  1
  Pb  Pb22  1  0.22135038  0.53601621  0.72922106  1
  Pb  Pb23  1  0.77952986  0.58297341  0.92109629  1
  Pb  Pb24  1  0.72047014  0.08297341  0.42109629  1
  Pb  Pb25  1  0.27952986  0.91702659  0.57890371  1
  Pb  Pb26  1  0.74753054  0.17299029  0.02605460  1
  Pb  Pb27  1  0.21556248  0.24103567  0.82423716  1
  Pb  Pb28  1  0.27864962  0.03601621  0.22922106  1
  Pb  Pb29  1  0.72135038  0.96398379  0.77077894  1
  Pb  Pb30  1  0.24753054  0.32700971  0.47394540  1
  Pb  Pb31  1  0.25246946  0.82700971  0.97394540  1
  O  O32  1  0.65072861  0.24841359  0.49926634  1
  O  O33  1  0.52062784  0.81749128  0.90747636  1
  O  O34  1  0.05907512  0.21901669  0.54838695  1
  O  O35  1  0.02969085  0.02637903  0.17059878  1
  O  O36  1  0.34999903  0.33240322  0.22459183  1
  O  O37  1  0.23071009  0.68695912  0.22625772  1
  O  O38  1  0.94092488  0.78098331  0.45161305  1
  O  O39  1  0.72776997  0.95594823  0.55016840  1
  O  O40  1  0.97030915  0.97362097  0.82940122  1
  O  O41  1  0.52969085  0.47362097  0.32940122  1
  O  O42  1  0.47937216  0.18250872  0.09252364  1
  O  O43  1  0.76928991  0.31304088  0.77374228  1
  O  O44  1  0.63892620  0.28034789  0.59583780  1
  O  O45  1  0.03724128  0.45881041  0.15830930  1
  O  O46  1  0.53724128  0.04118959  0.34169070  1
  O  O47  1  0.15000097  0.83240322  0.72459183  1
  O  O48  1  0.13892620  0.21965211  0.90416220  1
  O  O49  1  0.48670359  0.01714248  0.83395308  1
  O  O50  1  0.55907512  0.28098331  0.95161305  1
  O  O51  1  0.26928991  0.18695912  0.72625772  1
  O  O52  1  0.22776997  0.54405177  0.94983160  1
  O  O53  1  0.73071009  0.81304088  0.27374228  1
  O  O54  1  0.84927139  0.74841359  0.99926634  1
  O  O55  1  0.01912698  0.83115483  0.90895697  1
  O  O56  1  0.36107380  0.71965211  0.40416220  1
  O  O57  1  0.65000097  0.66759678  0.77540817  1
  O  O58  1  0.98087302  0.16884517  0.09104303  1
  O  O59  1  0.96275872  0.54118959  0.84169070  1
  O  O60  1  0.77223003  0.45594823  0.05016840  1
  O  O61  1  0.99638768  0.02715351  0.65514273  1
  O  O62  1  0.51329641  0.98285752  0.16604692  1
  O  O63  1  0.51912698  0.66884517  0.59104303  1
  O  O64  1  0.02062784  0.68250872  0.59252364  1
  O  O65  1  0.98670359  0.48285752  0.66604692  1
  O  O66  1  0.15072861  0.25158641  0.00073366  1
  O  O67  1  0.34927139  0.75158641  0.50073366  1
  O  O68  1  0.27223003  0.04405177  0.44983160  1
  O  O69  1  0.86107380  0.78034789  0.09583780  1
  O  O70  1  0.50361232  0.52715351  0.15514273  1
  O  O71  1  0.97937216  0.31749128  0.40747636  1
  O  O72  1  0.46275872  0.95881041  0.65830930  1
  O  O73  1  0.00361232  0.97284649  0.34485727  1
  O  O74  1  0.44092488  0.71901669  0.04838695  1
  O  O75  1  0.47030915  0.52637903  0.67059878  1
  O  O76  1  0.84999903  0.16759678  0.27540817  1
  O  O77  1  0.48087302  0.33115483  0.40895697  1
  O  O78  1  0.01329641  0.51714248  0.33395308  1
  O  O79  1  0.49638768  0.47284649  0.84485727  1
