# generated using pymatgen
data_Te3(PdBr)4
_symmetry_space_group_name_H-M   'P 1'
_cell_length_a   8.71934097
_cell_length_b   8.62704524
_cell_length_c   9.00681221
_cell_angle_alpha   81.94423860
_cell_angle_beta   72.77809262
_cell_angle_gamma   88.78300406
_symmetry_Int_Tables_number   1
_chemical_formula_structural   Te3(PdBr)4
_chemical_formula_sum   'Te6 Pd8 Br8'
_cell_volume   640.60292518
_cell_formula_units_Z   2
loop_
 _symmetry_equiv_pos_site_id
 _symmetry_equiv_pos_as_xyz
  1  'x, y, z'
loop_
 _atom_site_type_symbol
 _atom_site_label
 _atom_site_symmetry_multiplicity
 _atom_site_fract_x
 _atom_site_fract_y
 _atom_site_fract_z
 _atom_site_occupancy
  Te  Te0  1  0.27979466  0.15265118  0.02885376  1
  Te  Te1  1  0.47630273  0.19329832  0.29090267  1
  Te  Te2  1  0.52369727  0.80670168  0.70909733  1
  Te  Te3  1  0.14676062  0.38537360  0.30176864  1
  Te  Te4  1  0.85323938  0.61462640  0.69823136  1
  Te  Te5  1  0.72020534  0.84734882  0.97114624  1
  Pd  Pd6  1  0.57688948  0.21558932  0.99087565  1
  Pd  Pd7  1  0.21265421  0.44401955  0.00393912  1
  Pd  Pd8  1  0.78734579  0.55598045  0.99606088  1
  Pd  Pd9  1  0.42311052  0.78441068  0.00912435  1
  Pd  Pd10  1  0.81506989  0.92173673  0.66352562  1
  Pd  Pd11  1  0.42308223  0.48521011  0.29625421  1
  Pd  Pd12  1  0.18493011  0.07826327  0.33647438  1
  Pd  Pd13  1  0.57691777  0.51478989  0.70374579  1
  Br  Br14  1  0.28830944  0.46054234  0.70352996  1
  Br  Br15  1  0.71169056  0.53945766  0.29647004  1
  Br  Br16  1  0.86465889  0.26874809  0.98927969  1
  Br  Br17  1  0.65709298  0.22109043  0.68773647  1
  Br  Br18  1  0.10438228  0.02352588  0.64204305  1
  Br  Br19  1  0.89561772  0.97647412  0.35795695  1
  Br  Br20  1  0.13534111  0.73125191  0.01072031  1
  Br  Br21  1  0.34290702  0.77890957  0.31226353  1
