# generated using pymatgen
data_Na2H6PtO6
_symmetry_space_group_name_H-M   'P 1'
_cell_length_a   5.91768318
_cell_length_b   5.91765782
_cell_length_c   4.61623322
_cell_angle_alpha   89.99962920
_cell_angle_beta   90.00113293
_cell_angle_gamma   119.99981375
_symmetry_Int_Tables_number   1
_chemical_formula_structural   Na2H6PtO6
_chemical_formula_sum   'Na2 H6 Pt1 O6'
_cell_volume   139.99765074
_cell_formula_units_Z   1
loop_
 _symmetry_equiv_pos_site_id
 _symmetry_equiv_pos_as_xyz
  1  'x, y, z'
loop_
 _atom_site_type_symbol
 _atom_site_label
 _atom_site_symmetry_multiplicity
 _atom_site_fract_x
 _atom_site_fract_y
 _atom_site_fract_z
 _atom_site_occupancy
  Na  Na0  1  0.66667632  0.33333754  0.95413177  1
  Na  Na1  1  0.33332368  0.66666246  0.04586823  1
  H  H2  1  0.18496011  0.32461184  0.59333050  1
  H  H3  1  0.13964763  0.81503303  0.59332920  1
  H  H4  1  0.67538802  0.86034954  0.59331380  1
  H  H5  1  0.81503989  0.67538816  0.40666950  1
  H  H6  1  0.86035237  0.18496697  0.40667080  1
  H  H7  1  0.32461198  0.13965046  0.40668620  1
  Pt  Pt8  1  0.00000000  0.00000000  0.00000000  1
  O  O9  1  0.27935022  0.29471841  0.75178930  1
  O  O10  1  0.01536588  0.72064394  0.75179061  1
  O  O11  1  0.70528312  0.98463885  0.75178762  1
  O  O12  1  0.72064978  0.70528159  0.24821070  1
  O  O13  1  0.98463412  0.27935606  0.24820939  1
  O  O14  1  0.29471688  0.01536115  0.24821238  1
