# generated using pymatgen
data_Nd2CdS4
_symmetry_space_group_name_H-M   'P 1'
_cell_length_a   7.45417324
_cell_length_b   7.45417324
_cell_length_c   7.45417385
_cell_angle_alpha   110.72169556
_cell_angle_beta   110.72169558
_cell_angle_gamma   106.99821289
_symmetry_Int_Tables_number   1
_chemical_formula_structural   Nd2CdS4
_chemical_formula_sum   'Nd4 Cd2 S8'
_cell_volume   318.39971371
_cell_formula_units_Z   2
loop_
 _symmetry_equiv_pos_site_id
 _symmetry_equiv_pos_as_xyz
  1  'x, y, z'
loop_
 _atom_site_type_symbol
 _atom_site_label
 _atom_site_symmetry_multiplicity
 _atom_site_fract_x
 _atom_site_fract_y
 _atom_site_fract_z
 _atom_site_occupancy
  Cd  Cd0  1  0.62500000  0.37500000  0.25000000  1
  Cd  Cd1  1  0.87500000  0.12500000  0.75000000  1
  Nd  Nd2  1  0.11149845  0.75000000  0.86149845  1
  Nd  Nd3  1  0.25000000  0.61149845  0.36149845  1
  Nd  Nd4  1  0.38850155  0.25000000  0.63850155  1
  Nd  Nd5  1  0.75000000  0.88850155  0.13850155  1
  S  S6  1  0.00740418  0.88203078  0.51428069  1
  S  S7  1  0.11796922  0.13224991  0.12537340  1
  S  S8  1  0.38203078  0.50740418  0.01428069  1
  S  S9  1  0.49259582  0.00687652  0.87462660  1
  S  S10  1  0.63224991  0.61796922  0.62537340  1
  S  S11  1  0.50687652  0.99259582  0.37462660  1
  S  S12  1  0.86775009  0.49312348  0.98571931  1
  S  S13  1  0.99312348  0.36775009  0.48571931  1
