# generated using pymatgen
data_YbIn5Ir
_symmetry_space_group_name_H-M   'P 1'
_cell_length_a   4.70506852
_cell_length_b   4.70502282
_cell_length_c   7.50146550
_cell_angle_alpha   90.00070988
_cell_angle_beta   90.00009548
_cell_angle_gamma   90.00081857
_symmetry_Int_Tables_number   1
_chemical_formula_structural   YbIn5Ir
_chemical_formula_sum   'Yb1 In5 Ir1'
_cell_volume   166.06335310
_cell_formula_units_Z   1
loop_
 _symmetry_equiv_pos_site_id
 _symmetry_equiv_pos_as_xyz
  1  'x, y, z'
loop_
 _atom_site_type_symbol
 _atom_site_label
 _atom_site_symmetry_multiplicity
 _atom_site_fract_x
 _atom_site_fract_y
 _atom_site_fract_z
 _atom_site_occupancy
  Yb  Yb0  1  0.00000033  0.00000054  0.00000018  1
  In  In1  1  0.99999786  0.49999959  0.70065548  1
  In  In2  1  0.99999831  0.50000322  0.29934265  1
  In  In3  1  0.50000262  -0.00000339  0.70065578  1
  In  In4  1  0.50000050  0.00000009  0.29934855  1
  In  In5  1  0.50000038  0.49999910  -0.00000118  1
  Ir  Ir6  1  -0.00000001  0.00000085  0.49999852  1
