# generated using pymatgen
data_SbH3OF6
_symmetry_space_group_name_H-M   'P 1'
_cell_length_a   8.85682835
_cell_length_b   8.85682835
_cell_length_c   8.85682835
_cell_angle_alpha   109.47122063
_cell_angle_beta   109.47122063
_cell_angle_gamma   109.47122063
_symmetry_Int_Tables_number   1
_chemical_formula_structural   SbH3OF6
_chemical_formula_sum   'Sb4 H12 O4 F24'
_cell_volume   534.82634552
_cell_formula_units_Z   4
loop_
 _symmetry_equiv_pos_site_id
 _symmetry_equiv_pos_as_xyz
  1  'x, y, z'
loop_
 _atom_site_type_symbol
 _atom_site_label
 _atom_site_symmetry_multiplicity
 _atom_site_fract_x
 _atom_site_fract_y
 _atom_site_fract_z
 _atom_site_occupancy
  Sb  Sb0  1  0.50000000  0.00000000  0.01495356  1
  Sb  Sb1  1  0.00000000  0.01495356  0.50000000  1
  Sb  Sb2  1  0.01495356  0.50000000  0.00000000  1
  Sb  Sb3  1  0.48504644  0.48504644  0.48504644  1
  H  H4  1  0.37588099  0.97896455  0.48927913  1
  H  H5  1  0.60308356  0.12411901  0.61339814  1
  H  H6  1  0.52103545  0.89691644  0.51031457  1
  H  H7  1  0.12411901  0.61339814  0.60308356  1
  H  H8  1  0.89691644  0.51031457  0.52103545  1
  H  H9  1  0.97896455  0.48927913  0.37588099  1
  H  H10  1  0.51031457  0.52103545  0.89691644  1
  H  H11  1  0.48927913  0.37588099  0.97896455  1
  H  H12  1  0.61339814  0.60308356  0.12411901  1
  H  H13  1  0.98968543  0.88660186  0.01072087  1
  H  H14  1  0.01072087  0.98968543  0.88660186  1
  H  H15  1  0.88660186  0.01072087  0.98968543  1
  O  O16  1  0.50000000  0.00000000  0.50684217  1
  O  O17  1  0.00000000  0.50684217  0.50000000  1
  O  O18  1  0.50684217  0.50000000  0.00000000  1
  O  O19  1  0.99315783  0.99315783  0.99315783  1
  F  F20  1  0.66546854  0.20606320  0.25783569  1
  F  F21  1  0.54059466  0.83453146  0.09236715  1
  F  F22  1  0.29393680  0.95940534  0.05177249  1
  F  F23  1  0.83453146  0.09236715  0.54059466  1
  F  F24  1  0.95940534  0.05177249  0.29393680  1
  F  F25  1  0.20606320  0.25783569  0.66546854  1
  F  F26  1  0.05177249  0.29393680  0.95940534  1
  F  F27  1  0.25783569  0.66546854  0.20606320  1
  F  F28  1  0.09236715  0.54059466  0.83453146  1
  F  F29  1  0.44822751  0.40763285  0.24216431  1
  F  F30  1  0.24216431  0.44822751  0.40763285  1
  F  F31  1  0.40763285  0.24216431  0.44822751  1
  F  F32  1  0.33103928  0.80181036  0.76005989  1
  F  F33  1  0.47077108  0.16896072  0.92902061  1
  F  F34  1  0.69818964  0.02922892  0.95824953  1
  F  F35  1  0.16896072  0.92902061  0.47077108  1
  F  F36  1  0.02922892  0.95824953  0.69818964  1
  F  F37  1  0.80181036  0.76005989  0.33103928  1
  F  F38  1  0.95824953  0.69818964  0.02922892  1
  F  F39  1  0.76005989  0.33103928  0.80181036  1
  F  F40  1  0.92902061  0.47077108  0.16896072  1
  F  F41  1  0.54175047  0.57097939  0.73994011  1
  F  F42  1  0.73994011  0.54175047  0.57097939  1
  F  F43  1  0.57097939  0.73994011  0.54175047  1
