# generated using pymatgen
data_K2Sn(H2N)6
_symmetry_space_group_name_H-M   'P 1'
_cell_length_a   7.69583860
_cell_length_b   7.69583860
_cell_length_c   7.69583886
_cell_angle_alpha   50.30116977
_cell_angle_beta   50.30116980
_cell_angle_gamma   50.30117071
_symmetry_Int_Tables_number   1
_chemical_formula_structural   K2Sn(H2N)6
_chemical_formula_sum   'K2 Sn1 H12 N6'
_cell_volume   248.48649321
_cell_formula_units_Z   1
loop_
 _symmetry_equiv_pos_site_id
 _symmetry_equiv_pos_as_xyz
  1  'x, y, z'
loop_
 _atom_site_type_symbol
 _atom_site_label
 _atom_site_symmetry_multiplicity
 _atom_site_fract_x
 _atom_site_fract_y
 _atom_site_fract_z
 _atom_site_occupancy
  K  K0  1  0.81955027  0.81955027  0.81955027  1
  K  K1  1  0.18044973  0.18044973  0.18044973  1
  Sn  Sn2  1  0.00000000  0.00000000  0.00000000  1
  H  H3  1  0.74175963  0.31462565  0.71681074  1
  H  H4  1  0.31462565  0.71681074  0.74175963  1
  H  H5  1  0.71681074  0.74175963  0.31462565  1
  H  H6  1  0.25824037  0.68537435  0.28318926  1
  H  H7  1  0.68537435  0.28318926  0.25824037  1
  H  H8  1  0.28318926  0.25824037  0.68537435  1
  H  H9  1  0.00872890  0.32882043  0.54256462  1
  H  H10  1  0.32882043  0.54256462  0.00872890  1
  H  H11  1  0.54256462  0.00872890  0.32882043  1
  H  H12  1  0.99127110  0.67117957  0.45743538  1
  H  H13  1  0.67117957  0.45743538  0.99127110  1
  H  H14  1  0.45743538  0.99127110  0.67117957  1
  N  N15  1  0.92630487  0.20500098  0.66593923  1
  N  N16  1  0.20500098  0.66593923  0.92630487  1
  N  N17  1  0.66593923  0.92630487  0.20500098  1
  N  N18  1  0.07369513  0.79499902  0.33406077  1
  N  N19  1  0.79499902  0.33406077  0.07369513  1
  N  N20  1  0.33406077  0.07369513  0.79499902  1
