# generated using pymatgen
data_LiAl2H6ClO6
_symmetry_space_group_name_H-M   'P 1'
_cell_length_a   5.15984643
_cell_length_b   5.15984656
_cell_length_c   14.28458303
_cell_angle_alpha   90.00000000
_cell_angle_beta   90.00000000
_cell_angle_gamma   119.99991131
_symmetry_Int_Tables_number   1
_chemical_formula_structural   LiAl2H6ClO6
_chemical_formula_sum   'Li2 Al4 H12 Cl2 O12'
_cell_volume   329.36098315
_cell_formula_units_Z   2
loop_
 _symmetry_equiv_pos_site_id
 _symmetry_equiv_pos_as_xyz
  1  'x, y, z'
loop_
 _atom_site_type_symbol
 _atom_site_label
 _atom_site_symmetry_multiplicity
 _atom_site_fract_x
 _atom_site_fract_y
 _atom_site_fract_z
 _atom_site_occupancy
  Li  Li0  1  0.00001243  0.00001243  0.49999938  1
  Li  Li1  1  0.99998757  0.99998757  -0.00000062  1
  Al  Al2  1  0.66666268  0.33334669  0.49999935  1
  Al  Al3  1  0.33334669  0.66666268  0.49999935  1
  Al  Al4  1  0.33333732  0.66665331  -0.00000065  1
  Al  Al5  1  0.66665331  0.33333732  -0.00000065  1
  H  H6  1  0.31135669  0.99999211  0.86670951  1
  H  H7  1  0.99999211  0.31135669  0.86670951  1
  H  H8  1  0.68863235  0.68863235  0.86671342  1
  H  H9  1  0.68863077  -0.00000569  0.13328893  1
  H  H10  1  -0.00000569  0.68863077  0.13328893  1
  H  H11  1  0.31135901  0.31135901  0.13329238  1
  H  H12  1  0.68864331  0.00000789  0.36670951  1
  H  H13  1  0.00000789  0.68864331  0.36670951  1
  H  H14  1  0.31136765  0.31136765  0.36671342  1
  H  H15  1  0.31136923  0.00000569  0.63328893  1
  H  H16  1  0.00000569  0.31136923  0.63328893  1
  H  H17  1  0.68864099  0.68864099  0.63329238  1
  Cl  Cl18  1  0.00000200  0.00000200  0.25000766  1
  Cl  Cl19  1  0.99999800  0.99999800  0.75000766  1
  O  O20  1  0.36795736  0.00000533  0.93223006  1
  O  O21  1  0.00000533  0.36795736  0.93223006  1
  O  O22  1  0.63202447  0.63202447  0.93222648  1
  O  O23  1  0.63202303  0.99999099  0.06776812  1
  O  O24  1  0.99999099  0.63202303  0.06776812  1
  O  O25  1  0.36796287  0.36796287  0.06776871  1
  O  O26  1  0.63204264  -0.00000533  0.43223006  1
  O  O27  1  -0.00000533  0.63204264  0.43223006  1
  O  O28  1  0.36797553  0.36797553  0.43222648  1
  O  O29  1  0.36797697  0.00000901  0.56776812  1
  O  O30  1  0.00000901  0.36797697  0.56776812  1
  O  O31  1  0.63203713  0.63203713  0.56776871  1
