# generated using pymatgen
data_BaMg2H8Os
_symmetry_space_group_name_H-M   'P 1'
_cell_length_a   4.99502645
_cell_length_b   4.99502645
_cell_length_c   10.87727497
_cell_angle_alpha   90.00000000
_cell_angle_beta   90.00000000
_cell_angle_gamma   90.00000000
_symmetry_Int_Tables_number   1
_chemical_formula_structural   BaMg2H8Os
_chemical_formula_sum   'Ba2 Mg4 H16 Os2'
_cell_volume   271.39115660
_cell_formula_units_Z   2
loop_
 _symmetry_equiv_pos_site_id
 _symmetry_equiv_pos_as_xyz
  1  'x, y, z'
loop_
 _atom_site_type_symbol
 _atom_site_label
 _atom_site_symmetry_multiplicity
 _atom_site_fract_x
 _atom_site_fract_y
 _atom_site_fract_z
 _atom_site_occupancy
  Ba  Ba0  1  0.50000000  0.00000000  0.00000000  1
  Ba  Ba1  1  0.00000000  0.50000000  0.50000000  1
  Mg  Mg2  1  0.50000000  0.00000000  0.63858253  1
  Mg  Mg3  1  0.00000000  0.50000000  0.13858253  1
  Mg  Mg4  1  0.50000000  0.00000000  0.36141747  1
  Mg  Mg5  1  0.00000000  0.50000000  0.86141747  1
  H  H6  1  0.24378903  0.24378903  0.75000000  1
  H  H7  1  0.75621097  0.75621097  0.75000000  1
  H  H8  1  0.75621097  0.24378903  0.25000000  1
  H  H9  1  0.24378903  0.75621097  0.25000000  1
  H  H10  1  0.75621097  0.75621097  0.25000000  1
  H  H11  1  0.24378903  0.24378903  0.25000000  1
  H  H12  1  0.24378903  0.75621097  0.75000000  1
  H  H13  1  0.75621097  0.24378903  0.75000000  1
  H  H14  1  0.50000000  0.25132584  0.50000000  1
  H  H15  1  0.50000000  0.74867416  0.50000000  1
  H  H16  1  0.74867416  0.50000000  0.00000000  1
  H  H17  1  0.25132584  0.50000000  0.00000000  1
  H  H18  1  0.00000000  0.00000000  0.59317021  1
  H  H19  1  0.00000000  0.00000000  0.09317021  1
  H  H20  1  0.00000000  0.00000000  0.40682979  1
  H  H21  1  0.00000000  0.00000000  0.90682979  1
  Os  Os22  1  0.00000000  0.00000000  0.75000000  1
  Os  Os23  1  0.00000000  0.00000000  0.25000000  1
