# generated using pymatgen
data_Dy10Ti6O27
_symmetry_space_group_name_H-M   'P 1'
_cell_length_a   7.42739029
_cell_length_b   7.27834002
_cell_length_c   14.51055503
_cell_angle_alpha   59.89479510
_cell_angle_beta   59.17228537
_cell_angle_gamma   60.66164409
_symmetry_Int_Tables_number   1
_chemical_formula_structural   Dy10Ti6O27
_chemical_formula_sum   'Dy10 Ti6 O27'
_cell_volume   553.34824775
_cell_formula_units_Z   1
loop_
 _symmetry_equiv_pos_site_id
 _symmetry_equiv_pos_as_xyz
  1  'x, y, z'
loop_
 _atom_site_type_symbol
 _atom_site_label
 _atom_site_symmetry_multiplicity
 _atom_site_fract_x
 _atom_site_fract_y
 _atom_site_fract_z
 _atom_site_occupancy
  Dy  Dy0  1  0.53989577  0.98377151  0.99628060  1
  Dy  Dy1  1  0.46318241  0.52781605  0.99059274  1
  Dy  Dy2  1  0.01504888  0.96753871  0.27493685  1
  Dy  Dy3  1  0.50788908  0.49714076  0.25317020  1
  Dy  Dy4  1  0.50788908  0.98862976  0.25317020  1
  Dy  Dy5  1  0.53258215  0.48058138  0.50312755  1
  Dy  Dy6  1  0.99145656  0.52029458  0.23397714  1
  Dy  Dy7  1  0.55095256  0.48956969  0.73135433  1
  Dy  Dy8  1  0.55095256  0.99676908  0.73135433  1
  Dy  Dy9  1  0.99921161  0.48264788  0.76774631  1
  O  O10  1  0.13427622  0.15627264  0.31721703  1
  O  O11  1  0.07837405  0.66951070  0.04130228  1
  O  O12  1  0.61056057  0.15854747  0.06486696  1
  O  O13  1  0.13427622  0.57501708  0.31721703  1
  O  O14  1  0.97644192  0.08020271  0.86330352  1
  O  O15  1  0.37295042  0.87680286  0.18672193  1
  O  O16  1  0.32300090  0.34362557  0.47678060  1
  O  O17  1  0.03534906  0.77543397  0.45689150  1
  O  O18  1  0.61859242  0.09886831  0.34183548  1
  O  O19  1  0.61056057  0.60115805  0.06486696  1
  O  O20  1  0.92140910  0.33729072  0.16405124  1
  O  O21  1  0.36366971  0.37845357  0.68971157  1
  O  O22  1  0.66306340  0.08220242  0.53767337  1
  O  O23  1  0.64033489  0.61471814  0.31511441  1
  O  O24  1  0.32300090  0.87981232  0.47678060  1
  O  O25  1  0.97644192  0.71674834  0.86330352  1
  O  O26  1  0.32514912  0.35893969  0.94262667  1
  O  O27  1  0.31193769  0.91983551  0.67419565  1
  O  O28  1  0.67384737  0.11742646  0.79564985  1
  O  O29  1  0.92140910  0.91319769  0.16405124  1
  O  O30  1  0.89373370  0.30409593  0.49903723  1
  O  O31  1  0.66306340  0.67938744  0.53767337  1
  O  O32  1  0.93943807  0.37401371  0.66019765  1
  O  O33  1  0.62881133  0.62473721  0.81085712  1
  O  O34  1  0.32514912  0.93065785  0.94262667  1
  O  O35  1  0.97475557  0.31065852  0.95196369  1
  O  O36  1  0.93943807  0.86615292  0.66019765  1
  Ti  Ti37  1  0.01666284  0.00046821  0.00432023  1
  Ti  Ti38  1  0.01666284  0.47422848  0.00432023  1
  Ti  Ti39  1  0.99567666  0.99529516  0.75686651  1
  Ti  Ti40  1  0.50305486  0.99218808  0.50628449  1
  Ti  Ti41  1  0.02742367  0.48624827  0.49414174  1
  Ti  Ti42  1  0.02742367  0.99804459  0.49414174  1
