# generated using pymatgen
data_Li5H9Pt2
_symmetry_space_group_name_H-M   'P 1'
_cell_length_a   7.27885294
_cell_length_b   7.27885294
_cell_length_c   7.27885294
_cell_angle_alpha   109.98942976
_cell_angle_beta   109.98942976
_cell_angle_gamma   108.43970066
_symmetry_Int_Tables_number   1
_chemical_formula_structural   Li5H9Pt2
_chemical_formula_sum   'Li10 H18 Pt4'
_cell_volume   296.79842275
_cell_formula_units_Z   2
loop_
 _symmetry_equiv_pos_site_id
 _symmetry_equiv_pos_as_xyz
  1  'x, y, z'
loop_
 _atom_site_type_symbol
 _atom_site_label
 _atom_site_symmetry_multiplicity
 _atom_site_fract_x
 _atom_site_fract_y
 _atom_site_fract_z
 _atom_site_occupancy
  Li  Li0  1  0.69162525  0.19162525  0.20057786  1
  Li  Li1  1  0.99104739  0.49104739  0.79942214  1
  Li  Li2  1  0.19162525  0.99104739  0.50000000  1
  Li  Li3  1  0.49104739  0.69162525  0.50000000  1
  Li  Li4  1  0.30837475  0.80837475  0.79942214  1
  Li  Li5  1  0.00895261  0.50895261  0.20057786  1
  Li  Li6  1  0.80837475  0.00895261  0.50000000  1
  Li  Li7  1  0.50895261  0.30837475  0.50000000  1
  Li  Li8  1  0.50000000  0.50000000  0.00000000  1
  Li  Li9  1  0.00000000  0.00000000  0.00000000  1
  H  H10  1  0.43913773  0.13743556  0.84677712  1
  H  H11  1  0.29065843  0.59236061  0.15322288  1
  H  H12  1  0.93913773  0.09236061  0.30170218  1
  H  H13  1  0.79065843  0.63743556  0.69829782  1
  H  H14  1  0.59236061  0.43913773  0.30170218  1
  H  H15  1  0.13743556  0.29065843  0.69829782  1
  H  H16  1  0.63743556  0.93913773  0.84677712  1
  H  H17  1  0.09236061  0.79065843  0.15322288  1
  H  H18  1  0.56086227  0.86256444  0.15322288  1
  H  H19  1  0.70934157  0.40763939  0.84677712  1
  H  H20  1  0.06086227  0.90763939  0.69829782  1
  H  H21  1  0.20934157  0.36256444  0.30170218  1
  H  H22  1  0.40763939  0.56086227  0.69829782  1
  H  H23  1  0.86256444  0.70934157  0.30170218  1
  H  H24  1  0.36256444  0.06086227  0.15322288  1
  H  H25  1  0.90763939  0.20934157  0.84677712  1
  H  H26  1  0.50000000  0.00000000  0.50000000  1
  H  H27  1  0.00000000  0.50000000  0.50000000  1
  Pt  Pt28  1  0.65742947  0.15742947  0.81485895  1
  Pt  Pt29  1  0.34257053  0.84257053  0.18514105  1
  Pt  Pt30  1  0.15742947  0.34257053  0.50000000  1
  Pt  Pt31  1  0.84257053  0.65742947  0.50000000  1
