# generated using pymatgen
data_HPbClO
_symmetry_space_group_name_H-M   'P 1'
_cell_length_a   5.84569318
_cell_length_b   5.84569318
_cell_length_c   7.39462879
_cell_angle_alpha   64.67693595
_cell_angle_beta   115.32306405
_cell_angle_gamma   139.39375079
_symmetry_Int_Tables_number   1
_chemical_formula_structural   HPbClO
_chemical_formula_sum   'H2 Pb2 Cl2 O2'
_cell_volume   146.36593316
_cell_formula_units_Z   2
loop_
 _symmetry_equiv_pos_site_id
 _symmetry_equiv_pos_as_xyz
  1  'x, y, z'
loop_
 _atom_site_type_symbol
 _atom_site_label
 _atom_site_symmetry_multiplicity
 _atom_site_fract_x
 _atom_site_fract_y
 _atom_site_fract_z
 _atom_site_occupancy
  H  H0  1  0.88608425  0.11391575  0.40157510  1
  H  H1  1  0.11391575  0.88608425  0.59842490  1
  Pb  Pb2  1  0.82508239  0.17491761  0.75888719  1
  Pb  Pb3  1  0.17491761  0.82508239  0.24111281  1
  Cl  Cl4  1  0.56627932  0.43372068  0.81179381  1
  Cl  Cl5  1  0.43372068  0.56627932  0.18820619  1
  O  O6  1  0.80160858  0.19839142  0.41537478  1
  O  O7  1  0.19839142  0.80160858  0.58462522  1
