# generated using pymatgen
data_CoH2SO5
_symmetry_space_group_name_H-M   'P 1'
_cell_length_a   5.19084004
_cell_length_b   5.19084004
_cell_length_c   7.72922243
_cell_angle_alpha   71.37493622
_cell_angle_beta   108.62506378
_cell_angle_gamma   84.40284235
_symmetry_Int_Tables_number   1
_chemical_formula_structural   CoH2SO5
_chemical_formula_sum   'Co2 H4 S2 O10'
_cell_volume   182.34463103
_cell_formula_units_Z   2
loop_
 _symmetry_equiv_pos_site_id
 _symmetry_equiv_pos_as_xyz
  1  'x, y, z'
loop_
 _atom_site_type_symbol
 _atom_site_label
 _atom_site_symmetry_multiplicity
 _atom_site_fract_x
 _atom_site_fract_y
 _atom_site_fract_z
 _atom_site_occupancy
  Co  Co0  1  0.50000000  0.50000000  0.50000000  1
  Co  Co1  1  0.50000000  0.50000000  0.00000000  1
  H  H2  1  0.41778418  0.15432766  0.79492762  1
  H  H3  1  0.15432766  0.41778418  0.70507238  1
  H  H4  1  0.58221582  0.84567234  0.20507238  1
  H  H5  1  0.84567234  0.58221582  0.29492762  1
  S  S6  1  0.84428995  0.84428995  0.75000000  1
  S  S7  1  0.15571005  0.15571005  0.25000000  1
  O  O8  1  0.12799641  0.78279633  0.89953127  1
  O  O9  1  0.78279633  0.12799641  0.60046873  1
  O  O10  1  0.87200359  0.21720367  0.10046873  1
  O  O11  1  0.21720367  0.87200359  0.39953127  1
  O  O12  1  0.83069349  0.63305318  0.65441482  1
  O  O13  1  0.63305318  0.83069349  0.84558518  1
  O  O14  1  0.16930651  0.36694682  0.34558518  1
  O  O15  1  0.36694682  0.16930651  0.15441482  1
  O  O16  1  0.36120457  0.36120457  0.75000000  1
  O  O17  1  0.63879543  0.63879543  0.25000000  1
