# generated using pymatgen
data_Rb3MnH5
_symmetry_space_group_name_H-M   'P 1'
_cell_length_a   8.28279062
_cell_length_b   8.28279062
_cell_length_c   8.28279062
_cell_angle_alpha   122.18919054
_cell_angle_beta   122.18919054
_cell_angle_gamma   86.24827071
_symmetry_Int_Tables_number   1
_chemical_formula_structural   Rb3MnH5
_chemical_formula_sum   'Rb6 Mn2 H10'
_cell_volume   387.60422369
_cell_formula_units_Z   2
loop_
 _symmetry_equiv_pos_site_id
 _symmetry_equiv_pos_as_xyz
  1  'x, y, z'
loop_
 _atom_site_type_symbol
 _atom_site_label
 _atom_site_symmetry_multiplicity
 _atom_site_fract_x
 _atom_site_fract_y
 _atom_site_fract_z
 _atom_site_occupancy
  Rb  Rb0  1  0.25000000  0.25000000  0.00000000  1
  Rb  Rb1  1  0.75000000  0.75000000  0.00000000  1
  Rb  Rb2  1  0.18648265  0.68648265  0.87296531  1
  Rb  Rb3  1  0.81351735  0.31351735  0.12703469  1
  Rb  Rb4  1  0.68648265  0.81351735  0.50000000  1
  Rb  Rb5  1  0.31351735  0.18648265  0.50000000  1
  Mn  Mn6  1  0.25000000  0.75000000  0.50000000  1
  Mn  Mn7  1  0.75000000  0.25000000  0.50000000  1
  H  H8  1  0.46140865  0.96140865  0.74898252  1
  H  H9  1  0.21242613  0.71242613  0.25101748  1
  H  H10  1  0.96140865  0.21242613  0.50000000  1
  H  H11  1  0.71242613  0.46140865  0.50000000  1
  H  H12  1  0.53859135  0.03859135  0.25101748  1
  H  H13  1  0.78757387  0.28757387  0.74898252  1
  H  H14  1  0.03859135  0.78757387  0.50000000  1
  H  H15  1  0.28757387  0.53859135  0.50000000  1
  H  H16  1  0.50000000  0.50000000  0.00000000  1
  H  H17  1  0.00000000  0.00000000  0.00000000  1
