# generated using pymatgen
data_RbCr4BiO14
_symmetry_space_group_name_H-M   'P 1'
_cell_length_a   8.41931049
_cell_length_b   8.92000785
_cell_length_c   17.23711741
_cell_angle_alpha   90.00000000
_cell_angle_beta   90.00000000
_cell_angle_gamma   91.53514780
_symmetry_Int_Tables_number   1
_chemical_formula_structural   RbCr4BiO14
_chemical_formula_sum   'Rb4 Cr16 Bi4 O56'
_cell_volume   1294.04833043
_cell_formula_units_Z   4
loop_
 _symmetry_equiv_pos_site_id
 _symmetry_equiv_pos_as_xyz
  1  'x, y, z'
loop_
 _atom_site_type_symbol
 _atom_site_label
 _atom_site_symmetry_multiplicity
 _atom_site_fract_x
 _atom_site_fract_y
 _atom_site_fract_z
 _atom_site_occupancy
  Rb  Rb0  1  0.75440652  0.50158508  0.37681131  1
  Rb  Rb1  1  0.74559348  0.49841492  0.87681131  1
  Rb  Rb2  1  0.25440652  0.50158508  0.12318869  1
  Rb  Rb3  1  0.24559348  0.49841492  0.62318869  1
  Cr  Cr4  1  0.91683119  0.78800500  0.18425109  1
  Cr  Cr5  1  0.41683119  0.78800500  0.31574891  1
  Cr  Cr6  1  0.91019203  0.20496857  0.05868656  1
  Cr  Cr7  1  0.86875683  0.26965793  0.55283541  1
  Cr  Cr8  1  0.13124317  0.73034207  0.44716459  1
  Cr  Cr9  1  0.58980797  0.79503143  0.55868656  1
  Cr  Cr10  1  0.66486565  0.23621684  0.20454856  1
  Cr  Cr11  1  0.16486565  0.23621684  0.29545144  1
  Cr  Cr12  1  0.83513435  0.76378316  0.70454856  1
  Cr  Cr13  1  0.63124317  0.73034207  0.05283541  1
  Cr  Cr14  1  0.41019203  0.20496857  0.44131344  1
  Cr  Cr15  1  0.58316881  0.21199500  0.68425109  1
  Cr  Cr16  1  0.36875683  0.26965793  0.94716459  1
  Cr  Cr17  1  0.33513435  0.76378316  0.79545144  1
  Cr  Cr18  1  0.08316881  0.21199500  0.81574891  1
  Cr  Cr19  1  0.08980797  0.79503143  0.94131344  1
  Bi  Bi20  1  0.29126221  0.99587285  0.12381636  1
  Bi  Bi21  1  0.79126221  0.99587285  0.37618364  1
  Bi  Bi22  1  0.70873779  0.00412715  0.87618364  1
  Bi  Bi23  1  0.20873779  0.00412715  0.62381636  1
  O  O24  1  0.11022356  0.79886106  0.16043596  1
  O  O25  1  0.55616612  0.38186906  0.20708621  1
  O  O26  1  0.23219897  0.86698036  0.99655202  1
  O  O27  1  0.70016404  0.19061427  0.60024356  1
  O  O28  1  0.43380436  0.90541287  0.83429767  1
  O  O29  1  0.16686830  0.71975045  0.85397224  1
  O  O30  1  0.64052067  0.55038125  0.04982474  1
  O  O31  1  0.06619564  0.09458713  0.33429767  1
  O  O32  1  0.13075534  0.07764275  0.75533444  1
  O  O33  1  0.52961381  0.22300673  0.89828268  1
  O  O34  1  0.61022356  0.79886106  0.33956404  1
  O  O35  1  0.03828659  0.07380141  0.08172180  1
  O  O36  1  0.97038619  0.77699327  0.39828268  1
  O  O37  1  0.14052067  0.55038125  0.45017526  1
  O  O38  1  0.73219897  0.86698036  0.50344798  1
  O  O39  1  0.85947933  0.44961875  0.54982474  1
  O  O40  1  0.33313170  0.28024955  0.35397224  1
  O  O41  1  0.83313170  0.28024955  0.14602776  1
  O  O42  1  0.77481571  0.80175860  0.79524861  1
  O  O43  1  0.86857492  0.20188633  0.46318534  1
  O  O44  1  0.63075534  0.07764275  0.74466556  1
  O  O45  1  0.00058627  0.34183588  0.01486376  1
  O  O46  1  0.50058627  0.34183588  0.48513624  1
  O  O47  1  0.26780103  0.13301964  0.49655202  1
  O  O48  1  0.37735572  0.62737286  0.27773796  1
  O  O49  1  0.76780103  0.13301964  0.00344798  1
  O  O50  1  0.66686830  0.71975045  0.64602776  1
  O  O51  1  0.72518429  0.19824140  0.29524861  1
  O  O52  1  0.35947933  0.44961875  0.95017526  1
  O  O53  1  0.02961381  0.22300673  0.60171732  1
  O  O54  1  0.53828659  0.07380141  0.41827820  1
  O  O55  1  0.46171341  0.92619859  0.58172180  1
  O  O56  1  0.20016404  0.19061427  0.89975644  1
  O  O57  1  0.47038619  0.77699327  0.10171732  1
  O  O58  1  0.96171341  0.92619859  0.91827820  1
  O  O59  1  0.56619564  0.09458713  0.16570233  1
  O  O60  1  0.27481571  0.80175860  0.70475139  1
  O  O61  1  0.86924466  0.92235725  0.24466556  1
  O  O62  1  0.29983596  0.80938573  0.39975644  1
  O  O63  1  0.36857492  0.20188633  0.03681466  1
  O  O64  1  0.22518429  0.19824140  0.20475139  1
  O  O65  1  0.38977644  0.20113894  0.66043596  1
  O  O66  1  0.13142508  0.79811367  0.53681466  1
  O  O67  1  0.49941373  0.65816412  0.51486376  1
  O  O68  1  0.87735572  0.62737286  0.22226204  1
  O  O69  1  0.62264428  0.37262714  0.72226204  1
  O  O70  1  0.05616612  0.38186906  0.29291379  1
  O  O71  1  0.63142508  0.79811367  0.96318534  1
  O  O72  1  0.93380436  0.90541287  0.66570233  1
  O  O73  1  0.99941373  0.65816412  0.98513624  1
  O  O74  1  0.79983596  0.80938573  0.10024356  1
  O  O75  1  0.44383388  0.61813094  0.79291379  1
  O  O76  1  0.12264428  0.37262714  0.77773796  1
  O  O77  1  0.36924466  0.92235725  0.25533444  1
  O  O78  1  0.94383388  0.61813094  0.70708621  1
  O  O79  1  0.88977644  0.20113894  0.83956404  1
