# generated using pymatgen
data_KAlH2CO5
_symmetry_space_group_name_H-M   'P 1'
_cell_length_a   6.81492220
_cell_length_b   6.81492220
_cell_length_c   5.72200985
_cell_angle_alpha   90.00000000
_cell_angle_beta   90.00000000
_cell_angle_gamma   56.59082639
_symmetry_Int_Tables_number   1
_chemical_formula_structural   KAlH2CO5
_chemical_formula_sum   'K2 Al2 H4 C2 O10'
_cell_volume   221.83592948
_cell_formula_units_Z   2
loop_
 _symmetry_equiv_pos_site_id
 _symmetry_equiv_pos_as_xyz
  1  'x, y, z'
loop_
 _atom_site_type_symbol
 _atom_site_label
 _atom_site_symmetry_multiplicity
 _atom_site_fract_x
 _atom_site_fract_y
 _atom_site_fract_z
 _atom_site_occupancy
  K  K0  1  0.34665813  0.34665813  0.75000000  1
  K  K1  1  0.65334187  0.65334187  0.25000000  1
  Al  Al2  1  0.00000000  0.00000000  0.50000000  1
  Al  Al3  1  0.00000000  0.00000000  0.00000000  1
  H  H4  1  0.19810223  0.63588064  0.25000000  1
  H  H5  1  0.36411936  0.80189777  0.75000000  1
  H  H6  1  0.80189777  0.36411936  0.75000000  1
  H  H7  1  0.63588064  0.19810223  0.25000000  1
  C  C8  1  0.21223923  0.21223923  0.25000000  1
  C  C9  1  0.78776077  0.78776077  0.75000000  1
  O  O10  1  0.78908054  0.18129988  0.25000000  1
  O  O11  1  0.81870012  0.21091946  0.75000000  1
  O  O12  1  0.21091946  0.81870012  0.75000000  1
  O  O13  1  0.18129988  0.78908054  0.25000000  1
  O  O14  1  0.15843689  0.15843689  0.44841487  1
  O  O15  1  0.84156311  0.84156311  0.55158513  1
  O  O16  1  0.15843689  0.15843689  0.05158513  1
  O  O17  1  0.84156311  0.84156311  0.94841487  1
  O  O18  1  0.31890809  0.31890809  0.25000000  1
  O  O19  1  0.68109191  0.68109191  0.75000000  1
