# generated using pymatgen
data_KNiPH2O5
_symmetry_space_group_name_H-M   'P 1'
_cell_length_a   5.58691751
_cell_length_b   8.26043866
_cell_length_c   4.77508024
_cell_angle_alpha   90.00000000
_cell_angle_beta   90.00000000
_cell_angle_gamma   90.00000000
_symmetry_Int_Tables_number   1
_chemical_formula_structural   KNiPH2O5
_chemical_formula_sum   'K2 Ni2 P2 H4 O10'
_cell_volume   220.37181244
_cell_formula_units_Z   2
loop_
 _symmetry_equiv_pos_site_id
 _symmetry_equiv_pos_as_xyz
  1  'x, y, z'
loop_
 _atom_site_type_symbol
 _atom_site_label
 _atom_site_symmetry_multiplicity
 _atom_site_fract_x
 _atom_site_fract_y
 _atom_site_fract_z
 _atom_site_occupancy
  K  K0  1  0.50000000  0.45661576  0.63751009  1
  K  K1  1  0.00000000  0.54338424  0.13751009  1
  Ni  Ni2  1  0.50000000  0.01568069  0.50010872  1
  Ni  Ni3  1  0.00000000  0.98431931  0.00010872  1
  P  P4  1  0.50000000  0.78858356  0.07476637  1
  P  P5  1  0.00000000  0.21141644  0.57476637  1
  H  H6  1  0.64152353  0.19506587  0.09113605  1
  H  H7  1  0.35847647  0.19506587  0.09113605  1
  H  H8  1  0.85847647  0.80493413  0.59113605  1
  H  H9  1  0.14152353  0.80493413  0.59113605  1
  O  O10  1  0.50000000  0.81690719  0.75558471  1
  O  O11  1  0.00000000  0.18309281  0.25558471  1
  O  O12  1  0.50000000  0.60712090  0.13748841  1
  O  O13  1  0.00000000  0.39287910  0.63748841  1
  O  O14  1  0.72195237  0.87507297  0.21848443  1
  O  O15  1  0.27804763  0.87507297  0.21848443  1
  O  O16  1  0.77804763  0.12492703  0.71848443  1
  O  O17  1  0.22195237  0.12492703  0.71848443  1
  O  O18  1  0.50000000  0.21205683  0.21150075  1
  O  O19  1  0.00000000  0.78794317  0.71150075  1
