# generated using pymatgen
data_SnH4(NF)2
_symmetry_space_group_name_H-M   'P 1'
_cell_length_a   5.67270489
_cell_length_b   5.67270489
_cell_length_c   5.10039335
_cell_angle_alpha   74.83236154
_cell_angle_beta   105.16763846
_cell_angle_gamma   146.14554950
_symmetry_Int_Tables_number   1
_chemical_formula_structural   SnH4(NF)2
_chemical_formula_sum   'Sn1 H4 N2 F2'
_cell_volume   87.94755191
_cell_formula_units_Z   1
loop_
 _symmetry_equiv_pos_site_id
 _symmetry_equiv_pos_as_xyz
  1  'x, y, z'
loop_
 _atom_site_type_symbol
 _atom_site_label
 _atom_site_symmetry_multiplicity
 _atom_site_fract_x
 _atom_site_fract_y
 _atom_site_fract_z
 _atom_site_occupancy
  Sn  Sn0  1  0.00000000  0.00000000  0.00000000  1
  H  H1  1  0.39084127  0.60915873  0.56650915  1
  H  H2  1  0.60915873  0.39084127  0.43349085  1
  H  H3  1  0.29797278  0.70202722  0.77736992  1
  H  H4  1  0.70202722  0.29797278  0.22263008  1
  N  N5  1  0.39178469  0.60821531  0.76790302  1
  N  N6  1  0.60821531  0.39178469  0.23209698  1
  F  F7  1  0.12029890  0.87970110  0.75255978  1
  F  F8  1  0.87970110  0.12029890  0.24744022  1
