# generated using pymatgen
data_Ca5Ge3H
_symmetry_space_group_name_H-M   'P 1'
_cell_length_a   9.12021480
_cell_length_b   9.12021480
_cell_length_c   9.12021480
_cell_angle_alpha   129.78982987
_cell_angle_beta   129.78982987
_cell_angle_gamma   73.74298027
_symmetry_Int_Tables_number   1
_chemical_formula_structural   Ca5Ge3H
_chemical_formula_sum   'Ca10 Ge6 H2'
_cell_volume   436.97925338
_cell_formula_units_Z   2
loop_
 _symmetry_equiv_pos_site_id
 _symmetry_equiv_pos_as_xyz
  1  'x, y, z'
loop_
 _atom_site_type_symbol
 _atom_site_label
 _atom_site_symmetry_multiplicity
 _atom_site_fract_x
 _atom_site_fract_y
 _atom_site_fract_z
 _atom_site_occupancy
  Ca  Ca0  1  0.50000000  0.50000000  0.00000000  1
  Ca  Ca1  1  0.00000000  0.00000000  0.00000000  1
  Ca  Ca2  1  0.51823239  0.01823239  0.83470271  1
  Ca  Ca3  1  0.18352968  0.68352968  0.16529729  1
  Ca  Ca4  1  0.01823239  0.18352968  0.50000000  1
  Ca  Ca5  1  0.68352968  0.51823239  0.50000000  1
  Ca  Ca6  1  0.48176761  0.98176761  0.16529729  1
  Ca  Ca7  1  0.81647032  0.31647032  0.83470271  1
  Ca  Ca8  1  0.98176761  0.81647032  0.50000000  1
  Ca  Ca9  1  0.31647032  0.48176761  0.50000000  1
  Ge  Ge10  1  0.25000000  0.25000000  0.00000000  1
  Ge  Ge11  1  0.75000000  0.75000000  0.00000000  1
  Ge  Ge12  1  0.88269625  0.38269625  0.26539251  1
  Ge  Ge13  1  0.11730375  0.61730375  0.73460749  1
  Ge  Ge14  1  0.38269625  0.11730375  0.50000000  1
  Ge  Ge15  1  0.61730375  0.88269625  0.50000000  1
  H  H16  1  0.25000000  0.75000000  0.50000000  1
  H  H17  1  0.75000000  0.25000000  0.50000000  1
