# generated using pymatgen
data_Cs3ZnH5
_symmetry_space_group_name_H-M   'P 1'
_cell_length_a   8.53078722
_cell_length_b   8.53078722
_cell_length_c   8.53078722
_cell_angle_alpha   121.34915179
_cell_angle_beta   121.34915179
_cell_angle_gamma   87.67866508
_symmetry_Int_Tables_number   1
_chemical_formula_structural   Cs3ZnH5
_chemical_formula_sum   'Cs6 Zn2 H10'
_cell_volume   429.65256912
_cell_formula_units_Z   2
loop_
 _symmetry_equiv_pos_site_id
 _symmetry_equiv_pos_as_xyz
  1  'x, y, z'
loop_
 _atom_site_type_symbol
 _atom_site_label
 _atom_site_symmetry_multiplicity
 _atom_site_fract_x
 _atom_site_fract_y
 _atom_site_fract_z
 _atom_site_occupancy
  Cs  Cs0  1  0.18043194  0.68043194  0.86086388  1
  Cs  Cs1  1  0.81956806  0.31956806  0.13913612  1
  Cs  Cs2  1  0.68043194  0.81956806  0.50000000  1
  Cs  Cs3  1  0.31956806  0.18043194  0.50000000  1
  Cs  Cs4  1  0.25000000  0.25000000  0.00000000  1
  Cs  Cs5  1  0.75000000  0.75000000  0.00000000  1
  Zn  Zn6  1  0.25000000  0.75000000  0.50000000  1
  Zn  Zn7  1  0.75000000  0.25000000  0.50000000  1
  H  H8  1  0.44511136  0.94511136  0.72952540  1
  H  H9  1  0.21558596  0.71558596  0.27047460  1
  H  H10  1  0.94511136  0.21558596  0.50000000  1
  H  H11  1  0.71558596  0.44511136  0.50000000  1
  H  H12  1  0.55488864  0.05488864  0.27047460  1
  H  H13  1  0.78441404  0.28441404  0.72952540  1
  H  H14  1  0.05488864  0.78441404  0.50000000  1
  H  H15  1  0.28441404  0.55488864  0.50000000  1
  H  H16  1  0.50000000  0.50000000  0.00000000  1
  H  H17  1  0.00000000  0.00000000  0.00000000  1
