# generated using pymatgen
data_NaV3H6(SO7)2
_symmetry_space_group_name_H-M   'P 1'
_cell_length_a   7.12864084
_cell_length_b   7.12864084
_cell_length_c   7.12864096
_cell_angle_alpha   62.43483673
_cell_angle_beta   62.43483669
_cell_angle_gamma   62.43483410
_symmetry_Int_Tables_number   1
_chemical_formula_structural   NaV3H6(SO7)2
_chemical_formula_sum   'Na1 V3 H6 S2 O14'
_cell_volume   270.06247073
_cell_formula_units_Z   1
loop_
 _symmetry_equiv_pos_site_id
 _symmetry_equiv_pos_as_xyz
  1  'x, y, z'
loop_
 _atom_site_type_symbol
 _atom_site_label
 _atom_site_symmetry_multiplicity
 _atom_site_fract_x
 _atom_site_fract_y
 _atom_site_fract_z
 _atom_site_occupancy
  Na  Na0  1  0.99999485  0.99999485  0.99999485  1
  V  V1  1  0.99999179  0.50000321  0.00000229  1
  V  V2  1  0.50000321  0.00000229  0.99999179  1
  V  V3  1  0.00000229  0.99999179  0.50000321  1
  H  H4  1  0.30063926  0.30065925  0.71440744  1
  H  H5  1  0.30065925  0.71440744  0.30063926  1
  H  H6  1  0.71440744  0.30063926  0.30065925  1
  H  H7  1  0.69934818  0.69937051  0.28557078  1
  H  H8  1  0.69937051  0.28557078  0.69934818  1
  H  H9  1  0.28557078  0.69934818  0.69937051  1
  S  S10  1  0.68939878  0.68939878  0.68939878  1
  S  S11  1  0.31058725  0.31058725  0.31058725  1
  O  O12  1  0.60303844  0.60303844  0.60303844  1
  O  O13  1  0.39694994  0.39694994  0.39694994  1
  O  O14  1  0.82828212  0.49727865  0.82828988  1
  O  O15  1  0.49727865  0.82828988  0.82828212  1
  O  O16  1  0.82828988  0.82828212  0.49727865  1
  O  O17  1  0.17170017  0.50270676  0.17170836  1
  O  O18  1  0.50270676  0.17170836  0.17170017  1
  O  O19  1  0.17170836  0.17170017  0.50270676  1
  O  O20  1  0.73965516  0.73967108  0.12254917  1
  O  O21  1  0.73967108  0.12254917  0.73965516  1
  O  O22  1  0.12254917  0.73965516  0.73967108  1
  O  O23  1  0.26032649  0.26033863  0.87743156  1
  O  O24  1  0.26033863  0.87743156  0.26032649  1
  O  O25  1  0.87743156  0.26032649  0.26033863  1
