# generated using pymatgen
data_Th(SiPt)2
_symmetry_space_group_name_H-M   'P 1'
_cell_length_a   4.26718042
_cell_length_b   4.26718042
_cell_length_c   5.83133157
_cell_angle_alpha   111.46198824
_cell_angle_beta   111.46198822
_cell_angle_gamma   90.00000000
_symmetry_Int_Tables_number   1
_chemical_formula_structural   Th(SiPt)2
_chemical_formula_sum   'Th1 Si2 Pt2'
_cell_volume   90.86189742
_cell_formula_units_Z   1
loop_
 _symmetry_equiv_pos_site_id
 _symmetry_equiv_pos_as_xyz
  1  'x, y, z'
loop_
 _atom_site_type_symbol
 _atom_site_label
 _atom_site_symmetry_multiplicity
 _atom_site_fract_x
 _atom_site_fract_y
 _atom_site_fract_z
 _atom_site_occupancy
  Si  Si0  1  0.61914215  0.61914215  0.23828429  1
  Si  Si1  1  0.38085785  0.38085785  0.76171571  1
  Pt  Pt2  1  0.75000000  0.25000000  0.50000000  1
  Pt  Pt3  1  0.25000000  0.75000000  0.50000000  1
  Th  Th4  1  0.00000000  0.00000000  0.00000000  1
