# generated using pymatgen
data_Ba14Na14LiN6
_symmetry_space_group_name_H-M   'P 1'
_cell_length_a   12.64643067
_cell_length_b   12.64643056
_cell_length_c   12.64643085
_cell_angle_alpha   60.00000188
_cell_angle_beta   60.00000218
_cell_angle_gamma   60.00000268
_symmetry_Int_Tables_number   1
_chemical_formula_structural   Ba14Na14LiN6
_chemical_formula_sum   'Ba14 Na14 Li1 N6'
_cell_volume   1430.17416680
_cell_formula_units_Z   1
loop_
 _symmetry_equiv_pos_site_id
 _symmetry_equiv_pos_as_xyz
  1  'x, y, z'
loop_
 _atom_site_type_symbol
 _atom_site_label
 _atom_site_symmetry_multiplicity
 _atom_site_fract_x
 _atom_site_fract_y
 _atom_site_fract_z
 _atom_site_occupancy
  Ba  Ba0  1  0.30980619  0.89673127  0.89673127  1
  Ba  Ba1  1  0.89673127  0.89673127  0.89673127  1
  Ba  Ba2  1  0.28684776  0.71315224  0.71315224  1
  Ba  Ba3  1  0.28684776  0.71315224  0.28684776  1
  Ba  Ba4  1  0.28684776  0.28684776  0.71315224  1
  Ba  Ba5  1  0.89673127  0.30980619  0.89673127  1
  Ba  Ba6  1  0.71315224  0.71315224  0.28684776  1
  Ba  Ba7  1  0.89673127  0.89673127  0.30980619  1
  Ba  Ba8  1  0.71315224  0.28684776  0.28684776  1
  Ba  Ba9  1  0.10326873  0.10326873  0.10326873  1
  Ba  Ba10  1  0.71315224  0.28684776  0.71315224  1
  Ba  Ba11  1  0.69019381  0.10326873  0.10326873  1
  Ba  Ba12  1  0.10326873  0.10326873  0.69019381  1
  Ba  Ba13  1  0.10326873  0.69019381  0.10326873  1
  Na  Na14  1  0.67091964  0.98724109  0.67091964  1
  Na  Na15  1  0.32908036  0.32908036  0.01275891  1
  Na  Na16  1  0.50000000  0.00000000  0.50000000  1
  Na  Na17  1  0.32908036  0.01275891  0.32908036  1
  Na  Na18  1  0.67091964  0.67091964  0.67091964  1
  Na  Na19  1  0.98724109  0.67091964  0.67091964  1
  Na  Na20  1  0.67091964  0.67091964  0.98724109  1
  Na  Na21  1  0.01275891  0.32908036  0.32908036  1
  Na  Na22  1  0.00000000  0.50000000  0.50000000  1
  Na  Na23  1  0.32908036  0.32908036  0.32908036  1
  Na  Na24  1  0.50000000  0.50000000  0.00000000  1
  Na  Na25  1  0.00000000  0.50000000  0.00000000  1
  Na  Na26  1  0.50000000  0.00000000  0.00000000  1
  Na  Na27  1  0.00000000  0.00000000  0.50000000  1
  Li  Li28  1  0.00000000  0.00000000  0.00000000  1
  N  N29  1  0.85327885  0.14672115  0.14672115  1
  N  N30  1  0.85327885  0.85327885  0.14672115  1
  N  N31  1  0.85327885  0.14672115  0.85327885  1
  N  N32  1  0.14672115  0.85327885  0.85327885  1
  N  N33  1  0.14672115  0.14672115  0.85327885  1
  N  N34  1  0.14672115  0.85327885  0.14672115  1
