# generated using pymatgen
data_Tb3BWO9
_symmetry_space_group_name_H-M   'P 1'
_cell_length_a   8.59774919
_cell_length_b   8.59774904
_cell_length_c   5.42446485
_cell_angle_alpha   90.00000000
_cell_angle_beta   90.00000000
_cell_angle_gamma   120.00000059
_symmetry_Int_Tables_number   1
_chemical_formula_structural   Tb3BWO9
_chemical_formula_sum   'Tb6 B2 W2 O18'
_cell_volume   347.26184212
_cell_formula_units_Z   2
loop_
 _symmetry_equiv_pos_site_id
 _symmetry_equiv_pos_as_xyz
  1  'x, y, z'
loop_
 _atom_site_type_symbol
 _atom_site_label
 _atom_site_symmetry_multiplicity
 _atom_site_fract_x
 _atom_site_fract_y
 _atom_site_fract_z
 _atom_site_occupancy
  Tb  Tb0  1  0.07939785  0.72344034  0.70052860  1
  Tb  Tb1  1  0.64404249  0.92060215  0.70052860  1
  Tb  Tb2  1  0.92060215  0.27655966  0.20052860  1
  Tb  Tb3  1  0.27655966  0.35595751  0.70052860  1
  Tb  Tb4  1  0.72344034  0.64404249  0.20052860  1
  Tb  Tb5  1  0.35595751  0.07939785  0.20052860  1
  B  B6  1  0.00000000  0.00000000  0.87161608  1
  B  B7  1  0.00000000  0.00000000  0.37161608  1
  W  W8  1  0.66666700  0.33333300  0.74368273  1
  W  W9  1  0.33333300  0.66666700  0.24368273  1
  O  O10  1  0.26017853  0.79798366  0.03518667  1
  O  O11  1  0.73982147  0.20201634  0.53518667  1
  O  O12  1  0.12446622  0.18091749  0.36265460  1
  O  O13  1  0.51747771  0.38664309  0.97426386  1
  O  O14  1  0.05645127  0.87553378  0.36265460  1
  O  O15  1  0.86916538  0.48252229  0.97426386  1
  O  O16  1  0.81908251  0.94354873  0.36265460  1
  O  O17  1  0.13083462  0.51747771  0.47426386  1
  O  O18  1  0.79798366  0.53780513  0.53518667  1
  O  O19  1  0.18091749  0.05645127  0.86265460  1
  O  O20  1  0.94354873  0.12446622  0.86265460  1
  O  O21  1  0.87553378  0.81908251  0.86265460  1
  O  O22  1  0.48252229  0.61335691  0.47426386  1
  O  O23  1  0.20201634  0.46219487  0.03518667  1
  O  O24  1  0.46219487  0.26017853  0.53518667  1
  O  O25  1  0.61335691  0.13083462  0.97426386  1
  O  O26  1  0.53780513  0.73982147  0.03518667  1
  O  O27  1  0.38664309  0.86916538  0.47426386  1
