# generated using pymatgen
data_Pr4MgCo
_symmetry_space_group_name_H-M   'P 1'
_cell_length_a   10.05157549
_cell_length_b   10.05138354
_cell_length_c   10.05178196
_cell_angle_alpha   59.99801462
_cell_angle_beta   59.99859962
_cell_angle_gamma   59.99722237
_symmetry_Int_Tables_number   1
_chemical_formula_structural   Pr4MgCo
_chemical_formula_sum   'Pr16 Mg4 Co4'
_cell_volume   718.07170727
_cell_formula_units_Z   4
loop_
 _symmetry_equiv_pos_site_id
 _symmetry_equiv_pos_as_xyz
  1  'x, y, z'
loop_
 _atom_site_type_symbol
 _atom_site_label
 _atom_site_symmetry_multiplicity
 _atom_site_fract_x
 _atom_site_fract_y
 _atom_site_fract_z
 _atom_site_occupancy
  Pr  Pr0  1  0.96486481  0.34506268  0.34503762  1
  Pr  Pr1  1  0.56123718  0.93876132  0.93876174  1
  Pr  Pr2  1  0.34504286  0.34505719  0.96486926  1
  Pr  Pr3  1  0.93876165  0.56123874  0.93875983  1
  Pr  Pr4  1  0.56123861  0.56123812  0.93876287  1
  Pr  Pr5  1  0.18822663  0.18822592  0.81177214  1
  Pr  Pr6  1  0.81178544  0.81176776  0.18822393  1
  Pr  Pr7  1  0.18822472  0.81176073  0.81179122  1
  Pr  Pr8  1  0.93876078  0.56123781  0.56124042  1
  Pr  Pr9  1  0.81176855  0.18822518  0.81178350  1
  Pr  Pr10  1  0.34505629  0.96485759  0.34504278  1
  Pr  Pr11  1  0.81176478  0.18822751  0.18822460  1
  Pr  Pr12  1  0.93876094  0.93876057  0.56123797  1
  Pr  Pr13  1  0.56123825  0.93876142  0.56123867  1
  Pr  Pr14  1  0.18822310  0.81176095  0.18822530  1
  Pr  Pr15  1  0.34504351  0.34505487  0.34503259  1
  Mg  Mg16  1  0.57865651  0.57865702  0.26403108  1
  Mg  Mg17  1  0.26403067  0.57865640  0.57865601  1
  Mg  Mg18  1  0.57865688  0.57865668  0.57865585  1
  Mg  Mg19  1  0.57865659  0.26403085  0.57865570  1
  Co  Co20  1  0.14053823  0.57838757  0.14053608  1
  Co  Co21  1  0.14053796  0.14053767  0.57838726  1
  Co  Co22  1  0.57838741  0.14053805  0.14053796  1
  Co  Co23  1  0.14053765  0.14053740  0.14053564  1
