# generated using pymatgen
data_Tm2Ga10Os3
_symmetry_space_group_name_H-M   'P 1'
_cell_length_a   6.38537143
_cell_length_b   8.91000519
_cell_length_c   8.91000519
_cell_angle_alpha   90.00000000
_cell_angle_beta   90.00000000
_cell_angle_gamma   90.00000000
_symmetry_Int_Tables_number   1
_chemical_formula_structural   Tm2Ga10Os3
_chemical_formula_sum   'Tm4 Ga20 Os6'
_cell_volume   506.92309618
_cell_formula_units_Z   2
loop_
 _symmetry_equiv_pos_site_id
 _symmetry_equiv_pos_as_xyz
  1  'x, y, z'
loop_
 _atom_site_type_symbol
 _atom_site_label
 _atom_site_symmetry_multiplicity
 _atom_site_fract_x
 _atom_site_fract_y
 _atom_site_fract_z
 _atom_site_occupancy
  Tm  Tm0  1  0.00000000  0.31685928  0.18314072  1
  Tm  Tm1  1  0.00000000  0.18314072  0.68314072  1
  Tm  Tm2  1  0.00000000  0.68314072  0.81685928  1
  Tm  Tm3  1  0.00000000  0.81685928  0.31685928  1
  Ga  Ga4  1  0.28220327  0.00000000  0.50000000  1
  Ga  Ga5  1  0.71779673  0.00000000  0.50000000  1
  Ga  Ga6  1  0.70767874  0.56125740  0.29309564  1
  Ga  Ga7  1  0.28220327  0.50000000  0.00000000  1
  Ga  Ga8  1  0.71779673  0.50000000  0.00000000  1
  Ga  Ga9  1  0.70767874  0.79309564  0.06125740  1
  Ga  Ga10  1  0.29232126  0.06125740  0.20690436  1
  Ga  Ga11  1  0.29232126  0.79309564  0.06125740  1
  Ga  Ga12  1  0.70767874  0.43874260  0.70690436  1
  Ga  Ga13  1  0.70767874  0.06125740  0.20690436  1
  Ga  Ga14  1  0.70767874  0.20690436  0.93874260  1
  Ga  Ga15  1  0.29232126  0.43874260  0.70690436  1
  Ga  Ga16  1  0.29232126  0.70690436  0.56125740  1
  Ga  Ga17  1  0.29232126  0.20690436  0.93874260  1
  Ga  Ga18  1  0.70767874  0.70690436  0.56125740  1
  Ga  Ga19  1  0.29232126  0.93874260  0.79309564  1
  Ga  Ga20  1  0.70767874  0.29309564  0.43874260  1
  Ga  Ga21  1  0.70767874  0.93874260  0.79309564  1
  Ga  Ga22  1  0.29232126  0.29309564  0.43874260  1
  Ga  Ga23  1  0.29232126  0.56125740  0.29309564  1
  Os  Os24  1  0.50000000  0.32148918  0.17851082  1
  Os  Os25  1  0.50000000  0.82148918  0.32148918  1
  Os  Os26  1  0.50000000  0.67851082  0.82148918  1
  Os  Os27  1  0.00000000  0.00000000  0.00000000  1
  Os  Os28  1  0.50000000  0.17851082  0.67851082  1
  Os  Os29  1  0.00000000  0.50000000  0.50000000  1
