# generated using pymatgen
data_TbCoSn
_symmetry_space_group_name_H-M   'P 1'
_cell_length_a   4.58095607
_cell_length_b   7.39420163
_cell_length_c   7.29047964
_cell_angle_alpha   90.02379331
_cell_angle_beta   90.00040153
_cell_angle_gamma   89.99996112
_symmetry_Int_Tables_number   1
_chemical_formula_structural   TbCoSn
_chemical_formula_sum   'Tb4 Co4 Sn4'
_cell_volume   246.94684380
_cell_formula_units_Z   4
loop_
 _symmetry_equiv_pos_site_id
 _symmetry_equiv_pos_as_xyz
  1  'x, y, z'
loop_
 _atom_site_type_symbol
 _atom_site_label
 _atom_site_symmetry_multiplicity
 _atom_site_fract_x
 _atom_site_fract_y
 _atom_site_fract_z
 _atom_site_occupancy
  Tb  Tb0  1  0.24999946  0.97371095  0.19985049  1
  Tb  Tb1  1  0.74999960  0.52643010  0.69905569  1
  Tb  Tb2  1  0.25000040  0.47381868  0.30087550  1
  Tb  Tb3  1  0.75000044  0.02610939  0.80012893  1
  Co  Co4  1  0.25000075  0.15040843  0.56101995  1
  Co  Co5  1  0.24999972  0.65045826  0.93902660  1
  Co  Co6  1  0.75000030  0.34953343  0.06101172  1
  Co  Co7  1  0.74999934  0.84950498  0.43898992  1
  Sn  Sn8  1  0.74999986  0.70216547  0.10810732  1
  Sn  Sn9  1  0.24999980  0.79827718  0.60763801  1
  Sn  Sn10  1  0.75000021  0.20158909  0.39238771  1
  Sn  Sn11  1  0.25000013  0.29799405  0.89190816  1
