# generated using pymatgen
data_RbFe(MoO4)2
_symmetry_space_group_name_H-M   'P 1'
_cell_length_a   5.71855915
_cell_length_b   5.71855901
_cell_length_c   7.90966704
_cell_angle_alpha   90.00000000
_cell_angle_beta   90.00000000
_cell_angle_gamma   120.00000074
_symmetry_Int_Tables_number   1
_chemical_formula_structural   RbFe(MoO4)2
_chemical_formula_sum   'Rb1 Fe1 Mo2 O8'
_cell_volume   224.00724006
_cell_formula_units_Z   1
loop_
 _symmetry_equiv_pos_site_id
 _symmetry_equiv_pos_as_xyz
  1  'x, y, z'
loop_
 _atom_site_type_symbol
 _atom_site_label
 _atom_site_symmetry_multiplicity
 _atom_site_fract_x
 _atom_site_fract_y
 _atom_site_fract_z
 _atom_site_occupancy
  Rb  Rb0  1  0.00000000  0.00000000  0.50000000  1
  Fe  Fe1  1  0.00000000  0.00000000  0.00000000  1
  Mo  Mo2  1  0.66666700  0.33333300  0.78035000  1
  Mo  Mo3  1  0.33333300  0.66666700  0.21965000  1
  O  O4  1  0.21002215  0.32278123  0.15079127  1
  O  O5  1  0.78997785  0.67721877  0.84920873  1
  O  O6  1  0.33333300  0.66666700  0.44110828  1
  O  O7  1  0.88724092  0.21002215  0.84920873  1
  O  O8  1  0.66666700  0.33333300  0.55889172  1
  O  O9  1  0.67721877  0.88724092  0.15079127  1
  O  O10  1  0.32278123  0.11275908  0.84920873  1
  O  O11  1  0.11275908  0.78997785  0.15079127  1
