# generated using pymatgen
data_Na3MgC2BrO6
_symmetry_space_group_name_H-M   'P 1'
_cell_length_a   10.19037169
_cell_length_b   10.19036284
_cell_length_c   10.19036393
_cell_angle_alpha   59.99990917
_cell_angle_beta   59.99987213
_cell_angle_gamma   60.00002718
_symmetry_Int_Tables_number   1
_chemical_formula_structural   Na3MgC2BrO6
_chemical_formula_sum   'Na12 Mg4 C8 Br4 O24'
_cell_volume   748.26208687
_cell_formula_units_Z   4
loop_
 _symmetry_equiv_pos_site_id
 _symmetry_equiv_pos_as_xyz
  1  'x, y, z'
loop_
 _atom_site_type_symbol
 _atom_site_label
 _atom_site_symmetry_multiplicity
 _atom_site_fract_x
 _atom_site_fract_y
 _atom_site_fract_z
 _atom_site_occupancy
  Na  Na0  1  0.63491498  0.63491477  0.11508540  1
  Na  Na1  1  0.36508620  0.88491424  0.36508450  1
  Na  Na2  1  0.88491389  0.36508506  0.88491596  1
  Na  Na3  1  0.63491397  0.11508585  0.11508557  1
  Na  Na4  1  0.63491451  0.11508593  0.63491461  1
  Na  Na5  1  0.36508617  0.36508502  0.88491415  1
  Na  Na6  1  0.11508574  0.11508536  0.63491414  1
  Na  Na7  1  0.88491473  0.88491474  0.36508506  1
  Na  Na8  1  0.11508631  0.63491444  0.11508485  1
  Na  Na9  1  0.36508545  0.88491468  0.88491459  1
  Na  Na10  1  0.88491400  0.36508507  0.36508561  1
  Na  Na11  1  0.11508573  0.63491496  0.63491468  1
  Mg  Mg12  1  0.49999922  0.50000107  0.99999975  1
  Mg  Mg13  1  0.50000010  -0.00000059  0.50000096  1
  Mg  Mg14  1  0.99999985  0.50000042  0.49999914  1
  Mg  Mg15  1  0.50000033  0.49999947  0.50000013  1
  C  C16  1  0.71609785  0.35170029  0.71610061  1
  C  C17  1  0.35170045  0.71609943  0.71610018  1
  C  C18  1  0.71609752  0.71610017  0.71610092  1
  C  C19  1  0.28390220  0.64829969  0.28389945  1
  C  C20  1  0.28390238  0.28390032  0.64829856  1
  C  C21  1  0.28390184  0.28390093  0.28389830  1
  C  C22  1  0.71609825  0.71609988  0.35170094  1
  C  C23  1  0.64829870  0.28390084  0.28390074  1
  Br  Br24  1  0.00000025  0.00000016  0.49999984  1
  Br  Br25  1  0.49999989  0.00000025  0.99999992  1
  Br  Br26  1  0.00000007  0.50000017  0.99999984  1
  Br  Br27  1  0.99999978  0.00000015  0.00000031  1
  O  O28  1  0.86368204  0.64323532  0.64323495  1
  O  O29  1  0.13632086  0.35676217  0.35676421  1
  O  O30  1  0.64324086  0.34984647  0.64323988  1
  O  O31  1  0.13631973  0.65015275  0.35676498  1
  O  O32  1  0.86367857  0.34984773  0.64323704  1
  O  O33  1  0.35676124  0.13632251  0.35676383  1
  O  O34  1  0.35675721  0.65015289  0.13633168  1
  O  O35  1  0.35675954  0.65015379  0.35676215  1
  O  O36  1  0.64324130  0.34984697  0.86367217  1
  O  O37  1  0.35675727  0.35675756  0.13633232  1
  O  O38  1  0.65015296  0.35676343  0.13632019  1
  O  O39  1  0.65015327  0.35675872  0.35675777  1
  O  O40  1  0.35675698  0.35675850  0.65015327  1
  O  O41  1  0.64324275  0.64323985  0.86367126  1
  O  O42  1  0.64323848  0.86367781  0.34984739  1
  O  O43  1  0.35676015  0.13632448  0.65015276  1
  O  O44  1  0.86367804  0.64323867  0.34984717  1
  O  O45  1  0.34984637  0.64323937  0.64323871  1
  O  O46  1  0.34984698  0.86367506  0.64323841  1
  O  O47  1  0.13632000  0.35676309  0.65015263  1
  O  O48  1  0.34984736  0.64324008  0.86367304  1
  O  O49  1  0.64324277  0.64324268  0.34984673  1
  O  O50  1  0.64324239  0.86367103  0.64323966  1
  O  O51  1  0.65015255  0.13632632  0.35675909  1
