# generated using pymatgen
data_NaAlH2CO5
_symmetry_space_group_name_H-M   'P 1'
_cell_length_a   6.86772726
_cell_length_b   6.86772726
_cell_length_c   6.86772726
_cell_angle_alpha   119.41526105
_cell_angle_beta   131.34835661
_cell_angle_gamma   81.27041149
_symmetry_Int_Tables_number   1
_chemical_formula_structural   NaAlH2CO5
_chemical_formula_sum   'Na2 Al2 H4 C2 O10'
_cell_volume   204.30142992
_cell_formula_units_Z   2
loop_
 _symmetry_equiv_pos_site_id
 _symmetry_equiv_pos_as_xyz
  1  'x, y, z'
loop_
 _atom_site_type_symbol
 _atom_site_label
 _atom_site_symmetry_multiplicity
 _atom_site_fract_x
 _atom_site_fract_y
 _atom_site_fract_z
 _atom_site_occupancy
  Na  Na0  1  0.00000000  0.50000000  0.00000000  1
  Na  Na1  1  0.00000000  0.00000000  0.50000000  1
  Al  Al2  1  0.00000000  0.50000000  0.50000000  1
  Al  Al3  1  0.50000000  0.50000000  0.00000000  1
  H  H4  1  0.27923627  0.23238020  0.45314393  1
  H  H5  1  0.72076373  0.17390766  0.95314393  1
  H  H6  1  0.72076373  0.76761980  0.54685607  1
  H  H7  1  0.27923627  0.82609234  0.04685607  1
  C  C8  1  0.49867503  0.74867503  0.75000000  1
  C  C9  1  0.50132497  0.25132497  0.25000000  1
  O  O10  1  0.62015950  0.87015950  0.75000000  1
  O  O11  1  0.37984050  0.12984050  0.25000000  1
  O  O12  1  0.23419312  0.68516520  0.54902791  1
  O  O13  1  0.76580688  0.31483480  0.45097209  1
  O  O14  1  0.36386271  0.31483480  0.04902791  1
  O  O15  1  0.63613729  0.68516520  0.95097209  1
  O  O16  1  0.22482543  0.29587855  0.57105312  1
  O  O17  1  0.77517457  0.34622769  0.07105312  1
  O  O18  1  0.77517457  0.70412145  0.42894688  1
  O  O19  1  0.22482543  0.65377231  0.92894688  1
