# generated using pymatgen
data_NbClF8
_symmetry_space_group_name_H-M   'P 1'
_cell_length_a   5.87941580
_cell_length_b   10.10426057
_cell_length_c   10.68109262
_cell_angle_alpha   90.00000000
_cell_angle_beta   90.00000000
_cell_angle_gamma   90.00000000
_symmetry_Int_Tables_number   1
_chemical_formula_structural   NbClF8
_chemical_formula_sum   'Nb4 Cl4 F32'
_cell_volume   634.53326335
_cell_formula_units_Z   4
loop_
 _symmetry_equiv_pos_site_id
 _symmetry_equiv_pos_as_xyz
  1  'x, y, z'
loop_
 _atom_site_type_symbol
 _atom_site_label
 _atom_site_symmetry_multiplicity
 _atom_site_fract_x
 _atom_site_fract_y
 _atom_site_fract_z
 _atom_site_occupancy
  Nb  Nb0  1  0.60218716  0.00000000  0.25000000  1
  Nb  Nb1  1  0.39781284  0.50000000  0.25000000  1
  Nb  Nb2  1  0.60218716  0.50000000  0.75000000  1
  Nb  Nb3  1  0.39781284  0.00000000  0.75000000  1
  Cl  Cl4  1  0.00000000  0.75000000  0.96200441  1
  Cl  Cl5  1  0.00000000  0.75000000  0.46200441  1
  Cl  Cl6  1  0.00000000  0.25000000  0.03799559  1
  Cl  Cl7  1  0.00000000  0.25000000  0.53799559  1
  F  F8  1  0.11166060  0.84891529  0.06550454  1
  F  F9  1  0.88833940  0.34891529  0.43449546  1
  F  F10  1  0.62174547  0.11412178  0.68212155  1
  F  F11  1  0.37825453  0.88587822  0.31787845  1
  F  F12  1  0.37825453  0.11412178  0.18212155  1
  F  F13  1  0.14654271  0.61452455  0.32286208  1
  F  F14  1  0.62811971  0.10349484  0.39975354  1
  F  F15  1  0.85345729  0.61452455  0.82286208  1
  F  F16  1  0.62174547  0.38587822  0.18212155  1
  F  F17  1  0.62811971  0.39650516  0.89975354  1
  F  F18  1  0.85345729  0.11452455  0.17713792  1
  F  F19  1  0.62811971  0.60349484  0.60024646  1
  F  F20  1  0.62174547  0.88587822  0.81787845  1
  F  F21  1  0.14654271  0.38547545  0.17713792  1
  F  F22  1  0.85345729  0.88547545  0.32286208  1
  F  F23  1  0.88833940  0.15108471  0.93449546  1
  F  F24  1  0.37188029  0.60349484  0.10024646  1
  F  F25  1  0.11166060  0.15108471  0.43449546  1
  F  F26  1  0.37825453  0.61412178  0.81787845  1
  F  F27  1  0.11166060  0.65108471  0.56550454  1
  F  F28  1  0.37188029  0.10349484  0.89975354  1
  F  F29  1  0.37188029  0.89650516  0.60024646  1
  F  F30  1  0.85345729  0.38547545  0.67713792  1
  F  F31  1  0.37825453  0.38587822  0.68212155  1
  F  F32  1  0.88833940  0.65108471  0.06550454  1
  F  F33  1  0.11166060  0.34891529  0.93449546  1
  F  F34  1  0.88833940  0.84891529  0.56550454  1
  F  F35  1  0.14654271  0.11452455  0.67713792  1
  F  F36  1  0.62811971  0.89650516  0.10024646  1
  F  F37  1  0.62174547  0.61412178  0.31787845  1
  F  F38  1  0.14654271  0.88547545  0.82286208  1
  F  F39  1  0.37188029  0.39650516  0.39975354  1
