# generated using pymatgen
data_Pr3PtI3
_symmetry_space_group_name_H-M   'P 1'
_cell_length_a   10.96891686
_cell_length_b   10.96899210
_cell_length_c   10.96817010
_cell_angle_alpha   109.46849749
_cell_angle_beta   109.46996458
_cell_angle_gamma   109.47237405
_symmetry_Int_Tables_number   1
_chemical_formula_structural   Pr3PtI3
_chemical_formula_sum   'Pr12 Pt4 I12'
_cell_volume   1015.91623117
_cell_formula_units_Z   4
loop_
 _symmetry_equiv_pos_site_id
 _symmetry_equiv_pos_as_xyz
  1  'x, y, z'
loop_
 _atom_site_type_symbol
 _atom_site_label
 _atom_site_symmetry_multiplicity
 _atom_site_fract_x
 _atom_site_fract_y
 _atom_site_fract_z
 _atom_site_occupancy
  Pr  Pr0  1  0.47962834  0.74999535  0.02036325  1
  Pr  Pr1  1  0.22962607  0.45925881  0.47962625  1
  Pr  Pr2  1  0.45925027  0.47962261  0.22962898  1
  Pr  Pr3  1  0.04074109  0.27036660  0.02036982  1
  Pr  Pr4  1  0.02037208  0.04074563  0.27037798  1
  Pr  Pr5  1  0.22963331  0.27036649  0.74999778  1
  Pr  Pr6  1  0.02036616  0.47962226  0.74999024  1
  Pr  Pr7  1  0.47962597  0.22963771  0.45926370  1
  Pr  Pr8  1  0.27036020  0.74998747  0.22962751  1
  Pr  Pr9  1  0.27035768  0.02037800  0.04073604  1
  Pr  Pr10  1  0.75001514  0.22964460  0.27037368  1
  Pr  Pr11  1  0.75001818  0.02037274  0.47964187  1
  Pt  Pt12  1  0.24999368  0.25000163  0.25000046  1
  Pt  Pt13  1  0.24999674  0.49999409  -0.00000510  1
  Pt  Pt14  1  0.50000156  0.00000206  0.25000139  1
  Pt  Pt15  1  0.00000751  0.25000389  0.50000292  1
  I  I16  1  0.99182597  0.50817157  0.24999919  1
  I  I17  1  0.75817287  0.74182761  0.25000113  1
  I  I18  1  0.99183093  0.98365449  0.74182680  1
  I  I19  1  0.25000473  0.99183405  0.50817973  1
  I  I20  1  0.98365681  0.74183116  0.99182756  1
  I  I21  1  0.74183404  0.99183223  0.98365701  1
  I  I22  1  0.24999580  0.75816685  0.74182187  1
  I  I23  1  0.74183117  0.24999998  0.75817408  1
  I  I24  1  0.75817237  0.51634692  0.50817368  1
  I  I25  1  0.51634049  0.50816685  0.75817073  1
  I  I26  1  0.50816953  0.75816879  0.51634546  1
  I  I27  1  0.50817128  0.24999957  0.99182599  1
