# generated using pymatgen
data_Cr4P9O32
_symmetry_space_group_name_H-M   'P 1'
_cell_length_a   14.22346377
_cell_length_b   14.22346377
_cell_length_c   6.25081767
_cell_angle_alpha   90.00000000
_cell_angle_beta   90.00000000
_cell_angle_gamma   90.00000000
_symmetry_Int_Tables_number   1
_chemical_formula_structural   Cr4P9O32
_chemical_formula_sum   'Cr8 P18 O64'
_cell_volume   1264.58368040
_cell_formula_units_Z   2
loop_
 _symmetry_equiv_pos_site_id
 _symmetry_equiv_pos_as_xyz
  1  'x, y, z'
loop_
 _atom_site_type_symbol
 _atom_site_label
 _atom_site_symmetry_multiplicity
 _atom_site_fract_x
 _atom_site_fract_y
 _atom_site_fract_z
 _atom_site_occupancy
  O  O0  1  0.93476211  0.06094216  0.35659984  1
  O  O1  1  0.01445431  0.29494238  0.19193075  1
  O  O2  1  0.99726252  0.24742539  0.58517774  1
  O  O3  1  0.92705710  0.39846984  0.45903073  1
  O  O4  1  0.93905784  0.93476211  0.64340016  1
  O  O5  1  0.89846984  0.42705810  0.95903073  1
  O  O6  1  0.89581897  0.80665053  0.93855884  1
  O  O7  1  0.86451374  0.82037185  0.32944275  1
  O  O8  1  0.98554569  0.70505762  0.19193075  1
  O  O9  1  0.00273748  0.75257361  0.58517774  1
  O  O10  1  0.07294190  0.60153116  0.45903073  1
  O  O11  1  0.06094216  0.06523889  0.64340016  1
  O  O12  1  0.06523889  0.93905784  0.35659984  1
  O  O13  1  0.10153016  0.57294190  0.95903073  1
  O  O14  1  0.10418103  0.19334947  0.93855884  1
  O  O15  1  0.13548626  0.17962815  0.32944275  1
  O  O16  1  0.16963190  0.31655065  0.62744063  1
  O  O17  1  0.14147469  0.75659025  0.33049640  1
  O  O18  1  0.18344835  0.33036810  0.12744163  1
  O  O19  1  0.17962815  0.86451374  0.67055625  1
  O  O20  1  0.19334947  0.89581897  0.06144216  1
  O  O21  1  0.20505762  0.48554569  0.69193275  1
  O  O22  1  0.25659025  0.64147469  0.83049740  1
  O  O23  1  0.25257361  0.50273748  0.08517674  1
  O  O24  1  0.24742539  0.00273748  0.41482326  1
  O  O25  1  0.24340975  0.14147469  0.66950260  1
  O  O26  1  0.29494238  0.98554569  0.80806825  1
  O  O27  1  0.30664953  0.39581897  0.43855784  1
  O  O28  1  0.32037085  0.36451274  0.82944275  1
  O  O29  1  0.31655065  0.83036810  0.37256037  1
  O  O30  1  0.35852531  0.25659025  0.16950260  1
  O  O31  1  0.33036810  0.81655165  0.87255937  1
  O  O32  1  0.36451274  0.67962915  0.17055725  1
  O  O33  1  0.39581897  0.69335047  0.56144116  1
  O  O34  1  0.39846984  0.07294190  0.54096927  1
  O  O35  1  0.43476211  0.43905784  0.14340016  1
  O  O36  1  0.43905784  0.56523789  0.85659884  1
  O  O37  1  0.42705810  0.10153016  0.04096827  1
  O  O38  1  0.49726252  0.25257361  0.91482226  1
  O  O39  1  0.51445431  0.20505762  0.30806825  1
  O  O40  1  0.48554569  0.79494238  0.30806825  1
  O  O41  1  0.50273748  0.74742639  0.91482226  1
  O  O42  1  0.57294190  0.89846984  0.04096827  1
  O  O43  1  0.56094216  0.43476211  0.85659884  1
  O  O44  1  0.56523789  0.56094216  0.14340016  1
  O  O45  1  0.60153116  0.92705710  0.54096927  1
  O  O46  1  0.60418103  0.30664953  0.56144116  1
  O  O47  1  0.63548626  0.32037085  0.17055725  1
  O  O48  1  0.66963190  0.18344835  0.87255937  1
  O  O49  1  0.64147469  0.74340975  0.16950260  1
  O  O50  1  0.68344935  0.16963190  0.37256037  1
  O  O51  1  0.67962915  0.63548626  0.82944275  1
  O  O52  1  0.69335047  0.60418103  0.43855784  1
  O  O53  1  0.70505762  0.01445431  0.80806825  1
  O  O54  1  0.75659025  0.85852531  0.66950260  1
  O  O55  1  0.75257361  0.99726252  0.41482326  1
  O  O56  1  0.74742639  0.49726252  0.08517674  1
  O  O57  1  0.74340975  0.35852531  0.83049740  1
  O  O58  1  0.79494238  0.51445431  0.69193275  1
  O  O59  1  0.80665053  0.10418103  0.06144216  1
  O  O60  1  0.83036810  0.68344935  0.62744063  1
  O  O61  1  0.81655165  0.66963190  0.12744163  1
  O  O62  1  0.85852531  0.24340975  0.33049640  1
  O  O63  1  0.82037185  0.13548626  0.67055625  1
  P  P64  1  0.55331236  0.79749718  0.10211933  1
  P  P65  1  0.61493991  0.25126193  0.35469367  1
  P  P66  1  0.70250282  0.94668764  0.60211933  1
  P  P67  1  0.50000000  0.50000000  0.00000000  1
  P  P68  1  0.74873807  0.61493991  0.64530533  1
  P  P69  1  0.75126193  0.11493991  0.85469267  1
  P  P70  1  0.79749718  0.44668764  0.89787967  1
  P  P71  1  0.88506009  0.75126193  0.14530633  1
  P  P72  1  0.00000000  0.00000000  0.50000000  1
  P  P73  1  0.05331236  0.70250282  0.39788067  1
  P  P74  1  0.11493991  0.24873807  0.14530633  1
  P  P75  1  0.20250182  0.55331236  0.89787967  1
  P  P76  1  0.24873807  0.88506009  0.85469267  1
  P  P77  1  0.25126193  0.38506009  0.64530533  1
  P  P78  1  0.29749818  0.05331236  0.60211933  1
  P  P79  1  0.38506009  0.74873807  0.35469367  1
  P  P80  1  0.44668764  0.20250182  0.10211933  1
  P  P81  1  0.94668764  0.29749818  0.39788067  1
  Cr  Cr82  1  0.88252582  0.81059764  0.63343689  1
  Cr  Cr83  1  0.81059764  0.11747418  0.36656411  1
  Cr  Cr84  1  0.68940236  0.61747418  0.13343689  1
  Cr  Cr85  1  0.61747418  0.31059764  0.86656411  1
  Cr  Cr86  1  0.38252682  0.68940236  0.86656411  1
  Cr  Cr87  1  0.31059764  0.38252682  0.13343689  1
  Cr  Cr88  1  0.18940336  0.88252582  0.36656411  1
  Cr  Cr89  1  0.11747418  0.18940336  0.63343689  1
