# generated using pymatgen
data_Ca3BCNCl2
_symmetry_space_group_name_H-M   'P 1'
_cell_length_a   3.85115075
_cell_length_b   11.23645703
_cell_length_c   13.90299385
_cell_angle_alpha   90.00000000
_cell_angle_beta   90.00000000
_cell_angle_gamma   90.00000000
_symmetry_Int_Tables_number   1
_chemical_formula_structural   Ca3BCNCl2
_chemical_formula_sum   'Ca12 B4 C4 N4 Cl8'
_cell_volume   601.62828361
_cell_formula_units_Z   4
loop_
 _symmetry_equiv_pos_site_id
 _symmetry_equiv_pos_as_xyz
  1  'x, y, z'
loop_
 _atom_site_type_symbol
 _atom_site_label
 _atom_site_symmetry_multiplicity
 _atom_site_fract_x
 _atom_site_fract_y
 _atom_site_fract_z
 _atom_site_occupancy
  Ca  Ca0  1  0.75000000  0.06824362  0.36322547  1
  Ca  Ca1  1  0.75000000  0.79934847  0.81325787  1
  Ca  Ca2  1  0.25000000  0.20065153  0.18674213  1
  Ca  Ca3  1  0.25000000  0.29934847  0.68674213  1
  Ca  Ca4  1  0.75000000  0.70065153  0.31325787  1
  Ca  Ca5  1  0.25000000  0.56824362  0.13677453  1
  Ca  Ca6  1  0.25000000  0.13795381  0.89586825  1
  Ca  Ca7  1  0.25000000  0.93175638  0.63677453  1
  Ca  Ca8  1  0.75000000  0.43175638  0.86322547  1
  Ca  Ca9  1  0.75000000  0.86204619  0.10413175  1
  Ca  Ca10  1  0.25000000  0.36204619  0.39586825  1
  Ca  Ca11  1  0.75000000  0.63795381  0.60413175  1
  B  B12  1  0.25000000  0.89715034  0.24352904  1
  B  B13  1  0.75000000  0.39715034  0.25647096  1
  B  B14  1  0.25000000  0.60284966  0.74352904  1
  B  B15  1  0.75000000  0.10284966  0.75647096  1
  C  C16  1  0.75000000  0.27732672  0.29363230  1
  C  C17  1  0.75000000  0.22267328  0.79363230  1
  C  C18  1  0.25000000  0.77732672  0.20636770  1
  C  C19  1  0.25000000  0.72267328  0.70636770  1
  N  N20  1  0.25000000  0.48591406  0.77001915  1
  N  N21  1  0.75000000  0.98591406  0.72998085  1
  N  N22  1  0.25000000  0.01408594  0.27001915  1
  N  N23  1  0.75000000  0.51408594  0.22998085  1
  Cl  Cl24  1  0.25000000  0.60595884  0.44659894  1
  Cl  Cl25  1  0.75000000  0.10595884  0.05340106  1
  Cl  Cl26  1  0.25000000  0.36004527  0.01190878  1
  Cl  Cl27  1  0.25000000  0.89404116  0.94659894  1
  Cl  Cl28  1  0.75000000  0.63995473  0.98809122  1
  Cl  Cl29  1  0.75000000  0.86004527  0.48809122  1
  Cl  Cl30  1  0.75000000  0.39404116  0.55340106  1
  Cl  Cl31  1  0.25000000  0.13995473  0.51190878  1
