# generated using pymatgen
data_Ni3O4
_symmetry_space_group_name_H-M   'P 1'
_cell_length_a   5.05398636
_cell_length_b   5.81625802
_cell_length_c   5.74152133
_cell_angle_alpha   60.42416493
_cell_angle_beta   90.00000000
_cell_angle_gamma   105.74279566
_symmetry_Int_Tables_number   1
_chemical_formula_structural   Ni3O4
_chemical_formula_sum   'Ni6 O8'
_cell_volume   139.45745346
_cell_formula_units_Z   2
loop_
 _symmetry_equiv_pos_site_id
 _symmetry_equiv_pos_as_xyz
  1  'x, y, z'
loop_
 _atom_site_type_symbol
 _atom_site_label
 _atom_site_symmetry_multiplicity
 _atom_site_fract_x
 _atom_site_fract_y
 _atom_site_fract_z
 _atom_site_occupancy
  Ni  Ni0  1  0.00003883  0.00000338  0.99999831  1
  Ni  Ni1  1  0.99995908  0.99999305  0.50000347  1
  Ni  Ni2  1  0.50000224  0.50000290  0.74999855  1
  Ni  Ni3  1  0.49999896  0.49999758  0.25000121  1
  Ni  Ni4  1  0.00000058  0.50000064  0.50000144  1
  Ni  Ni5  1  0.00000058  0.50000064  -0.00000208  1
  O  O6  1  0.79239282  0.29242434  0.35378833  1
  O  O7  1  0.79240186  0.29241219  0.85379440  1
  O  O8  1  0.20761166  0.70757833  0.14621034  1
  O  O9  1  0.20759687  0.70758979  0.64620460  1
  O  O10  1  0.77057064  0.72937278  0.88532218  1
  O  O11  1  0.77057064  0.72937278  0.38530504  1
  O  O12  1  0.22942763  0.27062579  0.61468195  1
  O  O13  1  0.22942763  0.27062579  0.11469226  1
