# generated using pymatgen
data_Ba2CaWN4
_symmetry_space_group_name_H-M   'P 1'
_cell_length_a   8.16401405
_cell_length_b   8.16401366
_cell_length_c   10.56941832
_cell_angle_alpha   110.34343849
_cell_angle_beta   110.34343745
_cell_angle_gamma   95.73048108
_symmetry_Int_Tables_number   1
_chemical_formula_structural   Ba2CaWN4
_chemical_formula_sum   'Ba8 Ca4 W4 N16'
_cell_volume   599.48928069
_cell_formula_units_Z   4
loop_
 _symmetry_equiv_pos_site_id
 _symmetry_equiv_pos_as_xyz
  1  'x, y, z'
loop_
 _atom_site_type_symbol
 _atom_site_label
 _atom_site_symmetry_multiplicity
 _atom_site_fract_x
 _atom_site_fract_y
 _atom_site_fract_z
 _atom_site_occupancy
  Ba  Ba0  1  0.30513122  0.05513122  0.75000000  1
  Ba  Ba1  1  0.94486878  0.69486878  0.75000000  1
  Ba  Ba2  1  0.05513122  0.30513122  0.25000000  1
  Ba  Ba3  1  0.48649395  0.73649395  0.47298791  1
  Ba  Ba4  1  0.51350605  0.26350605  0.52701209  1
  Ba  Ba5  1  0.73649395  0.48649395  0.97298791  1
  Ba  Ba6  1  0.69486878  0.94486878  0.25000000  1
  Ba  Ba7  1  0.26350605  0.51350605  0.02701209  1
  Ca  Ca8  1  0.71338904  0.96338904  0.92677808  1
  Ca  Ca9  1  0.28661096  0.03661096  0.07322192  1
  Ca  Ca10  1  0.03661096  0.28661096  0.57322192  1
  Ca  Ca11  1  0.96338904  0.71338904  0.42677808  1
  W  W12  1  0.38233014  0.61766986  0.75000000  1
  W  W13  1  0.86766986  0.13233014  0.75000000  1
  W  W14  1  0.61766986  0.38233014  0.25000000  1
  W  W15  1  0.13233014  0.86766986  0.25000000  1
  N  N16  1  0.03385756  0.11704926  0.91961188  1
  N  N17  1  0.65780881  0.60553651  0.23393146  1
  N  N18  1  0.38575432  0.80256262  0.91961188  1
  N  N19  1  0.19743738  0.61424568  0.58038812  1
  N  N20  1  0.96614244  0.88295074  0.08038812  1
  N  N21  1  0.80256262  0.38575432  0.41961188  1
  N  N22  1  0.39446349  0.34219119  0.26606854  1
  N  N23  1  0.34219119  0.39446349  0.76606854  1
  N  N24  1  0.11704926  0.03385756  0.41961188  1
  N  N25  1  0.92387736  0.37160505  0.76606854  1
  N  N26  1  0.07612264  0.62839495  0.23393146  1
  N  N27  1  0.88295074  0.96614244  0.58038812  1
  N  N28  1  0.62839495  0.07612264  0.73393146  1
  N  N29  1  0.61424568  0.19743738  0.08038812  1
  N  N30  1  0.60553651  0.65780881  0.73393146  1
  N  N31  1  0.37160505  0.92387736  0.26606854  1
