# generated using pymatgen
data_Cs2TeO4
_symmetry_space_group_name_H-M   'P 1'
_cell_length_a   6.74712961
_cell_length_b   8.73982426
_cell_length_c   11.94766017
_cell_angle_alpha   90.00000000
_cell_angle_beta   90.00000000
_cell_angle_gamma   90.00000000
_symmetry_Int_Tables_number   1
_chemical_formula_structural   Cs2TeO4
_chemical_formula_sum   'Cs8 Te4 O16'
_cell_volume   704.53831146
_cell_formula_units_Z   4
loop_
 _symmetry_equiv_pos_site_id
 _symmetry_equiv_pos_as_xyz
  1  'x, y, z'
loop_
 _atom_site_type_symbol
 _atom_site_label
 _atom_site_symmetry_multiplicity
 _atom_site_fract_x
 _atom_site_fract_y
 _atom_site_fract_z
 _atom_site_occupancy
  Cs  Cs0  1  0.75000000  0.17263863  0.91556339  1
  Cs  Cs1  1  0.25000000  0.50351875  0.78556555  1
  Cs  Cs2  1  0.75000000  0.49648125  0.21443445  1
  Cs  Cs3  1  0.25000000  0.82736137  0.08443661  1
  Cs  Cs4  1  0.25000000  0.00351875  0.71443445  1
  Cs  Cs5  1  0.25000000  0.32736137  0.41556339  1
  Cs  Cs6  1  0.75000000  0.67263863  0.58443661  1
  Cs  Cs7  1  0.75000000  0.99648125  0.28556555  1
  Te  Te8  1  0.75000000  0.21913882  0.57827365  1
  Te  Te9  1  0.75000000  0.71913882  0.92172635  1
  Te  Te10  1  0.25000000  0.78086118  0.42172635  1
  Te  Te11  1  0.25000000  0.28086118  0.07827365  1
  O  O12  1  0.75000000  0.80804783  0.06282066  1
  O  O13  1  0.97462570  0.28630876  0.65290775  1
  O  O14  1  0.25000000  0.99193419  0.42929919  1
  O  O15  1  0.25000000  0.49193419  0.07070081  1
  O  O16  1  0.02537430  0.71369124  0.34709225  1
  O  O17  1  0.75000000  0.30804783  0.43717934  1
  O  O18  1  0.25000000  0.69195217  0.56282066  1
  O  O19  1  0.02537430  0.21369124  0.15290775  1
  O  O20  1  0.47462570  0.71369124  0.34709225  1
  O  O21  1  0.52537430  0.28630876  0.65290775  1
  O  O22  1  0.52537430  0.78630876  0.84709225  1
  O  O23  1  0.75000000  0.00806581  0.57070081  1
  O  O24  1  0.97462570  0.78630876  0.84709225  1
  O  O25  1  0.47462570  0.21369124  0.15290775  1
  O  O26  1  0.25000000  0.19195217  0.93717934  1
  O  O27  1  0.75000000  0.50806581  0.92929919  1
