# generated using pymatgen
data_Cs3Tb2Br9
_symmetry_space_group_name_H-M   'P 1'
_cell_length_a   10.48880361
_cell_length_b   10.48880338
_cell_length_c   10.48880316
_cell_angle_alpha   84.05047915
_cell_angle_beta   84.05047930
_cell_angle_gamma   84.05047907
_symmetry_Int_Tables_number   1
_chemical_formula_structural   Cs3Tb2Br9
_chemical_formula_sum   'Cs6 Tb4 Br18'
_cell_volume   1136.48257027
_cell_formula_units_Z   2
loop_
 _symmetry_equiv_pos_site_id
 _symmetry_equiv_pos_as_xyz
  1  'x, y, z'
loop_
 _atom_site_type_symbol
 _atom_site_label
 _atom_site_symmetry_multiplicity
 _atom_site_fract_x
 _atom_site_fract_y
 _atom_site_fract_z
 _atom_site_occupancy
  Tb  Tb0  1  0.34890954  0.34890954  0.34890954  1
  Tb  Tb1  1  0.65109046  0.65109046  0.65109046  1
  Tb  Tb2  1  0.84890954  0.84890954  0.84890954  1
  Tb  Tb3  1  0.15109046  0.15109046  0.15109046  1
  Cs  Cs4  1  0.41181340  0.75000000  0.08818660  1
  Cs  Cs5  1  0.75000000  0.08818660  0.41181340  1
  Cs  Cs6  1  0.58818660  0.25000000  0.91181340  1
  Cs  Cs7  1  0.08818660  0.41181340  0.75000000  1
  Cs  Cs8  1  0.25000000  0.91181340  0.58818660  1
  Cs  Cs9  1  0.91181340  0.58818660  0.25000000  1
  Br  Br10  1  0.76434464  0.41850281  0.58099819  1
  Br  Br11  1  0.41900181  0.23565536  0.58149719  1
  Br  Br12  1  0.25000000  0.40469434  0.09530566  1
  Br  Br13  1  0.40469434  0.09530566  0.25000000  1
  Br  Br14  1  0.73565536  0.91900181  0.08149719  1
  Br  Br15  1  0.08099819  0.91850281  0.26434464  1
  Br  Br16  1  0.75000000  0.59530566  0.90469434  1
  Br  Br17  1  0.90469434  0.75000000  0.59530566  1
  Br  Br18  1  0.41850281  0.58099819  0.76434464  1
  Br  Br19  1  0.09530566  0.25000000  0.40469434  1
  Br  Br20  1  0.58099819  0.76434464  0.41850281  1
  Br  Br21  1  0.08149719  0.73565536  0.91900181  1
  Br  Br22  1  0.26434464  0.08099819  0.91850281  1
  Br  Br23  1  0.58149719  0.41900181  0.23565536  1
  Br  Br24  1  0.23565536  0.58149719  0.41900181  1
  Br  Br25  1  0.59530566  0.90469434  0.75000000  1
  Br  Br26  1  0.91850281  0.26434464  0.08099819  1
  Br  Br27  1  0.91900181  0.08149719  0.73565536  1
