# generated using pymatgen
data_Dy2Fe3Si5
_symmetry_space_group_name_H-M   'P 1'
_cell_length_a   5.48954130
_cell_length_b   10.38521884
_cell_length_c   10.38521884
_cell_angle_alpha   90.00000000
_cell_angle_beta   90.00000000
_cell_angle_gamma   90.00000000
_symmetry_Int_Tables_number   1
_chemical_formula_structural   Dy2Fe3Si5
_chemical_formula_sum   'Dy8 Fe12 Si20'
_cell_volume   592.06223718
_cell_formula_units_Z   4
loop_
 _symmetry_equiv_pos_site_id
 _symmetry_equiv_pos_as_xyz
  1  'x, y, z'
loop_
 _atom_site_type_symbol
 _atom_site_label
 _atom_site_symmetry_multiplicity
 _atom_site_fract_x
 _atom_site_fract_y
 _atom_site_fract_z
 _atom_site_occupancy
  Dy  Dy0  1  0.00000000  0.23723726  0.93223472  1
  Dy  Dy1  1  0.50000000  0.26276274  0.43223472  1
  Dy  Dy2  1  0.00000000  0.06776528  0.23723726  1
  Dy  Dy3  1  0.00000000  0.93223472  0.76276274  1
  Dy  Dy4  1  0.50000000  0.56776528  0.26276274  1
  Dy  Dy5  1  0.50000000  0.73723726  0.56776528  1
  Dy  Dy6  1  0.00000000  0.76276274  0.06776528  1
  Dy  Dy7  1  0.50000000  0.43223472  0.73723726  1
  Fe  Fe8  1  0.00000000  0.37584718  0.35672797  1
  Fe  Fe9  1  0.00000000  0.62415282  0.64327203  1
  Fe  Fe10  1  0.00000000  0.35672797  0.62415282  1
  Fe  Fe11  1  0.50000000  0.14327203  0.12415282  1
  Fe  Fe12  1  0.00000000  0.64327203  0.37584718  1
  Fe  Fe13  1  0.75000000  0.00000000  0.50000000  1
  Fe  Fe14  1  0.50000000  0.87584718  0.14327203  1
  Fe  Fe15  1  0.50000000  0.12415282  0.85672797  1
  Fe  Fe16  1  0.50000000  0.85672797  0.87584718  1
  Fe  Fe17  1  0.25000000  0.00000000  0.50000000  1
  Fe  Fe18  1  0.75000000  0.50000000  0.00000000  1
  Fe  Fe19  1  0.25000000  0.50000000  0.00000000  1
  Si  Si20  1  0.23266559  0.50000000  0.50000000  1
  Si  Si21  1  0.75000000  0.17960840  0.67960840  1
  Si  Si22  1  0.75000000  0.82039160  0.32039160  1
  Si  Si23  1  0.00000000  0.47970336  0.81974174  1
  Si  Si24  1  0.50000000  0.02029664  0.31974174  1
  Si  Si25  1  0.75000000  0.32039160  0.17960840  1
  Si  Si26  1  0.25000000  0.17960840  0.67960840  1
  Si  Si27  1  0.00000000  0.81974174  0.52029664  1
  Si  Si28  1  0.25000000  0.82039160  0.32039160  1
  Si  Si29  1  0.25000000  0.32039160  0.17960840  1
  Si  Si30  1  0.00000000  0.52029664  0.18025826  1
  Si  Si31  1  0.00000000  0.18025826  0.47970336  1
  Si  Si32  1  0.25000000  0.67960840  0.82039160  1
  Si  Si33  1  0.50000000  0.31974174  0.97970336  1
  Si  Si34  1  0.73266559  0.00000000  0.00000000  1
  Si  Si35  1  0.76733441  0.50000000  0.50000000  1
  Si  Si36  1  0.50000000  0.68025826  0.02029664  1
  Si  Si37  1  0.75000000  0.67960840  0.82039160  1
  Si  Si38  1  0.26733441  0.00000000  0.00000000  1
  Si  Si39  1  0.50000000  0.97970336  0.68025826  1
