# generated using pymatgen
data_Gd2Se2O
_symmetry_space_group_name_H-M   'P 1'
_cell_length_a   3.97490752
_cell_length_b   7.10299493
_cell_length_c   16.26515148
_cell_angle_alpha   90.00000000
_cell_angle_beta   90.00000000
_cell_angle_gamma   90.00000000
_symmetry_Int_Tables_number   1
_chemical_formula_structural   Gd2Se2O
_chemical_formula_sum   'Gd8 Se8 O4'
_cell_volume   459.22618745
_cell_formula_units_Z   4
loop_
 _symmetry_equiv_pos_site_id
 _symmetry_equiv_pos_as_xyz
  1  'x, y, z'
loop_
 _atom_site_type_symbol
 _atom_site_label
 _atom_site_symmetry_multiplicity
 _atom_site_fract_x
 _atom_site_fract_y
 _atom_site_fract_z
 _atom_site_occupancy
  Gd  Gd0  1  0.25000000  0.69810714  0.03842646  1
  Gd  Gd1  1  0.75000000  0.74069935  0.83868290  1
  Gd  Gd2  1  0.25000000  0.24069935  0.66131710  1
  Gd  Gd3  1  0.25000000  0.25930065  0.16131710  1
  Gd  Gd4  1  0.25000000  0.80189286  0.53842646  1
  Gd  Gd5  1  0.75000000  0.75930065  0.33868290  1
  Gd  Gd6  1  0.75000000  0.30189286  0.96157354  1
  Gd  Gd7  1  0.75000000  0.19810714  0.46157354  1
  Se  Se8  1  0.75000000  0.55173620  0.17992370  1
  Se  Se9  1  0.75000000  0.49015496  0.59990338  1
  Se  Se10  1  0.25000000  0.44826380  0.82007630  1
  Se  Se11  1  0.75000000  0.00984504  0.09990338  1
  Se  Se12  1  0.25000000  0.05173620  0.32007630  1
  Se  Se13  1  0.25000000  0.99015496  0.90009662  1
  Se  Se14  1  0.75000000  0.94826380  0.67992370  1
  Se  Se15  1  0.25000000  0.50984504  0.40009662  1
  O  O16  1  0.25000000  0.12849399  0.53074247  1
  O  O17  1  0.75000000  0.87150601  0.46925753  1
  O  O18  1  0.75000000  0.62849399  0.96925753  1
  O  O19  1  0.25000000  0.37150601  0.03074247  1
