# generated using pymatgen
data_Fe9Cu9S16
_symmetry_space_group_name_H-M   'P 1'
_cell_length_a   5.21781799
_cell_length_b   10.56372420
_cell_length_c   10.56372420
_cell_angle_alpha   90.00000000
_cell_angle_beta   90.00000000
_cell_angle_gamma   90.00000000
_symmetry_Int_Tables_number   1
_chemical_formula_structural   Fe9Cu9S16
_chemical_formula_sum   'Fe9 Cu9 S16'
_cell_volume   582.26814860
_cell_formula_units_Z   1
loop_
 _symmetry_equiv_pos_site_id
 _symmetry_equiv_pos_as_xyz
  1  'x, y, z'
loop_
 _atom_site_type_symbol
 _atom_site_label
 _atom_site_symmetry_multiplicity
 _atom_site_fract_x
 _atom_site_fract_y
 _atom_site_fract_z
 _atom_site_occupancy
  Cu  Cu0  1  0.48798658  0.24801552  0.24801552  1
  Cu  Cu1  1  0.51201342  0.24801552  0.75198448  1
  Cu  Cu2  1  0.51201342  0.75198448  0.24801552  1
  Cu  Cu3  1  0.48798658  0.75198448  0.75198448  1
  Fe  Fe4  1  0.00000000  0.24802152  0.50000000  1
  Fe  Fe5  1  0.00000000  0.50000000  0.75197848  1
  Fe  Fe6  1  0.00000000  0.50000000  0.24802152  1
  Fe  Fe7  1  0.00000000  0.75197848  0.50000000  1
  Cu  Cu8  1  0.00000000  0.25222684  0.00000000  1
  Cu  Cu9  1  0.00000000  0.00000000  0.74777316  1
  Cu  Cu10  1  0.00000000  0.00000000  0.25222684  1
  Cu  Cu11  1  0.00000000  0.74777316  0.00000000  1
  Fe  Fe12  1  0.50000000  0.50000000  0.00000000  1
  Fe  Fe13  1  0.50000000  0.00000000  0.50000000  1
  Fe  Fe14  1  0.50000000  0.00000000  0.00000000  1
  Cu  Cu15  1  0.50000000  0.50000000  0.50000000  1
  Fe  Fe16  1  0.00000000  0.00000000  0.00000000  1
  Fe  Fe17  1  0.00000000  0.50000000  0.50000000  1
  S  S18  1  0.25138984  0.12495230  0.37546622  1
  S  S19  1  0.74861016  0.37546622  0.87504770  1
  S  S20  1  0.74861016  0.62453378  0.12495230  1
  S  S21  1  0.25138984  0.87504770  0.62453378  1
  S  S22  1  0.74861016  0.12495230  0.62453378  1
  S  S23  1  0.74861016  0.87504770  0.37546622  1
  S  S24  1  0.25138984  0.62453378  0.87504770  1
  S  S25  1  0.25138984  0.37546622  0.12495230  1
  S  S26  1  0.74124866  0.11714370  0.11714370  1
  S  S27  1  0.25875134  0.11714370  0.88285630  1
  S  S28  1  0.25875134  0.88285630  0.11714370  1
  S  S29  1  0.74124866  0.88285630  0.88285630  1
  S  S30  1  0.76147900  0.37451899  0.37451899  1
  S  S31  1  0.23852100  0.37451899  0.62548101  1
  S  S32  1  0.23852100  0.62548101  0.37451899  1
  S  S33  1  0.76147900  0.62548101  0.62548101  1
