# generated using pymatgen
data_Pr5Ga3
_symmetry_space_group_name_H-M   'P 1'
_cell_length_a   7.97173851
_cell_length_b   7.97173851
_cell_length_c   14.71838163
_cell_angle_alpha   90.00000000
_cell_angle_beta   90.00000000
_cell_angle_gamma   90.00000000
_symmetry_Int_Tables_number   1
_chemical_formula_structural   Pr5Ga3
_chemical_formula_sum   'Pr20 Ga12'
_cell_volume   935.33276574
_cell_formula_units_Z   4
loop_
 _symmetry_equiv_pos_site_id
 _symmetry_equiv_pos_as_xyz
  1  'x, y, z'
loop_
 _atom_site_type_symbol
 _atom_site_label
 _atom_site_symmetry_multiplicity
 _atom_site_fract_x
 _atom_site_fract_y
 _atom_site_fract_z
 _atom_site_occupancy
  Pr  Pr0  1  0.56551817  0.09040629  0.60304280  1
  Pr  Pr1  1  0.93448183  0.09040629  0.10304280  1
  Pr  Pr2  1  0.90959371  0.06551817  0.39695720  1
  Pr  Pr3  1  0.75000000  0.75000000  0.71956024  1
  Pr  Pr4  1  0.59040629  0.43448183  0.39695720  1
  Pr  Pr5  1  0.43448183  0.90959371  0.39695720  1
  Pr  Pr6  1  0.40959371  0.56551817  0.60304280  1
  Pr  Pr7  1  0.09040629  0.93448183  0.60304280  1
  Pr  Pr8  1  0.75000000  0.75000000  0.21956024  1
  Pr  Pr9  1  0.40959371  0.93448183  0.10304280  1
  Pr  Pr10  1  0.43448183  0.59040629  0.89695720  1
  Pr  Pr11  1  0.59040629  0.06551817  0.89695720  1
  Pr  Pr12  1  0.06551817  0.59040629  0.39695720  1
  Pr  Pr13  1  0.93448183  0.40959371  0.60304280  1
  Pr  Pr14  1  0.56551817  0.40959371  0.10304280  1
  Pr  Pr15  1  0.06551817  0.90959371  0.89695720  1
  Pr  Pr16  1  0.09040629  0.56551817  0.10304280  1
  Pr  Pr17  1  0.25000000  0.25000000  0.28043976  1
  Pr  Pr18  1  0.90959371  0.43448183  0.89695720  1
  Pr  Pr19  1  0.25000000  0.25000000  0.78043976  1
  Ga  Ga20  1  0.36856989  0.63143011  0.25000000  1
  Ga  Ga21  1  0.86856989  0.13143011  0.75000000  1
  Ga  Ga22  1  0.13143011  0.63143011  0.75000000  1
  Ga  Ga23  1  0.13143011  0.86856989  0.25000000  1
  Ga  Ga24  1  0.63143011  0.13143011  0.25000000  1
  Ga  Ga25  1  0.36856989  0.86856989  0.75000000  1
  Ga  Ga26  1  0.75000000  0.75000000  0.50350552  1
  Ga  Ga27  1  0.63143011  0.36856989  0.75000000  1
  Ga  Ga28  1  0.25000000  0.25000000  0.49649448  1
  Ga  Ga29  1  0.25000000  0.25000000  0.99649448  1
  Ga  Ga30  1  0.86856989  0.36856989  0.25000000  1
  Ga  Ga31  1  0.75000000  0.75000000  0.00350552  1
