# generated using pymatgen
data_Er4NiB13
_symmetry_space_group_name_H-M   'P 1'
_cell_length_a   7.28221776
_cell_length_b   7.28221776
_cell_length_c   6.84472933
_cell_angle_alpha   90.00000000
_cell_angle_beta   90.00000000
_cell_angle_gamma   90.00000000
_symmetry_Int_Tables_number   1
_chemical_formula_structural   Er4NiB13
_chemical_formula_sum   'Er8 Ni2 B26'
_cell_volume   362.98075691
_cell_formula_units_Z   2
loop_
 _symmetry_equiv_pos_site_id
 _symmetry_equiv_pos_as_xyz
  1  'x, y, z'
loop_
 _atom_site_type_symbol
 _atom_site_label
 _atom_site_symmetry_multiplicity
 _atom_site_fract_x
 _atom_site_fract_y
 _atom_site_fract_z
 _atom_site_occupancy
  Er  Er0  1  0.68000512  0.81521386  0.00000000  1
  Er  Er1  1  0.18478614  0.68000512  0.00000000  1
  Er  Er2  1  0.18000512  0.68478614  0.50000000  1
  Er  Er3  1  0.81521386  0.31999488  0.00000000  1
  Er  Er4  1  0.31521386  0.18000512  0.50000000  1
  Er  Er5  1  0.68478614  0.81999488  0.50000000  1
  Er  Er6  1  0.31999488  0.18478614  0.00000000  1
  Er  Er7  1  0.81999488  0.31521386  0.50000000  1
  Ni  Ni8  1  -0.00000000  0.00000000  0.00000000  1
  Ni  Ni9  1  0.50000000  0.50000000  0.50000000  1
  B  B10  1  0.46021804  0.67070795  0.24316661  1
  B  B11  1  0.09196677  0.40803323  0.25000000  1
  B  B12  1  0.96021804  0.82929205  0.74316661  1
  B  B13  1  0.32929205  0.46021804  0.75683339  1
  B  B14  1  0.50000000  0.50000000  0.00000000  1
  B  B15  1  0.40803323  0.90803323  0.25000000  1
  B  B16  1  0.96021804  0.82929205  0.25683339  1
  B  B17  1  0.17070795  0.96021804  0.25683339  1
  B  B18  1  0.82929205  0.03978196  0.25683339  1
  B  B19  1  0.82929205  0.03978196  0.74316661  1
  B  B20  1  0.53978196  0.32929205  0.24316661  1
  B  B21  1  0.59196677  0.09196677  0.75000000  1
  B  B22  1  0.17070795  0.96021804  0.74316661  1
  B  B23  1  0.59196677  0.09196677  0.25000000  1
  B  B24  1  0.00000000  -0.00000000  0.50000000  1
  B  B25  1  0.67070795  0.53978196  0.24316661  1
  B  B26  1  0.09196677  0.40803323  0.75000000  1
  B  B27  1  0.90803323  0.59196677  0.25000000  1
  B  B28  1  0.40803323  0.90803323  0.75000000  1
  B  B29  1  0.53978196  0.32929205  0.75683339  1
  B  B30  1  0.46021804  0.67070795  0.75683339  1
  B  B31  1  0.32929205  0.46021804  0.24316661  1
  B  B32  1  0.90803323  0.59196677  0.75000000  1
  B  B33  1  0.03978196  0.17070795  0.25683339  1
  B  B34  1  0.03978196  0.17070795  0.74316661  1
  B  B35  1  0.67070795  0.53978196  0.75683339  1
