# generated using pymatgen
data_Nd5In11Ni6
_symmetry_space_group_name_H-M   'P 1'
_cell_length_a   4.41144014
_cell_length_b   10.37499519
_cell_length_c   10.37499475
_cell_angle_alpha   90.19344263
_cell_angle_beta   90.00000000
_cell_angle_gamma   90.00000000
_symmetry_Int_Tables_number   1
_chemical_formula_structural   Nd5In11Ni6
_chemical_formula_sum   'Nd5 In11 Ni6'
_cell_volume   474.84700715
_cell_formula_units_Z   1
loop_
 _symmetry_equiv_pos_site_id
 _symmetry_equiv_pos_as_xyz
  1  'x, y, z'
loop_
 _atom_site_type_symbol
 _atom_site_label
 _atom_site_symmetry_multiplicity
 _atom_site_fract_x
 _atom_site_fract_y
 _atom_site_fract_z
 _atom_site_occupancy
  Nd  Nd0  1  0.00000000  0.03685674  0.31018005  1
  Nd  Nd1  1  0.00000000  0.96314326  0.68981995  1
  Nd  Nd2  1  0.00000000  0.31018005  0.03685674  1
  Nd  Nd3  1  0.50000000  0.50000000  0.50000000  1
  Nd  Nd4  1  0.00000000  0.68981995  0.96314326  1
  In  In5  1  0.50000000  0.84910432  0.46361749  1
  In  In6  1  0.50000000  0.83952223  0.16047777  1
  In  In7  1  0.50000000  0.72493979  0.72493979  1
  In  In8  1  0.50000000  0.46361749  0.84910432  1
  In  In9  1  0.50000000  0.27506021  0.27506021  1
  In  In10  1  0.00000000  0.69604226  0.30395774  1
  In  In11  1  0.00000000  0.30395774  0.69604226  1
  In  In12  1  0.50000000  0.53638251  0.15089568  1
  In  In13  1  0.50000000  0.15089568  0.53638251  1
  In  In14  1  0.50000000  0.16047777  0.83952223  1
  In  In15  1  0.00000000  0.00000000  0.00000000  1
  Ni  Ni16  1  0.50000000  0.90596401  0.90596401  1
  Ni  Ni17  1  0.50000000  0.09403599  0.09403599  1
  Ni  Ni18  1  0.00000000  0.27925855  0.44528344  1
  Ni  Ni19  1  0.00000000  0.72074145  0.55471656  1
  Ni  Ni20  1  0.00000000  0.55471656  0.72074145  1
  Ni  Ni21  1  0.00000000  0.44528344  0.27925855  1
