# generated using pymatgen
data_CeInAg2
_symmetry_space_group_name_H-M   'P 1'
_cell_length_a   5.05044682
_cell_length_b   5.05067524
_cell_length_c   5.05039470
_cell_angle_alpha   60.00139918
_cell_angle_beta   60.00478781
_cell_angle_gamma   60.00134620
_symmetry_Int_Tables_number   1
_chemical_formula_structural   CeInAg2
_chemical_formula_sum   'Ce1 In1 Ag2'
_cell_volume   91.09914345
_cell_formula_units_Z   1
loop_
 _symmetry_equiv_pos_site_id
 _symmetry_equiv_pos_as_xyz
  1  'x, y, z'
loop_
 _atom_site_type_symbol
 _atom_site_label
 _atom_site_symmetry_multiplicity
 _atom_site_fract_x
 _atom_site_fract_y
 _atom_site_fract_z
 _atom_site_occupancy
  Ce  Ce0  1  0.00000245  -0.00000087  0.00000205  1
  In  In1  1  0.49999921  0.49999709  0.50000271  1
  Ag  Ag2  1  0.24999619  0.24999783  0.24999113  1
  Ag  Ag3  1  0.75000215  0.75000594  0.75000411  1
