# generated using pymatgen
data_TaAsPCl13
_symmetry_space_group_name_H-M   'P 1'
_cell_length_a   9.68270897
_cell_length_b   9.68270890
_cell_length_c   12.08862537
_cell_angle_alpha   90.00000000
_cell_angle_beta   90.00000000
_cell_angle_gamma   114.93167167
_symmetry_Int_Tables_number   1
_chemical_formula_structural   TaAsPCl13
_chemical_formula_sum   'Ta2 As2 P2 Cl26'
_cell_volume   1027.75007834
_cell_formula_units_Z   2
loop_
 _symmetry_equiv_pos_site_id
 _symmetry_equiv_pos_as_xyz
  1  'x, y, z'
loop_
 _atom_site_type_symbol
 _atom_site_label
 _atom_site_symmetry_multiplicity
 _atom_site_fract_x
 _atom_site_fract_y
 _atom_site_fract_z
 _atom_site_occupancy
  Ta  Ta0  1  0.79589008  0.20410992  0.49753029  1
  Ta  Ta1  1  0.20410992  0.79589008  0.99753029  1
  As  As2  1  0.54597155  0.45402845  0.34613670  1
  As  As3  1  0.45402845  0.54597155  0.84613670  1
  P  P4  1  0.14236348  0.85763652  0.53332279  1
  P  P5  1  0.85763652  0.14236348  0.03332279  1
  Cl  Cl6  1  0.24215539  0.06516102  0.59216384  1
  Cl  Cl7  1  0.32355634  0.67644366  0.10883265  1
  Cl  Cl8  1  0.70280601  0.62292165  0.86649885  1
  Cl  Cl9  1  0.55313330  0.44686670  0.16253606  1
  Cl  Cl10  1  0.01525441  0.30672693  0.61063798  1
  Cl  Cl11  1  0.93483898  0.75784461  0.59216384  1
  Cl  Cl12  1  0.25704039  0.74295961  0.58172590  1
  Cl  Cl13  1  0.98474559  0.69327307  0.11063798  1
  Cl  Cl14  1  0.06516102  0.24215539  0.09216384  1
  Cl  Cl15  1  0.89815280  0.42409733  0.38150103  1
  Cl  Cl16  1  0.69327307  0.98474559  0.61063798  1
  Cl  Cl17  1  0.42409733  0.89815280  0.88150103  1
  Cl  Cl18  1  0.37707835  0.29719399  0.86649885  1
  Cl  Cl19  1  0.86100138  0.13899862  0.87191887  1
  Cl  Cl20  1  0.29719399  0.37707835  0.36649885  1
  Cl  Cl21  1  0.13899862  0.86100138  0.37191887  1
  Cl  Cl22  1  0.62292165  0.70280601  0.36649885  1
  Cl  Cl23  1  0.75784461  0.93483898  0.09216384  1
  Cl  Cl24  1  0.08545561  0.91454439  0.88269334  1
  Cl  Cl25  1  0.91454439  0.08545561  0.38269334  1
  Cl  Cl26  1  0.44686670  0.55313330  0.66253606  1
  Cl  Cl27  1  0.30672693  0.01525441  0.11063798  1
  Cl  Cl28  1  0.57590267  0.10184720  0.38150103  1
  Cl  Cl29  1  0.74295961  0.25704039  0.08172590  1
  Cl  Cl30  1  0.67644366  0.32355634  0.60883265  1
  Cl  Cl31  1  0.10184720  0.57590267  0.88150103  1
