# generated using pymatgen
data_TeS7Cl2
_symmetry_space_group_name_H-M   'P 1'
_cell_length_a   9.20488591
_cell_length_b   9.89320013
_cell_length_c   14.32853042
_cell_angle_alpha   90.00000000
_cell_angle_beta   90.00000000
_cell_angle_gamma   90.00000000
_symmetry_Int_Tables_number   1
_chemical_formula_structural   TeS7Cl2
_chemical_formula_sum   'Te4 S28 Cl8'
_cell_volume   1304.83877719
_cell_formula_units_Z   4
loop_
 _symmetry_equiv_pos_site_id
 _symmetry_equiv_pos_as_xyz
  1  'x, y, z'
loop_
 _atom_site_type_symbol
 _atom_site_label
 _atom_site_symmetry_multiplicity
 _atom_site_fract_x
 _atom_site_fract_y
 _atom_site_fract_z
 _atom_site_occupancy
  Te  Te0  1  0.75000000  0.82370701  0.10359975  1
  Te  Te1  1  0.25000000  0.67629299  0.60359975  1
  Te  Te2  1  0.25000000  0.17629299  0.89640025  1
  Te  Te3  1  0.75000000  0.32370701  0.39640025  1
  S  S4  1  0.56797640  0.13573662  0.68513292  1
  S  S5  1  0.56797640  0.63573662  0.81486708  1
  S  S6  1  0.03543551  0.30366670  0.95986517  1
  S  S7  1  0.75000000  0.72122638  0.75549838  1
  S  S8  1  0.97754750  0.23373365  0.08640914  1
  S  S9  1  0.06797640  0.86426338  0.31486708  1
  S  S10  1  0.53543551  0.69633330  0.04013483  1
  S  S11  1  0.97754750  0.73373365  0.41359086  1
  S  S12  1  0.25000000  0.77877362  0.25549838  1
  S  S13  1  0.52245250  0.23373365  0.08640914  1
  S  S14  1  0.47754750  0.26626635  0.58640914  1
  S  S15  1  0.02245250  0.26626635  0.58640914  1
  S  S16  1  0.47754750  0.76626635  0.91359086  1
  S  S17  1  0.52245250  0.73373365  0.41359086  1
  S  S18  1  0.46456449  0.80366670  0.54013483  1
  S  S19  1  0.43202360  0.86426338  0.31486708  1
  S  S20  1  0.06797640  0.36426338  0.18513292  1
  S  S21  1  0.93202360  0.63573662  0.81486708  1
  S  S22  1  0.25000000  0.27877362  0.24450162  1
  S  S23  1  0.93202360  0.13573662  0.68513292  1
  S  S24  1  0.43202360  0.36426338  0.18513292  1
  S  S25  1  0.96456449  0.69633330  0.04013483  1
  S  S26  1  0.75000000  0.22122638  0.74450162  1
  S  S27  1  0.03543551  0.80366670  0.54013483  1
  S  S28  1  0.02245250  0.76626635  0.91359086  1
  S  S29  1  0.46456449  0.30366670  0.95986517  1
  S  S30  1  0.53543551  0.19633330  0.45986517  1
  S  S31  1  0.96456449  0.19633330  0.45986517  1
  Cl  Cl32  1  0.25000000  0.38168341  0.79013225  1
  Cl  Cl33  1  0.75000000  0.48546267  0.52587960  1
  Cl  Cl34  1  0.25000000  0.51453733  0.47412040  1
  Cl  Cl35  1  0.75000000  0.61831659  0.20986775  1
  Cl  Cl36  1  0.75000000  0.98546267  0.97412040  1
  Cl  Cl37  1  0.25000000  0.01453733  0.02587960  1
  Cl  Cl38  1  0.75000000  0.11831659  0.29013225  1
  Cl  Cl39  1  0.25000000  0.88168341  0.70986775  1
