# generated using pymatgen
data_PtI4
_symmetry_space_group_name_H-M   'P 1'
_cell_length_a   6.99013968
_cell_length_b   13.42838627
_cell_length_c   16.00808968
_cell_angle_alpha   90.00000000
_cell_angle_beta   90.00000000
_cell_angle_gamma   90.00000000
_symmetry_Int_Tables_number   1
_chemical_formula_structural   PtI4
_chemical_formula_sum   'Pt8 I32'
_cell_volume   1502.62007956
_cell_formula_units_Z   8
loop_
 _symmetry_equiv_pos_site_id
 _symmetry_equiv_pos_as_xyz
  1  'x, y, z'
loop_
 _atom_site_type_symbol
 _atom_site_label
 _atom_site_symmetry_multiplicity
 _atom_site_fract_x
 _atom_site_fract_y
 _atom_site_fract_z
 _atom_site_occupancy
  Pt  Pt0  1  0.59471182  0.66156909  0.68864086  1
  Pt  Pt1  1  0.09471182  0.83843091  0.31135914  1
  Pt  Pt2  1  0.90528818  0.16156909  0.68864086  1
  Pt  Pt3  1  0.40528818  0.33843091  0.31135914  1
  Pt  Pt4  1  0.40528818  0.16156909  0.81135914  1
  Pt  Pt5  1  0.59471182  0.83843091  0.18864086  1
  Pt  Pt6  1  0.90528818  0.33843091  0.18864086  1
  Pt  Pt7  1  0.09471182  0.66156909  0.81135914  1
  I  I8  1  0.21833003  0.45294463  0.18704106  1
  I  I9  1  0.74665870  0.45161095  0.06857538  1
  I  I10  1  0.58574129  0.27167152  0.69285106  1
  I  I11  1  0.75334130  0.54838905  0.56857538  1
  I  I12  1  0.28166997  0.95294463  0.18704106  1
  I  I13  1  0.05856600  0.21697260  0.07023949  1
  I  I14  1  0.44143400  0.78302740  0.57023949  1
  I  I15  1  0.25334130  0.54838905  0.93142462  1
  I  I16  1  0.05856600  0.28302740  0.57023949  1
  I  I17  1  0.91425871  0.72832848  0.19285106  1
  I  I18  1  0.55856600  0.28302740  0.92976051  1
  I  I19  1  0.44143400  0.71697260  0.07023949  1
  I  I20  1  0.24665870  0.45161095  0.43142462  1
  I  I21  1  0.41425871  0.72832848  0.30714894  1
  I  I22  1  0.24665870  0.04838905  0.93142462  1
  I  I23  1  0.91425871  0.77167152  0.69285106  1
  I  I24  1  0.58574129  0.22832848  0.19285106  1
  I  I25  1  0.55856600  0.21697260  0.42976051  1
  I  I26  1  0.08574129  0.22832848  0.30714894  1
  I  I27  1  0.21833003  0.04705537  0.68704106  1
  I  I28  1  0.71833003  0.45294463  0.31295894  1
  I  I29  1  0.74665870  0.04838905  0.56857538  1
  I  I30  1  0.78166997  0.54705537  0.81295894  1
  I  I31  1  0.94143400  0.78302740  0.92976051  1
  I  I32  1  0.28166997  0.54705537  0.68704106  1
  I  I33  1  0.25334130  0.95161095  0.43142462  1
  I  I34  1  0.41425871  0.77167152  0.80714894  1
  I  I35  1  0.71833003  0.04705537  0.81295894  1
  I  I36  1  0.94143400  0.71697260  0.42976051  1
  I  I37  1  0.08574129  0.27167152  0.80714894  1
  I  I38  1  0.75334130  0.95161095  0.06857538  1
  I  I39  1  0.78166997  0.95294463  0.31295894  1
