# generated using pymatgen
data_CsGaBr4
_symmetry_space_group_name_H-M   'P 1'
_cell_length_a   7.69935555
_cell_length_b   10.27785856
_cell_length_c   12.57022381
_cell_angle_alpha   90.00000000
_cell_angle_beta   90.00000000
_cell_angle_gamma   90.00000000
_symmetry_Int_Tables_number   1
_chemical_formula_structural   CsGaBr4
_chemical_formula_sum   'Cs4 Ga4 Br16'
_cell_volume   994.71810467
_cell_formula_units_Z   4
loop_
 _symmetry_equiv_pos_site_id
 _symmetry_equiv_pos_as_xyz
  1  'x, y, z'
loop_
 _atom_site_type_symbol
 _atom_site_label
 _atom_site_symmetry_multiplicity
 _atom_site_fract_x
 _atom_site_fract_y
 _atom_site_fract_z
 _atom_site_occupancy
  Cs  Cs0  1  0.75000000  0.67309736  0.31933065  1
  Cs  Cs1  1  0.25000000  0.17309736  0.18066935  1
  Cs  Cs2  1  0.75000000  0.82690264  0.81933065  1
  Cs  Cs3  1  0.25000000  0.32690264  0.68066935  1
  Ga  Ga4  1  0.75000000  0.19050381  0.43094788  1
  Ga  Ga5  1  0.25000000  0.69050381  0.06905212  1
  Ga  Ga6  1  0.25000000  0.80949619  0.56905212  1
  Ga  Ga7  1  0.75000000  0.30949619  0.93094788  1
  Br  Br8  1  0.25000000  0.57727279  0.90712242  1
  Br  Br9  1  0.49701681  0.82778111  0.08116239  1
  Br  Br10  1  0.49701681  0.67221889  0.58116239  1
  Br  Br11  1  0.75000000  0.44912288  0.78185077  1
  Br  Br12  1  0.50298319  0.32778111  0.41883761  1
  Br  Br13  1  0.50298319  0.17221889  0.91883761  1
  Br  Br14  1  0.00298319  0.82778111  0.08116239  1
  Br  Br15  1  0.25000000  0.94912288  0.71814923  1
  Br  Br16  1  0.25000000  0.55087712  0.21814923  1
  Br  Br17  1  0.99701681  0.17221889  0.91883761  1
  Br  Br18  1  0.75000000  0.05087712  0.28185077  1
  Br  Br19  1  0.75000000  0.07727279  0.59287758  1
  Br  Br20  1  0.00298319  0.67221889  0.58116239  1
  Br  Br21  1  0.99701681  0.32778111  0.41883761  1
  Br  Br22  1  0.75000000  0.42272721  0.09287758  1
  Br  Br23  1  0.25000000  0.92272721  0.40712242  1
