# generated using pymatgen
data_La2Al3Ge4
_symmetry_space_group_name_H-M   'P 1'
_cell_length_a   6.14907339
_cell_length_b   8.06974578
_cell_length_c   8.23930473
_cell_angle_alpha   90.00000000
_cell_angle_beta   111.91031972
_cell_angle_gamma   90.00000000
_symmetry_Int_Tables_number   1
_chemical_formula_structural   La2Al3Ge4
_chemical_formula_sum   'La4 Al6 Ge8'
_cell_volume   379.31496793
_cell_formula_units_Z   2
loop_
 _symmetry_equiv_pos_site_id
 _symmetry_equiv_pos_as_xyz
  1  'x, y, z'
loop_
 _atom_site_type_symbol
 _atom_site_label
 _atom_site_symmetry_multiplicity
 _atom_site_fract_x
 _atom_site_fract_y
 _atom_site_fract_z
 _atom_site_occupancy
  La  La0  1  0.11396804  0.58304431  0.22793609  1
  La  La1  1  0.38603196  0.08304431  0.77206391  1
  La  La2  1  0.61396804  0.91695569  0.22793609  1
  La  La3  1  0.88603196  0.41695569  0.77206391  1
  Al  Al4  1  0.03435848  0.75000000  0.56871697  1
  Al  Al5  1  -0.00000000  0.00000000  0.00000000  1
  Al  Al6  1  0.53435848  0.75000000  0.56871697  1
  Al  Al7  1  0.50000000  0.50000000  0.00000000  1
  Al  Al8  1  0.96564152  0.25000000  0.43128303  1
  Al  Al9  1  0.46564152  0.25000000  0.43128303  1
  Ge  Ge10  1  0.70115796  0.75000000  0.90231592  1
  Ge  Ge11  1  0.20115796  0.75000000  0.90231592  1
  Ge  Ge12  1  0.29884204  0.25000000  0.09768408  1
  Ge  Ge13  1  0.68687275  0.55189892  0.37374551  1
  Ge  Ge14  1  0.79884204  0.25000000  0.09768408  1
  Ge  Ge15  1  0.81312725  0.05189892  0.62625449  1
  Ge  Ge16  1  0.18687275  0.94810108  0.37374551  1
  Ge  Ge17  1  0.31312725  0.44810108  0.62625449  1
