# generated using pymatgen
data_Nd(Sn2Rh)2
_symmetry_space_group_name_H-M   'P 1'
_cell_length_a   4.52594087
_cell_length_b   7.25809234
_cell_length_c   18.70703960
_cell_angle_alpha   89.99978056
_cell_angle_beta   89.99993308
_cell_angle_gamma   89.99990956
_symmetry_Int_Tables_number   1
_chemical_formula_structural   Nd(Sn2Rh)2
_chemical_formula_sum   'Nd4 Sn16 Rh8'
_cell_volume   614.52057813
_cell_formula_units_Z   4
loop_
 _symmetry_equiv_pos_site_id
 _symmetry_equiv_pos_as_xyz
  1  'x, y, z'
loop_
 _atom_site_type_symbol
 _atom_site_label
 _atom_site_symmetry_multiplicity
 _atom_site_fract_x
 _atom_site_fract_y
 _atom_site_fract_z
 _atom_site_occupancy
  Nd  Nd0  1  0.25000361  0.50240694  0.35820239  1
  Nd  Nd1  1  0.74999695  0.49755751  0.64179183  1
  Nd  Nd2  1  0.75000056  0.00242464  0.14178001  1
  Nd  Nd3  1  0.25000003  0.99755609  0.85823596  1
  Sn  Sn4  1  0.24999878  0.77750000  0.69469099  1
  Sn  Sn5  1  0.75000139  0.48332888  0.06819888  1
  Sn  Sn6  1  0.75000193  0.80206950  0.31789460  1
  Sn  Sn7  1  0.24999944  0.63468582  0.53147280  1
  Sn  Sn8  1  0.74998468  0.69794333  0.81791042  1
  Sn  Sn9  1  0.25000011  0.98333753  0.43179171  1
  Sn  Sn10  1  0.75000476  0.36531564  0.46850273  1
  Sn  Sn11  1  0.24999990  0.86533853  0.03150718  1
  Sn  Sn12  1  0.24999949  0.19790955  0.68209528  1
  Sn  Sn13  1  0.75000049  0.01665776  0.56819417  1
  Sn  Sn14  1  0.75000325  0.22247077  0.30531116  1
  Sn  Sn15  1  0.25000133  0.51669209  0.93181492  1
  Sn  Sn16  1  0.74999978  0.27750196  0.80531457  1
  Sn  Sn17  1  0.75000147  0.13469836  0.96852938  1
  Sn  Sn18  1  0.25000046  0.72247191  0.19469072  1
  Sn  Sn19  1  0.25000182  0.30202458  0.18211340  1
  Rh  Rh20  1  0.25000216  0.01732467  0.28620214  1
  Rh  Rh21  1  0.24999877  0.25019301  0.53499446  1
  Rh  Rh22  1  0.75000059  0.75024305  0.96499249  1
  Rh  Rh23  1  0.24999923  0.48268031  0.78628779  1
  Rh  Rh24  1  0.24999987  0.24987967  0.03501616  1
  Rh  Rh25  1  0.75000111  0.74978191  0.46496439  1
  Rh  Rh26  1  0.74999923  0.51732736  0.21373209  1
  Rh  Rh27  1  0.74999880  0.98267864  0.71376739  1
