# generated using pymatgen
data_YbSeClO3
_symmetry_space_group_name_H-M   'P 1'
_cell_length_a   7.24369374
_cell_length_b   7.45258827
_cell_length_c   8.66532991
_cell_angle_alpha   89.84796077
_cell_angle_beta   89.99980068
_cell_angle_gamma   90.00010601
_symmetry_Int_Tables_number   1
_chemical_formula_structural   YbSeClO3
_chemical_formula_sum   'Yb4 Se4 Cl4 O12'
_cell_volume   467.78983623
_cell_formula_units_Z   4
loop_
 _symmetry_equiv_pos_site_id
 _symmetry_equiv_pos_as_xyz
  1  'x, y, z'
loop_
 _atom_site_type_symbol
 _atom_site_label
 _atom_site_symmetry_multiplicity
 _atom_site_fract_x
 _atom_site_fract_y
 _atom_site_fract_z
 _atom_site_occupancy
  Yb  Yb0  1  0.24999932  0.60995800  0.05325694  1
  Yb  Yb1  1  0.24999986  0.10990699  0.44661089  1
  Yb  Yb2  1  0.75000047  0.39003002  0.94660342  1
  Yb  Yb3  1  0.74999971  0.89002585  0.55355258  1
  Se  Se4  1  0.75000015  0.27025783  0.38128293  1
  Se  Se5  1  0.25000123  0.22981772  0.88074027  1
  Se  Se6  1  0.25000253  0.72965603  0.61872350  1
  Se  Se7  1  0.74999873  0.76996730  0.11891103  1
  Cl  Cl8  1  0.74999874  0.02730230  0.85291511  1
  Cl  Cl9  1  0.24999937  0.97282480  0.14704436  1
  Cl  Cl10  1  0.75000074  0.52733017  0.64738699  1
  Cl  Cl11  1  0.25000081  0.47275282  0.35263471  1
  O  O12  1  0.92888574  0.63991192  0.05814100  1
  O  O13  1  0.92875741  0.13984146  0.44191045  1
  O  O14  1  0.07101767  0.36022505  0.94186791  1
  O  O15  1  0.42876328  0.86012089  0.55812200  1
  O  O16  1  0.42898208  0.36022446  0.94186745  1
  O  O17  1  0.24999992  0.72798537  0.81286907  1
  O  O18  1  0.57111341  0.63991271  0.05814161  1
  O  O19  1  0.25000031  0.22839699  0.68748733  1
  O  O20  1  0.75000041  0.27196242  0.18704315  1
  O  O21  1  0.74999986  0.77162441  0.31285506  1
  O  O22  1  0.07123473  0.86012181  0.55812222  1
  O  O23  1  0.57124353  0.13984268  0.44191000  1
