# generated using pymatgen
data_Na7Cu3O8
_symmetry_space_group_name_H-M   'P 1'
_cell_length_a   5.66313492
_cell_length_b   6.13509763
_cell_length_c   7.95920530
_cell_angle_alpha   109.62849376
_cell_angle_beta   108.27786849
_cell_angle_gamma   89.78636652
_symmetry_Int_Tables_number   1
_chemical_formula_structural   Na7Cu3O8
_chemical_formula_sum   'Na7 Cu3 O8'
_cell_volume   245.72139500
_cell_formula_units_Z   1
loop_
 _symmetry_equiv_pos_site_id
 _symmetry_equiv_pos_as_xyz
  1  'x, y, z'
loop_
 _atom_site_type_symbol
 _atom_site_label
 _atom_site_symmetry_multiplicity
 _atom_site_fract_x
 _atom_site_fract_y
 _atom_site_fract_z
 _atom_site_occupancy
  Na  Na0  1  0.00000000  0.00000000  0.50000000  1
  Na  Na1  1  0.25377923  0.36800111  0.94314338  1
  Na  Na2  1  0.74622077  0.63199889  0.05685662  1
  Na  Na3  1  0.37979641  0.83958392  0.28969110  1
  Na  Na4  1  0.62020359  0.16041608  0.71030890  1
  Na  Na5  1  0.28681911  0.39047261  0.38533783  1
  Na  Na6  1  0.71318089  0.60952739  0.61466217  1
  Cu  Cu7  1  0.00000000  0.00000000  0.00000000  1
  Cu  Cu8  1  0.25389847  0.75193517  0.76151751  1
  Cu  Cu9  1  0.74610153  0.24806483  0.23848249  1
  O  O10  1  0.65061577  0.19080005  0.42195972  1
  O  O11  1  0.34938423  0.80919995  0.57804028  1
  O  O12  1  0.86971545  0.28121511  0.05078822  1
  O  O13  1  0.13028455  0.71878489  0.94921178  1
  O  O14  1  0.96253087  0.00873207  0.22248638  1
  O  O15  1  0.03746913  0.99126793  0.77751362  1
  O  O16  1  0.43200870  0.50209696  0.75389159  1
  O  O17  1  0.56799130  0.49790304  0.24610841  1
