# generated using pymatgen
data_NaErF4
_symmetry_space_group_name_H-M   'P 1'
_cell_length_a   7.71395098
_cell_length_b   10.14428380
_cell_length_c   6.58832353
_cell_angle_alpha   29.30484025
_cell_angle_beta   54.16694371
_cell_angle_gamma   40.50045908
_symmetry_Int_Tables_number   1
_chemical_formula_structural   NaErF4
_chemical_formula_sum   'Na2 Er2 F8'
_cell_volume   158.91691193
_cell_formula_units_Z   2
loop_
 _symmetry_equiv_pos_site_id
 _symmetry_equiv_pos_as_xyz
  1  'x, y, z'
loop_
 _atom_site_type_symbol
 _atom_site_label
 _atom_site_symmetry_multiplicity
 _atom_site_fract_x
 _atom_site_fract_y
 _atom_site_fract_z
 _atom_site_occupancy
  Na  Na0  1  0.00005804  -0.00005497  0.00005499  1
  Na  Na1  1  0.74995224  0.50005587  0.99993975  1
  Er  Er2  1  0.50000157  0.00001876  -0.00000059  1
  Er  Er3  1  0.25001017  0.49999795  -0.00000178  1
  F  F4  1  0.14678406  0.97818045  0.27185217  1
  F  F5  1  0.60319674  0.02181892  0.22813504  1
  F  F6  1  0.37499492  0.02181595  0.72816482  1
  F  F7  1  0.37500820  0.47816081  0.27182805  1
  F  F8  1  0.14680348  0.47817635  0.77186469  1
  F  F9  1  0.87500087  0.97815578  0.77185377  1
  F  F10  1  0.87499236  0.52183319  0.22816797  1
  F  F11  1  0.60319735  0.52184095  0.72814113  1
