# generated using pymatgen
data_KCaNd(PO4)2
_symmetry_space_group_name_H-M   'P 1'
_cell_length_a   7.09125197
_cell_length_b   7.09125227
_cell_length_c   12.90141291
_cell_angle_alpha   90.00000000
_cell_angle_beta   90.00000000
_cell_angle_gamma   119.99999862
_symmetry_Int_Tables_number   1
_chemical_formula_structural   KCaNd(PO4)2
_chemical_formula_sum   'K3 Ca3 Nd3 P6 O24'
_cell_volume   561.84143618
_cell_formula_units_Z   3
loop_
 _symmetry_equiv_pos_site_id
 _symmetry_equiv_pos_as_xyz
  1  'x, y, z'
loop_
 _atom_site_type_symbol
 _atom_site_label
 _atom_site_symmetry_multiplicity
 _atom_site_fract_x
 _atom_site_fract_y
 _atom_site_fract_z
 _atom_site_occupancy
  K  K0  1  0.00000000  0.00000000  0.24721049  1
  K  K1  1  0.00000000  0.00000000  0.58054349  1
  K  K2  1  0.00000000  0.00000000  0.91387749  1
  Ca  Ca3  1  0.00000000  0.50000000  0.83144173  1
  Ca  Ca4  1  0.50000000  0.50000000  0.16477573  1
  Ca  Ca5  1  0.50000000  0.00000000  0.49810873  1
  Nd  Nd6  1  0.50000000  0.50000000  0.66845799  1
  Nd  Nd7  1  0.50000000  0.00000000  0.00179099  1
  Nd  Nd8  1  0.00000000  0.50000000  0.33512399  1
  P  P9  1  0.50000000  0.50000000  0.41908838  1
  P  P10  1  0.50000000  0.50000000  0.91468710  1
  P  P11  1  0.50000000  0.00000000  0.24802010  1
  P  P12  1  0.50000000  0.00000000  0.75242138  1
  P  P13  1  0.00000000  0.50000000  0.08575438  1
  P  P14  1  0.00000000  0.50000000  0.58135310  1
  O  O15  1  0.13418610  0.69722555  0.01314070  1
  O  O16  1  0.13559810  0.69665237  0.50804497  1
  O  O17  1  0.30209184  0.86569932  0.32018063  1
  O  O18  1  0.30392197  0.86455907  0.82652386  1
  O  O19  1  0.13544093  0.43936290  0.15985686  1
  O  O20  1  0.13430068  0.43639253  0.65351363  1
  O  O21  1  0.30277445  0.43696054  0.34647470  1
  O  O22  1  0.30334763  0.43894573  0.84137897  1
  O  O23  1  0.56105427  0.86440190  0.17471197  1
  O  O24  1  0.56303946  0.86581390  0.67980770  1
  O  O25  1  0.56063710  0.69607803  0.49319086  1
  O  O26  1  0.56360747  0.69790816  0.98684763  1
  O  O27  1  0.43936290  0.30392197  0.49319086  1
  O  O28  1  0.43639253  0.30209184  0.98684763  1
  O  O29  1  0.43894573  0.13559810  0.17471197  1
  O  O30  1  0.43696054  0.13418610  0.67980770  1
  O  O31  1  0.69722555  0.56303946  0.34647470  1
  O  O32  1  0.69665237  0.56105427  0.84137897  1
  O  O33  1  0.86455907  0.56063710  0.15985686  1
  O  O34  1  0.86569932  0.56360747  0.65351363  1
  O  O35  1  0.69790816  0.13430068  0.32018063  1
  O  O36  1  0.69607803  0.13544093  0.82652386  1
  O  O37  1  0.86440190  0.30334763  0.50804497  1
  O  O38  1  0.86581390  0.30277445  0.01314070  1
