# generated using pymatgen
data_Li10Pb3
_symmetry_space_group_name_H-M   'P 1'
_cell_length_a   10.11005482
_cell_length_b   10.11005482
_cell_length_c   10.11005482
_cell_angle_alpha   90.00000000
_cell_angle_beta   90.00000000
_cell_angle_gamma   90.00000000
_symmetry_Int_Tables_number   1
_chemical_formula_structural   Li10Pb3
_chemical_formula_sum   'Li40 Pb12'
_cell_volume   1033.38114089
_cell_formula_units_Z   4
loop_
 _symmetry_equiv_pos_site_id
 _symmetry_equiv_pos_as_xyz
  1  'x, y, z'
loop_
 _atom_site_type_symbol
 _atom_site_label
 _atom_site_symmetry_multiplicity
 _atom_site_fract_x
 _atom_site_fract_y
 _atom_site_fract_z
 _atom_site_occupancy
  Li  Li0  1  0.11146544  0.11146544  0.11146544  1
  Li  Li1  1  0.88853456  0.11146544  0.88853456  1
  Li  Li2  1  0.88853456  0.88853456  0.11146544  1
  Li  Li3  1  0.11146544  0.88853456  0.88853456  1
  Li  Li4  1  0.60535059  0.60535059  0.60535059  1
  Li  Li5  1  0.39464941  0.60535059  0.39464941  1
  Li  Li6  1  0.39464941  0.39464941  0.60535059  1
  Li  Li7  1  0.60535059  0.39464941  0.39464941  1
  Li  Li8  1  0.81863363  0.81863363  0.81863363  1
  Li  Li9  1  0.18136637  0.81863363  0.18136637  1
  Li  Li10  1  0.18136637  0.18136637  0.81863363  1
  Li  Li11  1  0.81863363  0.18136637  0.18136637  1
  Li  Li12  1  0.31802611  0.31802611  0.31802611  1
  Li  Li13  1  0.68197389  0.31802611  0.68197389  1
  Li  Li14  1  0.68197389  0.68197389  0.31802611  1
  Li  Li15  1  0.31802611  0.68197389  0.68197389  1
  Li  Li16  1  0.34908121  0.00000000  0.00000000  1
  Li  Li17  1  0.65091879  0.00000000  0.00000000  1
  Li  Li18  1  0.00000000  0.00000000  0.34908121  1
  Li  Li19  1  0.00000000  0.00000000  0.65091879  1
  Li  Li20  1  0.00000000  0.65091879  0.00000000  1
  Li  Li21  1  0.00000000  0.34908121  0.00000000  1
  Li  Li22  1  0.85889888  0.50000000  0.50000000  1
  Li  Li23  1  0.14110112  0.50000000  0.50000000  1
  Li  Li24  1  0.50000000  0.50000000  0.85889888  1
  Li  Li25  1  0.50000000  0.50000000  0.14110112  1
  Li  Li26  1  0.50000000  0.14110112  0.50000000  1
  Li  Li27  1  0.50000000  0.85889888  0.50000000  1
  Li  Li28  1  0.81041602  0.81041602  0.53122943  1
  Li  Li29  1  0.18958398  0.53122943  0.18958398  1
  Li  Li30  1  0.18958398  0.46877057  0.81041602  1
  Li  Li31  1  0.46877057  0.18958398  0.81041602  1
  Li  Li32  1  0.53122943  0.18958398  0.18958398  1
  Li  Li33  1  0.81041602  0.18958398  0.46877057  1
  Li  Li34  1  0.18958398  0.81041602  0.46877057  1
  Li  Li35  1  0.53122943  0.81041602  0.81041602  1
  Li  Li36  1  0.81041602  0.53122943  0.81041602  1
  Li  Li37  1  0.46877057  0.81041602  0.18958398  1
  Li  Li38  1  0.81041602  0.46877057  0.18958398  1
  Li  Li39  1  0.18958398  0.18958398  0.53122943  1
  Pb  Pb40  1  0.31340888  0.31340888  0.03299864  1
  Pb  Pb41  1  0.68659112  0.03299864  0.68659112  1
  Pb  Pb42  1  0.68659112  0.96700136  0.31340888  1
  Pb  Pb43  1  0.96700136  0.68659112  0.31340888  1
  Pb  Pb44  1  0.03299864  0.68659112  0.68659112  1
  Pb  Pb45  1  0.31340888  0.68659112  0.96700136  1
  Pb  Pb46  1  0.68659112  0.31340888  0.96700136  1
  Pb  Pb47  1  0.03299864  0.31340888  0.31340888  1
  Pb  Pb48  1  0.31340888  0.03299864  0.31340888  1
  Pb  Pb49  1  0.96700136  0.31340888  0.68659112  1
  Pb  Pb50  1  0.31340888  0.96700136  0.68659112  1
  Pb  Pb51  1  0.68659112  0.68659112  0.03299864  1
