# generated using pymatgen
data_Li2Mo3S4
_symmetry_space_group_name_H-M   'P 1'
_cell_length_a   6.70953977
_cell_length_b   6.70524737
_cell_length_c   6.71042312
_cell_angle_alpha   95.10114688
_cell_angle_beta   95.14985499
_cell_angle_gamma   94.07372249
_symmetry_Int_Tables_number   1
_chemical_formula_structural   Li2Mo3S4
_chemical_formula_sum   'Li4 Mo6 S8'
_cell_volume   298.53484455
_cell_formula_units_Z   2
loop_
 _symmetry_equiv_pos_site_id
 _symmetry_equiv_pos_as_xyz
  1  'x, y, z'
loop_
 _atom_site_type_symbol
 _atom_site_label
 _atom_site_symmetry_multiplicity
 _atom_site_fract_x
 _atom_site_fract_y
 _atom_site_fract_z
 _atom_site_occupancy
  Li  Li0  1  0.11417573  0.98365196  0.90253543  1
  Li  Li1  1  0.59990093  0.02726985  0.98284961  1
  Li  Li2  1  0.96821670  0.02314515  0.40548053  1
  Li  Li3  1  0.98384135  0.56933608  0.02731394  1
  Mo  Mo4  1  0.23161482  0.41674143  0.54858530  1
  Mo  Mo5  1  0.45184074  0.76911569  0.58947800  1
  Mo  Mo6  1  0.40906699  0.54606122  0.23572004  1
  Mo  Mo7  1  0.58671100  0.45712025  0.76965147  1
  Mo  Mo8  1  0.54325603  0.23496837  0.41476765  1
  Mo  Mo9  1  0.76433532  0.58768055  0.45835741  1
  S  S10  1  0.12715405  0.71288088  0.37729912  1
  S  S11  1  0.28708453  0.63350799  0.87087101  1
  S  S12  1  0.21336636  0.21563848  0.21505772  1
  S  S13  1  0.37389431  0.13522173  0.71276989  1
  S  S14  1  0.61965614  0.86838142  0.29263783  1
  S  S15  1  0.78724160  0.78642333  0.79010110  1
  S  S16  1  0.70651138  0.37434602  0.13322743  1
  S  S17  1  0.86913201  0.29150962  0.63229653  1
