# generated using pymatgen
data_K2Re3C2Se5N2
_symmetry_space_group_name_H-M   'P 1'
_cell_length_a   9.80659284
_cell_length_b   10.82668563
_cell_length_c   13.25956662
_cell_angle_alpha   90.00000000
_cell_angle_beta   90.00000000
_cell_angle_gamma   106.30588597
_symmetry_Int_Tables_number   1
_chemical_formula_structural   K2Re3C2Se5N2
_chemical_formula_sum   'K8 Re12 C8 Se20 N8'
_cell_volume   1351.17963810
_cell_formula_units_Z   4
loop_
 _symmetry_equiv_pos_site_id
 _symmetry_equiv_pos_as_xyz
  1  'x, y, z'
loop_
 _atom_site_type_symbol
 _atom_site_label
 _atom_site_symmetry_multiplicity
 _atom_site_fract_x
 _atom_site_fract_y
 _atom_site_fract_z
 _atom_site_occupancy
  K  K0  1  0.94311668  0.67329906  0.55984122  1
  K  K1  1  0.55688332  0.82670094  0.05984122  1
  K  K2  1  0.05688332  0.32670094  0.44015878  1
  K  K3  1  0.90740817  0.00164042  0.82827803  1
  K  K4  1  0.09259183  0.99835958  0.17172197  1
  K  K5  1  0.44311668  0.17329906  0.94015878  1
  K  K6  1  0.40740817  0.50164042  0.67172197  1
  K  K7  1  0.59259183  0.49835958  0.32827803  1
  Re  Re8  1  0.81280210  0.50087005  0.97027829  1
  Re  Re9  1  0.46639657  0.01948959  0.36184604  1
  Re  Re10  1  0.96639657  0.51948959  0.13815396  1
  Re  Re11  1  0.53360343  0.98051041  0.63815396  1
  Re  Re12  1  0.31280210  0.00087005  0.52972171  1
  Re  Re13  1  0.56110389  0.18010788  0.51586798  1
  Re  Re14  1  0.43889611  0.81989212  0.48413202  1
  Re  Re15  1  0.18719790  0.49912995  0.02972171  1
  Re  Re16  1  0.68719790  0.99912995  0.47027829  1
  Re  Re17  1  0.06110389  0.68010788  0.98413202  1
  Re  Re18  1  0.93889611  0.31989212  0.01586798  1
  Re  Re19  1  0.03360343  0.48051041  0.86184604  1
  C  C20  1  0.13092061  0.87854863  0.95853155  1
  C  C21  1  0.43233882  0.03946928  0.20787879  1
  C  C22  1  0.86907939  0.12145137  0.04146845  1
  C  C23  1  0.63092061  0.37854863  0.54146845  1
  C  C24  1  0.56766118  0.96053072  0.79212121  1
  C  C25  1  0.06766118  0.46053072  0.70787879  1
  C  C26  1  0.36907939  0.62145137  0.45853155  1
  C  C27  1  0.93233882  0.53946928  0.29212121  1
  Se  Se28  1  0.79571843  0.30875195  0.85350775  1
  Se  Se29  1  0.59048526  0.84620794  0.32427588  1
  Se  Se30  1  0.29571843  0.80875195  0.64649225  1
  Se  Se31  1  0.65306066  0.80792768  0.59104895  1
  Se  Se32  1  0.22850317  0.84766551  0.38288935  1
  Se  Se33  1  0.84693934  0.69207232  0.09104895  1
  Se  Se34  1  0.27149683  0.65233449  0.88288935  1
  Se  Se35  1  0.40951474  0.15379206  0.67572412  1
  Se  Se36  1  0.34693934  0.19207232  0.40895105  1
  Se  Se37  1  0.93853888  0.98909251  0.42054538  1
  Se  Se38  1  0.72850317  0.34766551  0.11711065  1
  Se  Se39  1  0.56146112  0.51090749  0.92054538  1
  Se  Se40  1  0.15306066  0.30792768  0.90895105  1
  Se  Se41  1  0.70428157  0.19124805  0.35350775  1
  Se  Se42  1  0.90951474  0.65379206  0.82427588  1
  Se  Se43  1  0.43853888  0.48909251  0.07945462  1
  Se  Se44  1  0.20428157  0.69124805  0.14649225  1
  Se  Se45  1  0.09048526  0.34620794  0.17572412  1
  Se  Se46  1  0.06146112  0.01090749  0.57945462  1
  Se  Se47  1  0.77149683  0.15233449  0.61711065  1
  N  N48  1  0.41287716  0.05161352  0.12105984  1
  N  N49  1  0.33349441  0.51024452  0.44106942  1
  N  N50  1  0.83349441  0.01024452  0.05893058  1
  N  N51  1  0.08712284  0.44838648  0.62105984  1
  N  N52  1  0.16650559  0.98975548  0.94106942  1
  N  N53  1  0.58712284  0.94838648  0.87894016  1
  N  N54  1  0.66650559  0.48975548  0.55893058  1
  N  N55  1  0.91287716  0.55161352  0.37894016  1
