# generated using pymatgen
data_Cs4Zr3S14
_symmetry_space_group_name_H-M   'P 1'
_cell_length_a   8.71081089
_cell_length_b   12.05130782
_cell_length_c   14.34543339
_cell_angle_alpha   111.22440097
_cell_angle_beta   90.00000000
_cell_angle_gamma   111.18651996
_symmetry_Int_Tables_number   1
_chemical_formula_structural   Cs4Zr3S14
_chemical_formula_sum   'Cs8 Zr6 S28'
_cell_volume   1293.98936650
_cell_formula_units_Z   2
loop_
 _symmetry_equiv_pos_site_id
 _symmetry_equiv_pos_as_xyz
  1  'x, y, z'
loop_
 _atom_site_type_symbol
 _atom_site_label
 _atom_site_symmetry_multiplicity
 _atom_site_fract_x
 _atom_site_fract_y
 _atom_site_fract_z
 _atom_site_occupancy
  Cs  Cs0  1  0.47630764  0.58917812  0.38825303  1
  Cs  Cs1  1  0.17684903  0.87756182  0.35624893  1
  Cs  Cs2  1  0.88712952  0.41082188  0.11174697  1
  Cs  Cs3  1  0.29928721  0.12243818  0.14375107  1
  Cs  Cs4  1  0.52369236  0.41082188  0.61174697  1
  Cs  Cs5  1  0.82315097  0.12243818  0.64375107  1
  Cs  Cs6  1  0.11287048  0.58917812  0.88825303  1
  Cs  Cs7  1  0.70071279  0.87756182  0.85624893  1
  Zr  Zr8  1  0.58032805  0.66422811  0.08579186  1
  Zr  Zr9  1  0.26291483  0.00000000  0.75000000  1
  Zr  Zr10  1  0.08390006  0.66422811  0.58579186  1
  Zr  Zr11  1  0.91609994  0.33577189  0.41420814  1
  Zr  Zr12  1  0.41967195  0.33577189  0.91420814  1
  Zr  Zr13  1  0.73708517  0.00000000  0.25000000  1
  S  S14  1  0.73673352  0.80822440  0.28917991  1
  S  S15  1  0.56187220  0.17035375  0.86873135  1
  S  S16  1  0.01682587  0.86174270  0.58782901  1
  S  S17  1  0.29784340  0.91620662  0.88748984  1
  S  S18  1  0.84491683  0.86174270  0.08782901  1
  S  S19  1  0.43812780  0.82964625  0.13126865  1
  S  S20  1  0.65239578  0.33379573  0.33581849  1
  S  S21  1  0.31860005  0.66620427  0.16418151  1
  S  S22  1  0.50534629  0.44309579  0.09881717  1
  S  S23  1  0.60848154  0.17035375  0.36873135  1
  S  S24  1  0.10156184  0.28345294  0.88956910  1
  S  S25  1  0.49465371  0.55690421  0.90118283  1
  S  S26  1  0.98317413  0.13825730  0.41217099  1
  S  S27  1  0.92850911  0.19177560  0.21082009  1
  S  S28  1  0.70215660  0.08379338  0.11251016  1
  S  S29  1  0.18189110  0.28345294  0.38956910  1
  S  S30  1  0.93774950  0.44309579  0.59881717  1
  S  S31  1  0.68139995  0.33379573  0.83581849  1
  S  S32  1  0.38163677  0.08379338  0.61251016  1
  S  S33  1  0.81810890  0.71654706  0.61043090  1
  S  S34  1  0.39151846  0.82964625  0.63126865  1
  S  S35  1  0.61836323  0.91620662  0.38748984  1
  S  S36  1  0.06225050  0.55690421  0.40118283  1
  S  S37  1  0.15508317  0.13825730  0.91217099  1
  S  S38  1  0.07149089  0.80822440  0.78917991  1
  S  S39  1  0.34760422  0.66620427  0.66418151  1
  S  S40  1  0.26326648  0.19177560  0.71082009  1
  S  S41  1  0.89843816  0.71654706  0.11043090  1
