# generated using pymatgen
data_Rb3Nb2AsSe11
_symmetry_space_group_name_H-M   'P 1'
_cell_length_a   10.24509964
_cell_length_b   10.38301790
_cell_length_c   10.38301779
_cell_angle_alpha   83.64248899
_cell_angle_beta   83.62001234
_cell_angle_gamma   83.62001303
_symmetry_Int_Tables_number   1
_chemical_formula_structural   Rb3Nb2AsSe11
_chemical_formula_sum   'Rb6 Nb4 As2 Se22'
_cell_volume   1085.42997179
_cell_formula_units_Z   2
loop_
 _symmetry_equiv_pos_site_id
 _symmetry_equiv_pos_as_xyz
  1  'x, y, z'
loop_
 _atom_site_type_symbol
 _atom_site_label
 _atom_site_symmetry_multiplicity
 _atom_site_fract_x
 _atom_site_fract_y
 _atom_site_fract_z
 _atom_site_occupancy
  Rb  Rb0  1  0.93112079  0.35639405  0.51195379  1
  Rb  Rb1  1  0.01473492  0.14795253  0.98885113  1
  Rb  Rb2  1  0.68545776  0.88742174  0.75227653  1
  Rb  Rb3  1  0.43112079  0.51195379  0.35639405  1
  Rb  Rb4  1  0.18545776  0.75227653  0.88742174  1
  Rb  Rb5  1  0.51473492  0.98885113  0.14795253  1
  Nb  Nb6  1  0.41365302  0.24791499  0.79427073  1
  Nb  Nb7  1  0.91365302  0.79427073  0.24791499  1
  Nb  Nb8  1  0.09924885  0.90954488  0.49792939  1
  Nb  Nb9  1  0.59924885  0.49792939  0.90954488  1
  As  As10  1  0.86005109  0.44880558  0.12753300  1
  As  As11  1  0.36005109  0.12753300  0.44880558  1
  Se  Se12  1  0.15950903  0.66409723  0.57521048  1
  Se  Se13  1  0.71384026  0.89629097  0.39939295  1
  Se  Se14  1  0.89900204  0.02124014  0.35186786  1
  Se  Se15  1  0.75847243  0.59991147  0.27982729  1
  Se  Se16  1  0.66772104  0.23353759  0.82358565  1
  Se  Se17  1  0.85216331  0.53365218  0.90268573  1
  Se  Se18  1  0.65950903  0.57521048  0.66409723  1
  Se  Se19  1  0.35216331  0.90268573  0.53365218  1
  Se  Se20  1  0.16772104  0.82358565  0.23353759  1
  Se  Se21  1  0.85541279  0.87057386  0.03471043  1
  Se  Se22  1  0.10480179  0.60944273  0.22008644  1
  Se  Se23  1  0.01448152  0.02180475  0.68090080  1
  Se  Se24  1  0.67319516  0.32200739  0.10989026  1
  Se  Se25  1  0.43827419  0.52404447  0.72675100  1
  Se  Se26  1  0.35541279  0.03471043  0.87057386  1
  Se  Se27  1  0.93827419  0.72675100  0.52404447  1
  Se  Se28  1  0.21384026  0.39939295  0.89629097  1
  Se  Se29  1  0.60480179  0.22008644  0.60944273  1
  Se  Se30  1  0.17319516  0.10989026  0.32200739  1
  Se  Se31  1  0.39900204  0.35186786  0.02124014  1
  Se  Se32  1  0.25847243  0.27982729  0.59991147  1
  Se  Se33  1  0.51448152  0.68090080  0.02180475  1
