# generated using pymatgen
data_Pr4In21Pd10
_symmetry_space_group_name_H-M   'P 1'
_cell_length_a   4.55695565
_cell_length_b   11.98274710
_cell_length_c   14.74103295
_cell_angle_alpha   81.27058269
_cell_angle_beta   81.18041651
_cell_angle_gamma   78.97932527
_symmetry_Int_Tables_number   1
_chemical_formula_structural   Pr4In21Pd10
_chemical_formula_sum   'Pr4 In21 Pd10'
_cell_volume   774.49816957
_cell_formula_units_Z   1
loop_
 _symmetry_equiv_pos_site_id
 _symmetry_equiv_pos_as_xyz
  1  'x, y, z'
loop_
 _atom_site_type_symbol
 _atom_site_label
 _atom_site_symmetry_multiplicity
 _atom_site_fract_x
 _atom_site_fract_y
 _atom_site_fract_z
 _atom_site_occupancy
  Pr  Pr0  1  0.23199779  0.86654040  0.67513657  1
  Pr  Pr1  1  0.12115815  0.58857119  0.16682923  1
  Pr  Pr2  1  0.87934442  0.41258971  0.83339203  1
  Pr  Pr3  1  0.77401151  0.13257499  0.32446751  1
  In  In4  1  0.99241044  0.42645930  0.59225729  1
  In  In5  1  0.38682291  0.02706225  0.20371700  1
  In  In6  1  0.20354697  0.10234621  0.49625593  1
  In  In7  1  0.46250027  0.21663191  0.86823829  1
  In  In8  1  0.39298873  0.70598003  0.49648772  1
  In  In9  1  0.69989750  0.59950063  0.99931163  1
  In  In10  1  0.07113425  0.16882086  0.70232248  1
  In  In11  1  0.74843037  0.70892503  0.79606138  1
  In  In12  1  0.80197049  0.89683967  0.50345889  1
  In  In13  1  0.11506779  0.82080322  0.95087526  1
  In  In14  1  0.93736288  0.83189092  0.29658156  1
  In  In15  1  0.88858404  0.17809632  0.05108685  1
  In  In16  1  0.36792060  0.56208862  0.69909136  1
  In  In17  1  0.63202766  0.43827898  0.30207513  1
  In  In18  1  0.49846085  0.00067654  -0.00031606  1
  In  In19  1  0.25266527  0.29183682  0.20519764  1
  In  In20  1  0.61863231  0.97399058  0.79531095  1
  In  In21  1  0.00454920  0.57493708  0.40584924  1
  In  In22  1  0.29965524  0.40036785  0.00165460  1
  In  In23  1  0.53783994  0.78479889  0.13131057  1
  In  In24  1  0.60364432  0.29304502  0.50390831  1
  Pd  Pd25  1  0.74977242  0.38477515  0.11460952  1
  Pd  Pd26  1  0.35073220  0.92085933  0.38651772  1
  Pd  Pd27  1  0.85764376  0.66679513  0.60739521  1
  Pd  Pd28  1  0.24907606  0.61473946  0.88673758  1
  Pd  Pd29  1  0.65910906  0.07875494  0.61285251  1
  Pd  Pd30  1  0.13990671  0.33260863  0.39362441  1
  Pd  Pd31  1  0.50175550  0.67759900  0.31137243  1
  Pd  Pd32  1  0.02769990  0.06112113  0.88726868  1
  Pd  Pd33  1  0.50023893  0.32295636  0.68804849  1
  Pd  Pd34  1  0.97037256  0.93841786  0.11212005  1
