# generated using pymatgen
data_RbW3Br7
_symmetry_space_group_name_H-M   'P 1'
_cell_length_a   10.03608258
_cell_length_b   13.15868966
_cell_length_c   13.15868966
_cell_angle_alpha   74.39764196
_cell_angle_beta   69.68469387
_cell_angle_gamma   69.68469387
_symmetry_Int_Tables_number   1
_chemical_formula_structural   RbW3Br7
_chemical_formula_sum   'Rb4 W12 Br28'
_cell_volume   1506.37146101
_cell_formula_units_Z   4
loop_
 _symmetry_equiv_pos_site_id
 _symmetry_equiv_pos_as_xyz
  1  'x, y, z'
loop_
 _atom_site_type_symbol
 _atom_site_label
 _atom_site_symmetry_multiplicity
 _atom_site_fract_x
 _atom_site_fract_y
 _atom_site_fract_z
 _atom_site_occupancy
  Rb  Rb0  1  0.75000000  0.56890096  0.43109904  1
  Rb  Rb1  1  0.25000000  0.43109904  0.56890096  1
  Rb  Rb2  1  0.50000000  -0.00000000  0.00000000  1
  Rb  Rb3  1  0.00000000  -0.00000000  0.00000000  1
  W  W4  1  0.55271256  0.34742443  0.04597562  1
  W  W5  1  0.94728744  0.95402438  0.65257557  1
  W  W6  1  0.44728744  0.65257557  0.95402438  1
  W  W7  1  0.05271256  0.04597562  0.34742443  1
  W  W8  1  0.63097086  0.51221788  0.06650511  1
  W  W9  1  0.86902914  0.93349489  0.48778212  1
  W  W10  1  0.36902914  0.48778212  0.93349489  1
  W  W11  1  0.13097086  0.06650511  0.51221788  1
  W  W12  1  0.65255154  0.48322697  0.86841238  1
  W  W13  1  0.84744846  0.13158762  0.51677303  1
  W  W14  1  0.34744846  0.51677303  0.13158762  1
  W  W15  1  0.15255154  0.86841238  0.48322697  1
  Br  Br16  1  0.57209550  0.31726939  0.84925739  1
  Br  Br17  1  0.92790450  0.15074261  0.68273061  1
  Br  Br18  1  0.42790450  0.68273061  0.15074261  1
  Br  Br19  1  0.07209550  0.84925739  0.31726939  1
  Br  Br20  1  0.73009849  0.64761590  0.88952045  1
  Br  Br21  1  0.76990151  0.11047955  0.35238410  1
  Br  Br22  1  0.26990151  0.35238410  0.11047955  1
  Br  Br23  1  0.23009849  0.88952045  0.64761590  1
  Br  Br24  1  0.52984977  0.37640981  0.24379355  1
  Br  Br25  1  0.97015023  0.75620645  0.62359019  1
  Br  Br26  1  0.47015023  0.62359019  0.75620645  1
  Br  Br27  1  0.02984977  0.24379355  0.37640981  1
  Br  Br28  1  0.83694899  0.34296576  0.97997552  1
  Br  Br29  1  0.66305101  0.02002448  0.65703424  1
  Br  Br30  1  0.16305101  0.65703424  0.02002448  1
  Br  Br31  1  0.33694899  0.97997552  0.34296576  1
  Br  Br32  1  0.63112499  0.13067553  0.11508677  1
  Br  Br33  1  0.86887501  0.88491323  0.86932447  1
  Br  Br34  1  0.36887501  0.86932447  0.88491323  1
  Br  Br35  1  0.13112499  0.11508677  0.13067553  1
  Br  Br36  1  0.81258031  0.52952302  0.15886691  1
  Br  Br37  1  0.68741969  0.84113309  0.47047698  1
  Br  Br38  1  0.18741969  0.47047698  0.84113309  1
  Br  Br39  1  0.31258031  0.15886691  0.52952302  1
  Br  Br40  1  0.86448856  0.46140828  0.68125017  1
  Br  Br41  1  0.63551144  0.31874983  0.53859172  1
  Br  Br42  1  0.13551144  0.53859172  0.31874983  1
  Br  Br43  1  0.36448856  0.68125017  0.46140828  1
