# generated using pymatgen
data_As2Pb14Cl4O17
_symmetry_space_group_name_H-M   'P 1'
_cell_length_a   11.50358155
_cell_length_b   12.57516674
_cell_length_c   13.19017092
_cell_angle_alpha   106.89021669
_cell_angle_beta   103.44890131
_cell_angle_gamma   115.26974426
_symmetry_Int_Tables_number   1
_chemical_formula_structural   As2Pb14Cl4O17
_chemical_formula_sum   'As4 Pb28 Cl8 O34'
_cell_volume   1504.33510269
_cell_formula_units_Z   2
loop_
 _symmetry_equiv_pos_site_id
 _symmetry_equiv_pos_as_xyz
  1  'x, y, z'
loop_
 _atom_site_type_symbol
 _atom_site_label
 _atom_site_symmetry_multiplicity
 _atom_site_fract_x
 _atom_site_fract_y
 _atom_site_fract_z
 _atom_site_occupancy
  As  As0  1  0.21823579  0.54088065  0.35625473  1
  As  As1  1  0.78176421  0.45911935  0.64374527  1
  As  As2  1  0.63801894  0.81537408  0.35625473  1
  As  As3  1  0.36198106  0.18462592  0.64374527  1
  Pb  Pb4  1  0.79330896  0.71758027  0.17282147  1
  Pb  Pb5  1  0.34684419  0.04026987  0.83566413  1
  Pb  Pb6  1  0.98881993  0.79539426  0.83566413  1
  Pb  Pb7  1  0.85973658  0.15883620  0.61045876  1
  Pb  Pb8  1  0.65315581  0.95973013  0.16433587  1
  Pb  Pb9  1  0.40204132  0.45123408  0.15626489  1
  Pb  Pb10  1  0.25422357  0.70503081  0.15626489  1
  Pb  Pb11  1  0.48303850  0.80155291  0.83035242  1
  Pb  Pb12  1  0.14299556  0.70373635  0.60663751  1
  Pb  Pb13  1  0.12048749  0.54475880  0.82717853  1
  Pb  Pb14  1  0.01118007  0.20460574  0.16433587  1
  Pb  Pb15  1  0.15268608  0.97120049  0.16964758  1
  Pb  Pb16  1  0.20669104  0.28241973  0.82717853  1
  Pb  Pb17  1  0.49898272  0.07445711  0.39716335  1
  Pb  Pb18  1  0.60181936  0.67729375  0.60283665  1
  Pb  Pb19  1  0.50101728  0.92554289  0.60283665  1
  Pb  Pb20  1  0.25072218  0.45162257  0.61045876  1
  Pb  Pb21  1  0.14026342  0.84116380  0.38954124  1
  Pb  Pb22  1  0.39818064  0.32270625  0.39716335  1
  Pb  Pb23  1  0.74577643  0.29496919  0.84373511  1
  Pb  Pb24  1  0.74927782  0.54837743  0.38954124  1
  Pb  Pb25  1  0.51696150  0.19844709  0.16964758  1
  Pb  Pb26  1  0.85700444  0.29626365  0.39336249  1
  Pb  Pb27  1  0.96364195  0.90290116  0.60663751  1
  Pb  Pb28  1  0.03635805  0.09709884  0.39336249  1
  Pb  Pb29  1  0.87951251  0.45524120  0.17282147  1
  Pb  Pb30  1  0.84731392  0.02879951  0.83035242  1
  Pb  Pb31  1  0.59795868  0.54876592  0.84373511  1
  Cl  Cl32  1  0.81151103  0.87375091  0.00020706  1
  Cl  Cl33  1  0.31130397  0.87354385  0.99979294  1
  Cl  Cl34  1  0.94299727  0.63425940  0.02896445  1
  Cl  Cl35  1  0.41403282  0.60529495  0.97103555  1
  Cl  Cl36  1  0.68869603  0.12645615  0.00020706  1
  Cl  Cl37  1  0.18848897  0.12624909  0.99979294  1
  Cl  Cl38  1  0.58596718  0.39470505  0.02896445  1
  Cl  Cl39  1  0.05700273  0.36574060  0.97103555  1
  O  O40  1  0.62933204  0.11556465  0.28478611  1
  O  O41  1  0.30378641  0.47345417  0.29631431  1
  O  O42  1  0.50747210  0.17713986  0.70368569  1
  O  O43  1  0.94784117  0.59264467  0.68166393  1
  O  O44  1  0.76776454  0.37889038  0.28581865  1
  O  O45  1  0.69621359  0.52654583  0.70368569  1
  O  O46  1  0.11697588  0.86697588  0.73395175  1
  O  O47  1  0.60574508  0.85574508  0.71149016  1
  O  O48  1  0.10635959  0.35635959  0.71271919  1
  O  O49  1  0.68838173  0.36901321  0.49547465  1
  O  O50  1  0.39425492  0.14425492  0.28850984  1
  O  O51  1  0.15545407  0.16922146  0.28478611  1
  O  O52  1  0.98194589  0.09307173  0.71418135  1
  O  O53  1  0.76617724  0.91098074  0.31833607  1
  O  O54  1  0.01805411  0.90692827  0.28581865  1
  O  O55  1  0.89364041  0.64364041  0.28728081  1
  O  O56  1  0.26295036  0.88277512  0.27500054  1
  O  O57  1  0.48794981  0.60777458  0.72499946  1
  O  O58  1  0.51205019  0.39222542  0.27500054  1
  O  O59  1  0.82047979  0.36642729  0.70658161  1
  O  O60  1  0.31161827  0.63098679  0.50452535  1
  O  O61  1  0.84454593  0.83077854  0.71521389  1
  O  O62  1  0.05215883  0.40735533  0.31833607  1
  O  O63  1  0.23223546  0.62110962  0.71418135  1
  O  O64  1  0.30709292  0.12646144  0.49547465  1
  O  O65  1  0.23382276  0.08901926  0.68166393  1
  O  O66  1  0.61389817  0.65984568  0.29341839  1
  O  O67  1  0.69290708  0.87353856  0.50452535  1
  O  O68  1  0.37066796  0.88443535  0.71521389  1
  O  O69  1  0.17952021  0.63357271  0.29341839  1
  O  O70  1  0.38610183  0.34015432  0.70658161  1
  O  O71  1  0.88302412  0.13302412  0.26604825  1
  O  O72  1  0.73704964  0.11722488  0.72499946  1
  O  O73  1  0.49252790  0.82286014  0.29631431  1
