# generated using pymatgen
data_CsDyI3
_symmetry_space_group_name_H-M   'P 1'
_cell_length_a   8.42865458
_cell_length_b   8.68355303
_cell_length_c   12.18684581
_cell_angle_alpha   90.00000000
_cell_angle_beta   90.00000000
_cell_angle_gamma   90.00000000
_symmetry_Int_Tables_number   1
_chemical_formula_structural   CsDyI3
_chemical_formula_sum   'Cs4 Dy4 I12'
_cell_volume   891.96339804
_cell_formula_units_Z   4
loop_
 _symmetry_equiv_pos_site_id
 _symmetry_equiv_pos_as_xyz
  1  'x, y, z'
loop_
 _atom_site_type_symbol
 _atom_site_label
 _atom_site_symmetry_multiplicity
 _atom_site_fract_x
 _atom_site_fract_y
 _atom_site_fract_z
 _atom_site_occupancy
  Cs  Cs0  1  0.98217046  0.94423427  0.25000000  1
  Cs  Cs1  1  0.48217046  0.55576573  0.75000000  1
  Cs  Cs2  1  0.51782954  0.44423427  0.25000000  1
  Cs  Cs3  1  0.01782954  0.05576573  0.75000000  1
  Dy  Dy4  1  0.50000000  0.00000000  0.00000000  1
  Dy  Dy5  1  0.00000000  0.50000000  0.00000000  1
  Dy  Dy6  1  0.00000000  0.50000000  0.50000000  1
  Dy  Dy7  1  0.50000000  0.00000000  0.50000000  1
  I  I8  1  0.03900446  0.49653970  0.25000000  1
  I  I9  1  0.53900446  0.00346030  0.75000000  1
  I  I10  1  0.46099554  0.99653970  0.25000000  1
  I  I11  1  0.96099554  0.50346030  0.75000000  1
  I  I12  1  0.78468462  0.21721620  0.01974269  1
  I  I13  1  0.28468462  0.28278380  0.98025731  1
  I  I14  1  0.71531538  0.71721620  0.48025731  1
  I  I15  1  0.21531538  0.78278380  0.51974269  1
  I  I16  1  0.21531538  0.78278380  0.98025731  1
  I  I17  1  0.71531538  0.71721620  0.01974269  1
  I  I18  1  0.28468462  0.28278380  0.51974269  1
  I  I19  1  0.78468462  0.21721620  0.48025731  1
