# generated using pymatgen
data_LaSb(SBr)2
_symmetry_space_group_name_H-M   'P 1'
_cell_length_a   8.85681947
_cell_length_b   9.34854215
_cell_length_c   17.60124097
_cell_angle_alpha   90.00000000
_cell_angle_beta   104.08888458
_cell_angle_gamma   90.00000000
_symmetry_Int_Tables_number   1
_chemical_formula_structural   LaSb(SBr)2
_chemical_formula_sum   'La8 Sb8 S16 Br16'
_cell_volume   1413.51543130
_cell_formula_units_Z   8
loop_
 _symmetry_equiv_pos_site_id
 _symmetry_equiv_pos_as_xyz
  1  'x, y, z'
loop_
 _atom_site_type_symbol
 _atom_site_label
 _atom_site_symmetry_multiplicity
 _atom_site_fract_x
 _atom_site_fract_y
 _atom_site_fract_z
 _atom_site_occupancy
  La  La0  1  0.38650071  0.63494659  0.26338035  1
  La  La1  1  0.12279874  0.37010196  0.74430629  1
  La  La2  1  0.87720126  0.87010196  0.75569371  1
  La  La3  1  0.61349929  0.36505341  0.73661965  1
  La  La4  1  0.12279874  0.12989804  0.24430629  1
  La  La5  1  0.87720126  0.62989804  0.25569371  1
  La  La6  1  0.61349929  0.13494659  0.23661965  1
  La  La7  1  0.38650071  0.86505341  0.76338035  1
  Sb  Sb8  1  0.27301085  0.34054763  0.05363853  1
  Sb  Sb9  1  0.73092211  0.04525844  0.95442830  1
  Sb  Sb10  1  0.27301085  0.15945237  0.55363853  1
  Sb  Sb11  1  0.26907789  0.95474156  0.04557170  1
  Sb  Sb12  1  0.72698915  0.65945237  0.94636147  1
  Sb  Sb13  1  0.73092211  0.45474156  0.45442830  1
  Sb  Sb14  1  0.26907789  0.54525844  0.54557170  1
  Sb  Sb15  1  0.72698915  0.84054763  0.44636147  1
  S  S16  1  0.66269028  0.43476744  0.31054187  1
  S  S17  1  0.66023971  0.83380504  0.30301935  1
  S  S18  1  0.92696865  0.64849464  0.44772507  1
  S  S19  1  0.33976029  0.33380504  0.19698065  1
  S  S20  1  0.33976029  0.16619496  0.69698065  1
  S  S21  1  0.92696865  0.85150536  0.94772507  1
  S  S22  1  0.07303135  0.35150536  0.55227493  1
  S  S23  1  0.66269028  0.06523256  0.81054187  1
  S  S24  1  0.47385260  0.14948230  0.05209182  1
  S  S25  1  0.52614740  0.85051770  0.94790818  1
  S  S26  1  0.33730972  0.56523256  0.68945813  1
  S  S27  1  0.66023971  0.66619496  0.80301935  1
  S  S28  1  0.33730972  0.93476744  0.18945813  1
  S  S29  1  0.07303135  0.14849464  0.05227493  1
  S  S30  1  0.52614740  0.64948230  0.44790818  1
  S  S31  1  0.47385260  0.35051770  0.55209182  1
  Br  Br32  1  0.15780607  0.67563187  0.83453402  1
  Br  Br33  1  0.92217388  0.37271258  0.86766038  1
  Br  Br34  1  0.92217388  0.12728742  0.36766038  1
  Br  Br35  1  0.83858873  0.56057033  0.65954721  1
  Br  Br36  1  0.07782612  0.62728742  0.13233962  1
  Br  Br37  1  0.55507010  0.62448648  0.12766240  1
  Br  Br38  1  0.15780607  0.82436813  0.33453402  1
  Br  Br39  1  0.55507010  0.87551352  0.62766240  1
  Br  Br40  1  0.44492990  0.37551352  0.87233760  1
  Br  Br41  1  0.84219393  0.17563187  0.66546598  1
  Br  Br42  1  0.44492990  0.12448648  0.37233760  1
  Br  Br43  1  0.16141127  0.06057033  0.84045279  1
  Br  Br44  1  0.84219393  0.32436813  0.16546598  1
  Br  Br45  1  0.07782612  0.87271258  0.63233962  1
  Br  Br46  1  0.83858873  0.93942967  0.15954721  1
  Br  Br47  1  0.16141127  0.43942967  0.34045279  1
