# generated using pymatgen
data_Sm4In21Pd10
_symmetry_space_group_name_H-M   'P 1'
_cell_length_a   4.53076117
_cell_length_b   11.89636274
_cell_length_c   14.64689936
_cell_angle_alpha   81.38598946
_cell_angle_beta   81.12905692
_cell_angle_gamma   79.01154807
_symmetry_Int_Tables_number   1
_chemical_formula_structural   Sm4In21Pd10
_chemical_formula_sum   'Sm4 In21 Pd10'
_cell_volume   759.79640902
_cell_formula_units_Z   1
loop_
 _symmetry_equiv_pos_site_id
 _symmetry_equiv_pos_as_xyz
  1  'x, y, z'
loop_
 _atom_site_type_symbol
 _atom_site_label
 _atom_site_symmetry_multiplicity
 _atom_site_fract_x
 _atom_site_fract_y
 _atom_site_fract_z
 _atom_site_occupancy
  Sm  Sm0  1  0.77843182  0.13154870  0.32500378  1
  Sm  Sm1  1  0.88061392  0.40836762  0.83427517  1
  Sm  Sm2  1  0.12289670  0.58737150  0.16497882  1
  Sm  Sm3  1  0.23469611  0.86509476  0.67512628  1
  In  In4  1  0.53946328  0.78486374  0.13264936  1
  In  In5  1  0.46359345  0.21653872  0.86767661  1
  In  In6  1  0.62073809  0.97316836  0.79606586  1
  In  In7  1  0.93073606  0.82887963  0.29767887  1
  In  In8  1  0.40368453  0.70433019  0.49535324  1
  In  In9  1  0.79610340  0.89672688  0.50428154  1
  In  In10  1  0.37463002  0.56084020  0.70055094  1
  In  In11  1  0.07131991  0.17007401  0.70256742  1
  In  In12  1  0.98617766  0.43080442  0.59572919  1
  In  In13  1  0.19767356  0.10069271  0.49568766  1
  In  In14  1  0.62889919  0.43773724  0.30179979  1
  In  In15  1  0.50398316  0.99888264  0.99903611  1
  In  In16  1  0.25381163  0.28997099  0.20601817  1
  In  In17  1  0.70142337  0.59980774  0.99794947  1
  In  In18  1  0.38963567  0.03090070  0.20171696  1
  In  In19  1  0.60196427  0.29521020  0.50190838  1
  In  In20  1  0.29979600  0.40380207  0.99960841  1
  In  In21  1  0.75176445  0.70760264  0.79296930  1
  In  In22  1  0.89607227  0.17749164  0.05061229  1
  In  In23  1  0.00520874  0.57349487  0.40583122  1
  In  In24  1  0.11363149  0.82397239  0.94700209  1
  Pd  Pd25  1  0.49874128  0.67525928  0.31024054  1
  Pd  Pd26  1  0.66025579  0.07927979  0.61504347  1
  Pd  Pd27  1  0.33922703  0.92276601  0.38466885  1
  Pd  Pd28  1  0.14163995  0.33159141  0.39390103  1
  Pd  Pd29  1  0.25196418  0.61626026  0.88630688  1
  Pd  Pd30  1  0.02411152  0.06235951  0.88897051  1
  Pd  Pd31  1  0.75026593  0.38616849  0.11241723  1
  Pd  Pd32  1  0.86798709  0.67221220  0.60591038  1
  Pd  Pd33  1  0.97912519  0.93558926  0.11369474  1
  Pd  Pd34  1  0.49428829  0.32200022  0.68723145  1
