# generated using pymatgen
data_LaTlGeSe4
_symmetry_space_group_name_H-M   'P 1'
_cell_length_a   7.23016843
_cell_length_b   11.61422540
_cell_length_c   19.57560568
_cell_angle_alpha   90.14592694
_cell_angle_beta   90.12051586
_cell_angle_gamma   90.09558672
_symmetry_Int_Tables_number   1
_chemical_formula_structural   LaTlGeSe4
_chemical_formula_sum   'La8 Tl8 Ge8 Se32'
_cell_volume   1643.80726452
_cell_formula_units_Z   8
loop_
 _symmetry_equiv_pos_site_id
 _symmetry_equiv_pos_as_xyz
  1  'x, y, z'
loop_
 _atom_site_type_symbol
 _atom_site_label
 _atom_site_symmetry_multiplicity
 _atom_site_fract_x
 _atom_site_fract_y
 _atom_site_fract_z
 _atom_site_occupancy
  La  La0  1  0.77325300  0.39211392  0.43378695  1
  La  La1  1  0.26991313  0.60663616  0.06454852  1
  La  La2  1  0.77028727  0.89246080  0.06647181  1
  La  La3  1  0.22515595  0.10577729  0.93343049  1
  La  La4  1  0.72981229  0.89212804  0.56563421  1
  La  La5  1  0.72584637  0.39096608  0.93398876  1
  La  La6  1  0.22838516  0.60774574  0.56683897  1
  La  La7  1  0.27277460  0.10668412  0.43564734  1
  Tl  Tl8  1  0.32599663  0.25793884  0.19839194  1
  Tl  Tl9  1  0.16546985  0.75420967  0.80332969  1
  Tl  Tl10  1  0.66400932  0.74369193  0.80176565  1
  Tl  Tl11  1  0.82709384  0.74238194  0.30153764  1
  Tl  Tl12  1  0.17377221  0.25559886  0.69665313  1
  Tl  Tl13  1  0.33316920  0.75524492  0.30259642  1
  Tl  Tl14  1  0.82423888  0.24388934  0.19808970  1
  Tl  Tl15  1  0.67438505  0.24344476  0.69701087  1
  Ge  Ge16  1  0.28259709  0.94458772  0.11170742  1
  Ge  Ge17  1  0.71336865  0.05369206  0.88726900  1
  Ge  Ge18  1  0.21670377  0.94488690  0.61409421  1
  Ge  Ge19  1  0.21497790  0.44260984  0.88681315  1
  Ge  Ge20  1  0.28465503  0.44360221  0.38837752  1
  Ge  Ge21  1  0.78403511  0.05435923  0.38834772  1
  Ge  Ge22  1  0.78280861  0.55508483  0.11260382  1
  Ge  Ge23  1  0.71540710  0.55650785  0.61194749  1
  Se  Se24  1  0.53315008  0.49839753  0.31668885  1
  Se  Se25  1  0.53350432  0.00074736  0.18250761  1
  Se  Se26  1  0.87718061  0.14097373  0.49547044  1
  Se  Se27  1  0.61969453  0.13983703  0.99387548  1
  Se  Se28  1  0.40391676  0.29395172  0.84044332  1
  Se  Se29  1  0.12390125  0.86083966  0.50616368  1
  Se  Se30  1  0.87532132  0.63977198  0.00535551  1
  Se  Se31  1  0.56906898  0.40530278  0.08255158  1
  Se  Se32  1  0.09394530  0.79568380  0.15862096  1
  Se  Se33  1  0.43117346  0.09412872  0.58434730  1
  Se  Se34  1  0.03540649  0.50002218  0.18324488  1
  Se  Se35  1  0.38023023  0.35896446  0.49516320  1
  Se  Se36  1  0.92591190  0.90377549  0.91731210  1
  Se  Se37  1  0.46240919  0.99572607  0.81690339  1
  Se  Se38  1  0.03512930  0.99641834  0.31841566  1
  Se  Se39  1  0.59378760  0.20154051  0.34150890  1
  Se  Se40  1  0.06967662  0.09470231  0.08258655  1
  Se  Se41  1  0.90343654  0.20223217  0.84092115  1
  Se  Se42  1  0.07427456  0.59493684  0.41734851  1
  Se  Se43  1  0.96290184  0.49926922  0.81687709  1
  Se  Se44  1  0.62147802  0.64081725  0.50470703  1
  Se  Se45  1  0.92847962  0.40729481  0.58273133  1
  Se  Se46  1  0.96569932  0.00089127  0.68403532  1
  Se  Se47  1  0.40862553  0.79682568  0.65932649  1
  Se  Se48  1  0.57034076  0.90506584  0.41756620  1
  Se  Se49  1  0.46773508  0.49970280  0.68338032  1
  Se  Se50  1  0.90705714  0.70471594  0.65922609  1
  Se  Se51  1  0.12139938  0.35799593  0.99416349  1
  Se  Se52  1  0.09355371  0.29436947  0.34207358  1
  Se  Se53  1  0.59099761  0.70213645  0.15843960  1
  Se  Se54  1  0.42913405  0.59198190  0.91620167  1
  Se  Se55  1  0.37590288  0.85896069  0.00470232  1
