# generated using pymatgen
data_Ce12C6I17
_symmetry_space_group_name_H-M   'P 1'
_cell_length_a   11.74281072
_cell_length_b   11.74281042
_cell_length_c   19.27021441
_cell_angle_alpha   89.79755026
_cell_angle_beta   89.79755027
_cell_angle_gamma   64.65347776
_symmetry_Int_Tables_number   1
_chemical_formula_structural   Ce12C6I17
_chemical_formula_sum   'Ce24 C12 I34'
_cell_volume   2401.41977834
_cell_formula_units_Z   2
loop_
 _symmetry_equiv_pos_site_id
 _symmetry_equiv_pos_as_xyz
  1  'x, y, z'
loop_
 _atom_site_type_symbol
 _atom_site_label
 _atom_site_symmetry_multiplicity
 _atom_site_fract_x
 _atom_site_fract_y
 _atom_site_fract_z
 _atom_site_occupancy
  Ce  Ce0  1  0.07288853  0.01979607  0.15465130  1
  Ce  Ce1  1  0.57367122  0.09826683  0.88447797  1
  Ce  Ce2  1  0.70182412  0.28573976  0.97802143  1
  Ce  Ce3  1  0.09826683  0.57367122  0.38447797  1
  Ce  Ce4  1  0.01979607  0.07288853  0.65465130  1
  Ce  Ce5  1  0.35733680  0.35687260  0.04911688  1
  Ce  Ce6  1  0.92711147  0.98020393  0.84534870  1
  Ce  Ce7  1  0.64312740  0.64266320  0.45088312  1
  Ce  Ce8  1  0.54538474  0.53601832  0.12687288  1
  Ce  Ce9  1  0.45461526  0.46398168  0.87312712  1
  Ce  Ce10  1  0.35687260  0.35733680  0.54911688  1
  Ce  Ce11  1  0.28573976  0.70182412  0.47802143  1
  Ce  Ce12  1  0.90173317  0.42632878  0.61552203  1
  Ce  Ce13  1  0.53601832  0.54538474  0.62687288  1
  Ce  Ce14  1  0.71426024  0.29817588  0.52197857  1
  Ce  Ce15  1  0.80603696  0.33827510  0.78759555  1
  Ce  Ce16  1  0.42632878  0.90173317  0.11552203  1
  Ce  Ce17  1  0.98020393  0.92711147  0.34534870  1
  Ce  Ce18  1  0.64266320  0.64312740  0.95088312  1
  Ce  Ce19  1  0.46398168  0.45461526  0.37312712  1
  Ce  Ce20  1  0.66172490  0.19396304  0.71240445  1
  Ce  Ce21  1  0.19396304  0.66172490  0.21240445  1
  Ce  Ce22  1  0.33827510  0.80603696  0.28759555  1
  Ce  Ce23  1  0.29817588  0.71426024  0.02197857  1
  C  C24  1  0.27807380  0.63303593  0.34894322  1
  C  C25  1  0.53365138  0.53345327  0.98845316  1
  C  C26  1  0.16500256  0.74473403  0.34646206  1
  C  C27  1  0.25526597  0.83499744  0.15353794  1
  C  C28  1  0.53345327  0.53365138  0.48845316  1
  C  C29  1  0.46654673  0.46634862  0.51154684  1
  C  C30  1  0.63303593  0.27807380  0.84894322  1
  C  C31  1  0.36696407  0.72192620  0.15105678  1
  C  C32  1  0.83499744  0.25526597  0.65353794  1
  C  C33  1  0.72192620  0.36696407  0.65105678  1
  C  C34  1  0.46634862  0.46654673  0.01154684  1
  C  C35  1  0.74473403  0.16500256  0.84646206  1
  I  I36  1  0.39573297  0.90042470  0.44236593  1
  I  I37  1  0.79326176  0.81369004  0.89929245  1
  I  I38  1  0.91051920  0.39870208  0.44823980  1
  I  I39  1  0.39870208  0.91051920  0.94823980  1
  I  I40  1  0.28426308  0.80608572  0.63996347  1
  I  I41  1  0.11516185  0.09885680  0.30476134  1
  I  I42  1  0.60426703  0.09957530  0.55763407  1
  I  I43  1  0.30890767  0.28636632  0.39698684  1
  I  I44  1  0.88483815  0.90114320  0.69523866  1
  I  I45  1  0.97160046  0.50132790  0.75641769  1
  I  I46  1  0.42366272  0.37257821  0.20891033  1
  I  I47  1  0.18630996  0.20673824  0.60070755  1
  I  I48  1  0.80608572  0.28426308  0.13996347  1
  I  I49  1  0.71363368  0.69109233  0.10301316  1
  I  I50  1  0.08948080  0.60129792  0.55176020  1
  I  I51  1  0.02839954  0.49867210  0.24358231  1
  I  I52  1  0.69109233  0.71363368  0.60301316  1
  I  I53  1  0.71573692  0.19391428  0.36003653  1
  I  I54  1  0.28636632  0.30890767  0.89698684  1
  I  I55  1  0.62742179  0.57633728  0.29108967  1
  I  I56  1  0.09885680  0.11516185  0.80476134  1
  I  I57  1  0.20673824  0.18630996  0.10070755  1
  I  I58  1  0.60129792  0.08948080  0.05176020  1
  I  I59  1  0.49867210  0.02839954  0.74358231  1
  I  I60  1  0.81369004  0.79326176  0.39929245  1
  I  I61  1  0.09957530  0.60426703  0.05763407  1
  I  I62  1  0.50132790  0.97160046  0.25641769  1
  I  I63  1  0.57633728  0.62742179  0.79108967  1
  I  I64  1  0.37257821  0.42366272  0.70891033  1
  I  I65  1  0.90042470  0.39573297  0.94236593  1
  I  I66  1  0.90114320  0.88483815  0.19523866  1
  I  I67  1  0.19391428  0.71573692  0.86003653  1
  I  I68  1  0.00000000  0.00000000  0.00000000  1
  I  I69  1  0.00000000  0.00000000  0.50000000  1
