# generated using pymatgen
data_Nd4CuTe5(ClO5)3
_symmetry_space_group_name_H-M   'P 1'
_cell_length_a   5.73125199
_cell_length_b   11.97953835
_cell_length_c   15.01527882
_cell_angle_alpha   82.37271473
_cell_angle_beta   78.99776664
_cell_angle_gamma   76.16007972
_symmetry_Int_Tables_number   1
_chemical_formula_structural   Nd4CuTe5(ClO5)3
_chemical_formula_sum   'Nd8 Cu2 Te10 Cl6 O30'
_cell_volume   978.47812154
_cell_formula_units_Z   2
loop_
 _symmetry_equiv_pos_site_id
 _symmetry_equiv_pos_as_xyz
  1  'x, y, z'
loop_
 _atom_site_type_symbol
 _atom_site_label
 _atom_site_symmetry_multiplicity
 _atom_site_fract_x
 _atom_site_fract_y
 _atom_site_fract_z
 _atom_site_occupancy
  Nd  Nd0  1  0.77011577  0.50000000  0.50000000  1
  Nd  Nd1  1  0.22280935  0.75478779  0.42656360  1
  Nd  Nd2  1  0.03618393  0.21016383  0.37109223  1
  Nd  Nd3  1  0.24958812  0.96203925  0.19880993  1
  Nd  Nd4  1  0.82261442  1.00000000  1.00000000  1
  Nd  Nd5  1  0.61743999  0.78983617  0.62890777  1
  Nd  Nd6  1  0.40416074  0.24521221  0.57343640  1
  Nd  Nd7  1  0.41043730  0.03796075  0.80119007  1
  Cu  Cu8  1  0.33290886  0.50096022  0.91338298  1
  Cu  Cu9  1  0.74725206  0.49903978  0.08661702  1
  Te  Te10  1  0.20178202  0.57040428  0.64778380  1
  Te  Te11  1  0.51948009  0.99584457  0.41173650  1
  Te  Te12  1  0.85345374  0.27604128  0.73334330  1
  Te  Te13  1  0.92706115  0.00415543  0.58826350  1
  Te  Te14  1  0.35692258  0.78747283  0.02249496  1
  Te  Te15  1  0.41997010  0.42959572  0.35221620  1
  Te  Te16  1  0.05779207  0.80276782  0.81278861  1
  Te  Te17  1  0.16689037  0.21252717  0.97750504  1
  Te  Te18  1  0.86283831  0.72395872  0.26665670  1
  Te  Te19  1  0.67334850  0.19723218  0.18721139  1
  Cl  Cl20  1  0.94614935  0.39821703  0.22154758  1
  Cl  Cl21  1  0.62611549  0.38814624  0.99856361  1
  Cl  Cl22  1  0.01282533  0.61185376  0.00143639  1
  Cl  Cl23  1  0.24049145  0.37737489  0.82165798  1
  Cl  Cl24  1  0.43952432  0.62262511  0.17834202  1
  Cl  Cl25  1  0.56591395  0.60178297  0.77845242  1
  O  O26  1  0.96734089  0.62381047  0.56532436  1
  O  O27  1  0.43397827  0.87205847  0.49549016  1
  O  O28  1  0.65404626  0.34034122  0.42595549  1
  O  O29  1  0.48329451  0.12216373  0.93555200  1
  O  O30  1  0.40821818  0.43718533  0.59353132  1
  O  O31  1  0.80152691  0.12794153  0.50450984  1
  O  O32  1  0.65504943  0.18715323  0.69857247  1
  O  O33  1  0.93323203  0.36021836  0.61834480  1
  O  O34  1  0.07027301  0.85328523  0.10341371  1
  O  O35  1  0.31517724  0.11760800  0.48206393  1
  O  O36  1  0.01892476  0.83540234  0.29778160  1
  O  O37  1  0.91179520  0.63978164  0.38165520  1
  O  O38  1  0.60804843  0.99138040  0.64866548  1
  O  O39  1  0.54077513  0.81284677  0.30142753  1
  O  O40  1  0.57812497  0.06833495  0.15175065  1
  O  O41  1  0.15647572  0.37618953  0.43467564  1
  O  O42  1  0.43688080  0.22492465  0.29526641  1
  O  O43  1  0.29040457  0.88314895  0.74074062  1
  O  O44  1  0.02697195  0.14671477  0.89658629  1
  O  O45  1  0.79821057  0.93166505  0.84824935  1
  O  O46  1  0.24809430  0.00861960  0.35133452  1
  O  O47  1  0.42034296  0.65965878  0.57404451  1
  O  O48  1  0.15210870  0.16459766  0.70221840  1
  O  O49  1  0.54101023  0.87783627  0.06444800  1
  O  O50  1  0.91484918  0.88239200  0.51793607  1
  O  O51  1  0.91429414  0.11685105  0.25925938  1
  O  O52  1  0.05895268  0.10155420  0.07503609  1
  O  O53  1  0.23554297  0.89844580  0.92496391  1
  O  O54  1  0.95707186  0.77507535  0.70473359  1
  O  O55  1  0.43893483  0.56281467  0.40646868  1
