# generated using pymatgen
data_Na2Pr4Br9NO
_symmetry_space_group_name_H-M   'P 1'
_cell_length_a   8.80105696
_cell_length_b   9.84724247
_cell_length_c   11.82613238
_cell_angle_alpha   90.00000000
_cell_angle_beta   90.00000000
_cell_angle_gamma   106.48449360
_symmetry_Int_Tables_number   1
_chemical_formula_structural   Na2Pr4Br9NO
_chemical_formula_sum   'Na4 Pr8 Br18 N2 O2'
_cell_volume   982.79731790
_cell_formula_units_Z   2
loop_
 _symmetry_equiv_pos_site_id
 _symmetry_equiv_pos_as_xyz
  1  'x, y, z'
loop_
 _atom_site_type_symbol
 _atom_site_label
 _atom_site_symmetry_multiplicity
 _atom_site_fract_x
 _atom_site_fract_y
 _atom_site_fract_z
 _atom_site_occupancy
  Na  Na0  1  0.28010165  0.57277958  0.98956371  1
  Na  Na1  1  0.27884640  0.57236991  0.51289034  1
  Na  Na2  1  0.71989835  0.42722042  0.48956371  1
  Na  Na3  1  0.72115360  0.42763009  0.01289034  1
  Pr  Pr4  1  0.09336781  0.83576210  0.75215922  1
  Pr  Pr5  1  0.10642179  0.21114840  0.75196405  1
  Pr  Pr6  1  0.20539964  0.04693150  0.03827677  1
  Pr  Pr7  1  0.20003479  0.04573331  0.45191967  1
  Pr  Pr8  1  0.79460036  0.95306850  0.53827677  1
  Pr  Pr9  1  0.79996521  0.95426669  0.95191967  1
  Pr  Pr10  1  0.89357821  0.78885160  0.25196405  1
  Pr  Pr11  1  0.90663219  0.16423790  0.25215922  1
  Br  Br12  1  0.00794502  0.30458799  0.00478924  1
  Br  Br13  1  0.00710832  0.30443874  0.49879686  1
  Br  Br14  1  0.14685261  0.53416228  0.75241001  1
  Br  Br15  1  0.24736167  0.85471603  0.24961316  1
  Br  Br16  1  0.38297946  0.88066252  0.59638306  1
  Br  Br17  1  0.38572493  0.87769833  0.90366263  1
  Br  Br18  1  0.26678729  0.26115948  0.24973044  1
  Br  Br19  1  0.39667666  0.30977268  0.58989308  1
  Br  Br20  1  0.39950121  0.31357622  0.91146538  1
  Br  Br21  1  0.60332334  0.69022732  0.08989308  1
  Br  Br22  1  0.60049879  0.68642378  0.41146538  1
  Br  Br23  1  0.73321271  0.73884052  0.74973044  1
  Br  Br24  1  0.61427507  0.12230167  0.40366263  1
  Br  Br25  1  0.61702054  0.11933748  0.09638306  1
  Br  Br26  1  0.75263833  0.14528397  0.74961316  1
  Br  Br27  1  0.85314739  0.46583772  0.25241001  1
  Br  Br28  1  0.99205498  0.69541201  0.50478924  1
  Br  Br29  1  0.99289168  0.69556126  0.99879686  1
  N  N30  1  0.05749074  0.01469053  0.87370288  1
  N  N31  1  0.94250926  0.98530947  0.37370288  1
  O  O32  1  0.05633206  0.01454844  0.62277950  1
  O  O33  1  0.94366794  0.98545156  0.12277950  1
