# generated using pymatgen
data_Al(SeCl)4
_symmetry_space_group_name_H-M   'P 1'
_cell_length_a   10.90011049
_cell_length_b   13.89044526
_cell_length_c   15.25667541
_cell_angle_alpha   90.00000000
_cell_angle_beta   90.00000000
_cell_angle_gamma   90.00000000
_symmetry_Int_Tables_number   1
_chemical_formula_structural   Al(SeCl)4
_chemical_formula_sum   'Al8 Se32 Cl32'
_cell_volume   2309.97337475
_cell_formula_units_Z   8
loop_
 _symmetry_equiv_pos_site_id
 _symmetry_equiv_pos_as_xyz
  1  'x, y, z'
loop_
 _atom_site_type_symbol
 _atom_site_label
 _atom_site_symmetry_multiplicity
 _atom_site_fract_x
 _atom_site_fract_y
 _atom_site_fract_z
 _atom_site_occupancy
  Al  Al0  1  0.26585244  0.81880102  0.11241184  1
  Al  Al1  1  0.23672050  0.00898882  0.73483769  1
  Al  Al2  1  0.76327950  0.00898882  0.23483769  1
  Al  Al3  1  0.76327950  0.50898882  0.26516231  1
  Al  Al4  1  0.23672050  0.50898882  0.76516231  1
  Al  Al5  1  0.73414756  0.31880102  0.88758816  1
  Al  Al6  1  0.26585244  0.31880102  0.38758816  1
  Al  Al7  1  0.73414756  0.81880102  0.61241184  1
  Se  Se8  1  0.27230191  0.12802800  0.99893145  1
  Se  Se9  1  0.46636549  0.22790235  0.60158491  1
  Se  Se10  1  0.91306601  0.87434724  0.95804830  1
  Se  Se11  1  0.27230191  0.62802800  0.50106855  1
  Se  Se12  1  0.39868114  0.35646871  0.12895633  1
  Se  Se13  1  0.93656455  0.13163102  0.54156250  1
  Se  Se14  1  0.08693399  0.87434724  0.45804830  1
  Se  Se15  1  0.91306601  0.37434724  0.54195170  1
  Se  Se16  1  0.72769809  0.12802800  0.49893145  1
  Se  Se17  1  0.06966716  0.75293993  0.35191872  1
  Se  Se18  1  0.37621662  0.61609634  0.36628363  1
  Se  Se19  1  0.39868114  0.85646871  0.37104367  1
  Se  Se20  1  0.72769809  0.62802800  0.00106855  1
  Se  Se21  1  0.46636549  0.72790235  0.89841509  1
  Se  Se22  1  0.60131886  0.85646871  0.87104367  1
  Se  Se23  1  0.06966716  0.25293993  0.14808128  1
  Se  Se24  1  0.93033284  0.25293993  0.64808128  1
  Se  Se25  1  0.70798936  0.35179212  0.49506343  1
  Se  Se26  1  0.06343545  0.63163102  0.45843750  1
  Se  Se27  1  0.93033284  0.75293993  0.85191872  1
  Se  Se28  1  0.53363451  0.72790235  0.39841509  1
  Se  Se29  1  0.60131886  0.35646871  0.62895633  1
  Se  Se30  1  0.93656455  0.63163102  0.95843750  1
  Se  Se31  1  0.62378338  0.11609634  0.63371637  1
  Se  Se32  1  0.62378338  0.61609634  0.86628363  1
  Se  Se33  1  0.29201064  0.85179212  0.50493657  1
  Se  Se34  1  0.70798936  0.85179212  0.00493657  1
  Se  Se35  1  0.37621662  0.11609634  0.13371637  1
  Se  Se36  1  0.06343545  0.13163102  0.04156250  1
  Se  Se37  1  0.29201064  0.35179212  0.99506343  1
  Se  Se38  1  0.53363451  0.22790235  0.10158491  1
  Se  Se39  1  0.08693399  0.37434724  0.04195170  1
  Cl  Cl40  1  0.76023970  0.36371485  0.02278511  1
  Cl  Cl41  1  0.78466181  0.85610577  0.22104889  1
  Cl  Cl42  1  0.59022093  0.54795808  0.20618783  1
  Cl  Cl43  1  0.21330987  0.17213831  0.36966260  1
  Cl  Cl44  1  0.76702149  0.57315319  0.39581744  1
  Cl  Cl45  1  0.23976030  0.36371485  0.52278511  1
  Cl  Cl46  1  0.45680188  0.33791680  0.35438390  1
  Cl  Cl47  1  0.78669013  0.67213831  0.63033740  1
  Cl  Cl48  1  0.54319812  0.83791680  0.64561610  1
  Cl  Cl49  1  0.21330987  0.67213831  0.13033740  1
  Cl  Cl50  1  0.83932115  0.91592414  0.69383860  1
  Cl  Cl51  1  0.09376054  0.57239330  0.68690699  1
  Cl  Cl52  1  0.83932115  0.41592414  0.80616140  1
  Cl  Cl53  1  0.78466181  0.35610577  0.27895111  1
  Cl  Cl54  1  0.21533819  0.35610577  0.77895111  1
  Cl  Cl55  1  0.40977907  0.04795808  0.79381217  1
  Cl  Cl56  1  0.09376054  0.07239330  0.81309301  1
  Cl  Cl57  1  0.23297851  0.57315319  0.89581744  1
  Cl  Cl58  1  0.78669013  0.17213831  0.86966260  1
  Cl  Cl59  1  0.16067885  0.41592414  0.30616140  1
  Cl  Cl60  1  0.90623946  0.57239330  0.18690699  1
  Cl  Cl61  1  0.45680188  0.83791680  0.14561610  1
  Cl  Cl62  1  0.90623946  0.07239330  0.31309301  1
  Cl  Cl63  1  0.23297851  0.07315319  0.60418256  1
  Cl  Cl64  1  0.23976030  0.86371485  0.97721489  1
  Cl  Cl65  1  0.40977907  0.54795808  0.70618783  1
  Cl  Cl66  1  0.76702149  0.07315319  0.10418256  1
  Cl  Cl67  1  0.59022093  0.04795808  0.29381217  1
  Cl  Cl68  1  0.16067885  0.91592414  0.19383860  1
  Cl  Cl69  1  0.54319812  0.33791680  0.85438390  1
  Cl  Cl70  1  0.76023970  0.86371485  0.47721489  1
  Cl  Cl71  1  0.21533819  0.85610577  0.72104889  1
