# generated using pymatgen
data_Ni23Te42
_symmetry_space_group_name_H-M   'P 1'
_cell_length_a   11.73038002
_cell_length_b   27.43209795
_cell_length_c   8.59967146
_cell_angle_alpha   89.90564270
_cell_angle_beta   46.82376803
_cell_angle_gamma   120.04028460
_symmetry_Int_Tables_number   1
_chemical_formula_structural   Ni23Te42
_chemical_formula_sum   'Ni23 Te42'
_cell_volume   1464.48735807
_cell_formula_units_Z   1
loop_
 _symmetry_equiv_pos_site_id
 _symmetry_equiv_pos_as_xyz
  1  'x, y, z'
loop_
 _atom_site_type_symbol
 _atom_site_label
 _atom_site_symmetry_multiplicity
 _atom_site_fract_x
 _atom_site_fract_y
 _atom_site_fract_z
 _atom_site_occupancy
  Ni  Ni0  1  0.99616331  0.85620046  0.00078992  1
  Ni  Ni1  1  0.33299775  0.85616581  0.99975645  1
  Ni  Ni2  1  0.00046274  0.57148742  0.99936767  1
  Ni  Ni3  1  0.33134547  0.71484812  0.00346637  1
  Ni  Ni4  1  0.00571879  0.42989597  0.99148173  1
  Ni  Ni5  1  0.33019704  0.78518051  0.50198984  1
  Ni  Ni6  1  0.67137579  0.85854055  0.99188041  1
  Ni  Ni7  1  0.33537586  0.57256636  0.99642249  1
  Ni  Ni8  1  0.00218983  0.28645447  0.00005698  1
  Ni  Ni9  1  0.66666988  0.71467740  0.00341612  1
  Ni  Ni10  1  0.33073673  0.42774119  0.00053899  1
  Ni  Ni11  1  0.99711637  0.14159500  0.00574971  1
  Ni  Ni12  1  0.66418507  0.56994017  0.00401662  1
  Ni  Ni13  1  0.32523294  0.28386376  0.01179632  1
  Ni  Ni14  1  0.00219718  0.00101461  0.99658265  1
  Ni  Ni15  1  0.99203235  0.71249776  0.01206992  1
  Ni  Ni16  1  0.66693233  0.42751306  0.99955083  1
  Ni  Ni17  1  0.32813710  0.14127138  0.00437102  1
  Ni  Ni18  1  0.66458770  0.28596975  0.00244495  1
  Ni  Ni19  1  0.33174026  0.99938510  0.00202993  1
  Ni  Ni20  1  0.66523574  0.35673600  0.50172536  1
  Ni  Ni21  1  0.66725343  0.14290610  0.99987919  1
  Ni  Ni22  1  0.66948046  0.00083383  0.99946719  1
  Te  Te23  1  0.05621801  0.86890845  0.24690252  1
  Te  Te24  1  0.05262839  0.72546622  0.25605960  1
  Te  Te25  1  0.05828893  0.58372503  0.24675089  1
  Te  Te26  1  0.39538472  0.87136239  0.23904634  1
  Te  Te27  1  0.27424502  0.98744044  0.75370625  1
  Te  Te28  1  0.39255884  0.72647167  0.24369307  1
  Te  Te29  1  0.06439128  0.44277140  0.24118480  1
  Te  Te30  1  0.27173694  0.84477032  0.75904169  1
  Te  Te31  1  0.72988557  0.87096301  0.24031121  1
  Te  Te32  1  0.39052576  0.58289426  0.24665884  1
  Te  Te33  1  0.05284180  0.29740440  0.25332073  1
  Te  Te34  1  0.60703954  0.98719165  0.75512374  1
  Te  Te35  1  0.27044615  0.70059851  0.76231832  1
  Te  Te36  1  0.71878903  0.72560339  0.25490066  1
  Te  Te37  1  0.38899317  0.43956068  0.24833724  1
  Te  Te38  1  0.61222290  0.84578989  0.74702457  1
  Te  Te39  1  0.05183856  0.15361100  0.25528567  1
  Te  Te40  1  0.28006222  0.56040139  0.74716971  1
  Te  Te41  1  0.71977205  0.58216790  0.25305979  1
  Te  Te42  1  0.38542924  0.29646774  0.25592821  1
  Te  Te43  1  0.60951483  0.70289625  0.75482307  1
  Te  Te44  1  0.94570242  0.98886299  0.74869683  1
  Te  Te45  1  0.05566918  0.01099632  0.24859447  1
  Te  Te46  1  0.27971318  0.41702342  0.74775167  1
  Te  Te47  1  0.72828335  0.44216989  0.23996016  1
  Te  Te48  1  0.39130123  0.15489791  0.24733512  1
  Te  Te49  1  0.60822305  0.55946074  0.75451898  1
  Te  Te50  1  0.94431715  0.84510926  0.74949330  1
  Te  Te51  1  0.26843695  0.27167897  0.76056890  1
  Te  Te52  1  0.72638303  0.29768415  0.24261882  1
  Te  Te53  1  0.39176982  0.01260247  0.24797962  1
  Te  Te54  1  0.60432002  0.41568255  0.76067483  1
  Te  Te55  1  0.93251936  0.69951319  0.76332575  1
  Te  Te56  1  0.27639354  0.13143332  0.75195919  1
  Te  Te57  1  0.72523031  0.15530217  0.24725677  1
  Te  Te58  1  0.94138085  0.55889794  0.75336644  1
  Te  Te59  1  0.60115882  0.27077677  0.76409756  1
  Te  Te60  1  0.72329681  0.01119638  0.25032595  1
  Te  Te61  1  0.94513467  0.41669867  0.74737296  1
  Te  Te62  1  0.60692930  0.12954739  0.75463747  1
  Te  Te63  1  0.94214620  0.27352956  0.75358753  1
  Te  Te64  1  0.94320668  0.13118319  0.75422810  1
