# generated using pymatgen
data_Rb2EuGa(SiO3)4
_symmetry_space_group_name_H-M   'P 1'
_cell_length_a   7.45135737
_cell_length_b   14.24116351
_cell_length_c   14.23219174
_cell_angle_alpha   64.33002185
_cell_angle_beta   74.89170939
_cell_angle_gamma   74.94480647
_symmetry_Int_Tables_number   1
_chemical_formula_structural   Rb2EuGa(SiO3)4
_chemical_formula_sum   'Rb8 Eu4 Ga4 Si16 O48'
_cell_volume   1295.30882263
_cell_formula_units_Z   4
loop_
 _symmetry_equiv_pos_site_id
 _symmetry_equiv_pos_as_xyz
  1  'x, y, z'
loop_
 _atom_site_type_symbol
 _atom_site_label
 _atom_site_symmetry_multiplicity
 _atom_site_fract_x
 _atom_site_fract_y
 _atom_site_fract_z
 _atom_site_occupancy
  Eu  Eu0  1  0.55130308  0.21417907  0.75009828  1
  Eu  Eu1  1  0.98588879  0.71241720  0.24935937  1
  Eu  Eu2  1  0.44719178  0.78602994  0.25042872  1
  Eu  Eu3  1  0.01481188  0.28703726  0.74944354  1
  Rb  Rb4  1  0.80861856  0.41609041  0.46684429  1
  Rb  Rb5  1  0.80622286  0.91792755  0.96735140  1
  Rb  Rb6  1  0.72560785  0.11526391  0.45197180  1
  Rb  Rb7  1  0.19675177  0.08280097  0.03470661  1
  Rb  Rb8  1  0.18812913  0.58260664  0.53496533  1
  Rb  Rb9  1  0.19837912  0.61745353  0.95552233  1
  Rb  Rb10  1  0.27025218  0.88334933  0.54460187  1
  Rb  Rb11  1  0.80034356  0.38233744  0.04478911  1
  Ga  Ga12  1  0.87384068  0.58763187  0.77253428  1
  Ga  Ga13  1  0.73273504  0.91275862  0.72773163  1
  Ga  Ga14  1  0.26744908  0.08692546  0.27235154  1
  Ga  Ga15  1  0.12592030  0.41188251  0.22797756  1
  Si  Si16  1  0.67039589  0.70027254  0.92242746  1
  Si  Si17  1  0.20760199  0.20054344  0.42239815  1
  Si  Si18  1  0.64037253  0.67435266  0.49238031  1
  Si  Si19  1  0.69369026  0.17255323  0.99372773  1
  Si  Si20  1  0.36006000  0.52830300  0.29439836  1
  Si  Si21  1  0.31733424  0.02895672  0.79448061  1
  Si  Si22  1  0.68218718  0.97096338  0.20587485  1
  Si  Si23  1  0.35881527  0.32727310  0.50568543  1
  Si  Si24  1  0.33131262  0.29937423  0.07677261  1
  Si  Si25  1  0.79372893  0.79922879  0.57697910  1
  Si  Si26  1  0.26040784  0.42546075  0.83873451  1
  Si  Si27  1  0.63940073  0.47269539  0.70477666  1
  Si  Si28  1  0.02440435  0.07596430  0.66124035  1
  Si  Si29  1  0.73786644  0.57385387  0.16139941  1
  Si  Si30  1  0.97439911  0.92432328  0.33874811  1
  Si  Si31  1  0.30795675  0.82670076  0.00511475  1
  O  O32  1  0.52889337  0.27161586  0.57400081  1
  O  O33  1  0.94093993  0.97694511  0.67003475  1
  O  O34  1  0.73575766  0.64455435  0.22506213  1
  O  O35  1  0.24205757  0.35481256  0.96755705  1
  O  O36  1  0.64085108  0.75020973  0.55439111  1
  O  O37  1  0.29827971  0.64457098  0.29837468  1
  O  O38  1  0.67154440  0.88762244  0.62391236  1
  O  O39  1  0.93685899  0.85413573  0.46762866  1
  O  O40  1  0.05719908  0.02405650  0.32964428  1
  O  O41  1  0.41684849  0.44045063  0.40921654  1
  O  O42  1  0.45666560  0.47687883  0.79819285  1
  O  O43  1  0.06885213  0.29269285  0.34445602  1
  O  O44  1  0.45034933  0.99061492  0.22897811  1
  O  O45  1  0.57850721  0.14762622  0.92709431  1
  O  O46  1  0.25951383  0.14458755  0.79972841  1
  O  O47  1  0.33110456  0.11243651  0.37512880  1
  O  O48  1  0.23500974  0.94044017  0.90917034  1
  O  O49  1  0.89299029  0.14773684  0.72393965  1
  O  O50  1  0.36086489  0.25175912  0.44242416  1
  O  O51  1  0.68157303  0.61141161  0.87631293  1
  O  O52  1  0.76440443  0.97422032  0.30114952  1
  O  O53  1  0.79448048  0.79253969  0.84327788  1
  O  O54  1  0.75637448  0.64474345  0.03260111  1
  O  O55  1  0.06637270  0.14516321  0.53227891  1
  O  O56  1  0.08815730  0.52499973  0.83131893  1
  O  O57  1  0.21039112  0.20584790  0.15550881  1
  O  O58  1  0.58555856  0.56115924  0.58953626  1
  O  O59  1  0.87776909  0.22675105  0.92665617  1
  O  O60  1  0.82745319  0.49023409  0.73105099  1
  O  O61  1  0.31694877  0.38720014  0.12456986  1
  O  O62  1  0.93242461  0.70603097  0.65442320  1
  O  O63  1  0.23172804  0.02513914  0.70115086  1
  O  O64  1  0.10518096  0.85373349  0.27476944  1
  O  O65  1  0.70297087  0.35692914  0.69938481  1
  O  O66  1  0.76594624  0.05970312  0.09146308  1
  O  O67  1  0.17196009  0.50807997  0.27103813  1
  O  O68  1  0.46734890  0.72888813  0.42635639  1
  O  O69  1  0.54857733  0.00940457  0.76900641  1
  O  O70  1  0.42126386  0.85090762  0.07293848  1
  O  O71  1  0.91063657  0.47462816  0.17031609  1
  O  O72  1  0.15152684  0.35123834  0.57128214  1
  O  O73  1  0.54082269  0.52359461  0.20033290  1
  O  O74  1  0.44698208  0.75136099  0.94282123  1
  O  O75  1  0.12666849  0.76908958  0.07177085  1
  O  O76  1  0.84639385  0.65092181  0.42516180  1
  O  O77  1  0.55574576  0.25098454  0.05305856  1
  O  O78  1  0.26129637  0.35476215  0.77516920  1
  O  O79  1  0.74166263  0.85534519  0.20034997  1
