# generated using pymatgen
data_K2LiTa6(PO8)3
_symmetry_space_group_name_H-M   'P 1'
_cell_length_a   8.48235565
_cell_length_b   8.47202485
_cell_length_c   8.48089870
_cell_angle_alpha   104.13254892
_cell_angle_beta   104.03098826
_cell_angle_gamma   104.14174910
_symmetry_Int_Tables_number   1
_chemical_formula_structural   K2LiTa6(PO8)3
_chemical_formula_sum   'K2 Li1 Ta6 P3 O24'
_cell_volume   542.72218523
_cell_formula_units_Z   1
loop_
 _symmetry_equiv_pos_site_id
 _symmetry_equiv_pos_as_xyz
  1  'x, y, z'
loop_
 _atom_site_type_symbol
 _atom_site_label
 _atom_site_symmetry_multiplicity
 _atom_site_fract_x
 _atom_site_fract_y
 _atom_site_fract_z
 _atom_site_occupancy
  K  K0  1  0.40039124  0.70355118  0.08710749  1
  K  K1  1  0.91349460  0.29605900  0.59933505  1
  Li  Li2  1  0.56465122  0.56641511  0.56636790  1
  Ta  Ta3  1  0.03568618  0.35125742  0.16068635  1
  Ta  Ta4  1  0.16312830  0.03730828  0.35391316  1
  Ta  Ta5  1  0.65194004  0.97042958  0.84360018  1
  Ta  Ta6  1  0.35338030  0.16129771  0.03614443  1
  Ta  Ta7  1  0.84578615  0.65430708  0.97187779  1
  Ta  Ta8  1  0.97155220  0.84509427  0.65246224  1
  P  P9  1  0.27509672  0.72371946  0.49962449  1
  P  P10  1  0.49897800  0.27522465  0.72396580  1
  P  P11  1  0.72362258  0.49924329  0.27562602  1
  O  O12  1  0.02899418  0.97402969  0.50086834  1
  O  O13  1  0.15365826  0.00128722  0.84785662  1
  O  O14  1  0.13098312  0.70874042  0.58173194  1
  O  O15  1  0.06544621  0.20831813  0.31468279  1
  O  O16  1  0.29062800  0.86872086  0.41836927  1
  O  O17  1  0.23786045  0.55258677  0.35679120  1
  O  O18  1  0.44934307  0.75480755  0.63560053  1
  O  O19  1  0.20835752  0.31464930  0.06607251  1
  O  O20  1  0.42026417  0.29237650  0.87021933  1
  O  O21  1  0.35794374  0.23608694  0.55193952  1
  O  O22  1  0.31069487  0.06332351  0.20496337  1
  O  O23  1  0.49711423  0.02504478  0.97006697  1
  O  O24  1  0.68394889  0.78924489  0.92960828  1
  O  O25  1  0.63655500  0.44861425  0.75263361  1
  O  O26  1  0.58363272  0.13270537  0.71048957  1
  O  O27  1  0.79261302  0.93153794  0.68801144  1
  O  O28  1  0.55070171  0.35883288  0.23641003  1
  O  O29  1  0.75425412  0.63457060  0.45055139  1
  O  O30  1  0.70810586  0.58230193  0.13168545  1
  O  O31  1  0.92886846  0.68384892  0.78929731  1
  O  O32  1  0.86955219  0.41977755  0.29310000  1
  O  O33  1  0.00222191  0.84766050  0.15386806  1
  O  O34  1  0.84769275  0.15396768  0.00033602  1
  O  O35  1  0.97185803  0.49905878  0.02713557  1
