# generated using pymatgen
data_K3Ta2AsSe11
_symmetry_space_group_name_H-M   'P 1'
_cell_length_a   10.10557427
_cell_length_b   10.10557353
_cell_length_c   10.10023737
_cell_angle_alpha   82.58597564
_cell_angle_beta   82.58597625
_cell_angle_gamma   82.23674574
_symmetry_Int_Tables_number   1
_chemical_formula_structural   K3Ta2AsSe11
_chemical_formula_sum   'K6 Ta4 As2 Se22'
_cell_volume   1006.90523648
_cell_formula_units_Z   2
loop_
 _symmetry_equiv_pos_site_id
 _symmetry_equiv_pos_as_xyz
  1  'x, y, z'
loop_
 _atom_site_type_symbol
 _atom_site_label
 _atom_site_symmetry_multiplicity
 _atom_site_fract_x
 _atom_site_fract_y
 _atom_site_fract_z
 _atom_site_occupancy
  K  K0  1  0.33425555  0.19968659  0.08277712  1
  K  K1  1  0.56702681  0.72972570  0.83449593  1
  K  K2  1  0.19968659  0.33425555  0.58277712  1
  K  K3  1  0.09927235  0.94583819  0.74686428  1
  K  K4  1  0.72972570  0.56702681  0.33449593  1
  K  K5  1  0.94583819  0.09927235  0.24686428  1
  Ta  Ta6  1  0.17389456  0.59030644  0.16935950  1
  Ta  Ta7  1  0.29328123  0.83955528  0.35399891  1
  Ta  Ta8  1  0.59030644  0.17389456  0.66935950  1
  Ta  Ta9  1  0.83955528  0.29328123  0.85399891  1
  As  As10  1  0.95356747  0.65091956  0.90188819  1
  As  As11  1  0.65091956  0.95356747  0.40188819  1
  Se  Se12  1  0.79875807  0.49386682  0.00700843  1
  Se  Se13  1  0.18456049  0.68697033  0.56223618  1
  Se  Se14  1  0.36066385  0.55670313  0.33205496  1
  Se  Se15  1  0.05903995  0.21513382  0.91107522  1
  Se  Se16  1  0.21513382  0.05903995  0.41107522  1
  Se  Se17  1  0.55926790  0.18561716  0.41239669  1
  Se  Se18  1  0.40233832  0.05973785  0.75481508  1
  Se  Se19  1  0.05634469  0.74078938  0.37283923  1
  Se  Se20  1  0.74078938  0.05634469  0.87283923  1
  Se  Se21  1  0.68697033  0.18456049  0.06223618  1
  Se  Se22  1  0.18561716  0.55926790  0.91239669  1
  Se  Se23  1  0.42646996  0.50572216  0.10673668  1
  Se  Se24  1  0.77403455  0.96572108  0.59605878  1
  Se  Se25  1  0.96572108  0.77403455  0.09605878  1
  Se  Se26  1  0.85814721  0.26101400  0.59680599  1
  Se  Se27  1  0.86671915  0.48351042  0.65659881  1
  Se  Se28  1  0.55670313  0.36066385  0.83205496  1
  Se  Se29  1  0.48351042  0.86671915  0.15659881  1
  Se  Se30  1  0.49386682  0.79875807  0.50700843  1
  Se  Se31  1  0.05973785  0.40233832  0.25481508  1
  Se  Se32  1  0.26101400  0.85814721  0.09680599  1
  Se  Se33  1  0.50572216  0.42646996  0.60673668  1
