# generated using pymatgen
data_CoP2O7
_symmetry_space_group_name_H-M   'P 1'
_cell_length_a   6.66182044
_cell_length_b   6.19800855
_cell_length_c   6.94041614
_cell_angle_alpha   113.13717608
_cell_angle_beta   91.21992864
_cell_angle_gamma   85.49723946
_symmetry_Int_Tables_number   1
_chemical_formula_structural   CoP2O7
_chemical_formula_sum   'Co2 P4 O14'
_cell_volume   262.69254742
_cell_formula_units_Z   2
loop_
 _symmetry_equiv_pos_site_id
 _symmetry_equiv_pos_as_xyz
  1  'x, y, z'
loop_
 _atom_site_type_symbol
 _atom_site_label
 _atom_site_symmetry_multiplicity
 _atom_site_fract_x
 _atom_site_fract_y
 _atom_site_fract_z
 _atom_site_occupancy
  O  O0  1  0.61646989  0.40028178  0.20447612  1
  O  O1  1  0.90926069  0.57675153  0.81816390  1
  O  O2  1  0.09068965  0.42325057  0.18186353  1
  O  O3  1  0.04806870  0.90067375  0.77196522  1
  O  O4  1  0.20338052  0.31504664  0.49136236  1
  O  O5  1  0.34097601  0.19954936  0.78032253  1
  O  O6  1  0.33111733  0.06080758  0.12603988  1
  O  O7  1  0.38356929  0.59972085  0.79549947  1
  O  O8  1  0.79659107  0.68494988  0.50865525  1
  O  O9  1  0.58389084  0.24722339  0.52331663  1
  O  O10  1  0.95194241  0.09926961  0.22803966  1
  O  O11  1  0.66888597  0.93923319  0.87397857  1
  O  O12  1  0.65904337  0.80047423  0.21967830  1
  O  O13  1  0.41610906  0.75276583  0.47663292  1
  P  P14  1  0.38904760  0.33847139  0.64873944  1
  P  P15  1  0.61093777  0.66154930  0.35127106  1
  P  P16  1  0.14675458  0.21838892  0.24869481  1
  P  P17  1  0.85325977  0.78158319  0.75132657  1
  Co  Co18  1  0.64023797  0.09914726  0.21213510  1
  Co  Co19  1  0.35976852  0.90085974  0.78783968  1
