# generated using pymatgen
data_Bi15AsO25
_symmetry_space_group_name_H-M   'P 1'
_cell_length_a   45.02437482
_cell_length_b   17.24219344
_cell_length_c   17.24219368
_cell_angle_alpha   50.47068056
_cell_angle_beta   29.49133517
_cell_angle_gamma   29.49133450
_symmetry_Int_Tables_number   1
_chemical_formula_structural   Bi15AsO25
_chemical_formula_sum   'Bi60 As4 O100'
_cell_volume   2809.36899215
_cell_formula_units_Z   4
loop_
 _symmetry_equiv_pos_site_id
 _symmetry_equiv_pos_as_xyz
  1  'x, y, z'
loop_
 _atom_site_type_symbol
 _atom_site_label
 _atom_site_symmetry_multiplicity
 _atom_site_fract_x
 _atom_site_fract_y
 _atom_site_fract_z
 _atom_site_occupancy
  Bi  Bi0  1  0.08183351  0.35004320  0.20071956  1
  Bi  Bi1  1  0.02969273  0.69162512  0.16875350  1
  Bi  Bi2  1  0.18428351  0.13513196  0.30138356  1
  Bi  Bi3  1  0.10119284  0.50704566  0.34208299  1
  Bi  Bi4  1  0.07887273  0.82272899  0.12978366  1
  Bi  Bi5  1  0.18143500  0.20650929  0.51051771  1
  Bi  Bi6  1  0.00674230  0.83920196  0.48830154  1
  Bi  Bi7  1  0.28018804  0.34627033  0.20216187  1
  Bi  Bi8  1  0.12862413  0.15413246  0.85365191  1
  Bi  Bi9  1  0.08555812  0.50363133  0.70646629  1
  Bi  Bi10  1  0.24960056  0.65454646  0.15157680  1
  Bi  Bi11  1  0.02386560  0.86521152  0.65780076  1
  Bi  Bi12  1  0.38103770  0.14563942  0.30095043  1
  Bi  Bi13  1  0.18780116  0.30832419  0.79782609  1
  Bi  Bi14  1  0.30306257  0.49679157  0.34340488  1
  Bi  Bi15  1  0.28255307  0.79928044  0.14932364  1
  Bi  Bi16  1  0.09260361  0.70077329  0.82991095  1
  Bi  Bi17  1  0.39218507  0.19500822  0.49607709  1
  Bi  Bi18  1  0.19844622  0.83124650  0.52287162  1
  Bi  Bi19  1  0.48371327  0.34332673  0.19555918  1
  Bi  Bi20  1  0.31941547  0.16625160  0.86486804  1
  Bi  Bi21  1  0.27732982  0.52216283  0.69978432  1
  Bi  Bi22  1  0.44327582  0.65791701  0.16496268  1
  Bi  Bi23  1  0.20865638  0.87021634  0.69294534  1
  Bi  Bi24  1  0.57849198  0.14814187  0.30375401  1
  Bi  Bi25  1  0.38794429  0.30400842  0.79349071  1
  Bi  Bi26  1  0.49504384  0.51169846  0.35090042  1
  Bi  Bi27  1  0.48234992  0.79783813  0.14410846  1
  Bi  Bi28  1  0.28275659  0.69951945  0.84586754  1
  Bi  Bi29  1  0.58918945  0.20283496  0.49636867  1
  Bi  Bi30  1  0.40117736  0.84842320  0.50296966  1
  Bi  Bi31  1  0.68166635  0.34219924  0.20741077  1
  Bi  Bi32  1  0.52667711  0.15531102  0.85436058  1
  Bi  Bi33  1  0.49612535  0.48950190  0.69167581  1
  Bi  Bi34  1  0.64646745  0.65659512  0.15338668  1
  Bi  Bi35  1  0.43187671  0.85067636  0.64995680  1
  Bi  Bi36  1  0.79337690  0.12913766  0.29922671  1
  Bi  Bi37  1  0.58719329  0.30106886  0.80499178  1
  Bi  Bi38  1  0.72131785  0.47712838  0.30837488  1
  Bi  Bi39  1  0.67927245  0.80444082  0.14776755  1
  Bi  Bi40  1  0.48566707  0.69861644  0.83374840  1
  Bi  Bi41  1  0.79949264  0.17762149  0.47783717  1
  Bi  Bi42  1  0.60823850  0.83503732  0.49295434  1
  Bi  Bi43  1  0.90160172  0.30705466  0.17727101  1
  Bi  Bi44  1  0.72663385  0.15561214  0.85185813  1
  Bi  Bi45  1  0.69195271  0.48948229  0.69599158  1
  Bi  Bi46  1  0.84594426  0.64909958  0.16079804  1
  Bi  Bi47  1  0.62645837  0.85589154  0.65372967  1
  Bi  Bi48  1  0.98227604  0.14634809  0.30048055  1
  Bi  Bi49  1  0.79202442  0.29353371  0.79716504  1
  Bi  Bi50  1  0.90414702  0.49703034  0.34545354  1
  Bi  Bi51  1  0.88907712  0.79258923  0.13478848  1
  Bi  Bi52  1  0.68198813  0.69904957  0.84468898  1
  Bi  Bi53  1  0.98562725  0.20217391  0.51049810  1
  Bi  Bi54  1  0.79985413  0.84661332  0.50320843  1
  Bi  Bi55  1  0.92251456  0.17008905  0.87086234  1
  Bi  Bi56  1  0.88826215  0.50392291  0.69893114  1
  Bi  Bi57  1  0.82704000  0.85223245  0.65667327  1
  Bi  Bi58  1  0.97711413  0.30021568  0.82237851  1
  Bi  Bi59  1  0.88224599  0.69624599  0.84438786  1
  As  As60  1  0.20069844  1.00000000  1.00000000  1
  As  As61  1  0.39987095  0.00000000  0.00000000  1
  As  As62  1  0.59995079  1.00000000  1.00000000  1
  As  As63  1  0.79969146  1.00000000  1.00000000  1
  O  O64  1  0.05465983  0.00000000  0.00000000  1
  O  O65  1  0.12307104  0.00000000  0.00000000  1
  O  O66  1  0.12165348  0.19424659  0.00305112  1
  O  O67  1  0.12470460  0.99694888  0.19119548  1
  O  O68  1  0.23896797  1.00000000  1.00000000  1
  O  O69  1  0.07989492  0.24913648  0.36319563  1
  O  O70  1  0.01526589  0.26220539  0.64011882  1
  O  O71  1  0.14969959  0.38006586  0.12021521  1
  O  O72  1  0.32044370  1.00000000  1.00000000  1
  O  O73  1  0.14713183  0.00043354  0.63198366  1
  O  O74  1  0.14756537  0.63155012  0.99956646  1
  O  O75  1  0.04919582  0.37058938  0.63121898  1
  O  O76  1  0.32234165  0.19361393  0.00097594  1
  O  O77  1  0.32331759  0.99902406  0.19263799  1
  O  O78  1  0.12353102  0.62655806  0.24968497  1
  O  O79  1  0.12501431  0.11908183  0.75930347  1
  O  O80  1  0.16121905  0.39707693  0.39840081  1
  O  O81  1  0.43841078  1.00000000  1.00000000  1
  O  O82  1  0.07776850  0.37717388  0.74143991  1
  O  O83  1  0.07205073  0.88568655  0.25491321  1
  O  O84  1  0.14695335  0.62352866  0.37722879  1
  O  O85  1  0.28236286  0.24559121  0.35923975  1
  O  O86  1  0.21697979  0.26152190  0.63937863  1
  O  O87  1  0.35503225  0.37592987  0.11426905  1
  O  O88  1  0.52065071  1.00000000  1.00000000  1
  O  O89  1  0.17190046  0.75371079  0.37489752  1
  O  O90  1  0.04894666  0.62740152  0.87710494  1
  O  O91  1  0.35982672  0.00098563  0.60085459  1
  O  O92  1  0.36081235  0.59986896  0.99901437  1
  O  O93  1  0.26152547  0.35615558  0.61128573  1
  O  O94  1  0.13238693  0.73868502  0.61930033  1
  O  O95  1  0.52299110  0.99958302  0.19232954  1
  O  O96  1  0.52257412  0.19274652  0.00041698  1
  O  O97  1  0.32914838  0.61238642  0.24314261  1
  O  O98  1  0.32903140  0.11405915  0.75086352  1
  O  O99  1  0.36957630  0.38394674  0.38389484  1
  O  O100  1  0.63839762  1.00000000  1.00000000  1
  O  O101  1  0.27747127  0.37791344  0.73779461  1
  O  O102  1  0.26991480  0.87978479  0.25985065  1
  O  O103  1  0.16387596  0.72675434  0.72646563  1
  O  O104  1  0.34894254  0.61960394  0.37711794  1
  O  O105  1  0.48254161  0.24311545  0.35654530  1
  O  O106  1  0.41978519  0.26062961  0.62941062  1
  O  O107  1  0.55492601  0.37425675  0.11441049  1
  O  O108  1  0.71963774  0.00000000  0.00000000  1
  O  O109  1  0.37321599  0.75031503  0.37687309  1
  O  O110  1  0.24409615  0.64022164  0.88091817  1
  O  O111  1  0.55829598  0.00132388  0.60292307  1
  O  O112  1  0.55961986  0.60159919  0.99867612  1
  O  O113  1  0.45494238  0.36426603  0.62282612  1
  O  O114  1  0.32696394  0.74508679  0.63077334  1
  O  O115  1  0.72474451  0.19103516  0.99593522  1
  O  O116  1  0.72067973  0.00406478  0.19509994  1
  O  O117  1  0.52418214  0.62277121  0.24629988  1
  O  O118  1  0.52795407  0.11364854  0.75440879  1
  O  O119  1  0.55977477  0.40100383  0.39877507  1
  O  O120  1  0.83844753  1.00000000  1.00000000  1
  O  O121  1  0.47850169  0.37785674  0.73847810  1
  O  O122  1  0.46930130  0.88573095  0.26166082  1
  O  O123  1  0.31590007  0.80880452  0.80575341  1
  O  O124  1  0.54679797  0.62510248  0.37881327  1
  O  O125  1  0.67634818  0.24970343  0.37259848  1
  O  O126  1  0.61768105  0.25513016  0.64384442  1
  O  O127  1  0.75168725  0.38069967  0.11938469  1
  O  O128  1  0.92669599  1.00000000  1.00000000  1
  O  O129  1  0.57229099  0.75685739  0.36924381  1
  O  O130  1  0.44309055  0.63680437  0.88594085  1
  O  O131  1  0.75352304  0.99994810  0.61605326  1
  O  O132  1  0.75347114  0.61610516  0.00005190  1
  O  O133  1  0.65538471  0.35988118  0.62208656  1
  O  O134  1  0.52976545  0.74014935  0.61993414  1
  O  O135  1  0.89034159  0.27353437  0.00028871  1
  O  O136  1  0.89063030  0.99971129  0.27324566  1
  O  O137  1  0.72606048  0.62288206  0.24248601  1
  O  O138  1  0.72565706  0.11342985  0.75688455  1
  O  O139  1  0.77911549  0.36801634  0.36844988  1
  O  O140  1  0.68041480  0.36878102  0.73937039  1
  O  O141  1  0.66933650  0.88558951  0.25984626  1
  O  O142  1  0.51595557  0.80736201  0.80638607  1
  O  O143  1  0.75008908  0.62312691  0.37344194  1
  O  O144  1  0.88431778  0.24069653  0.35977836  1
  O  O145  1  0.81920841  0.25856009  0.63573397  1
  O  O146  1  0.95773728  0.36922666  0.11431345  1
  O  O147  1  0.77048202  0.75370012  0.37647134  1
  O  O148  1  0.64160261  0.64076025  0.88635146  1
  O  O149  1  0.96077860  0.99777123  0.59899617  1
  O  O150  1  0.95854983  0.60122493  0.00222877  1
  O  O151  1  0.85635842  0.36062137  0.62214326  1
  O  O152  1  0.73096212  0.73833918  0.62407013  1
  O  O153  1  0.92561125  0.62118673  0.24628921  1
  O  O154  1  0.92605161  0.12289506  0.75029657  1
  O  O155  1  0.96068131  0.39914541  0.40013104  1
  O  O156  1  0.87281120  0.38871427  0.74486984  1
  O  O157  1  0.87107195  0.88061531  0.26131498  1
  O  O158  1  0.71532064  0.80767046  0.80725348  1
  O  O159  1  0.94153479  0.63075619  0.38761358  1
  O  O160  1  0.96854648  0.75751399  0.38039606  1
  O  O161  1  0.83908691  0.64345470  0.88657015  1
  O  O162  1  0.92918276  0.74015374  0.62574325  1
  O  O163  1  0.91577967  0.80490006  0.80896484  1
