# generated using pymatgen
data_RbBe2F5
_symmetry_space_group_name_H-M   'P 1'
_cell_length_a   4.76322506
_cell_length_b   4.72205629
_cell_length_c   6.21221622
_cell_angle_alpha   88.67596227
_cell_angle_beta   92.35337645
_cell_angle_gamma   120.05748323
_symmetry_Int_Tables_number   1
_chemical_formula_structural   RbBe2F5
_chemical_formula_sum   'Rb1 Be2 F5'
_cell_volume   120.83403637
_cell_formula_units_Z   1
loop_
 _symmetry_equiv_pos_site_id
 _symmetry_equiv_pos_as_xyz
  1  'x, y, z'
loop_
 _atom_site_type_symbol
 _atom_site_label
 _atom_site_symmetry_multiplicity
 _atom_site_fract_x
 _atom_site_fract_y
 _atom_site_fract_z
 _atom_site_occupancy
  Rb  Rb0  1  0.99961472  0.01345642  0.99077377  1
  Be  Be1  1  0.69110034  0.39206926  0.39726837  1
  Be  Be2  1  0.35227510  0.72672788  0.58083675  1
  F  F3  1  0.66685427  0.32350952  0.15937082  1
  F  F4  1  0.42741721  0.48315678  0.45972681  1
  F  F5  1  0.03524313  0.69626019  0.46352175  1
  F  F6  1  0.64110878  0.09051720  0.54238650  1
  F  F7  1  0.31338644  0.65930275  0.81911522  1
