# generated using pymatgen
data_Sc12I25
_symmetry_space_group_name_H-M   'P 1'
_cell_length_a   20.28289407
_cell_length_b   18.67766143
_cell_length_c   13.04593493
_cell_angle_alpha   44.32674979
_cell_angle_beta   51.63430804
_cell_angle_gamma   70.96968046
_symmetry_Int_Tables_number   1
_chemical_formula_structural   Sc12I25
_chemical_formula_sum   'Sc24 I50'
_cell_volume   2644.21542213
_cell_formula_units_Z   2
loop_
 _symmetry_equiv_pos_site_id
 _symmetry_equiv_pos_as_xyz
  1  'x, y, z'
loop_
 _atom_site_type_symbol
 _atom_site_label
 _atom_site_symmetry_multiplicity
 _atom_site_fract_x
 _atom_site_fract_y
 _atom_site_fract_z
 _atom_site_occupancy
  Sc  Sc0  1  0.03916782  0.19824285  0.00008757  1
  Sc  Sc1  1  0.07917386  0.40616196  0.00034157  1
  Sc  Sc2  1  0.19821964  0.00042576  0.00002394  1
  Sc  Sc3  1  0.11927019  0.59564791  0.00252116  1
  Sc  Sc4  1  0.24151337  0.19993645  0.00155054  1
  Sc  Sc5  1  0.15748464  0.80179847  0.00065712  1
  Sc  Sc6  1  0.27950261  0.40099543  0.00041622  1
  Sc  Sc7  1  0.40708859  0.00036899  0.99985099  1
  Sc  Sc8  1  0.44058108  0.19772121  -0.00006754  1
  Sc  Sc9  1  0.32423227  0.59381245  0.00052767  1
  Sc  Sc10  1  0.59291141  0.99963101  0.00014901  1
  Sc  Sc11  1  0.47965929  0.40173195  0.00019743  1
  Sc  Sc12  1  0.36297333  0.79956923  0.99850449  1
  Sc  Sc13  1  0.63702667  0.20043077  0.00149551  1
  Sc  Sc14  1  0.52034071  0.59826805  0.99980257  1
  Sc  Sc15  1  0.55941892  0.80227879  0.00006754  1
  Sc  Sc16  1  0.80178036  0.99957424  -0.00002394  1
  Sc  Sc17  1  0.67576773  0.40618755  0.99947233  1
  Sc  Sc18  1  0.72049739  0.59900457  0.99958378  1
  Sc  Sc19  1  0.84251536  0.19820153  0.99934288  1
  Sc  Sc20  1  0.75848663  0.80006355  0.99844946  1
  Sc  Sc21  1  0.88072981  0.40435209  0.99747884  1
  Sc  Sc22  1  0.92082614  0.59383804  0.99965843  1
  Sc  Sc23  1  0.96083218  0.80175715  0.99991243  1
  I  I24  1  0.09255381  0.03711221  0.24221114  1
  I  I25  1  0.01224707  0.63541368  0.24238950  1
  I  I26  1  0.13183752  0.23712765  0.24277958  1
  I  I27  1  0.05606069  0.83691593  0.23753620  1
  I  I28  1  0.17200550  0.43511167  0.24471718  1
  I  I29  1  0.29190278  0.03511259  0.24494233  1
  I  I30  1  0.33270269  0.23696362  0.24049591  1
  I  I31  1  0.21503968  0.63751634  0.23557217  1
  I  I32  1  0.03098274  0.56545803  0.75029681  1
  I  I33  1  0.14796526  0.16302489  0.76284162  1
  I  I34  1  0.37183970  0.43395834  0.24741364  1
  I  I35  1  0.06608991  0.76031012  0.76266996  1
  I  I36  1  0.18619157  0.36227047  0.76447776  1
  I  I37  1  0.25547989  0.83936334  0.23588944  1
  I  I38  1  0.49091384  0.03513336  0.24468545  1
  I  I39  1  0.10747022  0.95915291  0.76202057  1
  I  I40  1  0.53135945  0.23703264  0.24319901  1
  I  I41  1  0.34815191  0.16108876  0.76309133  1
  I  I42  1  0.41291182  0.63594731  0.24187788  1
  I  I43  1  0.23010321  0.56531004  0.75301439  1
  I  I44  1  0.26701647  0.75904466  0.76498898  1
  I  I45  1  0.57049930  0.43631101  0.24660782  1
  I  I46  1  0.38829690  0.36401722  0.75754466  1
  I  I47  1  0.44958345  0.83093563  0.25216949  1
  I  I48  1  0.69179117  0.03742318  0.24122004  1
  I  I49  1  0.61170310  0.63598278  0.24245534  1
  I  I50  1  0.42950070  0.56368899  0.75339218  1
  I  I51  1  0.30820883  0.96257682  0.75877996  1
  I  I52  1  0.73298353  0.24095534  0.23501102  1
  I  I53  1  0.55041655  0.16906437  0.74783051  1
  I  I54  1  0.58708818  0.36405269  0.75812212  1
  I  I55  1  0.89252978  0.04084709  0.23797943  1
  I  I56  1  0.76989679  0.43468996  0.24698561  1
  I  I57  1  0.65184809  0.83891124  0.23690867  1
  I  I58  1  0.46864055  0.76296736  0.75680099  1
  I  I59  1  0.74452011  0.16063666  0.76411056  1
  I  I60  1  0.50908616  0.96486664  0.75531455  1
  I  I61  1  0.93391009  0.23968988  0.23733004  1
  I  I62  1  0.81380843  0.63772953  0.23552224  1
  I  I63  1  0.62816030  0.56604166  0.75258636  1
  I  I64  1  0.96901726  0.43454197  0.24970319  1
  I  I65  1  0.85203474  0.83697511  0.23715838  1
  I  I66  1  0.66729731  0.76303638  0.75950409  1
  I  I67  1  0.78496032  0.36248366  0.76442783  1
  I  I68  1  0.70809722  0.96488741  0.75505767  1
  I  I69  1  0.94393931  0.16308407  0.76246380  1
  I  I70  1  0.82799450  0.56488833  0.75528282  1
  I  I71  1  0.86816248  0.76287235  0.75722042  1
  I  I72  1  0.98775293  0.36458632  0.75761050  1
  I  I73  1  0.90744619  0.96288779  0.75778886  1
