# generated using pymatgen
data_Rb5Tc3S7
_symmetry_space_group_name_H-M   'P 1'
_cell_length_a   10.81302305
_cell_length_b   10.79156265
_cell_length_c   10.79434398
_cell_angle_alpha   60.00852431
_cell_angle_beta   61.36723282
_cell_angle_gamma   60.06563007
_symmetry_Int_Tables_number   1
_chemical_formula_structural   Rb5Tc3S7
_chemical_formula_sum   'Rb10 Tc6 S14'
_cell_volume   900.01182991
_cell_formula_units_Z   2
loop_
 _symmetry_equiv_pos_site_id
 _symmetry_equiv_pos_as_xyz
  1  'x, y, z'
loop_
 _atom_site_type_symbol
 _atom_site_label
 _atom_site_symmetry_multiplicity
 _atom_site_fract_x
 _atom_site_fract_y
 _atom_site_fract_z
 _atom_site_occupancy
  Rb  Rb0  1  0.00972729  0.98988997  0.01049278  1
  Rb  Rb1  1  0.99820241  0.01573307  0.40424643  1
  Rb  Rb2  1  0.40565724  0.00624092  0.99458871  1
  Rb  Rb3  1  0.14357456  0.14465468  0.56711607  1
  Rb  Rb4  1  0.57160710  0.16152994  0.10533302  1
  Rb  Rb5  1  0.40565724  0.59351314  0.99458871  1
  Rb  Rb6  1  0.57056946  0.96414398  0.50114258  1
  Rb  Rb7  1  0.99820241  0.58181810  0.40424643  1
  Rb  Rb8  1  0.88170472  0.41866797  0.88147815  1
  Rb  Rb9  1  0.88170472  0.81814916  0.88147815  1
  Tc  Tc10  1  0.38002899  0.37775307  0.61859343  1
  Tc  Tc11  1  0.37613297  0.62378857  0.37628990  1
  Tc  Tc12  1  0.61822636  0.37776086  0.37874098  1
  Tc  Tc13  1  0.38002899  0.62362451  0.61859343  1
  Tc  Tc14  1  0.62550386  0.37673541  0.62102532  1
  Tc  Tc15  1  0.61822636  0.62527180  0.37874098  1
  S  S16  1  0.21215598  0.78521112  0.21742179  1
  S  S17  1  0.22419382  0.21716818  0.76536704  1
  S  S18  1  0.16747417  0.61323625  0.60605332  1
  S  S19  1  0.38586550  0.38968011  0.38577807  1
  S  S20  1  0.39451379  0.38683113  0.83182395  1
  S  S21  1  0.75827735  0.21272755  0.22566281  1
  S  S22  1  0.60753284  0.61348027  0.16550663  1
  S  S23  1  0.61508332  0.16274879  0.61498442  1
  S  S24  1  0.38586550  0.83867632  0.38577807  1
  S  S25  1  0.22419382  0.79327096  0.76536704  1
  S  S26  1  0.61508332  0.60718347  0.61498442  1
  S  S27  1  0.83206166  0.38949335  0.38895164  1
  S  S28  1  0.79986694  0.21288506  0.77436293  1
  S  S29  1  0.75827735  0.80333230  0.22566281  1
