# generated using pymatgen
data_NaCa2Mg2V3O12
_symmetry_space_group_name_H-M   'P 1'
_cell_length_a   10.89303426
_cell_length_b   10.89294752
_cell_length_c   10.89303489
_cell_angle_alpha   109.50266789
_cell_angle_beta   109.40823827
_cell_angle_gamma   109.50266173
_symmetry_Int_Tables_number   1
_chemical_formula_structural   NaCa2Mg2V3O12
_chemical_formula_sum   'Na4 Ca8 Mg8 V12 O48'
_cell_volume   994.99636371
_cell_formula_units_Z   4
loop_
 _symmetry_equiv_pos_site_id
 _symmetry_equiv_pos_as_xyz
  1  'x, y, z'
loop_
 _atom_site_type_symbol
 _atom_site_label
 _atom_site_symmetry_multiplicity
 _atom_site_fract_x
 _atom_site_fract_y
 _atom_site_fract_z
 _atom_site_occupancy
  Na  Na0  1  0.12500135  0.25000000  0.37499865  1
  Na  Na1  1  0.37499950  0.75000000  0.12500050  1
  Na  Na2  1  0.62500050  0.25000000  0.87499950  1
  Na  Na3  1  0.87499865  0.75000000  0.62500135  1
  Ca  Ca4  1  0.25000031  0.87692325  0.62692668  1
  Ca  Ca5  1  0.12692668  0.37692325  0.75000031  1
  Ca  Ca6  1  0.62691962  0.87692154  0.75000055  1
  Ca  Ca7  1  0.25000055  0.37692154  0.12691962  1
  Ca  Ca8  1  0.37308038  0.12307846  0.24999945  1
  Ca  Ca9  1  0.74999945  0.62307846  0.87308038  1
  Ca  Ca10  1  0.87307332  0.62307675  0.24999969  1
  Ca  Ca11  1  0.74999969  0.12307675  0.37307332  1
  Mg  Mg12  1  0.00000000  0.00000000  0.50000000  1
  Mg  Mg13  1  0.00000000  0.00000000  0.00000000  1
  Mg  Mg14  1  0.50000000  0.00000000  0.50000000  1
  Mg  Mg15  1  0.50000000  0.50000000  0.50000000  1
  Mg  Mg16  1  0.50000000  0.50000000  0.00000000  1
  Mg  Mg17  1  0.50000000  0.00000000  0.00000000  1
  Mg  Mg18  1  0.00000000  0.50000000  0.50000000  1
  Mg  Mg19  1  0.00000000  0.50000000  0.00000000  1
  V  V20  1  0.12500171  0.75000613  0.87500376  1
  V  V21  1  0.12450778  0.87450835  0.24999792  1
  V  V22  1  0.37550982  0.62550564  0.74999997  1
  V  V23  1  0.24999997  0.12550564  0.87550982  1
  V  V24  1  0.25000208  0.62549165  0.37549222  1
  V  V25  1  0.37500376  0.25000613  0.62500171  1
  V  V26  1  0.62499624  0.74999387  0.37499829  1
  V  V27  1  0.75000003  0.87449436  0.12449018  1
  V  V28  1  0.62449018  0.37449436  0.25000003  1
  V  V29  1  0.74999792  0.37450835  0.62450778  1
  V  V30  1  0.87549222  0.12549165  0.75000208  1
  V  V31  1  0.87499829  0.24999387  0.12499624  1
  O  O32  1  0.10659316  0.98947021  0.69345575  1
  O  O33  1  0.11340787  0.59947520  0.90555912  1
  O  O34  1  0.01656545  0.30962729  0.89640487  1
  O  O35  1  0.09443921  0.70784710  0.69391757  1
  O  O36  1  0.08677385  0.87983809  0.39640265  1
  O  O37  1  0.10359735  0.62016191  0.41322615  1
  O  O38  1  0.19345575  0.48947021  0.60659316  1
  O  O39  1  0.41322352  0.80962666  0.79306079  1
  O  O40  1  0.38287864  0.58686674  0.89340711  1
  O  O41  1  0.29306079  0.30962666  0.91322352  1
  O  O42  1  0.30653446  0.91313588  0.29600944  1
  O  O43  1  0.01392678  0.20784965  0.11340915  1
  O  O44  1  0.19391757  0.20784710  0.59443921  1
  O  O45  1  0.20399056  0.58686412  0.19346554  1
  O  O46  1  0.39640487  0.80962729  0.51656545  1
  O  O47  1  0.30607689  0.90051552  0.01392210  1
  O  O48  1  0.29600835  0.48947852  0.38287448  1
  O  O49  1  0.11712552  0.01052148  0.20399165  1
  O  O50  1  0.39340711  0.08686674  0.88287864  1
  O  O51  1  0.51656366  0.62016213  0.70693764  1
  O  O52  1  0.51392210  0.40051552  0.80607689  1
  O  O53  1  0.38659085  0.29215035  0.48607322  1
  O  O54  1  0.59444088  0.90052480  0.38659213  1
  O  O55  1  0.20693764  0.12016213  0.01656366  1
  O  O56  1  0.79306236  0.87983787  0.98343634  1
  O  O57  1  0.40555912  0.09947520  0.61340787  1
  O  O58  1  0.61340915  0.70784965  0.51392678  1
  O  O59  1  0.48607790  0.59948448  0.19392311  1
  O  O60  1  0.48343634  0.37983787  0.29306236  1
  O  O61  1  0.60659289  0.91313326  0.11712136  1
  O  O62  1  0.88287448  0.98947852  0.79600835  1
  O  O63  1  0.70399165  0.51052148  0.61712552  1
  O  O64  1  0.69392311  0.09948448  0.98607790  1
  O  O65  1  0.60359513  0.19037271  0.48343455  1
  O  O66  1  0.79600944  0.41313588  0.80653446  1
  O  O67  1  0.80608243  0.79215290  0.40556079  1
  O  O68  1  0.98607322  0.79215035  0.88659085  1
  O  O69  1  0.69346554  0.08686412  0.70399056  1
  O  O70  1  0.61712136  0.41313326  0.10659289  1
  O  O71  1  0.70693921  0.69037334  0.08677648  1
  O  O72  1  0.58677648  0.19037334  0.20693921  1
  O  O73  1  0.80654425  0.51052979  0.39340684  1
  O  O74  1  0.89640265  0.37983809  0.58677385  1
  O  O75  1  0.91322615  0.12016191  0.60359735  1
  O  O76  1  0.90556079  0.29215290  0.30608243  1
  O  O77  1  0.98343455  0.69037271  0.10359513  1
  O  O78  1  0.88659213  0.40052480  0.09444088  1
  O  O79  1  0.89340684  0.01052979  0.30654425  1
