# generated using pymatgen
data_NaAgO
_symmetry_space_group_name_H-M   'P 1'
_cell_length_a   4.68964033
_cell_length_b   7.18074467
_cell_length_c   7.18074467
_cell_angle_alpha   83.87890411
_cell_angle_beta   70.94093123
_cell_angle_gamma   70.94093124
_symmetry_Int_Tables_number   1
_chemical_formula_structural   NaAgO
_chemical_formula_sum   'Na4 Ag4 O4'
_cell_volume   216.02787111
_cell_formula_units_Z   4
loop_
 _symmetry_equiv_pos_site_id
 _symmetry_equiv_pos_as_xyz
  1  'x, y, z'
loop_
 _atom_site_type_symbol
 _atom_site_label
 _atom_site_symmetry_multiplicity
 _atom_site_fract_x
 _atom_site_fract_y
 _atom_site_fract_z
 _atom_site_occupancy
  O  O0  1  0.44107436  0.80894759  0.80894759  1
  O  O1  1  0.74997805  0.80894759  0.19105241  1
  O  O2  1  0.74997805  0.19105241  0.80894759  1
  O  O3  1  0.05896953  0.19105241  0.19105241  1
  Na  Na4  1  0.91025923  0.83979755  0.83979755  1
  Na  Na5  1  0.24994323  0.83979755  0.16020245  1
  Na  Na6  1  0.24994323  0.16020245  0.83979755  1
  Na  Na7  1  0.58985432  0.16020245  0.16020245  1
  Ag  Ag8  1  0.90729470  0.50000000  0.18541061  1
  Ag  Ag9  1  0.90729470  0.18541061  0.50000000  1
  Ag  Ag10  1  0.59270530  0.81458939  0.50000000  1
  Ag  Ag11  1  0.59270530  0.50000000  0.81458939  1
