# generated using pymatgen
data_VP2O7
_symmetry_space_group_name_H-M   'P 1'
_cell_length_a   6.39690708
_cell_length_b   6.23271474
_cell_length_c   6.94322160
_cell_angle_alpha   113.45585307
_cell_angle_beta   91.06418456
_cell_angle_gamma   85.13547312
_symmetry_Int_Tables_number   1
_chemical_formula_structural   VP2O7
_chemical_formula_sum   'V2 P4 O14'
_cell_volume   253.00225109
_cell_formula_units_Z   2
loop_
 _symmetry_equiv_pos_site_id
 _symmetry_equiv_pos_as_xyz
  1  'x, y, z'
loop_
 _atom_site_type_symbol
 _atom_site_label
 _atom_site_symmetry_multiplicity
 _atom_site_fract_x
 _atom_site_fract_y
 _atom_site_fract_z
 _atom_site_occupancy
  O  O0  1  0.10773877  0.45427940  0.20115142  1
  O  O1  1  0.05543659  0.90246656  0.78151210  1
  O  O2  1  0.19580204  0.29092302  0.48689424  1
  O  O3  1  0.35277074  0.20169869  0.78423848  1
  O  O4  1  0.33091686  0.06377564  0.11686759  1
  O  O5  1  0.38481362  0.59310875  0.78319296  1
  O  O6  1  0.41144775  0.76849300  0.49198665  1
  O  O7  1  0.58854880  0.23151056  0.50801086  1
  O  O8  1  0.61518951  0.40687220  0.21679286  1
  O  O9  1  0.66909089  0.93623142  0.88313534  1
  O  O10  1  0.89226564  0.54566248  0.79886722  1
  O  O11  1  0.80418145  0.70908077  0.51308787  1
  O  O12  1  0.94450287  0.09749469  0.21847333  1
  O  O13  1  0.64723967  0.79830697  0.21575238  1
  P  P14  1  0.13574604  0.24260077  0.24538483  1
  P  P15  1  0.38765810  0.33018990  0.64040758  1
  P  P16  1  0.61235724  0.66982782  0.35962566  1
  P  P17  1  0.86430195  0.75746639  0.75461551  1
  V  V18  1  0.35102040  0.90626287  0.79791636  1
  V  V19  1  0.64897207  0.09374109  0.20208675  1
