# generated using pymatgen
data_NaCa2V3Zn2O12
_symmetry_space_group_name_H-M   'P 1'
_cell_length_a   10.90971188
_cell_length_b   10.90971141
_cell_length_c   10.90971157
_cell_angle_alpha   109.47980250
_cell_angle_beta   109.45405253
_cell_angle_gamma   109.47980475
_symmetry_Int_Tables_number   1
_chemical_formula_structural   NaCa2V3Zn2O12
_chemical_formula_sum   'Na4 Ca8 V12 Zn8 O48'
_cell_volume   999.58081324
_cell_formula_units_Z   4
loop_
 _symmetry_equiv_pos_site_id
 _symmetry_equiv_pos_as_xyz
  1  'x, y, z'
loop_
 _atom_site_type_symbol
 _atom_site_label
 _atom_site_symmetry_multiplicity
 _atom_site_fract_x
 _atom_site_fract_y
 _atom_site_fract_z
 _atom_site_occupancy
  Na  Na0  1  0.12500000  0.25000000  0.37500000  1
  Na  Na1  1  0.37500000  0.75000000  0.12500000  1
  Na  Na2  1  0.62500000  0.25000000  0.87500000  1
  Na  Na3  1  0.87500000  0.75000000  0.62500000  1
  Ca  Ca4  1  0.12676747  0.37676747  0.75000000  1
  Ca  Ca5  1  0.25000000  0.87676747  0.62676747  1
  Ca  Ca6  1  0.62676747  0.87676747  0.75000000  1
  Ca  Ca7  1  0.25000000  0.37676747  0.12676747  1
  Ca  Ca8  1  0.37323253  0.12323253  0.25000000  1
  Ca  Ca9  1  0.75000000  0.62323253  0.87323253  1
  Ca  Ca10  1  0.87323253  0.62323253  0.25000000  1
  Ca  Ca11  1  0.75000000  0.12323253  0.37323253  1
  V  V12  1  0.12500000  0.75000000  0.87500000  1
  V  V13  1  0.12455348  0.87455348  0.25000000  1
  V  V14  1  0.25000000  0.62544652  0.37544652  1
  V  V15  1  0.37544652  0.62544652  0.75000000  1
  V  V16  1  0.25000000  0.12544652  0.87544652  1
  V  V17  1  0.37500000  0.25000000  0.62500000  1
  V  V18  1  0.62500000  0.75000000  0.37500000  1
  V  V19  1  0.62455348  0.37455348  0.25000000  1
  V  V20  1  0.75000000  0.37455348  0.62455348  1
  V  V21  1  0.75000000  0.87455348  0.12455348  1
  V  V22  1  0.87544652  0.12544652  0.75000000  1
  V  V23  1  0.87500000  0.25000000  0.12500000  1
  Zn  Zn24  1  0.00000000  0.50000000  0.50000000  1
  Zn  Zn25  1  0.00000000  0.00000000  0.50000000  1
  Zn  Zn26  1  0.00000000  0.50000000  0.00000000  1
  Zn  Zn27  1  0.00000000  0.00000000  0.00000000  1
  Zn  Zn28  1  0.50000000  0.50000000  0.50000000  1
  Zn  Zn29  1  0.50000000  0.00000000  0.50000000  1
  Zn  Zn30  1  0.50000000  0.50000000  0.00000000  1
  Zn  Zn31  1  0.50000000  0.00000000  0.00000000  1
  O  O32  1  0.10592741  0.98797534  0.69391340  1
  O  O33  1  0.01771982  0.30859274  0.89690999  1
  O  O34  1  0.11367756  0.59924257  0.90477509  1
  O  O35  1  0.09522491  0.70890247  0.69446748  1
  O  O36  1  0.08831725  0.87919016  0.39690999  1
  O  O37  1  0.10309001  0.62080984  0.41168275  1
  O  O38  1  0.19391340  0.48797534  0.60592741  1
  O  O39  1  0.41168275  0.80859274  0.79087291  1
  O  O40  1  0.38204793  0.58798599  0.89407259  1
  O  O41  1  0.29087291  0.30859274  0.91168275  1
  O  O42  1  0.30608660  0.91201401  0.29406194  1
  O  O43  1  0.01443500  0.20890247  0.11367756  1
  O  O44  1  0.19446748  0.20890247  0.59522491  1
  O  O45  1  0.20593806  0.58798599  0.19391340  1
  O  O46  1  0.39690999  0.80859274  0.51771982  1
  O  O47  1  0.29406194  0.48797534  0.38204793  1
  O  O48  1  0.30553252  0.90075743  0.01443500  1
  O  O49  1  0.11795207  0.01202466  0.20593806  1
  O  O50  1  0.39407259  0.08798599  0.88204793  1
  O  O51  1  0.51771982  0.62080984  0.70912709  1
  O  O52  1  0.51443500  0.40075743  0.80553252  1
  O  O53  1  0.38632244  0.29109753  0.48556500  1
  O  O54  1  0.59522491  0.90075743  0.38632244  1
  O  O55  1  0.20912709  0.12080984  0.01771982  1
  O  O56  1  0.79087291  0.87919016  0.98228018  1
  O  O57  1  0.40477509  0.09924257  0.61367756  1
  O  O58  1  0.61367756  0.70890247  0.51443500  1
  O  O59  1  0.48556500  0.59924257  0.19446748  1
  O  O60  1  0.48228018  0.37919016  0.29087291  1
  O  O61  1  0.60592741  0.91201401  0.11795207  1
  O  O62  1  0.88204793  0.98797534  0.79406194  1
  O  O63  1  0.69446748  0.09924257  0.98556500  1
  O  O64  1  0.70593806  0.51202466  0.61795207  1
  O  O65  1  0.60309001  0.19140726  0.48228018  1
  O  O66  1  0.79406194  0.41201401  0.80608660  1
  O  O67  1  0.80553252  0.79109753  0.40477509  1
  O  O68  1  0.98556500  0.79109753  0.88632244  1
  O  O69  1  0.69391340  0.08798599  0.70593806  1
  O  O70  1  0.70912709  0.69140726  0.08831725  1
  O  O71  1  0.61795207  0.41201401  0.10592741  1
  O  O72  1  0.58831725  0.19140726  0.20912709  1
  O  O73  1  0.80608660  0.51202466  0.39407259  1
  O  O74  1  0.89690999  0.37919016  0.58831725  1
  O  O75  1  0.91168275  0.12080984  0.60309001  1
  O  O76  1  0.90477509  0.29109753  0.30553252  1
  O  O77  1  0.88632244  0.40075743  0.09522491  1
  O  O78  1  0.98228018  0.69140726  0.10309001  1
  O  O79  1  0.89407259  0.01202466  0.30608660  1
