# generated using pymatgen
data_Na2PHO4
_symmetry_space_group_name_H-M   'P 1'
_cell_length_a   5.50679852
_cell_length_b   6.92729579
_cell_length_c   11.08073867
_cell_angle_alpha   90.00000000
_cell_angle_beta   116.32374487
_cell_angle_gamma   90.00000000
_symmetry_Int_Tables_number   1
_chemical_formula_structural   Na2PHO4
_chemical_formula_sum   'Na8 P4 H4 O16'
_cell_volume   378.86662775
_cell_formula_units_Z   4
loop_
 _symmetry_equiv_pos_site_id
 _symmetry_equiv_pos_as_xyz
  1  'x, y, z'
loop_
 _atom_site_type_symbol
 _atom_site_label
 _atom_site_symmetry_multiplicity
 _atom_site_fract_x
 _atom_site_fract_y
 _atom_site_fract_z
 _atom_site_occupancy
  Na  Na0  1  0.00000000  0.50000000  0.50000000  1
  Na  Na1  1  0.00000000  0.00000000  0.00000000  1
  Na  Na2  1  0.00000000  0.00000000  0.50000000  1
  Na  Na3  1  0.00000000  0.50000000  0.00000000  1
  Na  Na4  1  0.39190228  0.26432702  0.88836523  1
  Na  Na5  1  0.60809772  0.76432702  0.61163477  1
  Na  Na6  1  0.60809772  0.73567298  0.11163477  1
  Na  Na7  1  0.39190228  0.23567298  0.38836523  1
  P  P8  1  0.66542160  0.24606362  0.69149065  1
  P  P9  1  0.33457840  0.74606362  0.80850935  1
  P  P10  1  0.33457840  0.75393638  0.30850935  1
  P  P11  1  0.66542160  0.25393638  0.19149065  1
  H  H12  1  0.03705552  0.99079231  0.75869165  1
  H  H13  1  0.96294448  0.49079231  0.74130835  1
  H  H14  1  0.96294448  0.00920769  0.24130835  1
  H  H15  1  0.03705552  0.50920769  0.25869165  1
  O  O16  1  0.35977205  0.25409218  0.60503390  1
  O  O17  1  0.64022795  0.75409218  0.89496610  1
  O  O18  1  0.64022795  0.74590782  0.39496610  1
  O  O19  1  0.35977205  0.24590782  0.10503390  1
  O  O20  1  0.76306265  0.24606904  0.84447917  1
  O  O21  1  0.23693735  0.74606904  0.65552083  1
  O  O22  1  0.23693735  0.75393096  0.15552083  1
  O  O23  1  0.76306265  0.25393096  0.34447917  1
  O  O24  1  0.79058737  0.07589539  0.64540433  1
  O  O25  1  0.20941263  0.57589539  0.85459567  1
  O  O26  1  0.20941263  0.92410461  0.35459567  1
  O  O27  1  0.79058737  0.42410461  0.14540433  1
  O  O28  1  0.78928816  0.05758727  0.15844106  1
  O  O29  1  0.21071184  0.55758727  0.34155894  1
  O  O30  1  0.21071184  0.94241273  0.84155894  1
  O  O31  1  0.78928816  0.44241273  0.65844106  1
