# generated using pymatgen
data_Na2Ca17V2(PO4)14
_symmetry_space_group_name_H-M   'P 1'
_cell_length_a   13.86182132
_cell_length_b   13.87379423
_cell_length_c   27.72713585
_cell_angle_alpha   44.22605972
_cell_angle_beta   44.23457731
_cell_angle_gamma   44.22590385
_symmetry_Int_Tables_number   1
_chemical_formula_structural   Na2Ca17V2(PO4)14
_chemical_formula_sum   'Na4 Ca34 V4 P28 O112'
_cell_volume   2357.56735035
_cell_formula_units_Z   2
loop_
 _symmetry_equiv_pos_site_id
 _symmetry_equiv_pos_as_xyz
  1  'x, y, z'
loop_
 _atom_site_type_symbol
 _atom_site_label
 _atom_site_symmetry_multiplicity
 _atom_site_fract_x
 _atom_site_fract_y
 _atom_site_fract_z
 _atom_site_occupancy
  Na  Na0  1  0.21909457  0.23886618  0.91110585  1
  Na  Na1  1  0.45407906  0.45477177  0.73081068  1
  Na  Na2  1  0.32184176  0.73915963  0.85964224  1
  Na  Na3  1  0.96107619  0.95522690  0.97715687  1
  Ca  Ca4  1  0.17782949  0.61970815  0.10107792  1
  Ca  Ca5  1  0.20209235  0.17296608  0.31141008  1
  Ca  Ca6  1  0.61861014  0.20840363  0.08675930  1
  Ca  Ca7  1  0.22068129  0.24123361  0.40902717  1
  Ca  Ca8  1  0.24373902  0.82033570  0.10873406  1
  Ca  Ca9  1  0.12379532  0.67311854  0.35072791  1
  Ca  Ca10  1  0.82022863  0.22239576  0.11923163  1
  Ca  Ca11  1  0.33315406  0.34517313  0.46163714  1
  Ca  Ca12  1  0.34472283  0.92342137  0.16603186  1
  Ca  Ca13  1  0.67262662  0.70144422  0.06108307  1
  Ca  Ca14  1  0.70262837  0.12367441  0.33605558  1
  Ca  Ca15  1  0.31860403  0.74070695  0.36027956  1
  Ca  Ca16  1  0.92338033  0.33324222  0.17186879  1
  Ca  Ca17  1  0.72028364  0.31845277  0.37051784  1
  Ca  Ca18  1  0.17154813  0.62287748  0.60166023  1
  Ca  Ca19  1  0.73685385  0.71594400  0.16254086  1
  Ca  Ca20  1  0.20692185  0.17399717  0.81086091  1
  Ca  Ca21  1  0.62320763  0.19958337  0.58710527  1
  Ca  Ca22  1  0.42272044  0.84600888  0.41611461  1
  Ca  Ca23  1  0.23500556  0.82488804  0.60911002  1
  Ca  Ca24  1  0.83368900  0.42259517  0.42217368  1
  Ca  Ca25  1  0.84589117  0.83281114  0.21146892  1
  Ca  Ca26  1  0.12045560  0.67399395  0.85379698  1
  Ca  Ca27  1  0.82520782  0.21543975  0.61885612  1
  Ca  Ca28  1  0.33155335  0.34649018  0.96100413  1
  Ca  Ca29  1  0.34429565  0.92292020  0.66826129  1
  Ca  Ca30  1  0.67532317  0.70641981  0.55979848  1
  Ca  Ca31  1  0.70313365  0.11885529  0.83852888  1
  Ca  Ca32  1  0.92419014  0.33177051  0.67315026  1
  Ca  Ca33  1  0.71550130  0.32663248  0.86893327  1
  Ca  Ca34  1  0.73939429  0.72181422  0.66017179  1
  Ca  Ca35  1  0.42279686  0.84554815  0.91623521  1
  Ca  Ca36  1  0.83464090  0.42386942  0.92243140  1
  Ca  Ca37  1  0.84397308  0.83235658  0.71232778  1
  V  V38  1  0.26881179  0.26971964  0.13427092  1
  V  V39  1  0.26900572  0.26817943  0.63482282  1
  V  V40  1  0.76957141  0.76965688  0.38362123  1
  V  V41  1  0.76896594  0.76807222  0.88512783  1
  P  P42  1  0.03606509  0.03561582  0.01825780  1
  P  P43  1  0.04257230  0.59128029  0.03856580  1
  P  P44  1  0.07822665  0.04369934  0.29513596  1
  P  P45  1  0.59090158  0.07762206  0.02160412  1
  P  P46  1  0.03557947  0.03562810  0.51750796  1
  P  P47  1  0.09054935  0.54352388  0.28899655  1
  P  P48  1  0.54368043  0.57811621  0.04516986  1
  P  P49  1  0.57816791  0.09066797  0.27162493  1
  P  P50  1  0.04367599  0.59031352  0.53909130  1
  P  P51  1  0.07758015  0.04272376  0.79578710  1
  P  P52  1  0.53543793  0.53544274  0.26779786  1
  P  P53  1  0.58996974  0.07843845  0.52174307  1
  P  P54  1  0.45169566  0.49000471  0.47772181  1
  P  P55  1  0.49074123  0.95498076  0.22555601  1
  P  P56  1  0.09197222  0.54271726  0.78868882  1
  P  P57  1  0.95512024  0.45184344  0.24509580  1
  P  P58  1  0.54310424  0.57768853  0.54532895  1
  P  P59  1  0.57716470  0.09118499  0.77129875  1
  P  P60  1  0.45488461  0.98980283  0.47611245  1
  P  P61  1  0.95099197  0.45494913  0.49536750  1
  P  P62  1  0.98993882  0.95146138  0.22771845  1
  P  P63  1  0.53626985  0.53579908  0.76794015  1
  P  P64  1  0.45075975  0.49175510  0.97657257  1
  P  P65  1  0.48951096  0.95405362  0.72645308  1
  P  P66  1  0.95567845  0.45057388  0.74527472  1
  P  P67  1  0.45303652  0.99203536  0.97528352  1
  P  P68  1  0.95274105  0.45366184  0.99499437  1
  P  P69  1  0.99076831  0.95132482  0.72753338  1
  O  O70  1  0.07480523  0.07423465  0.04097039  1
  O  O71  1  0.14213005  0.41239390  0.07530787  1
  O  O72  1  0.15016133  0.14339754  0.20491179  1
  O  O73  1  0.02424649  0.68187347  0.06007321  1
  O  O74  1  0.41318051  0.14870431  0.07117648  1
  O  O75  1  0.12470690  0.02785974  0.33726277  1
  O  O76  1  0.13381914  0.38148262  0.20067228  1
  O  O77  1  0.38058605  0.39961017  0.06733374  1
  O  O78  1  0.40084060  0.13420724  0.19051135  1
  O  O79  1  0.02618983  0.87784045  0.08003638  1
  O  O80  1  0.68263177  0.11786273  0.01318537  1
  O  O81  1  0.16179572  0.02875275  0.43890873  1
  O  O82  1  0.10207566  0.38288106  0.32812355  1
  O  O83  1  0.13901875  0.62268137  0.20267155  1
  O  O84  1  0.07722362  0.07712206  0.53830463  1
  O  O85  1  0.38251433  0.65560536  0.05175098  1
  O  O86  1  0.40517000  0.13907370  0.31143601  1
  O  O87  1  0.17446033  0.52760391  0.31244941  1
  O  O88  1  0.65590758  0.10197739  0.19155677  1
  O  O89  1  0.62207136  0.40508537  0.06994429  1
  O  O90  1  0.87810634  0.15918181  0.01375392  1
  O  O91  1  0.16238390  0.85612353  0.20843245  1
  O  O92  1  0.11923111  0.40236463  0.46834612  1
  O  O93  1  0.52826393  0.62351859  0.08762474  1
  O  O94  1  0.62418703  0.17443690  0.26420845  1
  O  O95  1  0.41618110  0.16208030  0.42836264  1
  O  O96  1  0.40325196  0.93625448  0.05949023  1
  O  O97  1  0.15610426  0.88312281  0.30106722  1
  O  O98  1  0.12260386  0.63909130  0.45272491  1
  O  O99  1  0.37791894  0.52851522  0.33097287  1
  O  O100  1  0.14349085  0.41001915  0.57499023  1
  O  O101  1  0.14947115  0.14276373  0.70617269  1
  O  O102  1  0.85651143  0.41687450  0.08122934  1
  O  O103  1  0.52871114  0.66205317  0.18895027  1
  O  O104  1  0.66173222  0.37806498  0.26435899  1
  O  O105  1  0.93573477  0.11964245  0.20152998  1
  O  O106  1  0.02788306  0.67486112  0.56211559  1
  O  O107  1  0.41067921  0.14937305  0.57138157  1
  O  O108  1  0.11472001  0.03167649  0.84051924  1
  O  O109  1  0.60209004  0.15617746  0.44136487  1
  O  O110  1  0.64194682  0.90422507  0.06094536  1
  O  O111  1  0.44179459  0.45385860  0.44067048  1
  O  O112  1  0.45372692  0.88141967  0.22076766  1
  O  O113  1  0.57697187  0.57688777  0.28860439  1
  O  O114  1  0.13433403  0.38110169  0.70024119  1
  O  O115  1  0.88109690  0.60205277  0.07944181  1
  O  O116  1  0.90540334  0.12262750  0.31968420  1
  O  O117  1  0.38108645  0.40123071  0.56698225  1
  O  O118  1  0.40014479  0.13465548  0.68984135  1
  O  O119  1  0.35665963  0.66244836  0.45812537  1
  O  O120  1  0.02879592  0.87807507  0.58089652  1
  O  O121  1  0.67497700  0.12438003  0.51373853  1
  O  O122  1  0.88158959  0.44157035  0.22684892  1
  O  O123  1  0.15794624  0.02442775  0.94026378  1
  O  O124  1  0.43666420  0.90248564  0.30958322  1
  O  O125  1  0.10027920  0.38585285  0.82684566  1
  O  O126  1  0.66306978  0.91636138  0.17759298  1
  O  O127  1  0.62001405  0.43607953  0.45131403  1
  O  O128  1  0.14064517  0.62316395  0.70192465  1
  O  O129  1  0.38233188  0.65674850  0.55124572  1
  O  O130  1  0.91627059  0.35653360  0.33122657  1
  O  O131  1  0.90214959  0.62015113  0.21789789  1
  O  O132  1  0.40658806  0.14027900  0.80942983  1
  O  O133  1  0.18117727  0.53194087  0.80727123  1
  O  O134  1  0.65901575  0.10202581  0.69057278  1
  O  O135  1  0.62165499  0.40439466  0.57095509  1
  O  O136  1  0.87798175  0.16207167  0.51428750  1
  O  O137  1  0.38165354  0.95317169  0.47095549  1
  O  O138  1  0.64222669  0.64903515  0.45649311  1
  O  O139  1  0.64943906  0.90997705  0.32182178  1
  O  O140  1  0.16303999  0.85605479  0.70761474  1
  O  O141  1  0.11777166  0.40713997  0.96821513  1
  O  O142  1  0.52570998  0.61866883  0.59113189  1
  O  O143  1  0.91002333  0.64283643  0.32504363  1
  O  O144  1  0.62026998  0.18219875  0.76189648  1
  O  O145  1  0.42088649  0.16156933  0.92729104  1
  O  O146  1  0.40292635  0.93486146  0.56019372  1
  O  O147  1  0.94133981  0.38145227  0.47696172  1
  O  O148  1  0.95297960  0.94111499  0.19129384  1
  O  O149  1  0.63437474  0.90054632  0.44048129  1
  O  O150  1  0.15374789  0.88525321  0.80026526  1
  O  O151  1  0.11914632  0.64019936  0.95316144  1
  O  O152  1  0.38021335  0.52468021  0.82895672  1
  O  O153  1  0.88043748  0.63447522  0.45041568  1
  O  O154  1  0.90108910  0.88118255  0.31708348  1
  O  O155  1  0.85489886  0.41663342  0.58151123  1
  O  O156  1  0.52744466  0.65919520  0.68905586  1
  O  O157  1  0.65995355  0.37796908  0.76316456  1
  O  O158  1  0.93609155  0.11968154  0.70109475  1
  O  O159  1  0.60387016  0.15606877  0.94112745  1
  O  O160  1  0.63989912  0.90520505  0.56090667  1
  O  O161  1  0.44437289  0.44814224  0.94175613  1
  O  O162  1  0.45693188  0.88205997  0.71864988  1
  O  O163  1  0.58149975  0.57459712  0.78734485  1
  O  O164  1  0.88298574  0.60192596  0.57806073  1
  O  O165  1  0.90344501  0.12311848  0.82029104  1
  O  O166  1  0.35481388  0.66126272  0.96027000  1
  O  O167  1  0.88194936  0.44165098  0.72656360  1
  O  O168  1  0.43657409  0.90711817  0.80879962  1
  O  O169  1  0.66267732  0.91713437  0.67804311  1
  O  O170  1  0.61973629  0.43511405  0.95161058  1
  O  O171  1  0.91586141  0.35572487  0.83146280  1
  O  O172  1  0.90308715  0.61924030  0.71802049  1
  O  O173  1  0.38315315  0.94885376  0.97215497  1
  O  O174  1  0.64262716  0.64910114  0.95552893  1
  O  O175  1  0.65092177  0.91240721  0.82103376  1
  O  O176  1  0.91135838  0.64398462  0.82504482  1
  O  O177  1  0.93748039  0.38223799  0.97836195  1
  O  O178  1  0.95372292  0.94201953  0.69056915  1
  O  O179  1  0.63484101  0.89985729  0.94009376  1
  O  O180  1  0.88047746  0.63458073  0.95004323  1
  O  O181  1  0.90093867  0.88145717  0.81697870  1
