# generated using pymatgen
data_CdFe2Sb2(PO4)6
_symmetry_space_group_name_H-M   'P 1'
_cell_length_a   8.89321074
_cell_length_b   8.89321104
_cell_length_c   8.89321098
_cell_angle_alpha   57.27323120
_cell_angle_beta   57.27322988
_cell_angle_gamma   57.27322862
_symmetry_Int_Tables_number   1
_chemical_formula_structural   CdFe2Sb2(PO4)6
_chemical_formula_sum   'Cd1 Fe2 Sb2 P6 O24'
_cell_volume   466.12140093
_cell_formula_units_Z   1
loop_
 _symmetry_equiv_pos_site_id
 _symmetry_equiv_pos_as_xyz
  1  'x, y, z'
loop_
 _atom_site_type_symbol
 _atom_site_label
 _atom_site_symmetry_multiplicity
 _atom_site_fract_x
 _atom_site_fract_y
 _atom_site_fract_z
 _atom_site_occupancy
  Cd  Cd0  1  0.00000000  0.00000000  0.00000000  1
  Fe  Fe1  1  0.85294737  0.85294737  0.85294737  1
  Fe  Fe2  1  0.14705263  0.14705263  0.14705263  1
  Sb  Sb3  1  0.35402477  0.35402477  0.35402477  1
  Sb  Sb4  1  0.64597523  0.64597523  0.64597523  1
  P  P5  1  0.45881537  0.03708260  0.75329895  1
  P  P6  1  0.75329895  0.45881537  0.03708260  1
  P  P7  1  0.03708260  0.75329895  0.45881537  1
  P  P8  1  0.96291740  0.24670105  0.54118463  1
  P  P9  1  0.24670105  0.54118463  0.96291740  1
  P  P10  1  0.54118463  0.96291740  0.24670105  1
  O  O11  1  0.76292884  0.47733194  0.84592752  1
  O  O12  1  0.45228461  0.52228003  0.80866277  1
  O  O13  1  0.52228003  0.80866277  0.45228461  1
  O  O14  1  0.80866277  0.45228461  0.52228003  1
  O  O15  1  0.00861899  0.79861602  0.61532263  1
  O  O16  1  0.84592752  0.76292884  0.47733194  1
  O  O17  1  0.61532263  0.00861899  0.79861602  1
  O  O18  1  0.47733194  0.84592752  0.76292884  1
  O  O19  1  0.74403254  0.90286736  0.10342377  1
  O  O20  1  0.90286736  0.10342377  0.74403254  1
  O  O21  1  0.10342377  0.74403254  0.90286736  1
  O  O22  1  0.20138398  0.38467737  0.99138101  1
  O  O23  1  0.79861602  0.61532263  0.00861899  1
  O  O24  1  0.89657623  0.25596746  0.09713264  1
  O  O25  1  0.09713264  0.89657623  0.25596746  1
  O  O26  1  0.25596746  0.09713264  0.89657623  1
  O  O27  1  0.52266806  0.15407248  0.23707116  1
  O  O28  1  0.38467737  0.99138101  0.20138398  1
  O  O29  1  0.15407248  0.23707116  0.52266806  1
  O  O30  1  0.99138101  0.20138398  0.38467737  1
  O  O31  1  0.19133723  0.54771539  0.47771997  1
  O  O32  1  0.47771997  0.19133723  0.54771539  1
  O  O33  1  0.54771539  0.47771997  0.19133723  1
  O  O34  1  0.23707116  0.52266806  0.15407248  1
