# generated using pymatgen
data_Mn7SbAsO12
_symmetry_space_group_name_H-M   'P 1'
_cell_length_a   6.21991697
_cell_length_b   8.96180107
_cell_length_c   11.09484161
_cell_angle_alpha   113.82048596
_cell_angle_beta   106.27851303
_cell_angle_gamma   90.00000125
_symmetry_Int_Tables_number   1
_chemical_formula_structural   Mn7SbAsO12
_chemical_formula_sum   'Mn14 Sb2 As2 O24'
_cell_volume   538.54980625
_cell_formula_units_Z   2
loop_
 _symmetry_equiv_pos_site_id
 _symmetry_equiv_pos_as_xyz
  1  'x, y, z'
loop_
 _atom_site_type_symbol
 _atom_site_label
 _atom_site_symmetry_multiplicity
 _atom_site_fract_x
 _atom_site_fract_y
 _atom_site_fract_z
 _atom_site_occupancy
  Mn  Mn0  1  0.92569689  0.79492606  0.35139377  1
  Mn  Mn1  1  0.65839418  0.15839418  0.31678835  1
  Mn  Mn2  1  0.33389356  0.81041460  0.16778712  1
  Mn  Mn3  1  0.15839418  0.15839418  0.31678835  1
  Mn  Mn4  1  0.16610644  0.64262749  0.83221288  1
  Mn  Mn5  1  0.84160582  0.84160582  0.68321165  1
  Mn  Mn6  1  0.42569689  0.55646771  0.35139377  1
  Mn  Mn7  1  0.50000000  0.00000000  0.00000000  1
  Mn  Mn8  1  0.83389356  0.35737251  0.16778712  1
  Mn  Mn9  1  0.34160582  0.84160582  0.68321165  1
  Mn  Mn10  1  0.66610644  0.18958540  0.83221288  1
  Mn  Mn11  1  0.07430311  0.20507394  0.64860623  1
  Mn  Mn12  1  0.57430311  0.44353229  0.64860623  1
  Mn  Mn13  1  0.00000000  0.00000000  0.00000000  1
  Sb  Sb14  1  0.00000000  0.50000000  0.50000000  1
  Sb  Sb15  1  0.50000000  0.00000000  0.50000000  1
  As  As16  1  0.25000000  0.37047011  0.00000000  1
  As  As17  1  0.75000000  0.62952989  1.00000000  1
  O  O18  1  0.99088521  0.26654260  0.48177042  1
  O  O19  1  0.82902107  0.11106491  0.15804214  1
  O  O20  1  0.98217608  0.73867954  1.00000000  1
  O  O21  1  0.50911479  0.78477218  0.51822958  1
  O  O22  1  0.51782392  0.73867954  0.00000000  1
  O  O23  1  0.17598145  0.40567498  0.85196289  1
  O  O24  1  0.67598145  0.44628791  0.85196289  1
  O  O25  1  0.32401855  0.55371209  0.14803711  1
  O  O26  1  0.00911479  0.73345740  0.51822958  1
  O  O27  1  0.64532738  0.91973337  0.34628526  1
  O  O28  1  0.01782392  0.26132046  0.00000000  1
  O  O29  1  0.67097893  0.95302277  0.84195786  1
  O  O30  1  0.82401855  0.59432502  0.14803711  1
  O  O31  1  0.85467262  0.57344811  0.65371474  1
  O  O32  1  0.79904212  0.08026663  0.65371474  1
  O  O33  1  0.17097893  0.88893509  0.84195786  1
  O  O34  1  0.49088521  0.21522782  0.48177042  1
  O  O35  1  0.20095788  0.91973337  0.34628526  1
  O  O36  1  0.32902107  0.04697723  0.15804214  1
  O  O37  1  0.14532738  0.42655189  0.34628526  1
  O  O38  1  0.29904212  0.57344811  0.65371474  1
  O  O39  1  0.48217608  0.26132046  1.00000000  1
  O  O40  1  0.70095788  0.42655189  0.34628526  1
  O  O41  1  0.35467262  0.08026663  0.65371474  1
