# generated using pymatgen
data_RbH2N
_symmetry_space_group_name_H-M   'P 1'
_cell_length_a   4.88270185
_cell_length_b   4.22672789
_cell_length_c   6.46361501
_cell_angle_alpha   90.00000000
_cell_angle_beta   98.50640400
_cell_angle_gamma   90.00000000
_symmetry_Int_Tables_number   1
_chemical_formula_structural   RbH2N
_chemical_formula_sum   'Rb2 H4 N2'
_cell_volume   131.92769559
_cell_formula_units_Z   2
loop_
 _symmetry_equiv_pos_site_id
 _symmetry_equiv_pos_as_xyz
  1  'x, y, z'
loop_
 _atom_site_type_symbol
 _atom_site_label
 _atom_site_symmetry_multiplicity
 _atom_site_fract_x
 _atom_site_fract_y
 _atom_site_fract_z
 _atom_site_occupancy
  Rb  Rb0  1  0.19535394  0.25000000  0.29560430  1
  Rb  Rb1  1  0.80464606  0.75000000  0.70439570  1
  H  H2  1  0.34387211  0.43829056  0.84591301  1
  H  H3  1  0.65612789  0.93829056  0.15408699  1
  H  H4  1  0.65612789  0.56170944  0.15408699  1
  H  H5  1  0.34387211  0.06170944  0.84591301  1
  N  N6  1  0.26369289  0.25000000  0.75415007  1
  N  N7  1  0.73630711  0.75000000  0.24584993  1
