# generated using pymatgen
data_H15RhBr3N5
_symmetry_space_group_name_H-M   'P 1'
_cell_length_a   14.10139643
_cell_length_b   11.09600036
_cell_length_c   7.11763240
_cell_angle_alpha   90.00000000
_cell_angle_beta   90.00000000
_cell_angle_gamma   90.00000000
_symmetry_Int_Tables_number   1
_chemical_formula_structural   H15RhBr3N5
_chemical_formula_sum   'H60 Rh4 Br12 N20'
_cell_volume   1113.68953479
_cell_formula_units_Z   4
loop_
 _symmetry_equiv_pos_site_id
 _symmetry_equiv_pos_as_xyz
  1  'x, y, z'
loop_
 _atom_site_type_symbol
 _atom_site_label
 _atom_site_symmetry_multiplicity
 _atom_site_fract_x
 _atom_site_fract_y
 _atom_site_fract_z
 _atom_site_occupancy
  H  H0  1  0.15354260  0.02587817  0.09113949  1
  H  H1  1  0.65354260  0.47412183  0.40886051  1
  H  H2  1  0.84645740  0.52587817  0.90886051  1
  H  H3  1  0.34645740  0.97412183  0.59113949  1
  H  H4  1  0.84645740  0.97412183  0.90886051  1
  H  H5  1  0.34645740  0.52587817  0.59113949  1
  H  H6  1  0.15354260  0.47412183  0.09113949  1
  H  H7  1  0.65354260  0.02587817  0.40886051  1
  H  H8  1  0.03721484  0.03007543  0.13261247  1
  H  H9  1  0.53721484  0.46992457  0.36738753  1
  H  H10  1  0.96278516  0.53007543  0.86738753  1
  H  H11  1  0.46278516  0.96992457  0.63261247  1
  H  H12  1  0.96278516  0.96992457  0.86738753  1
  H  H13  1  0.46278516  0.53007543  0.63261247  1
  H  H14  1  0.03721484  0.46992457  0.13261247  1
  H  H15  1  0.53721484  0.03007543  0.36738753  1
  H  H16  1  0.11384505  0.02816781  0.30985890  1
  H  H17  1  0.61384505  0.47183219  0.19014110  1
  H  H18  1  0.88615495  0.52816781  0.69014110  1
  H  H19  1  0.38615495  0.97183219  0.80985890  1
  H  H20  1  0.88615495  0.97183219  0.69014110  1
  H  H21  1  0.38615495  0.52816781  0.80985890  1
  H  H22  1  0.11384505  0.47183219  0.30985890  1
  H  H23  1  0.61384505  0.02816781  0.19014110  1
  H  H24  1  0.26745585  0.25000000  0.99327240  1
  H  H25  1  0.76745585  0.25000000  0.50672760  1
  H  H26  1  0.73254415  0.75000000  0.00672760  1
  H  H27  1  0.23254415  0.75000000  0.49327240  1
  H  H28  1  0.18871280  0.17457400  0.86573549  1
  H  H29  1  0.68871280  0.32542600  0.63426451  1
  H  H30  1  0.81128720  0.67457400  0.13426451  1
  H  H31  1  0.31128720  0.82542600  0.36573549  1
  H  H32  1  0.81128720  0.82542600  0.13426451  1
  H  H33  1  0.31128720  0.67457400  0.36573549  1
  H  H34  1  0.18871280  0.32542600  0.86573549  1
  H  H35  1  0.68871280  0.17457400  0.63426451  1
  H  H36  1  0.04447574  0.25000000  0.52825482  1
  H  H37  1  0.54447574  0.25000000  0.97174518  1
  H  H38  1  0.95552426  0.75000000  0.47174518  1
  H  H39  1  0.45552426  0.75000000  0.02825482  1
  H  H40  1  0.96728809  0.32555068  0.39751688  1
  H  H41  1  0.46728809  0.17444932  0.10248312  1
  H  H42  1  0.03271191  0.82555068  0.60248312  1
  H  H43  1  0.53271191  0.67444932  0.89751688  1
  H  H44  1  0.03271191  0.67444932  0.60248312  1
  H  H45  1  0.53271191  0.82555068  0.89751688  1
  H  H46  1  0.96728809  0.17444932  0.39751688  1
  H  H47  1  0.46728809  0.32555068  0.10248312  1
  H  H48  1  0.28131737  0.25000000  0.29796243  1
  H  H49  1  0.78131737  0.25000000  0.20203757  1
  H  H50  1  0.71868263  0.75000000  0.70203757  1
  H  H51  1  0.21868263  0.75000000  0.79796243  1
  H  H52  1  0.21475180  0.32571033  0.44730170  1
  H  H53  1  0.71475180  0.17428967  0.05269830  1
  H  H54  1  0.78524820  0.82571033  0.55269830  1
  H  H55  1  0.28524820  0.67428967  0.94730170  1
  H  H56  1  0.78524820  0.67428967  0.55269830  1
  H  H57  1  0.28524820  0.82571033  0.94730170  1
  H  H58  1  0.21475180  0.17428967  0.44730170  1
  H  H59  1  0.71475180  0.32571033  0.05269830  1
  Rh  Rh60  1  0.10313446  0.25000000  0.17351129  1
  Rh  Rh61  1  0.60313446  0.25000000  0.32648871  1
  Rh  Rh62  1  0.89686554  0.75000000  0.82648871  1
  Rh  Rh63  1  0.39686554  0.75000000  0.67351129  1
  Br  Br64  1  0.96599522  0.25000000  0.94340102  1
  Br  Br65  1  0.46599522  0.25000000  0.55659898  1
  Br  Br66  1  0.03400478  0.75000000  0.05659898  1
  Br  Br67  1  0.53400478  0.75000000  0.44340102  1
  Br  Br68  1  0.64817377  0.50129815  0.84759508  1
  Br  Br69  1  0.14817377  0.99870185  0.65240492  1
  Br  Br70  1  0.35182623  0.00129815  0.15240492  1
  Br  Br71  1  0.85182623  0.49870185  0.34759508  1
  Br  Br72  1  0.35182623  0.49870185  0.15240492  1
  Br  Br73  1  0.85182623  0.00129815  0.34759508  1
  Br  Br74  1  0.64817377  0.99870185  0.84759508  1
  Br  Br75  1  0.14817377  0.50129815  0.65240492  1
  N  N76  1  0.21655148  0.25000000  0.36291525  1
  N  N77  1  0.71655148  0.25000000  0.13708475  1
  N  N78  1  0.78344852  0.75000000  0.63708475  1
  N  N79  1  0.28344852  0.75000000  0.86291525  1
  N  N80  1  0.19850201  0.25000000  0.94880653  1
  N  N81  1  0.69850201  0.25000000  0.55119347  1
  N  N82  1  0.80149799  0.75000000  0.05119347  1
  N  N83  1  0.30149799  0.75000000  0.44880653  1
  N  N84  1  0.01000383  0.25000000  0.40135537  1
  N  N85  1  0.51000383  0.25000000  0.09864463  1
  N  N86  1  0.98999617  0.75000000  0.59864463  1
  N  N87  1  0.48999617  0.75000000  0.90135537  1
  N  N88  1  0.10216665  0.06162180  0.17664437  1
  N  N89  1  0.60216665  0.43837820  0.32335563  1
  N  N90  1  0.89783335  0.56162180  0.82335563  1
  N  N91  1  0.39783335  0.93837820  0.67664437  1
  N  N92  1  0.89783335  0.93837820  0.82335563  1
  N  N93  1  0.39783335  0.56162180  0.67664437  1
  N  N94  1  0.10216665  0.43837820  0.17664437  1
  N  N95  1  0.60216665  0.06162180  0.32335563  1
