# generated using pymatgen
data_Ba3AlHO4
_symmetry_space_group_name_H-M   'P 1'
_cell_length_a   10.62661884
_cell_length_b   8.27268426
_cell_length_c   7.33996057
_cell_angle_alpha   90.00000000
_cell_angle_beta   90.00000000
_cell_angle_gamma   90.00000000
_symmetry_Int_Tables_number   1
_chemical_formula_structural   Ba3AlHO4
_chemical_formula_sum   'Ba12 Al4 H4 O16'
_cell_volume   645.26079581
_cell_formula_units_Z   4
loop_
 _symmetry_equiv_pos_site_id
 _symmetry_equiv_pos_as_xyz
  1  'x, y, z'
loop_
 _atom_site_type_symbol
 _atom_site_label
 _atom_site_symmetry_multiplicity
 _atom_site_fract_x
 _atom_site_fract_y
 _atom_site_fract_z
 _atom_site_occupancy
  Ba  Ba0  1  0.83444856  0.02585100  0.39901745  1
  Ba  Ba1  1  0.33444856  0.47414900  0.10098255  1
  Ba  Ba2  1  0.16555144  0.52585100  0.60098255  1
  Ba  Ba3  1  0.66555144  0.97414900  0.89901745  1
  Ba  Ba4  1  0.16555144  0.97414900  0.60098255  1
  Ba  Ba5  1  0.66555144  0.52585100  0.89901745  1
  Ba  Ba6  1  0.83444856  0.47414900  0.39901745  1
  Ba  Ba7  1  0.33444856  0.02585100  0.10098255  1
  Ba  Ba8  1  0.96331592  0.25000000  0.90176139  1
  Ba  Ba9  1  0.46331592  0.25000000  0.59823861  1
  Ba  Ba10  1  0.03668408  0.75000000  0.09823861  1
  Ba  Ba11  1  0.53668408  0.75000000  0.40176139  1
  Al  Al12  1  0.60359568  0.25000000  0.18925665  1
  Al  Al13  1  0.10359568  0.25000000  0.31074335  1
  Al  Al14  1  0.39640432  0.75000000  0.81074335  1
  Al  Al15  1  0.89640432  0.75000000  0.68925665  1
  H  H16  1  0.73076192  0.25000000  0.66077188  1
  H  H17  1  0.23076192  0.25000000  0.83922812  1
  H  H18  1  0.26923808  0.75000000  0.33922812  1
  H  H19  1  0.76923808  0.75000000  0.16077188  1
  O  O20  1  0.57242604  0.06615324  0.30586501  1
  O  O21  1  0.07242604  0.43384676  0.19413499  1
  O  O22  1  0.42757396  0.56615324  0.69413499  1
  O  O23  1  0.92757396  0.93384676  0.80586501  1
  O  O24  1  0.42757396  0.93384676  0.69413499  1
  O  O25  1  0.92757396  0.56615324  0.80586501  1
  O  O26  1  0.57242604  0.43384676  0.30586501  1
  O  O27  1  0.07242604  0.06615324  0.19413499  1
  O  O28  1  0.51200094  0.25000000  0.98335446  1
  O  O29  1  0.01200094  0.25000000  0.51664554  1
  O  O30  1  0.48799906  0.75000000  0.01664554  1
  O  O31  1  0.98799906  0.75000000  0.48335446  1
  O  O32  1  0.76748689  0.25000000  0.12916123  1
  O  O33  1  0.26748689  0.25000000  0.37083877  1
  O  O34  1  0.23251311  0.75000000  0.87083877  1
  O  O35  1  0.73251311  0.75000000  0.62916123  1
