# generated using pymatgen
data_Na2AlSi3HO9
_symmetry_space_group_name_H-M   'P 1'
_cell_length_a   7.27231734
_cell_length_b   7.33293182
_cell_length_c   8.73720334
_cell_angle_alpha   80.27845021
_cell_angle_beta   79.16855329
_cell_angle_gamma   64.50029667
_symmetry_Int_Tables_number   1
_chemical_formula_structural   Na2AlSi3HO9
_chemical_formula_sum   'Na4 Al2 Si6 H2 O18'
_cell_volume   411.01425537
_cell_formula_units_Z   2
loop_
 _symmetry_equiv_pos_site_id
 _symmetry_equiv_pos_as_xyz
  1  'x, y, z'
loop_
 _atom_site_type_symbol
 _atom_site_label
 _atom_site_symmetry_multiplicity
 _atom_site_fract_x
 _atom_site_fract_y
 _atom_site_fract_z
 _atom_site_occupancy
  Na  Na0  1  0.61364764  0.21641985  0.05563386  1
  Na  Na1  1  0.38635236  0.78358015  0.94436614  1
  Na  Na2  1  0.76147178  0.41499286  0.44258061  1
  Na  Na3  1  0.23852822  0.58500714  0.55741939  1
  Al  Al4  1  0.95317399  0.80456034  0.85350316  1
  Al  Al5  1  0.04682601  0.19543966  0.14649684  1
  Si  Si6  1  0.80687924  0.94456900  0.36339393  1
  Si  Si7  1  0.19312076  0.05543100  0.63660607  1
  Si  Si8  1  0.58319380  0.09409006  0.69355531  1
  Si  Si9  1  0.41680620  0.90590994  0.30644469  1
  Si  Si10  1  0.89349555  0.40249390  0.81308961  1
  Si  Si11  1  0.10650445  0.59750610  0.18691039  1
  H  H12  1  0.58684058  0.43149758  0.74770882  1
  H  H13  1  0.41315942  0.56850242  0.25229118  1
  O  O14  1  0.86620967  0.13134360  0.28405474  1
  O  O15  1  0.13379033  0.86865640  0.71594526  1
  O  O16  1  0.52676201  0.33202279  0.64986436  1
  O  O17  1  0.47323799  0.66797721  0.35013564  1
  O  O18  1  0.00385251  0.72127549  0.34770594  1
  O  O19  1  0.99614749  0.27872451  0.65229406  1
  O  O20  1  0.70114365  0.99678700  0.84992656  1
  O  O21  1  0.29885635  0.00321300  0.15007344  1
  O  O22  1  0.97609646  0.57777875  0.79581257  1
  O  O23  1  0.02390354  0.42222125  0.20418743  1
  O  O24  1  0.62482025  0.95465890  0.27129113  1
  O  O25  1  0.37517975  0.04534110  0.72870887  1
  O  O26  1  0.95732839  0.23831030  0.96540413  1
  O  O27  1  0.04267161  0.76168970  0.03459587  1
  O  O28  1  0.64145652  0.49784725  0.81850385  1
  O  O29  1  0.35854348  0.50215275  0.18149615  1
  O  O30  1  0.73188041  0.95643698  0.54970006  1
  O  O31  1  0.26811959  0.04356302  0.45029994  1
