# generated using pymatgen
data_PH4N(OF)2
_symmetry_space_group_name_H-M   'P 1'
_cell_length_a   8.23344673
_cell_length_b   6.54702150
_cell_length_c   7.98037355
_cell_angle_alpha   90.00000000
_cell_angle_beta   90.00000000
_cell_angle_gamma   90.00000000
_symmetry_Int_Tables_number   1
_chemical_formula_structural   PH4N(OF)2
_chemical_formula_sum   'P4 H16 N4 O8 F8'
_cell_volume   430.17846707
_cell_formula_units_Z   4
loop_
 _symmetry_equiv_pos_site_id
 _symmetry_equiv_pos_as_xyz
  1  'x, y, z'
loop_
 _atom_site_type_symbol
 _atom_site_label
 _atom_site_symmetry_multiplicity
 _atom_site_fract_x
 _atom_site_fract_y
 _atom_site_fract_z
 _atom_site_occupancy
  P  P0  1  0.60640342  0.25000000  0.81955817  1
  P  P1  1  0.10640342  0.25000000  0.68044183  1
  P  P2  1  0.39359658  0.75000000  0.18044183  1
  P  P3  1  0.89359658  0.75000000  0.31955817  1
  H  H4  1  0.62200255  0.25000000  0.48184826  1
  H  H5  1  0.12200255  0.25000000  0.01815174  1
  H  H6  1  0.37799745  0.75000000  0.51815174  1
  H  H7  1  0.87799745  0.75000000  0.98184826  1
  H  H8  1  0.74774091  0.25000000  0.31645229  1
  H  H9  1  0.24774091  0.25000000  0.18354771  1
  H  H10  1  0.25225909  0.75000000  0.68354771  1
  H  H11  1  0.75225909  0.75000000  0.81645229  1
  H  H12  1  0.56740344  0.12106856  0.30923155  1
  H  H13  1  0.06740344  0.37893144  0.19076845  1
  H  H14  1  0.43259656  0.62106856  0.69076845  1
  H  H15  1  0.93259656  0.87893144  0.80923155  1
  H  H16  1  0.43259656  0.87893144  0.69076845  1
  H  H17  1  0.93259656  0.62106856  0.80923155  1
  H  H18  1  0.56740344  0.37893144  0.30923155  1
  H  H19  1  0.06740344  0.12106856  0.19076845  1
  N  N20  1  0.62853252  0.25000000  0.35301425  1
  N  N21  1  0.12853252  0.25000000  0.14698575  1
  N  N22  1  0.37146748  0.75000000  0.64698575  1
  N  N23  1  0.87146748  0.75000000  0.85301425  1
  O  O24  1  0.60835443  0.05138722  0.72783719  1
  O  O25  1  0.10835443  0.44861278  0.77216281  1
  O  O26  1  0.39164557  0.55138722  0.27216281  1
  O  O27  1  0.89164557  0.94861278  0.22783719  1
  O  O28  1  0.39164557  0.94861278  0.27216281  1
  O  O29  1  0.89164557  0.55138722  0.22783719  1
  O  O30  1  0.60835443  0.44861278  0.72783719  1
  O  O31  1  0.10835443  0.05138722  0.77216281  1
  F  F32  1  0.74804185  0.25000000  0.95474445  1
  F  F33  1  0.24804185  0.25000000  0.54525555  1
  F  F34  1  0.25195815  0.75000000  0.04525555  1
  F  F35  1  0.75195815  0.75000000  0.45474445  1
  F  F36  1  0.45823823  0.25000000  0.94733271  1
  F  F37  1  0.95823823  0.25000000  0.55266729  1
  F  F38  1  0.54176177  0.75000000  0.05266729  1
  F  F39  1  0.04176177  0.75000000  0.44733271  1
