# generated using pymatgen
data_PH6SN3
_symmetry_space_group_name_H-M   'P 1'
_cell_length_a   9.35893323
_cell_length_b   9.74982108
_cell_length_c   10.64147384
_cell_angle_alpha   90.00000000
_cell_angle_beta   90.00000000
_cell_angle_gamma   90.00000000
_symmetry_Int_Tables_number   1
_chemical_formula_structural   PH6SN3
_chemical_formula_sum   'P8 H48 S8 N24'
_cell_volume   971.01240144
_cell_formula_units_Z   8
loop_
 _symmetry_equiv_pos_site_id
 _symmetry_equiv_pos_as_xyz
  1  'x, y, z'
loop_
 _atom_site_type_symbol
 _atom_site_label
 _atom_site_symmetry_multiplicity
 _atom_site_fract_x
 _atom_site_fract_y
 _atom_site_fract_z
 _atom_site_occupancy
  P  P0  1  0.83465629  0.41275878  0.34367068  1
  P  P1  1  0.33465629  0.08724122  0.65632932  1
  P  P2  1  0.16534371  0.91275878  0.15632932  1
  P  P3  1  0.66534371  0.58724122  0.84367068  1
  P  P4  1  0.16534371  0.58724122  0.65632932  1
  P  P5  1  0.66534371  0.91275878  0.34367068  1
  P  P6  1  0.83465629  0.08724122  0.84367068  1
  P  P7  1  0.33465629  0.41275878  0.15632932  1
  H  H8  1  0.00889817  0.54494752  0.25670078  1
  H  H9  1  0.50889817  0.95505248  0.74329922  1
  H  H10  1  0.99110183  0.04494752  0.24329922  1
  H  H11  1  0.49110183  0.45505248  0.75670078  1
  H  H12  1  0.99110183  0.45505248  0.74329922  1
  H  H13  1  0.49110183  0.04494752  0.25670078  1
  H  H14  1  0.00889817  0.95505248  0.75670078  1
  H  H15  1  0.50889817  0.54494752  0.24329922  1
  H  H16  1  0.85898498  0.63582887  0.28502486  1
  H  H17  1  0.35898498  0.86417113  0.71497514  1
  H  H18  1  0.14101502  0.13582887  0.21497514  1
  H  H19  1  0.64101502  0.36417113  0.78502486  1
  H  H20  1  0.14101502  0.36417113  0.71497514  1
  H  H21  1  0.64101502  0.13582887  0.28502486  1
  H  H22  1  0.85898498  0.86417113  0.78502486  1
  H  H23  1  0.35898498  0.63582887  0.21497514  1
  H  H24  1  0.00491053  0.35863930  0.49356719  1
  H  H25  1  0.50491053  0.14136070  0.50643281  1
  H  H26  1  0.99508947  0.85863930  0.00643281  1
  H  H27  1  0.49508947  0.64136070  0.99356719  1
  H  H28  1  0.99508947  0.64136070  0.50643281  1
  H  H29  1  0.49508947  0.85863930  0.49356719  1
  H  H30  1  0.00491053  0.14136070  0.99356719  1
  H  H31  1  0.50491053  0.35863930  0.00643281  1
  H  H32  1  0.93717141  0.21722159  0.42302170  1
  H  H33  1  0.43717141  0.28277841  0.57697830  1
  H  H34  1  0.06282859  0.71722159  0.07697830  1
  H  H35  1  0.56282859  0.78277841  0.92302170  1
  H  H36  1  0.06282859  0.78277841  0.57697830  1
  H  H37  1  0.56282859  0.71722159  0.42302170  1
  H  H38  1  0.93717141  0.28277841  0.92302170  1
  H  H39  1  0.43717141  0.21722159  0.07697830  1
  H  H40  1  0.89031656  0.30036281  0.16241006  1
  H  H41  1  0.39031656  0.19963719  0.83758994  1
  H  H42  1  0.10968344  0.80036281  0.33758994  1
  H  H43  1  0.60968344  0.69963719  0.66241006  1
  H  H44  1  0.10968344  0.69963719  0.83758994  1
  H  H45  1  0.60968344  0.80036281  0.16241006  1
  H  H46  1  0.89031656  0.19963719  0.66241006  1
  H  H47  1  0.39031656  0.30036281  0.33758994  1
  H  H48  1  0.71629163  0.34381694  0.16583584  1
  H  H49  1  0.21629163  0.15618306  0.83416416  1
  H  H50  1  0.28370837  0.84381694  0.33416416  1
  H  H51  1  0.78370837  0.65618306  0.66583584  1
  H  H52  1  0.28370837  0.65618306  0.83416416  1
  H  H53  1  0.78370837  0.84381694  0.16583584  1
  H  H54  1  0.71629163  0.15618306  0.66583584  1
  H  H55  1  0.21629163  0.34381694  0.33416416  1
  S  S56  1  0.65239269  0.45483237  0.42786245  1
  S  S57  1  0.15239269  0.04516763  0.57213755  1
  S  S58  1  0.34760731  0.95483237  0.07213755  1
  S  S59  1  0.84760731  0.54516763  0.92786245  1
  S  S60  1  0.34760731  0.54516763  0.57213755  1
  S  S61  1  0.84760731  0.95483237  0.42786245  1
  S  S62  1  0.65239269  0.04516763  0.92786245  1
  S  S63  1  0.15239269  0.45483237  0.07213755  1
  N  N64  1  0.92432009  0.55924893  0.31744000  1
  N  N65  1  0.42432009  0.94075107  0.68256000  1
  N  N66  1  0.07567991  0.05924893  0.18256000  1
  N  N67  1  0.57567991  0.44075107  0.81744000  1
  N  N68  1  0.07567991  0.44075107  0.68256000  1
  N  N69  1  0.57567991  0.05924893  0.31744000  1
  N  N70  1  0.92432009  0.94075107  0.81744000  1
  N  N71  1  0.42432009  0.55924893  0.18256000  1
  N  N72  1  0.96139645  0.31932424  0.41265757  1
  N  N73  1  0.46139645  0.18067576  0.58734243  1
  N  N74  1  0.03860355  0.81932424  0.08734243  1
  N  N75  1  0.53860355  0.68067576  0.91265757  1
  N  N76  1  0.03860355  0.68067576  0.58734243  1
  N  N77  1  0.53860355  0.81932424  0.41265757  1
  N  N78  1  0.96139645  0.18067576  0.91265757  1
  N  N79  1  0.46139645  0.31932424  0.08734243  1
  N  N80  1  0.80255785  0.31412437  0.21822492  1
  N  N81  1  0.30255785  0.18587563  0.78177508  1
  N  N82  1  0.19744215  0.81412437  0.28177508  1
  N  N83  1  0.69744215  0.68587563  0.71822492  1
  N  N84  1  0.19744215  0.68587563  0.78177508  1
  N  N85  1  0.69744215  0.81412437  0.21822492  1
  N  N86  1  0.80255785  0.18587563  0.71822492  1
  N  N87  1  0.30255785  0.31412437  0.28177508  1
