# generated using pymatgen
data_H6CN3Cl
_symmetry_space_group_name_H-M   'P 1'
_cell_length_a   8.51656970
_cell_length_b   13.52236166
_cell_length_c   8.15009955
_cell_angle_alpha   90.00000000
_cell_angle_beta   90.00000000
_cell_angle_gamma   90.00000000
_symmetry_Int_Tables_number   1
_chemical_formula_structural   H6CN3Cl
_chemical_formula_sum   'H48 C8 N24 Cl8'
_cell_volume   938.59916962
_cell_formula_units_Z   8
loop_
 _symmetry_equiv_pos_site_id
 _symmetry_equiv_pos_as_xyz
  1  'x, y, z'
loop_
 _atom_site_type_symbol
 _atom_site_label
 _atom_site_symmetry_multiplicity
 _atom_site_fract_x
 _atom_site_fract_y
 _atom_site_fract_z
 _atom_site_occupancy
  H  H0  1  0.83391552  0.21700573  0.08755239  1
  H  H1  1  0.33391552  0.28299427  0.91244761  1
  H  H2  1  0.16608448  0.71700573  0.41244761  1
  H  H3  1  0.66608448  0.78299427  0.58755239  1
  H  H4  1  0.16608448  0.78299427  0.91244761  1
  H  H5  1  0.66608448  0.71700573  0.08755239  1
  H  H6  1  0.83391552  0.28299427  0.58755239  1
  H  H7  1  0.33391552  0.21700573  0.41244761  1
  H  H8  1  0.69591557  0.28894937  0.97178117  1
  H  H9  1  0.19591557  0.21105063  0.02821883  1
  H  H10  1  0.30408443  0.78894937  0.52821883  1
  H  H11  1  0.80408443  0.71105063  0.47178117  1
  H  H12  1  0.30408443  0.71105063  0.02821883  1
  H  H13  1  0.80408443  0.78894937  0.97178117  1
  H  H14  1  0.69591557  0.21105063  0.47178117  1
  H  H15  1  0.19591557  0.28894937  0.52821883  1
  H  H16  1  0.69727876  0.45505465  0.97832708  1
  H  H17  1  0.19727876  0.04494535  0.02167292  1
  H  H18  1  0.30272124  0.95505465  0.52167292  1
  H  H19  1  0.80272124  0.54494535  0.47832708  1
  H  H20  1  0.30272124  0.54494535  0.02167292  1
  H  H21  1  0.80272124  0.95505465  0.97832708  1
  H  H22  1  0.69727876  0.04494535  0.47832708  1
  H  H23  1  0.19727876  0.45505465  0.52167292  1
  H  H24  1  0.83102727  0.51803877  0.10802726  1
  H  H25  1  0.33102727  0.98196123  0.89197274  1
  H  H26  1  0.16897273  0.01803877  0.39197274  1
  H  H27  1  0.66897273  0.48196123  0.60802726  1
  H  H28  1  0.16897273  0.48196123  0.89197274  1
  H  H29  1  0.66897273  0.01803877  0.10802726  1
  H  H30  1  0.83102727  0.98196123  0.60802726  1
  H  H31  1  0.33102727  0.51803877  0.39197274  1
  H  H32  1  0.01819607  0.43106180  0.25340802  1
  H  H33  1  0.51819607  0.06893820  0.74659198  1
  H  H34  1  0.98180393  0.93106180  0.24659198  1
  H  H35  1  0.48180393  0.56893820  0.75340802  1
  H  H36  1  0.98180393  0.56893820  0.74659198  1
  H  H37  1  0.48180393  0.93106180  0.25340802  1
  H  H38  1  0.01819607  0.06893820  0.75340802  1
  H  H39  1  0.51819607  0.43106180  0.24659198  1
  H  H40  1  0.01396289  0.30113163  0.25288090  1
  H  H41  1  0.51396289  0.19886837  0.74711910  1
  H  H42  1  0.98603711  0.80113163  0.24711910  1
  H  H43  1  0.48603711  0.69886837  0.75288090  1
  H  H44  1  0.98603711  0.69886837  0.74711910  1
  H  H45  1  0.48603711  0.80113163  0.25288090  1
  H  H46  1  0.01396289  0.19886837  0.75288090  1
  H  H47  1  0.51396289  0.30113163  0.24711910  1
  C  C48  1  0.85132042  0.36792643  0.10559184  1
  C  C49  1  0.35132042  0.13207357  0.89440816  1
  C  C50  1  0.14867958  0.86792643  0.39440816  1
  C  C51  1  0.64867958  0.63207357  0.60559184  1
  C  C52  1  0.14867958  0.63207357  0.89440816  1
  C  C53  1  0.64867958  0.86792643  0.10559184  1
  C  C54  1  0.85132042  0.13207357  0.60559184  1
  C  C55  1  0.35132042  0.36792643  0.39440816  1
  N  N56  1  0.78491985  0.28358344  0.05557807  1
  N  N57  1  0.28491985  0.21641656  0.94442193  1
  N  N58  1  0.21508015  0.78358344  0.44442193  1
  N  N59  1  0.71508015  0.71641656  0.55557807  1
  N  N60  1  0.21508015  0.71641656  0.94442193  1
  N  N61  1  0.71508015  0.78358344  0.05557807  1
  N  N62  1  0.78491985  0.21641656  0.55557807  1
  N  N63  1  0.28491985  0.28358344  0.44442193  1
  N  N64  1  0.78984330  0.45402783  0.05876876  1
  N  N65  1  0.28984330  0.04597217  0.94123124  1
  N  N66  1  0.21015670  0.95402783  0.44123124  1
  N  N67  1  0.71015670  0.54597217  0.55876876  1
  N  N68  1  0.21015670  0.54597217  0.94123124  1
  N  N69  1  0.71015670  0.95402783  0.05876876  1
  N  N70  1  0.78984330  0.04597217  0.55876876  1
  N  N71  1  0.28984330  0.45402783  0.44123124  1
  N  N72  1  0.97871476  0.36638349  0.20279290  1
  N  N73  1  0.47871476  0.13361651  0.79720710  1
  N  N74  1  0.02128524  0.86638349  0.29720710  1
  N  N75  1  0.52128524  0.63361651  0.70279290  1
  N  N76  1  0.02128524  0.63361651  0.79720710  1
  N  N77  1  0.52128524  0.86638349  0.20279290  1
  N  N78  1  0.97871476  0.13361651  0.70279290  1
  N  N79  1  0.47871476  0.36638349  0.29720710  1
  Cl  Cl80  1  0.51183433  0.11254785  0.30646602  1
  Cl  Cl81  1  0.01183433  0.38745215  0.69353398  1
  Cl  Cl82  1  0.48816567  0.61254785  0.19353398  1
  Cl  Cl83  1  0.98816567  0.88745215  0.80646602  1
  Cl  Cl84  1  0.48816567  0.88745215  0.69353398  1
  Cl  Cl85  1  0.98816567  0.61254785  0.30646602  1
  Cl  Cl86  1  0.51183433  0.38745215  0.80646602  1
  Cl  Cl87  1  0.01183433  0.11254785  0.19353398  1
