# generated using pymatgen
data_FeP2O7
_symmetry_space_group_name_H-M   'P 1'
_cell_length_a   5.49258230
_cell_length_b   5.49258226
_cell_length_c   9.58282846
_cell_angle_alpha   78.81465267
_cell_angle_beta   101.18534724
_cell_angle_gamma   79.66645665
_symmetry_Int_Tables_number   1
_chemical_formula_structural   FeP2O7
_chemical_formula_sum   'Fe2 P4 O14'
_cell_volume   271.05486742
_cell_formula_units_Z   2
loop_
 _symmetry_equiv_pos_site_id
 _symmetry_equiv_pos_as_xyz
  1  'x, y, z'
loop_
 _atom_site_type_symbol
 _atom_site_label
 _atom_site_symmetry_multiplicity
 _atom_site_fract_x
 _atom_site_fract_y
 _atom_site_fract_z
 _atom_site_occupancy
  O  O0  1  0.72040214  0.97418039  0.38482689  1
  O  O1  1  0.91194067  0.95151306  0.74322009  1
  O  O2  1  0.04848694  0.08805933  0.24322009  1
  O  O3  1  0.06269665  0.63339022  0.60853320  1
  O  O4  1  0.04481898  0.68971320  0.13531866  1
  O  O5  1  0.32356182  0.62738390  0.86433949  1
  O  O6  1  0.61181719  0.13146861  0.87628829  1
  O  O7  1  0.31028680  0.95518002  0.63531866  1
  O  O8  1  0.02581961  0.27959686  0.88482789  1
  O  O9  1  0.36661078  0.93730135  0.10853320  1
  O  O10  1  0.86853139  0.38818281  0.37628829  1
  O  O11  1  0.67285105  0.41149905  0.65048070  1
  O  O12  1  0.58850095  0.32714695  0.15048070  1
  O  O13  1  0.37261710  0.67643718  0.36433949  1
  P  P14  1  0.21385035  0.83676477  0.21616556  1
  P  P15  1  0.80654725  0.20727770  0.79098595  1
  P  P16  1  0.16323423  0.78614765  0.71616456  1
  P  P17  1  0.79272330  0.19345275  0.29098695  1
  Fe  Fe18  1  0.72642081  0.62375802  0.47848217  1
  Fe  Fe19  1  0.37624298  0.27357819  0.97848217  1
