# generated using pymatgen
data_P2H10S4N2O
_symmetry_space_group_name_H-M   'P 1'
_cell_length_a   8.18261002
_cell_length_b   14.46450943
_cell_length_c   8.78566919
_cell_angle_alpha   90.00000000
_cell_angle_beta   90.00000000
_cell_angle_gamma   90.00000000
_symmetry_Int_Tables_number   1
_chemical_formula_structural   P2H10S4N2O
_chemical_formula_sum   'P8 H40 S16 N8 O4'
_cell_volume   1039.84931223
_cell_formula_units_Z   4
loop_
 _symmetry_equiv_pos_site_id
 _symmetry_equiv_pos_as_xyz
  1  'x, y, z'
loop_
 _atom_site_type_symbol
 _atom_site_label
 _atom_site_symmetry_multiplicity
 _atom_site_fract_x
 _atom_site_fract_y
 _atom_site_fract_z
 _atom_site_occupancy
  P  P0  1  0.42164134  0.43307796  0.86702749  1
  P  P1  1  0.57835866  0.56692204  0.86702749  1
  P  P2  1  0.92164134  0.06692204  0.13297251  1
  P  P3  1  0.07835866  0.93307796  0.13297251  1
  P  P4  1  0.57835866  0.56692204  0.13297251  1
  P  P5  1  0.42164134  0.43307796  0.13297251  1
  P  P6  1  0.07835866  0.93307796  0.86702749  1
  P  P7  1  0.92164134  0.06692204  0.86702749  1
  H  H8  1  0.33734962  0.09313731  0.41200599  1
  H  H9  1  0.66265038  0.90686269  0.41200599  1
  H  H10  1  0.83734962  0.40686269  0.58799401  1
  H  H11  1  0.16265038  0.59313731  0.58799401  1
  H  H12  1  0.66265038  0.90686269  0.58799401  1
  H  H13  1  0.33734962  0.09313731  0.58799401  1
  H  H14  1  0.16265038  0.59313731  0.41200599  1
  H  H15  1  0.83734962  0.40686269  0.41200599  1
  H  H16  1  0.27499682  0.33917609  0.40376309  1
  H  H17  1  0.72500318  0.66082391  0.40376309  1
  H  H18  1  0.77499682  0.16082391  0.59623691  1
  H  H19  1  0.22500318  0.83917609  0.59623691  1
  H  H20  1  0.72500318  0.66082391  0.59623691  1
  H  H21  1  0.27499682  0.33917609  0.59623691  1
  H  H22  1  0.22500318  0.83917609  0.40376309  1
  H  H23  1  0.77499682  0.16082391  0.40376309  1
  H  H24  1  0.23761575  0.24018448  0.50000000  1
  H  H25  1  0.76238425  0.75981552  0.50000000  1
  H  H26  1  0.73761575  0.25981552  0.50000000  1
  H  H27  1  0.26238425  0.74018448  0.50000000  1
  H  H28  1  0.09771968  0.33105414  0.50000000  1
  H  H29  1  0.90228032  0.66894586  0.50000000  1
  H  H30  1  0.59771968  0.16894586  0.50000000  1
  H  H31  1  0.40228032  0.83105414  0.50000000  1
  H  H32  1  0.97896191  0.35656935  0.90505012  1
  H  H33  1  0.02103809  0.64343065  0.90505012  1
  H  H34  1  0.47896191  0.14343065  0.09494988  1
  H  H35  1  0.52103809  0.85656935  0.09494988  1
  H  H36  1  0.02103809  0.64343065  0.09494988  1
  H  H37  1  0.97896191  0.35656935  0.09494988  1
  H  H38  1  0.52103809  0.85656935  0.90505012  1
  H  H39  1  0.47896191  0.14343065  0.90505012  1
  H  H40  1  0.82597790  0.40819994  0.00000000  1
  H  H41  1  0.17402210  0.59180006  0.00000000  1
  H  H42  1  0.32597790  0.09180006  0.00000000  1
  H  H43  1  0.67402210  0.90819994  0.00000000  1
  H  H44  1  0.84170330  0.29115424  0.00000000  1
  H  H45  1  0.15829670  0.70884576  0.00000000  1
  H  H46  1  0.34170330  0.20884576  0.00000000  1
  H  H47  1  0.65829670  0.79115424  0.00000000  1
  S  S48  1  0.54412851  0.32607076  0.78367869  1
  S  S49  1  0.45587149  0.67392924  0.78367869  1
  S  S50  1  0.04412851  0.17392924  0.21632131  1
  S  S51  1  0.95587149  0.82607076  0.21632131  1
  S  S52  1  0.45587149  0.67392924  0.21632131  1
  S  S53  1  0.54412851  0.32607076  0.21632131  1
  S  S54  1  0.95587149  0.82607076  0.78367869  1
  S  S55  1  0.04412851  0.17392924  0.78367869  1
  S  S56  1  0.19735247  0.46090568  0.78744389  1
  S  S57  1  0.80264753  0.53909432  0.78744389  1
  S  S58  1  0.69735247  0.03909432  0.21255611  1
  S  S59  1  0.30264753  0.96090568  0.21255611  1
  S  S60  1  0.80264753  0.53909432  0.21255611  1
  S  S61  1  0.19735247  0.46090568  0.21255611  1
  S  S62  1  0.30264753  0.96090568  0.78744389  1
  S  S63  1  0.69735247  0.03909432  0.78744389  1
  N  N64  1  0.21996858  0.31160368  0.50000000  1
  N  N65  1  0.78003142  0.68839632  0.50000000  1
  N  N66  1  0.71996858  0.18839632  0.50000000  1
  N  N67  1  0.28003142  0.81160368  0.50000000  1
  N  N68  1  0.90438603  0.35251084  0.00000000  1
  N  N69  1  0.09561397  0.64748916  0.00000000  1
  N  N70  1  0.40438603  0.14748916  0.00000000  1
  N  N71  1  0.59561397  0.85251084  0.00000000  1
  O  O72  1  0.36884727  0.13123900  0.50000000  1
  O  O73  1  0.63115273  0.86876100  0.50000000  1
  O  O74  1  0.86884727  0.36876100  0.50000000  1
  O  O75  1  0.13115273  0.63123900  0.50000000  1
