# generated using pymatgen
data_KSiHO3
_symmetry_space_group_name_H-M   'P 1'
_cell_length_a   7.59470251
_cell_length_b   7.59470251
_cell_length_c   11.39461216
_cell_angle_alpha   90.00000000
_cell_angle_beta   90.00000000
_cell_angle_gamma   100.55526985
_symmetry_Int_Tables_number   1
_chemical_formula_structural   KSiHO3
_chemical_formula_sum   'K8 Si8 H8 O24'
_cell_volume   646.11429489
_cell_formula_units_Z   8
loop_
 _symmetry_equiv_pos_site_id
 _symmetry_equiv_pos_as_xyz
  1  'x, y, z'
loop_
 _atom_site_type_symbol
 _atom_site_label
 _atom_site_symmetry_multiplicity
 _atom_site_fract_x
 _atom_site_fract_y
 _atom_site_fract_z
 _atom_site_occupancy
  K  K0  1  0.32135008  0.32135008  0.54317484  1
  K  K1  1  0.67864992  0.67864992  0.45682516  1
  K  K2  1  0.17864992  0.17864992  0.04317484  1
  K  K3  1  0.82135008  0.82135008  0.95682516  1
  K  K4  1  0.01120961  0.51120961  0.25000000  1
  K  K5  1  0.48879039  0.98879039  0.75000000  1
  K  K6  1  0.98879039  0.48879039  0.75000000  1
  K  K7  1  0.51120961  0.01120961  0.25000000  1
  Si  Si8  1  0.48447065  0.48447065  0.81501980  1
  Si  Si9  1  0.51552935  0.51552935  0.18498020  1
  Si  Si10  1  0.01552935  0.01552935  0.31501980  1
  Si  Si11  1  0.98447065  0.98447065  0.68498020  1
  Si  Si12  1  0.30314376  0.69685624  0.00000000  1
  Si  Si13  1  0.80314376  0.19685624  0.50000000  1
  Si  Si14  1  0.69685624  0.30314376  0.00000000  1
  Si  Si15  1  0.19685624  0.80314376  0.50000000  1
  H  H16  1  0.16750978  0.16750978  0.80901874  1
  H  H17  1  0.83249022  0.83249022  0.19098126  1
  H  H18  1  0.33249022  0.33249022  0.30901874  1
  H  H19  1  0.66750978  0.66750978  0.69098126  1
  H  H20  1  0.00000000  0.50000000  0.00000000  1
  H  H21  1  0.50000000  0.00000000  0.00000000  1
  H  H22  1  0.00000000  0.50000000  0.50000000  1
  H  H23  1  0.50000000  0.00000000  0.50000000  1
  O  O24  1  0.93359403  0.15965599  0.61240673  1
  O  O25  1  0.84034401  0.06640597  0.38759327  1
  O  O26  1  0.34034401  0.56640597  0.11240673  1
  O  O27  1  0.43359403  0.65965599  0.88759327  1
  O  O28  1  0.06640597  0.84034401  0.38759327  1
  O  O29  1  0.15965599  0.93359403  0.61240673  1
  O  O30  1  0.65965599  0.43359403  0.88759327  1
  O  O31  1  0.56640597  0.34034401  0.11240673  1
  O  O32  1  0.09329416  0.63770605  0.96688858  1
  O  O33  1  0.36229395  0.90670584  0.03311142  1
  O  O34  1  0.86229395  0.40670584  0.46688858  1
  O  O35  1  0.59329416  0.13770605  0.53311142  1
  O  O36  1  0.90670584  0.36229395  0.03311142  1
  O  O37  1  0.63770605  0.09329416  0.96688858  1
  O  O38  1  0.13770605  0.59329416  0.53311142  1
  O  O39  1  0.40670584  0.86229395  0.46688858  1
  O  O40  1  0.06161332  0.06161332  0.81434807  1
  O  O41  1  0.93838668  0.93838668  0.18565193  1
  O  O42  1  0.43838668  0.43838668  0.31434807  1
  O  O43  1  0.56161332  0.56161332  0.68565193  1
  O  O44  1  0.32131797  0.32131797  0.79921211  1
  O  O45  1  0.67868203  0.67868203  0.20078789  1
  O  O46  1  0.17868203  0.17868203  0.29921211  1
  O  O47  1  0.82131797  0.82131797  0.70078789  1
