# generated using pymatgen
data_ZrCd2H12(O3F4)2
_symmetry_space_group_name_H-M   'P 1'
_cell_length_a   7.16218590
_cell_length_b   13.84332274
_cell_length_c   7.16218590
_cell_angle_alpha   65.89218809
_cell_angle_beta   108.39933145
_cell_angle_gamma   114.10781191
_symmetry_Int_Tables_number   1
_chemical_formula_structural   ZrCd2H12(O3F4)2
_chemical_formula_sum   'Zr2 Cd4 H24 O12 F16'
_cell_volume   582.13398179
_cell_formula_units_Z   2
loop_
 _symmetry_equiv_pos_site_id
 _symmetry_equiv_pos_as_xyz
  1  'x, y, z'
loop_
 _atom_site_type_symbol
 _atom_site_label
 _atom_site_symmetry_multiplicity
 _atom_site_fract_x
 _atom_site_fract_y
 _atom_site_fract_z
 _atom_site_occupancy
  Zr  Zr0  1  0.51476404  0.75000000  0.51476404  1
  Zr  Zr1  1  0.48523596  0.25000000  0.48523596  1
  Cd  Cd2  1  0.08070576  0.78868839  0.64712348  1
  Cd  Cd3  1  0.64712348  0.71131161  0.08070576  1
  Cd  Cd4  1  0.91929424  0.21131161  0.35287652  1
  Cd  Cd5  1  0.35287652  0.28868839  0.91929424  1
  H  H6  1  0.99547699  0.64222127  0.31885664  1
  H  H7  1  0.31885664  0.85777873  0.99547699  1
  H  H8  1  0.00452301  0.35777873  0.68114336  1
  H  H9  1  0.68114336  0.14222127  0.00452301  1
  H  H10  1  0.79832327  0.53305229  0.31194632  1
  H  H11  1  0.31194632  0.96694771  0.79832327  1
  H  H12  1  0.20167673  0.46694771  0.68805368  1
  H  H13  1  0.68805368  0.03305229  0.20167673  1
  H  H14  1  0.99169308  0.89649219  0.17016762  1
  H  H15  1  0.17016762  0.60350781  0.99169308  1
  H  H16  1  0.00830692  0.10350781  0.82983238  1
  H  H17  1  0.82983238  0.39649219  0.00830692  1
  H  H18  1  0.00204688  0.88925802  0.96116540  1
  H  H19  1  0.96116540  0.61074198  0.00204688  1
  H  H20  1  -0.00204688  0.11074198  0.03883460  1
  H  H21  1  0.03883460  0.38925802  -0.00204688  1
  H  H22  1  0.32086242  0.95201762  0.36561874  1
  H  H23  1  0.36561874  0.54798238  0.32086242  1
  H  H24  1  0.67913758  0.04798238  0.63438126  1
  H  H25  1  0.63438126  0.45201762  0.67913758  1
  H  H26  1  0.19388276  0.01978153  0.38473245  1
  H  H27  1  0.38473245  0.48021847  0.19388276  1
  H  H28  1  0.80611724  0.98021847  0.61526755  1
  H  H29  1  0.61526755  0.51978153  0.80611724  1
  O  O30  1  0.87773996  0.60665013  0.22348021  1
  O  O31  1  0.22348021  0.89334987  0.87773996  1
  O  O32  1  0.12226004  0.39334987  0.77651979  1
  O  O33  1  0.77651979  0.10665013  0.12226004  1
  O  O34  1  0.04669961  0.62534282  0.90279971  1
  O  O35  1  0.90279971  0.87465718  0.04669961  1
  O  O36  1  0.95330039  0.37465718  0.09720029  1
  O  O37  1  0.09720029  0.12534282  0.95330039  1
  O  O38  1  0.18134297  0.94749526  0.37536834  1
  O  O39  1  0.37536834  0.55250474  0.18134297  1
  O  O40  1  0.81865703  0.05250474  0.62463166  1
  O  O41  1  0.62463166  0.44749526  0.81865703  1
  F  F42  1  0.81440279  0.85747687  0.61878121  1
  F  F43  1  0.61878121  0.64252313  0.81440279  1
  F  F44  1  0.18559721  0.14252313  0.38121879  1
  F  F45  1  0.38121879  0.35747687  0.18559721  1
  F  F46  1  0.75093898  0.71432032  0.45235790  1
  F  F47  1  0.45235790  0.78567968  0.75093898  1
  F  F48  1  0.24906102  0.28567968  0.54764210  1
  F  F49  1  0.54764210  0.21432032  0.24906102  1
  F  F50  1  0.18799255  0.72662373  0.45017587  1
  F  F51  1  0.45017587  0.77337627  0.18799255  1
  F  F52  1  0.81200745  0.27337627  0.54982413  1
  F  F53  1  0.54982413  0.22662373  0.81200745  1
  F  F54  1  0.35367997  0.58065013  0.51652801  1
  F  F55  1  0.51652801  0.91934987  0.35367997  1
  F  F56  1  0.64632003  0.41934987  0.48347199  1
  F  F57  1  0.48347199  0.08065013  0.64632003  1
