# generated using pymatgen
data_SrZnH6O5
_symmetry_space_group_name_H-M   'P 1'
_cell_length_a   6.25379547
_cell_length_b   6.36218143
_cell_length_c   7.83970838
_cell_angle_alpha   91.34029613
_cell_angle_beta   113.63610608
_cell_angle_gamma   107.69840904
_symmetry_Int_Tables_number   1
_chemical_formula_structural   SrZnH6O5
_chemical_formula_sum   'Sr2 Zn2 H12 O10'
_cell_volume   268.43445949
_cell_formula_units_Z   2
loop_
 _symmetry_equiv_pos_site_id
 _symmetry_equiv_pos_as_xyz
  1  'x, y, z'
loop_
 _atom_site_type_symbol
 _atom_site_label
 _atom_site_symmetry_multiplicity
 _atom_site_fract_x
 _atom_site_fract_y
 _atom_site_fract_z
 _atom_site_occupancy
  Sr  Sr0  1  0.69165045  0.40217794  0.24673089  1
  Sr  Sr1  1  0.30834955  0.59782206  0.75326911  1
  Zn  Zn2  1  0.63289269  0.24696818  0.72974522  1
  Zn  Zn3  1  0.36710731  0.75303182  0.27025478  1
  H  H4  1  0.81137661  0.94582404  0.82016935  1
  H  H5  1  0.18862339  0.05417596  0.17983065  1
  H  H6  1  0.85891114  0.61235838  0.95392968  1
  H  H7  1  0.14108886  0.38764162  0.04607032  1
  H  H8  1  0.88201249  0.19340630  0.57715729  1
  H  H9  1  0.11798751  0.80659370  0.42284271  1
  H  H10  1  0.80390950  0.81233156  0.52772758  1
  H  H11  1  0.19609050  0.18766844  0.47227242  1
  H  H12  1  0.83816801  0.97831537  0.27356207  1
  H  H13  1  0.16183199  0.02168463  0.72643793  1
  H  H14  1  0.81328575  0.04844266  0.06698937  1
  H  H15  1  0.18671425  0.95155734  0.93301063  1
  O  O16  1  0.67964106  0.97572771  0.84409578  1
  O  O17  1  0.32035894  0.02427229  0.15590422  1
  O  O18  1  0.70521132  0.49414864  0.93186368  1
  O  O19  1  0.29478868  0.50585136  0.06813632  1
  O  O20  1  0.83732238  0.32536403  0.59029976  1
  O  O21  1  0.16267762  0.67463597  0.40970024  1
  O  O22  1  0.72451258  0.78859817  0.38965033  1
  O  O23  1  0.27548742  0.21140183  0.61034967  1
  O  O24  1  0.90239408  0.10317737  0.21069849  1
  O  O25  1  0.09760592  0.89682263  0.78930151  1
