# generated using pymatgen
data_K4LiH3(SO4)4
_symmetry_space_group_name_H-M   'P 1'
_cell_length_a   7.50842171
_cell_length_b   7.50842171
_cell_length_c   29.06765518
_cell_angle_alpha   90.00000000
_cell_angle_beta   90.00000000
_cell_angle_gamma   90.00000000
_symmetry_Int_Tables_number   1
_chemical_formula_structural   K4LiH3(SO4)4
_chemical_formula_sum   'K16 Li4 H12 S16 O64'
_cell_volume   1638.72965594
_cell_formula_units_Z   4
loop_
 _symmetry_equiv_pos_site_id
 _symmetry_equiv_pos_as_xyz
  1  'x, y, z'
loop_
 _atom_site_type_symbol
 _atom_site_label
 _atom_site_symmetry_multiplicity
 _atom_site_fract_x
 _atom_site_fract_y
 _atom_site_fract_z
 _atom_site_occupancy
  K  K0  1  0.01413511  0.49038686  0.77395166  1
  K  K1  1  0.98586489  0.50961314  0.27395166  1
  K  K2  1  0.49038686  0.98586489  0.52395166  1
  K  K3  1  0.50961314  0.01413511  0.02395166  1
  K  K4  1  0.40014899  0.37427996  0.64781647  1
  K  K5  1  0.59985101  0.62572004  0.14781647  1
  K  K6  1  0.37427996  0.59985101  0.39781647  1
  K  K7  1  0.62572004  0.40014899  0.89781647  1
  K  K8  1  0.92020324  0.90313613  0.88407641  1
  K  K9  1  0.07979676  0.09686387  0.38407641  1
  K  K10  1  0.90313613  0.07979676  0.63407641  1
  K  K11  1  0.09686387  0.92020324  0.13407641  1
  K  K12  1  0.50661332  0.78712508  0.78356945  1
  K  K13  1  0.49338668  0.21287492  0.28356945  1
  K  K14  1  0.78712508  0.49338668  0.53356945  1
  K  K15  1  0.21287492  0.50661332  0.03356945  1
  Li  Li16  1  0.26431958  0.14847723  0.83457278  1
  Li  Li17  1  0.73568042  0.85152277  0.33457278  1
  Li  Li18  1  0.14847723  0.73568042  0.58457278  1
  Li  Li19  1  0.85152277  0.26431958  0.08457278  1
  H  H20  1  0.70463852  0.69417587  0.69115253  1
  H  H21  1  0.29536148  0.30582413  0.19115253  1
  H  H22  1  0.69417587  0.29536148  0.44115253  1
  H  H23  1  0.30582413  0.70463852  0.94115253  1
  H  H24  1  0.21541007  0.94213877  0.70643674  1
  H  H25  1  0.78458993  0.05786123  0.20643674  1
  H  H26  1  0.94213877  0.78458993  0.45643674  1
  H  H27  1  0.05786123  0.21541007  0.95643674  1
  H  H28  1  0.72228202  0.18483726  0.72994761  1
  H  H29  1  0.27771798  0.81516274  0.22994761  1
  H  H30  1  0.18483726  0.27771798  0.47994761  1
  H  H31  1  0.81516274  0.72228202  0.97994761  1
  S  S32  1  0.89501288  0.54383454  0.64987877  1
  S  S33  1  0.10498712  0.45616546  0.14987877  1
  S  S34  1  0.54383454  0.10498712  0.39987877  1
  S  S35  1  0.45616546  0.89501288  0.89987877  1
  S  S36  1  0.42866082  0.89009821  0.65118763  1
  S  S37  1  0.57133918  0.10990179  0.15118763  1
  S  S38  1  0.89009821  0.57133918  0.40118763  1
  S  S39  1  0.10990179  0.42866082  0.90118763  1
  S  S40  1  0.99051014  0.98068772  0.76691156  1
  S  S41  1  0.00948986  0.01931228  0.26691156  1
  S  S42  1  0.98068772  0.00948986  0.51691156  1
  S  S43  1  0.01931228  0.99051014  0.01691156  1
  S  S44  1  0.52397037  0.32525729  0.77192491  1
  S  S45  1  0.47602963  0.67474271  0.27192491  1
  S  S46  1  0.32525729  0.47602963  0.52192491  1
  S  S47  1  0.67474271  0.52397037  0.02192491  1
  O  O48  1  0.81704870  0.62031484  0.69663982  1
  O  O49  1  0.18295130  0.37968516  0.19663982  1
  O  O50  1  0.62031484  0.18295130  0.44663982  1
  O  O51  1  0.37968516  0.81704870  0.94663982  1
  O  O52  1  0.75735948  0.43119941  0.62873272  1
  O  O53  1  0.24264052  0.56880059  0.12873272  1
  O  O54  1  0.43119941  0.24264052  0.37873272  1
  O  O55  1  0.56880059  0.75735948  0.87873272  1
  O  O56  1  0.05133707  0.44321511  0.66422574  1
  O  O57  1  0.94866293  0.55678489  0.16422574  1
  O  O58  1  0.44321511  0.94866293  0.41422574  1
  O  O59  1  0.55678489  0.05133707  0.91422574  1
  O  O60  1  0.93549622  0.69972401  0.62076604  1
  O  O61  1  0.06450378  0.30027599  0.12076604  1
  O  O62  1  0.69972401  0.06450378  0.37076604  1
  O  O63  1  0.30027599  0.93549622  0.87076604  1
  O  O64  1  0.26478325  0.98943514  0.67189869  1
  O  O65  1  0.73521675  0.01056486  0.17189869  1
  O  O66  1  0.98943514  0.73521675  0.42189869  1
  O  O67  1  0.01056486  0.26478325  0.92189869  1
  O  O68  1  0.36395928  0.74834426  0.62020395  1
  O  O69  1  0.63604072  0.25165574  0.12020395  1
  O  O70  1  0.74834426  0.63604072  0.37020395  1
  O  O71  1  0.25165574  0.36395928  0.87020395  1
  O  O72  1  0.52816558  0.81236474  0.69034756  1
  O  O73  1  0.47183442  0.18763526  0.19034756  1
  O  O74  1  0.81236474  0.47183442  0.44034756  1
  O  O75  1  0.18763526  0.52816558  0.94034756  1
  O  O76  1  0.53016749  0.02521688  0.62575772  1
  O  O77  1  0.46983251  0.97478312  0.12575772  1
  O  O78  1  0.02521688  0.46983251  0.37575772  1
  O  O79  1  0.97478312  0.53016749  0.87575772  1
  O  O80  1  0.04562299  0.11474700  0.80182119  1
  O  O81  1  0.95437701  0.88525300  0.30182119  1
  O  O82  1  0.11474700  0.95437701  0.55182119  1
  O  O83  1  0.88525300  0.04562299  0.05182119  1
  O  O84  1  0.87905431  0.84317236  0.78878829  1
  O  O85  1  0.12094569  0.15682764  0.28878829  1
  O  O86  1  0.84317236  0.12094569  0.53878829  1
  O  O87  1  0.15682764  0.87905431  0.03878829  1
  O  O88  1  0.89721419  0.07241434  0.72823646  1
  O  O89  1  0.10278581  0.92758566  0.22823646  1
  O  O90  1  0.07241434  0.10278581  0.47823646  1
  O  O91  1  0.92758566  0.89721419  0.97823646  1
  O  O92  1  0.15496091  0.88980776  0.74713492  1
  O  O93  1  0.84503909  0.11019224  0.24713492  1
  O  O94  1  0.88980776  0.84503909  0.49713492  1
  O  O95  1  0.11019224  0.15496091  0.99713492  1
  O  O96  1  0.65754533  0.43420491  0.79589944  1
  O  O97  1  0.34245467  0.56579509  0.29589944  1
  O  O98  1  0.43420491  0.34245467  0.54589944  1
  O  O99  1  0.56579509  0.65754533  0.04589944  1
  O  O100  1  0.60856279  0.25886279  0.72491873  1
  O  O101  1  0.39143721  0.74113721  0.22491873  1
  O  O102  1  0.25886279  0.39143721  0.47491873  1
  O  O103  1  0.74113721  0.60856279  0.97491873  1
  O  O104  1  0.47851016  0.16386698  0.79830988  1
  O  O105  1  0.52148984  0.83613302  0.29830988  1
  O  O106  1  0.16386698  0.52148984  0.54830988  1
  O  O107  1  0.83613302  0.47851016  0.04830988  1
  O  O108  1  0.36885231  0.42837161  0.75719234  1
  O  O109  1  0.63114769  0.57162839  0.25719234  1
  O  O110  1  0.42837161  0.63114769  0.50719234  1
  O  O111  1  0.57162839  0.36885231  0.00719234  1
