# generated using pymatgen
data_VCl2O
_symmetry_space_group_name_H-M   'P 1'
_cell_length_a   3.51788841
_cell_length_b   3.64216011
_cell_length_c   7.01749671
_cell_angle_alpha   105.04533321
_cell_angle_beta   104.52056981
_cell_angle_gamma   90.00044078
_symmetry_Int_Tables_number   1
_chemical_formula_structural   VCl2O
_chemical_formula_sum   'V1 Cl2 O1'
_cell_volume   83.85343138
_cell_formula_units_Z   1
loop_
 _symmetry_equiv_pos_site_id
 _symmetry_equiv_pos_as_xyz
  1  'x, y, z'
loop_
 _atom_site_type_symbol
 _atom_site_label
 _atom_site_symmetry_multiplicity
 _atom_site_fract_x
 _atom_site_fract_y
 _atom_site_fract_z
 _atom_site_occupancy
  O  O0  1  0.00000068  0.49999992  0.99999988  1
  Cl  Cl1  1  0.62716372  0.12720942  0.25436341  1
  Cl  Cl2  1  0.37283638  0.87279110  0.74563645  1
  V  V3  1  0.00000022  0.00000056  0.00000025  1
