# generated using pymatgen
data_Sr5As5HO18
_symmetry_space_group_name_H-M   'P 1'
_cell_length_a   7.26845476
_cell_length_b   7.26478716
_cell_length_c   33.33401817
_cell_angle_alpha   90.00000000
_cell_angle_beta   93.98392253
_cell_angle_gamma   90.00000000
_symmetry_Int_Tables_number   1
_chemical_formula_structural   Sr5As5HO18
_chemical_formula_sum   'Sr20 As20 H4 O72'
_cell_volume   1755.90877479
_cell_formula_units_Z   4
loop_
 _symmetry_equiv_pos_site_id
 _symmetry_equiv_pos_as_xyz
  1  'x, y, z'
loop_
 _atom_site_type_symbol
 _atom_site_label
 _atom_site_symmetry_multiplicity
 _atom_site_fract_x
 _atom_site_fract_y
 _atom_site_fract_z
 _atom_site_occupancy
  Sr  Sr0  1  0.41433612  0.84808162  0.24582409  1
  Sr  Sr1  1  0.91433612  0.65191838  0.74582409  1
  Sr  Sr2  1  0.58566388  0.15191838  0.75417591  1
  Sr  Sr3  1  0.08566388  0.34808162  0.25417591  1
  Sr  Sr4  1  0.10795808  0.59817075  0.44389951  1
  Sr  Sr5  1  0.60795808  0.90182925  0.94389951  1
  Sr  Sr6  1  0.89204192  0.40182925  0.55610049  1
  Sr  Sr7  1  0.39204192  0.09817075  0.05610049  1
  Sr  Sr8  1  0.76651039  0.15853249  0.44559279  1
  Sr  Sr9  1  0.26651039  0.34146751  0.94559279  1
  Sr  Sr10  1  0.23348961  0.84146751  0.55440721  1
  Sr  Sr11  1  0.73348961  0.65853249  0.05440721  1
  Sr  Sr12  1  0.34543798  0.11437102  0.35485003  1
  Sr  Sr13  1  0.84543798  0.38562898  0.85485003  1
  Sr  Sr14  1  0.65456202  0.88562898  0.64514997  1
  Sr  Sr15  1  0.15456202  0.61437102  0.14514997  1
  Sr  Sr16  1  0.80155357  0.77453675  0.34358829  1
  Sr  Sr17  1  0.30155357  0.72546325  0.84358829  1
  Sr  Sr18  1  0.19844643  0.22546325  0.65641171  1
  Sr  Sr19  1  0.69844643  0.27453675  0.15641171  1
  As  As20  1  0.66095560  0.65705413  0.45796076  1
  As  As21  1  0.16095560  0.84294587  0.95796076  1
  As  As22  1  0.33904440  0.34294587  0.54203924  1
  As  As23  1  0.83904440  0.15705413  0.04203924  1
  As  As24  1  0.72738275  0.90423610  0.53930888  1
  As  As25  1  0.22738275  0.59576390  0.03930888  1
  As  As26  1  0.27261725  0.09576390  0.46069112  1
  As  As27  1  0.77261725  0.40423610  0.96069112  1
  As  As28  1  0.57360192  0.33962055  0.26642570  1
  As  As29  1  0.07360192  0.16037945  0.76642570  1
  As  As30  1  0.42639808  0.66037945  0.73357430  1
  As  As31  1  0.92639808  0.83962055  0.23357430  1
  As  As32  1  0.84220946  0.29521418  0.34814026  1
  As  As33  1  0.34220946  0.20478582  0.84814026  1
  As  As34  1  0.15779054  0.70478582  0.65185974  1
  As  As35  1  0.65779054  0.79521418  0.15185974  1
  As  As36  1  0.25659729  0.67233998  0.34299352  1
  As  As37  1  0.75659729  0.82766002  0.84299352  1
  As  As38  1  0.74340271  0.32766002  0.65700648  1
  As  As39  1  0.24340271  0.17233998  0.15700648  1
  H  H40  1  0.41018123  0.50675517  0.39481624  1
  H  H41  1  0.91018123  0.99324483  0.89481624  1
  H  H42  1  0.58981877  0.49324483  0.60518376  1
  H  H43  1  0.08981877  0.00675517  0.10518376  1
  O  O44  1  0.46018335  0.56720631  0.43779892  1
  O  O45  1  0.96018335  0.93279369  0.93779892  1
  O  O46  1  0.53981665  0.43279369  0.56220108  1
  O  O47  1  0.03981665  0.06720631  0.06220108  1
  O  O48  1  0.78723789  0.79821482  0.42918562  1
  O  O49  1  0.28723789  0.70178518  0.92918562  1
  O  O50  1  0.21276211  0.20178518  0.57081438  1
  O  O51  1  0.71276211  0.29821482  0.07081438  1
  O  O52  1  0.80636836  0.48920260  0.47765849  1
  O  O53  1  0.30636836  0.01079740  0.97765849  1
  O  O54  1  0.19363164  0.51079740  0.52234151  1
  O  O55  1  0.69363164  0.98920260  0.02234151  1
  O  O56  1  0.58766857  0.79519930  0.49870379  1
  O  O57  1  0.08766857  0.70480070  0.99870379  1
  O  O58  1  0.41233143  0.20480070  0.50129621  1
  O  O59  1  0.91233143  0.29519930  0.00129621  1
  O  O60  1  0.81857118  0.09732604  0.52002331  1
  O  O61  1  0.31857118  0.40267396  0.02002331  1
  O  O62  1  0.18142882  0.90267396  0.47997669  1
  O  O63  1  0.68142882  0.59732604  0.97997669  1
  O  O64  1  0.56237992  0.93186533  0.57240097  1
  O  O65  1  0.06237992  0.56813467  0.07240097  1
  O  O66  1  0.43762008  0.06813467  0.42759903  1
  O  O67  1  0.93762008  0.43186533  0.92759903  1
  O  O68  1  0.89451861  0.75931865  0.55845508  1
  O  O69  1  0.39451861  0.74068135  0.05845508  1
  O  O70  1  0.10548139  0.24068135  0.44154492  1
  O  O71  1  0.60548139  0.25931865  0.94154492  1
  O  O72  1  0.71313713  0.12001907  0.36642995  1
  O  O73  1  0.21313713  0.37998093  0.86642995  1
  O  O74  1  0.28686287  0.87998093  0.63357005  1
  O  O75  1  0.78686287  0.62001907  0.13357005  1
  O  O76  1  0.87601779  0.46288848  0.38352269  1
  O  O77  1  0.37601779  0.03711152  0.88352269  1
  O  O78  1  0.12398221  0.53711152  0.61647731  1
  O  O79  1  0.62398221  0.96288848  0.11647731  1
  O  O80  1  0.02437278  0.20411048  0.32579921  1
  O  O81  1  0.52437278  0.29588952  0.82579921  1
  O  O82  1  0.97562722  0.79588952  0.67420079  1
  O  O83  1  0.47562722  0.70411048  0.17420079  1
  O  O84  1  0.70498459  0.43003369  0.31134071  1
  O  O85  1  0.20498459  0.06996631  0.81134071  1
  O  O86  1  0.29501541  0.56996631  0.68865929  1
  O  O87  1  0.79501541  0.93003369  0.18865929  1
  O  O88  1  0.73902499  0.30477428  0.23368290  1
  O  O89  1  0.23902499  0.19522572  0.73368290  1
  O  O90  1  0.26097501  0.69522572  0.76631710  1
  O  O91  1  0.76097501  0.80477428  0.26631710  1
  O  O92  1  0.41282698  0.50066372  0.25323146  1
  O  O93  1  0.91282698  0.99933628  0.75323146  1
  O  O94  1  0.58717302  0.49933628  0.74676854  1
  O  O95  1  0.08717302  0.00066372  0.24676854  1
  O  O96  1  0.45966790  0.15479587  0.28438275  1
  O  O97  1  0.95966790  0.34520413  0.78438275  1
  O  O98  1  0.54033210  0.84520413  0.71561725  1
  O  O99  1  0.04033210  0.65479587  0.21561725  1
  O  O100  1  0.43954965  0.79718621  0.32738139  1
  O  O101  1  0.93954965  0.70281379  0.82738139  1
  O  O102  1  0.56045035  0.20281379  0.67261861  1
  O  O103  1  0.06045035  0.29718621  0.17261861  1
  O  O104  1  0.09621092  0.61454881  0.30616829  1
  O  O105  1  0.59621092  0.88545119  0.80616829  1
  O  O106  1  0.90378908  0.38545119  0.69383171  1
  O  O107  1  0.40378908  0.11454881  0.19383171  1
  O  O108  1  0.15032054  0.80489564  0.37735041  1
  O  O109  1  0.65032054  0.69510436  0.87735041  1
  O  O110  1  0.84967946  0.19510436  0.62264959  1
  O  O111  1  0.34967946  0.30489564  0.12264959  1
  O  O112  1  0.33988709  0.46720616  0.36804867  1
  O  O113  1  0.83988709  0.03279384  0.86804867  1
  O  O114  1  0.66011291  0.53279384  0.63195133  1
  O  O115  1  0.16011291  0.96720616  0.13195133  1
