# generated using pymatgen
data_Na3AlP2H2O9
_symmetry_space_group_name_H-M   'P 1'
_cell_length_a   8.49875359
_cell_length_b   8.49875359
_cell_length_c   7.13941071
_cell_angle_alpha   83.97033556
_cell_angle_beta   96.02966444
_cell_angle_gamma   130.50084136
_symmetry_Int_Tables_number   1
_chemical_formula_structural   Na3AlP2H2O9
_chemical_formula_sum   'Na6 Al2 P4 H4 O18'
_cell_volume   389.48261290
_cell_formula_units_Z   2
loop_
 _symmetry_equiv_pos_site_id
 _symmetry_equiv_pos_as_xyz
  1  'x, y, z'
loop_
 _atom_site_type_symbol
 _atom_site_label
 _atom_site_symmetry_multiplicity
 _atom_site_fract_x
 _atom_site_fract_y
 _atom_site_fract_z
 _atom_site_occupancy
  Na  Na0  1  0.23489548  0.23489548  0.00000000  1
  Na  Na1  1  0.76510452  0.76510452  0.00000000  1
  Na  Na2  1  0.38976531  0.61023469  0.29072744  1
  Na  Na3  1  0.61023469  0.38976531  0.70927256  1
  Na  Na4  1  0.00000000  0.50000000  0.50000000  1
  Na  Na5  1  0.50000000  0.00000000  0.50000000  1
  Al  Al6  1  0.00000000  0.50000000  0.00000000  1
  Al  Al7  1  0.50000000  0.00000000  0.00000000  1
  P  P8  1  0.62288912  0.37711088  0.22583796  1
  P  P9  1  0.37711088  0.62288912  0.77416204  1
  P  P10  1  0.88023224  0.11976776  0.29002761  1
  P  P11  1  0.11976776  0.88023224  0.70997239  1
  H  H12  1  0.93752974  0.06247026  0.59624199  1
  H  H13  1  0.06247026  0.93752974  0.40375801  1
  H  H14  1  0.80681401  0.19318599  0.82478039  1
  H  H15  1  0.19318599  0.80681401  0.17521961  1
  O  O16  1  0.52354914  0.47645086  0.21267835  1
  O  O17  1  0.47645086  0.52354914  0.78732165  1
  O  O18  1  0.66641359  0.33358641  0.43024747  1
  O  O19  1  0.33358641  0.66641359  0.56975253  1
  O  O20  1  0.83169963  0.52761784  0.11918789  1
  O  O21  1  0.47238216  0.16830037  0.11918789  1
  O  O22  1  0.16830037  0.47238216  0.88081211  1
  O  O23  1  0.52761784  0.83169963  0.88081211  1
  O  O24  1  0.00973023  0.35052237  0.22340286  1
  O  O25  1  0.64947763  0.99026977  0.22340286  1
  O  O26  1  0.99026977  0.64947763  0.77659714  1
  O  O27  1  0.35052237  0.00973023  0.77659714  1
  O  O28  1  0.97412601  0.02587399  0.24145067  1
  O  O29  1  0.02587399  0.97412601  0.75854933  1
  O  O30  1  0.87904135  0.12095865  0.51577062  1
  O  O31  1  0.12095865  0.87904135  0.48422938  1
  O  O32  1  0.75656930  0.24343070  0.89507752  1
  O  O33  1  0.24343070  0.75656930  0.10492248  1
