# generated using pymatgen
data_Na2H4(SO4)3
_symmetry_space_group_name_H-M   'P 1'
_cell_length_a   10.26211851
_cell_length_b   7.00258402
_cell_length_c   14.15360287
_cell_angle_alpha   90.00000000
_cell_angle_beta   90.00000000
_cell_angle_gamma   90.00000000
_symmetry_Int_Tables_number   1
_chemical_formula_structural   Na2H4(SO4)3
_chemical_formula_sum   'Na8 H16 S12 O48'
_cell_volume   1017.09696841
_cell_formula_units_Z   4
loop_
 _symmetry_equiv_pos_site_id
 _symmetry_equiv_pos_as_xyz
  1  'x, y, z'
loop_
 _atom_site_type_symbol
 _atom_site_label
 _atom_site_symmetry_multiplicity
 _atom_site_fract_x
 _atom_site_fract_y
 _atom_site_fract_z
 _atom_site_occupancy
  Na  Na0  1  0.15908089  0.38458893  0.49696712  1
  Na  Na1  1  0.84091911  0.61541107  0.99696712  1
  Na  Na2  1  0.34091911  0.88458893  0.99696712  1
  Na  Na3  1  0.65908089  0.11541107  0.49696712  1
  Na  Na4  1  0.36927521  0.74182704  0.64133667  1
  Na  Na5  1  0.63072479  0.25817296  0.14133667  1
  Na  Na6  1  0.13072479  0.24182704  0.14133667  1
  Na  Na7  1  0.86927521  0.75817296  0.64133667  1
  H  H8  1  0.24288283  0.54899936  0.82006535  1
  H  H9  1  0.75711717  0.45100064  0.32006535  1
  H  H10  1  0.25711717  0.04899936  0.32006535  1
  H  H11  1  0.74288283  0.95100064  0.82006535  1
  H  H12  1  0.93973005  0.91433735  0.44292076  1
  H  H13  1  0.06026995  0.08566265  0.94292076  1
  H  H14  1  0.56026995  0.41433735  0.94292076  1
  H  H15  1  0.43973005  0.58566265  0.44292076  1
  H  H16  1  0.03810060  0.08291872  0.73502019  1
  H  H17  1  0.96189940  0.91708128  0.23502019  1
  H  H18  1  0.46189940  0.58291872  0.23502019  1
  H  H19  1  0.53810060  0.41708128  0.73502019  1
  H  H20  1  0.82149484  0.32761499  0.79287393  1
  H  H21  1  0.17850516  0.67238501  0.29287393  1
  H  H22  1  0.67850516  0.82761499  0.29287393  1
  H  H23  1  0.32149484  0.17238501  0.79287393  1
  S  S24  1  0.09331092  0.77423167  0.82820831  1
  S  S25  1  0.90668908  0.22576833  0.32820831  1
  S  S26  1  0.40668908  0.27423167  0.32820831  1
  S  S27  1  0.59331092  0.72576833  0.82820831  1
  S  S28  1  0.14564554  0.86729509  0.47342803  1
  S  S29  1  0.85435446  0.13270491  0.97342803  1
  S  S30  1  0.35435446  0.36729509  0.97342803  1
  S  S31  1  0.64564554  0.63270491  0.47342803  1
  S  S32  1  0.92133300  0.29267875  0.66267702  1
  S  S33  1  0.07866700  0.70732125  0.16267702  1
  S  S34  1  0.57866700  0.79267875  0.16267702  1
  S  S35  1  0.42133300  0.20732125  0.66267702  1
  O  O36  1  0.00829409  0.63924449  0.87497721  1
  O  O37  1  0.99170591  0.36075551  0.37497721  1
  O  O38  1  0.49170591  0.13924449  0.37497721  1
  O  O39  1  0.50829409  0.86075551  0.87497721  1
  O  O40  1  0.03296807  0.86831830  0.74505046  1
  O  O41  1  0.96703193  0.13168170  0.24505046  1
  O  O42  1  0.46703193  0.36831830  0.24505046  1
  O  O43  1  0.53296807  0.63168170  0.74505046  1
  O  O44  1  0.15225040  0.91836322  0.89159578  1
  O  O45  1  0.84774960  0.08163678  0.39159578  1
  O  O46  1  0.34774960  0.41836322  0.39159578  1
  O  O47  1  0.65225040  0.58163678  0.89159578  1
  O  O48  1  0.21108594  0.66075846  0.78089070  1
  O  O49  1  0.78891406  0.33924154  0.28089070  1
  O  O50  1  0.28891406  0.16075846  0.28089070  1
  O  O51  1  0.71108594  0.83924154  0.78089070  1
  O  O52  1  0.20186982  0.71121705  0.52884450  1
  O  O53  1  0.79813018  0.28878295  0.02884450  1
  O  O54  1  0.29813018  0.21121705  0.02884450  1
  O  O55  1  0.70186982  0.78878295  0.52884450  1
  O  O56  1  0.18451888  0.85921562  0.37203778  1
  O  O57  1  0.81548112  0.14078438  0.87203778  1
  O  O58  1  0.31548112  0.35921562  0.87203778  1
  O  O59  1  0.68451888  0.64078438  0.37203778  1
  O  O60  1  0.16645637  0.05632277  0.51315269  1
  O  O61  1  0.83354363  0.94367723  0.01315269  1
  O  O62  1  0.33354363  0.55632277  0.01315269  1
  O  O63  1  0.66645637  0.44367723  0.51315269  1
  O  O64  1  0.99415721  0.81788704  0.47860852  1
  O  O65  1  0.00584279  0.18211296  0.97860852  1
  O  O66  1  0.50584279  0.31788704  0.97860852  1
  O  O67  1  0.49415721  0.68211296  0.47860852  1
  O  O68  1  0.85349187  0.12575543  0.62764872  1
  O  O69  1  0.14650813  0.87424457  0.12764872  1
  O  O70  1  0.64650813  0.62575543  0.12764872  1
  O  O71  1  0.35349187  0.37424457  0.62764872  1
  O  O72  1  0.96369463  0.43485359  0.59551143  1
  O  O73  1  0.03630537  0.56514641  0.09551143  1
  O  O74  1  0.53630537  0.93485359  0.09551143  1
  O  O75  1  0.46369463  0.06514641  0.59551143  1
  O  O76  1  0.03858267  0.23004274  0.72399127  1
  O  O77  1  0.96141733  0.76995726  0.22399127  1
  O  O78  1  0.46141733  0.73004274  0.22399127  1
  O  O79  1  0.53858267  0.26995726  0.72399127  1
  O  O80  1  0.83358510  0.40732251  0.73379355  1
  O  O81  1  0.16641490  0.59267749  0.23379355  1
  O  O82  1  0.66641490  0.90732251  0.23379355  1
  O  O83  1  0.33358510  0.09267749  0.73379355  1
