# generated using pymatgen
data_BeH8SeO8
_symmetry_space_group_name_H-M   'P 1'
_cell_length_a   8.32782218
_cell_length_b   8.32782218
_cell_length_c   10.90323684
_cell_angle_alpha   90.00000000
_cell_angle_beta   90.00000000
_cell_angle_gamma   92.36903251
_symmetry_Int_Tables_number   1
_chemical_formula_structural   BeH8SeO8
_chemical_formula_sum   'Be4 H32 Se4 O32'
_cell_volume   755.52178283
_cell_formula_units_Z   4
loop_
 _symmetry_equiv_pos_site_id
 _symmetry_equiv_pos_as_xyz
  1  'x, y, z'
loop_
 _atom_site_type_symbol
 _atom_site_label
 _atom_site_symmetry_multiplicity
 _atom_site_fract_x
 _atom_site_fract_y
 _atom_site_fract_z
 _atom_site_occupancy
  Be  Be0  1  0.24738305  0.24738305  0.76745619  1
  Be  Be1  1  0.75261695  0.75261695  0.23254381  1
  Be  Be2  1  0.25261695  0.25261695  0.26745619  1
  Be  Be3  1  0.74738305  0.74738305  0.73254381  1
  H  H4  1  0.05923841  0.35127061  0.63516116  1
  H  H5  1  0.64872939  0.94076159  0.36483884  1
  H  H6  1  0.14872939  0.44076159  0.13516116  1
  H  H7  1  0.55923841  0.85127061  0.86483884  1
  H  H8  1  0.94076159  0.64872939  0.36483884  1
  H  H9  1  0.35127061  0.05923841  0.63516116  1
  H  H10  1  0.85127061  0.55923841  0.86483884  1
  H  H11  1  0.44076159  0.14872939  0.13516116  1
  H  H12  1  0.20275861  0.48563024  0.66617830  1
  H  H13  1  0.51436976  0.79724139  0.33382170  1
  H  H14  1  0.01436976  0.29724139  0.16617830  1
  H  H15  1  0.70275861  0.98563024  0.83382170  1
  H  H16  1  0.79724139  0.51436976  0.33382170  1
  H  H17  1  0.48563024  0.20275861  0.66617830  1
  H  H18  1  0.98563024  0.70275861  0.83382170  1
  H  H19  1  0.29724139  0.01436976  0.16617830  1
  H  H20  1  0.00178983  0.13783521  0.83797275  1
  H  H21  1  0.86216479  0.99821017  0.16202725  1
  H  H22  1  0.36216479  0.49821017  0.33797275  1
  H  H23  1  0.50178983  0.63783521  0.66202725  1
  H  H24  1  0.99821017  0.86216479  0.16202725  1
  H  H25  1  0.13783521  0.00178983  0.83797275  1
  H  H26  1  0.63783521  0.50178983  0.66202725  1
  H  H27  1  0.49821017  0.36216479  0.33797275  1
  H  H28  1  0.29737612  0.43344808  0.92203491  1
  H  H29  1  0.56655192  0.70262388  0.07796509  1
  H  H30  1  0.06655192  0.20262388  0.42203491  1
  H  H31  1  0.79737612  0.93344808  0.57796509  1
  H  H32  1  0.70262388  0.56655192  0.07796509  1
  H  H33  1  0.43344808  0.29737612  0.92203491  1
  H  H34  1  0.93344808  0.79737612  0.57796509  1
  H  H35  1  0.20262388  0.06655192  0.42203491  1
  Se  Se36  1  0.25325991  0.74674009  0.50000000  1
  Se  Se37  1  0.75325991  0.24674009  0.00000000  1
  Se  Se38  1  0.74674009  0.25325991  0.50000000  1
  Se  Se39  1  0.24674009  0.75325991  0.00000000  1
  O  O40  1  0.05555676  0.70948513  0.48308634  1
  O  O41  1  0.29051487  0.94444324  0.51691366  1
  O  O42  1  0.79051487  0.44444324  0.98308634  1
  O  O43  1  0.55555676  0.20948513  0.01691366  1
  O  O44  1  0.94444324  0.29051487  0.51691366  1
  O  O45  1  0.70948513  0.05555676  0.48308634  1
  O  O46  1  0.20948513  0.55555676  0.01691366  1
  O  O47  1  0.44444324  0.79051487  0.98308634  1
  O  O48  1  0.31341667  0.64812858  0.62509262  1
  O  O49  1  0.35187142  0.68658333  0.37490738  1
  O  O50  1  0.85187142  0.18658333  0.12509262  1
  O  O51  1  0.81341667  0.14812858  0.87490738  1
  O  O52  1  0.68658333  0.35187142  0.37490738  1
  O  O53  1  0.64812858  0.31341667  0.62509262  1
  O  O54  1  0.14812858  0.81341667  0.87490738  1
  O  O55  1  0.18658333  0.85187142  0.12509262  1
  O  O56  1  0.11450887  0.11450887  0.81271638  1
  O  O57  1  0.88549113  0.88549113  0.18728362  1
  O  O58  1  0.38549113  0.38549113  0.31271638  1
  O  O59  1  0.61450887  0.61450887  0.68728362  1
  O  O60  1  0.34952400  0.34952400  0.87091898  1
  O  O61  1  0.65047600  0.65047600  0.12908102  1
  O  O62  1  0.15047600  0.15047600  0.37091898  1
  O  O63  1  0.84952400  0.84952400  0.62908102  1
  O  O64  1  0.14796913  0.38230453  0.69372830  1
  O  O65  1  0.61769547  0.85203087  0.30627170  1
  O  O66  1  0.11769547  0.35203087  0.19372830  1
  O  O67  1  0.64796913  0.88230453  0.80627170  1
  O  O68  1  0.85203087  0.61769547  0.30627170  1
  O  O69  1  0.38230453  0.14796913  0.69372830  1
  O  O70  1  0.88230453  0.64796913  0.80627170  1
  O  O71  1  0.35203087  0.11769547  0.19372830  1
