# generated using pymatgen
data_GdBO3
_symmetry_space_group_name_H-M   'P 1'
_cell_length_a   10.45280097
_cell_length_b   10.45280096
_cell_length_c   10.45280097
_cell_angle_alpha   35.67601645
_cell_angle_beta   35.67601646
_cell_angle_gamma   35.67601646
_symmetry_Int_Tables_number   1
_chemical_formula_structural   GdBO3
_chemical_formula_sum   'Gd6 B6 O18'
_cell_volume   347.24365527
_cell_formula_units_Z   6
loop_
 _symmetry_equiv_pos_site_id
 _symmetry_equiv_pos_as_xyz
  1  'x, y, z'
loop_
 _atom_site_type_symbol
 _atom_site_label
 _atom_site_symmetry_multiplicity
 _atom_site_fract_x
 _atom_site_fract_y
 _atom_site_fract_z
 _atom_site_occupancy
  B  B0  1  0.74261813  0.50000000  0.25738187  1
  B  B1  1  0.50000000  0.25738187  0.74261813  1
  B  B2  1  0.25738187  0.74261813  0.50000000  1
  B  B3  1  0.24263029  0.00000000  0.75736971  1
  B  B4  1  0.00000000  0.75736971  0.24263029  1
  B  B5  1  0.75736971  0.24263029  0.00000000  1
  O  O6  1  0.10137555  0.81189965  0.45722668  1
  O  O7  1  0.45722668  0.10137555  0.81189965  1
  O  O8  1  0.81189965  0.45722668  0.10137555  1
  O  O9  1  0.18810035  0.89862445  0.54277332  1
  O  O10  1  0.54277332  0.18810035  0.89862445  1
  O  O11  1  0.89862445  0.54277332  0.18810035  1
  O  O12  1  0.04305938  0.68806157  0.39838229  1
  O  O13  1  0.39838229  0.04305938  0.68806157  1
  O  O14  1  0.68806157  0.39838229  0.04305938  1
  O  O15  1  0.31193843  0.95694062  0.60161771  1
  O  O16  1  0.60161771  0.31193843  0.95694062  1
  O  O17  1  0.95694062  0.60161771  0.31193843  1
  O  O18  1  0.00000000  0.22352428  0.77647572  1
  O  O19  1  0.77647572  0.00000000  0.22352428  1
  O  O20  1  0.22352428  0.77647572  0.00000000  1
  O  O21  1  0.50000000  0.72352380  0.27647620  1
  O  O22  1  0.27647620  0.50000000  0.72352380  1
  O  O23  1  0.72352380  0.27647620  0.50000000  1
  Gd  Gd24  1  0.58182649  0.91818677  0.24998087  1
  Gd  Gd25  1  0.91818677  0.24998087  0.58182649  1
  Gd  Gd26  1  0.24998087  0.58182649  0.91818677  1
  Gd  Gd27  1  0.75001913  0.08181323  0.41817351  1
  Gd  Gd28  1  0.08181323  0.41817351  0.75001913  1
  Gd  Gd29  1  0.41817351  0.75001913  0.08181323  1
