# generated using pymatgen
data_BeH14(I2O9)2
_symmetry_space_group_name_H-M   'P 1'
_cell_length_a   7.88794003
_cell_length_b   8.65521704
_cell_length_c   24.87492567
_cell_angle_alpha   90.00000617
_cell_angle_beta   90.00000450
_cell_angle_gamma   90.00001075
_symmetry_Int_Tables_number   1
_chemical_formula_structural   BeH14(I2O9)2
_chemical_formula_sum   'Be4 H56 I16 O72'
_cell_volume   1698.25677019
_cell_formula_units_Z   4
loop_
 _symmetry_equiv_pos_site_id
 _symmetry_equiv_pos_as_xyz
  1  'x, y, z'
loop_
 _atom_site_type_symbol
 _atom_site_label
 _atom_site_symmetry_multiplicity
 _atom_site_fract_x
 _atom_site_fract_y
 _atom_site_fract_z
 _atom_site_occupancy
  Be  Be0  1  0.79805864  0.88130411  0.25000014  1
  Be  Be1  1  0.29805839  0.61869977  0.24999986  1
  Be  Be2  1  0.20194168  0.11869665  0.74999985  1
  Be  Be3  1  0.70194129  0.38130380  0.74999983  1
  H  H4  1  0.35164867  0.10949767  0.16797318  1
  H  H5  1  0.85164890  0.39050203  0.33202670  1
  H  H6  1  0.64835118  0.89050187  0.66797304  1
  H  H7  1  0.14835093  0.60949799  0.83202696  1
  H  H8  1  0.64835137  0.89050202  0.83202698  1
  H  H9  1  0.14835119  0.60949792  0.66797297  1
  H  H10  1  0.35164839  0.10949771  0.33202683  1
  H  H11  1  0.85164889  0.39050223  0.16797320  1
  H  H12  1  0.59098944  0.05277625  0.28262370  1
  H  H13  1  0.09099072  0.44722512  0.21737609  1
  H  H14  1  0.40900994  0.94722332  0.78262389  1
  H  H15  1  0.90901198  0.55277758  0.71737622  1
  H  H16  1  0.40900990  0.94722290  0.71737619  1
  H  H17  1  0.90901189  0.55277729  0.78262360  1
  H  H18  1  0.59098947  0.05277623  0.21737624  1
  H  H19  1  0.09099089  0.44722507  0.28262379  1
  H  H20  1  0.04162282  0.99946128  0.21730501  1
  H  H21  1  0.54162391  0.50053921  0.28269482  1
  H  H22  1  0.95837654  0.00053792  0.71730526  1
  H  H23  1  0.45837715  0.49946194  0.78269489  1
  H  H24  1  0.95837695  0.00053814  0.78269484  1
  H  H25  1  0.45837698  0.49946226  0.71730503  1
  H  H26  1  0.04162272  0.99946111  0.28269491  1
  H  H27  1  0.54162404  0.50053875  0.21730501  1
  H  H28  1  0.67556394  0.78819260  0.32875458  1
  H  H29  1  0.17556480  0.71180800  0.17124572  1
  H  H30  1  0.32443578  0.21180649  0.82875460  1
  H  H31  1  0.82443593  0.28819297  0.67124547  1
  H  H32  1  0.32443602  0.21180625  0.67124529  1
  H  H33  1  0.82443592  0.28819339  0.82875451  1
  H  H34  1  0.67556383  0.78819263  0.17124546  1
  H  H35  1  0.17556483  0.71180804  0.32875412  1
  H  H36  1  0.87593393  0.77181000  0.33354618  1
  H  H37  1  0.37593463  0.72819076  0.16645368  1
  H  H38  1  0.12406575  0.22818905  0.83354613  1
  H  H39  1  0.62406585  0.27181037  0.66645400  1
  H  H40  1  0.12406588  0.22818921  0.66645368  1
  H  H41  1  0.62406556  0.27181113  0.83354597  1
  H  H42  1  0.87593409  0.77180996  0.16645389  1
  H  H43  1  0.37593472  0.72819081  0.33354619  1
  H  H44  1  0.98887590  0.64608718  0.40078228  1
  H  H45  1  0.48887567  0.85391329  0.09921755  1
  H  H46  1  0.01112362  0.35391258  0.90078232  1
  H  H47  1  0.51112397  0.14608679  0.59921781  1
  H  H48  1  0.01112395  0.35391267  0.59921774  1
  H  H49  1  0.51112421  0.14608686  0.90078223  1
  H  H50  1  0.98887620  0.64608687  0.09921782  1
  H  H51  1  0.48887567  0.85391310  0.40078242  1
  H  H52  1  0.04232173  0.82381118  0.40270052  1
  H  H53  1  0.54232139  0.67618890  0.09729939  1
  H  H54  1  0.95767761  0.17618830  0.90270068  1
  H  H55  1  0.45767843  0.32381071  0.59729961  1
  H  H56  1  0.95767793  0.17618857  0.59729942  1
  H  H57  1  0.45767823  0.32381078  0.90270045  1
  H  H58  1  0.04232175  0.82381075  0.09729955  1
  H  H59  1  0.54232125  0.67618875  0.40270062  1
  I  I60  1  0.53476658  0.29159481  0.11655363  1
  I  I61  1  0.03476659  0.20840510  0.38344607  1
  I  I62  1  0.46523299  0.70840471  0.61655379  1
  I  I63  1  0.96523293  0.79159491  0.88344663  1
  I  I64  1  0.46523283  0.70840502  0.88344619  1
  I  I65  1  0.96523291  0.79159521  0.61655346  1
  I  I66  1  0.53476667  0.29159467  0.38344649  1
  I  I67  1  0.03476656  0.20840511  0.11655394  1
  I  I68  1  0.76516844  0.52018736  0.00756470  1
  I  I69  1  0.26516846  0.97981241  0.49243540  1
  I  I70  1  0.23483159  0.47981252  0.50756469  1
  I  I71  1  0.73483193  0.02018703  0.99243548  1
  I  I72  1  0.23483156  0.47981277  0.99243541  1
  I  I73  1  0.73483134  0.02018739  0.50756462  1
  I  I74  1  0.76516825  0.52018771  0.49243533  1
  I  I75  1  0.26516764  0.97981247  0.00756448  1
  O  O76  1  0.32150605  0.37131689  0.11681957  1
  O  O77  1  0.82150603  0.12868328  0.38318061  1
  O  O78  1  0.67849320  0.62868347  0.61681964  1
  O  O79  1  0.17849354  0.87131722  0.88318073  1
  O  O80  1  0.67849320  0.62868317  0.88318048  1
  O  O81  1  0.17849342  0.87131701  0.61681947  1
  O  O82  1  0.32150605  0.37131671  0.38318037  1
  O  O83  1  0.82150612  0.12868276  0.11681969  1
  O  O84  1  0.63925242  0.41336577  0.16656196  1
  O  O85  1  0.13925129  0.08663256  0.33343796  1
  O  O86  1  0.36074761  0.58663304  0.66656213  1
  O  O87  1  0.86074754  0.91336566  0.83343831  1
  O  O88  1  0.36074760  0.58663333  0.83343796  1
  O  O89  1  0.86074789  0.91336580  0.66656191  1
  O  O90  1  0.63925257  0.41336618  0.33343810  1
  O  O91  1  0.13925160  0.08663261  0.16656217  1
  O  O92  1  0.47844783  0.12834633  0.16909810  1
  O  O93  1  0.97844901  0.37165374  0.33090173  1
  O  O94  1  0.52155208  0.87165379  0.66909820  1
  O  O95  1  0.02155240  0.62834665  0.83090210  1
  O  O96  1  0.52155260  0.87165381  0.83090201  1
  O  O97  1  0.02155241  0.62834603  0.66909805  1
  O  O98  1  0.47844705  0.12834612  0.33090197  1
  O  O99  1  0.97844813  0.37165347  0.16909815  1
  O  O100  1  0.77715721  0.72983532  0.00646901  1
  O  O101  1  0.27715702  0.77016434  0.49353116  1
  O  O102  1  0.22284285  0.27016461  0.50646877  1
  O  O103  1  0.72284215  0.22983550  0.99353102  1
  O  O104  1  0.22284297  0.27016443  0.99353115  1
  O  O105  1  0.72284224  0.22983516  0.50646885  1
  O  O106  1  0.77715734  0.72983511  0.49353103  1
  O  O107  1  0.27715722  0.77016445  0.00646865  1
  O  O108  1  0.93742283  0.47981064  0.05600663  1
  O  O109  1  0.43742289  0.02018862  0.44399316  1
  O  O110  1  0.06257695  0.52018843  0.55600681  1
  O  O111  1  0.56257717  0.97981063  0.94399329  1
  O  O112  1  0.06257672  0.52018874  0.94399331  1
  O  O113  1  0.56257713  0.97981007  0.55600661  1
  O  O114  1  0.93742300  0.47981062  0.44399331  1
  O  O115  1  0.43742341  0.02018788  0.05600687  1
  O  O116  1  0.58271787  0.50333734  0.05566156  1
  O  O117  1  0.08271776  0.99666225  0.44433859  1
  O  O118  1  0.41728237  0.49666277  0.55566149  1
  O  O119  1  0.91728206  0.00333780  0.94433846  1
  O  O120  1  0.41728236  0.49666196  0.94433857  1
  O  O121  1  0.91728154  0.00333753  0.55566159  1
  O  O122  1  0.58271735  0.50333791  0.44433844  1
  O  O123  1  0.08271766  0.99666264  0.05566126  1
  O  O124  1  0.64032681  0.00191133  0.24999995  1
  O  O125  1  0.14032754  0.49809010  0.24999985  1
  O  O126  1  0.35967248  0.99808773  0.75000008  1
  O  O127  1  0.85967453  0.50191165  0.75000012  1
  O  O128  1  0.99108657  0.94905973  0.25000001  1
  O  O129  1  0.49108667  0.55093979  0.25000008  1
  O  O130  1  0.00891275  0.05094017  0.75000006  1
  O  O131  1  0.50891389  0.44906196  0.75000008  1
  O  O132  1  0.78129812  0.78682238  0.30659474  1
  O  O133  1  0.28129942  0.71317933  0.19340505  1
  O  O134  1  0.21870119  0.21317804  0.80659480  1
  O  O135  1  0.71870168  0.28682204  0.69340536  1
  O  O136  1  0.21870138  0.21317771  0.69340521  1
  O  O137  1  0.71870137  0.28682239  0.80659478  1
  O  O138  1  0.78129882  0.78682208  0.19340525  1
  O  O139  1  0.28130107  0.71317923  0.30659457  1
  O  O140  1  0.02015877  0.73590590  0.37786925  1
  O  O141  1  0.52015813  0.76409337  0.12213073  1
  O  O142  1  0.97984092  0.26409256  0.87786935  1
  O  O143  1  0.47984231  0.23590627  0.62213068  1
  O  O144  1  0.97984093  0.26409369  0.62213070  1
  O  O145  1  0.47984160  0.23590638  0.87786931  1
  O  O146  1  0.02015832  0.73590653  0.12213043  1
  O  O147  1  0.52015789  0.76409321  0.37786934  1
