# generated using pymatgen
data_ZnInH14O7F5
_symmetry_space_group_name_H-M   'P 1'
_cell_length_a   6.67617740
_cell_length_b   9.13926618
_cell_length_c   11.98069342
_cell_angle_alpha   121.07345696
_cell_angle_beta   111.54520436
_cell_angle_gamma   97.97399752
_symmetry_Int_Tables_number   1
_chemical_formula_structural   ZnInH14O7F5
_chemical_formula_sum   'Zn2 In2 H28 O14 F10'
_cell_volume   530.62639303
_cell_formula_units_Z   2
loop_
 _symmetry_equiv_pos_site_id
 _symmetry_equiv_pos_as_xyz
  1  'x, y, z'
loop_
 _atom_site_type_symbol
 _atom_site_label
 _atom_site_symmetry_multiplicity
 _atom_site_fract_x
 _atom_site_fract_y
 _atom_site_fract_z
 _atom_site_occupancy
  Zn  Zn0  1  0.00000000  0.50000000  0.50000000  1
  Zn  Zn1  1  0.50000000  0.50000000  0.00000000  1
  In  In2  1  0.50000000  0.00000000  0.50000000  1
  In  In3  1  0.00000000  0.00000000  0.00000000  1
  H  H4  1  0.01615219  0.76822010  0.45543230  1
  H  H5  1  0.98384781  0.23177990  0.54456770  1
  H  H6  1  0.79499091  0.72295387  0.47283807  1
  H  H7  1  0.20500909  0.27704613  0.52716193  1
  H  H8  1  0.17840650  0.63349036  0.93783108  1
  H  H9  1  0.82159350  0.36650964  0.06216892  1
  H  H10  1  0.28047971  0.60368531  0.83110561  1
  H  H11  1  0.71952029  0.39631469  0.16889439  1
  H  H12  1  0.26214122  0.81590823  0.79658000  1
  H  H13  1  0.73785878  0.18409177  0.20342000  1
  H  H14  1  0.44376023  0.74000170  0.74967746  1
  H  H15  1  0.55623977  0.25999830  0.25032254  1
  H  H16  1  0.33212979  0.59867712  0.43651870  1
  H  H17  1  0.66787021  0.40132288  0.56348130  1
  H  H18  1  0.75657564  0.62007089  0.65104518  1
  H  H19  1  0.24342436  0.37992911  0.34895482  1
  H  H20  1  0.81522611  0.59761038  0.93238024  1
  H  H21  1  0.18477389  0.40238962  0.06761976  1
  H  H22  1  0.40202417  0.58997410  0.22928850  1
  H  H23  1  0.59797583  0.41002590  0.77071150  1
  H  H24  1  0.74989347  0.87251235  0.14210952  1
  H  H25  1  0.25010653  0.12748765  0.85789048  1
  H  H26  1  0.87710708  0.82916495  0.25860112  1
  H  H27  1  0.12289292  0.17083505  0.74139888  1
  H  H28  1  0.31336180  0.91482621  0.20923148  1
  H  H29  1  0.68663820  0.08517379  0.79076852  1
  H  H30  1  0.56836321  0.90808401  0.26085855  1
  H  H31  1  0.43163679  0.09191599  0.73914145  1
  O  O32  1  0.24654107  0.55525467  0.88314984  1
  O  O33  1  0.75345893  0.44474533  0.11685016  1
  O  O34  1  0.32768213  0.51170079  0.11686700  1
  O  O35  1  0.67231787  0.48829921  0.88313300  1
  O  O36  1  0.72031643  0.80370416  0.18212606  1
  O  O37  1  0.27968357  0.19629584  0.81787394  1
  O  O38  1  0.28519575  0.70051964  0.73727490  1
  O  O39  1  0.71480425  0.29948036  0.26272510  1
  O  O40  1  0.95365259  0.72293447  0.50041281  1
  O  O41  1  0.04634741  0.27706553  0.49958719  1
  O  O42  1  0.76363068  0.50564447  0.57494870  1
  O  O43  1  0.23636932  0.49435553  0.42505130  1
  O  O44  1  0.47132952  0.97048935  0.30000692  1
  O  O45  1  0.52867048  0.02951065  0.69999308  1
  F  F46  1  0.13397240  0.87594165  0.39838253  1
  F  F47  1  0.86602760  0.12405835  0.60161747  1
  F  F48  1  0.51582934  0.73446801  0.41656732  1
  F  F49  1  0.48417066  0.26553199  0.58343268  1
  F  F50  1  0.71686168  0.78547018  0.78028853  1
  F  F51  1  0.28313832  0.21452982  0.21971147  1
  F  F52  1  0.21890875  0.99916373  0.91031113  1
  F  F53  1  0.78109125  0.00083627  0.08968887  1
  F  F54  1  0.07625304  0.79688816  0.02998221  1
  F  F55  1  0.92374696  0.20311184  0.97001779  1
