# generated using pymatgen
data_K2NaCa2TiSi7HO20
_symmetry_space_group_name_H-M   'P 1'
_cell_length_a   10.49955042
_cell_length_b   12.35026199
_cell_length_c   7.14236609
_cell_angle_alpha   90.78929372
_cell_angle_beta   99.18462641
_cell_angle_gamma   92.71345375
_symmetry_Int_Tables_number   1
_chemical_formula_structural   K2NaCa2TiSi7HO20
_chemical_formula_sum   'K4 Na2 Ca4 Ti2 Si14 H2 O40'
_cell_volume   913.05321330
_cell_formula_units_Z   2
loop_
 _symmetry_equiv_pos_site_id
 _symmetry_equiv_pos_as_xyz
  1  'x, y, z'
loop_
 _atom_site_type_symbol
 _atom_site_label
 _atom_site_symmetry_multiplicity
 _atom_site_fract_x
 _atom_site_fract_y
 _atom_site_fract_z
 _atom_site_occupancy
  K  K0  1  0.34310682  0.09980706  0.22274434  1
  K  K1  1  0.65689318  0.90019294  0.77725566  1
  K  K2  1  0.44852626  0.35070363  0.72885875  1
  K  K3  1  0.55147374  0.64929637  0.27114125  1
  Na  Na4  1  0.97785396  0.11003838  0.61128131  1
  Na  Na5  1  0.02214604  0.88996162  0.38871869  1
  Ca  Ca6  1  0.87893672  0.40679439  0.08862900  1
  Ca  Ca7  1  0.12106328  0.59320561  0.91137100  1
  Ca  Ca8  1  0.87546906  0.42013541  0.59068946  1
  Ca  Ca9  1  0.12453094  0.57986459  0.40931054  1
  Ti  Ti10  1  0.98785529  0.10030721  0.10235008  1
  Ti  Ti11  1  0.01214471  0.89969279  0.89764992  1
  Si  Si12  1  0.86975632  0.69154700  0.12610186  1
  Si  Si13  1  0.13024368  0.30845300  0.87389814  1
  Si  Si14  1  0.87139357  0.69985956  0.57499554  1
  Si  Si15  1  0.12860643  0.30014044  0.42500446  1
  Si  Si16  1  0.68434336  0.58383668  0.80230199  1
  Si  Si17  1  0.31565664  0.41616332  0.19769801  1
  Si  Si18  1  0.31671945  0.81719427  0.00301978  1
  Si  Si19  1  0.68328055  0.18280573  0.99698022  1
  Si  Si20  1  0.31057837  0.81158476  0.43060731  1
  Si  Si21  1  0.68942163  0.18841524  0.56939269  1
  Si  Si22  1  0.39722718  0.64881783  0.73215820  1
  Si  Si23  1  0.60277282  0.35118217  0.26784180  1
  Si  Si24  1  0.27758824  0.98805100  0.71981906  1
  Si  Si25  1  0.72241176  0.01194900  0.28018094  1
  H  H26  1  0.73011622  0.83095493  0.29650314  1
  H  H27  1  0.26988378  0.16904507  0.70349686  1
  O  O28  1  0.72485969  0.65523179  0.00290205  1
  O  O29  1  0.27514031  0.34476821  0.99709795  1
  O  O30  1  0.92033740  0.80623893  0.05146346  1
  O  O31  1  0.07966260  0.19376107  0.94853654  1
  O  O32  1  0.96620750  0.59339398  0.12604680  1
  O  O33  1  0.03379250  0.40660602  0.87395320  1
  O  O34  1  0.83422099  0.71778539  0.34111702  1
  O  O35  1  0.16577901  0.28221461  0.65888298  1
  O  O36  1  0.91893733  0.81803015  0.66651685  1
  O  O37  1  0.08106267  0.18196985  0.33348315  1
  O  O38  1  0.96960725  0.60296372  0.62072436  1
  O  O39  1  0.03039275  0.39703628  0.37927564  1
  O  O40  1  0.72760456  0.66081919  0.63157990  1
  O  O41  1  0.27239544  0.33918081  0.36842010  1
  O  O42  1  0.74235495  0.46621871  0.81118473  1
  O  O43  1  0.25764505  0.53378129  0.18881527  1
  O  O44  1  0.52481969  0.57372290  0.76008263  1
  O  O45  1  0.47518031  0.42627710  0.23991737  1
  O  O46  1  0.40710516  0.72310379  0.92983881  1
  O  O47  1  0.59289484  0.27689621  0.07016119  1
  O  O48  1  0.35748985  0.93335892  0.91132004  1
  O  O49  1  0.64251015  0.06664108  0.08867996  1
  O  O50  1  0.16519270  0.78517481  0.94009172  1
  O  O51  1  0.83480730  0.21482519  0.05990828  1
  O  O52  1  0.36871681  0.82906460  0.23151289  1
  O  O53  1  0.63128319  0.17093540  0.76848711  1
  O  O54  1  0.16790325  0.75929661  0.40724530  1
  O  O55  1  0.83209675  0.24070339  0.59275470  1
  O  O56  1  0.32662821  0.93416168  0.53162837  1
  O  O57  1  0.67337179  0.06583832  0.46837163  1
  O  O58  1  0.41761694  0.73440159  0.56000550  1
  O  O59  1  0.58238306  0.26559841  0.43999450  1
  O  O60  1  0.26810308  0.57228095  0.69390875  1
  O  O61  1  0.73189692  0.42771905  0.30609125  1
  O  O62  1  0.33587092  0.11489263  0.72975418  1
  O  O63  1  0.66412908  0.88510737  0.27024582  1
  O  O64  1  0.12262674  0.97362807  0.71105335  1
  O  O65  1  0.87737326  0.02637193  0.28894665  1
  O  O66  1  0.09874454  0.98741508  0.11803228  1
  O  O67  1  0.90125546  0.01258492  0.88196772  1
