# generated using pymatgen
data_AlH10SO9F
_symmetry_space_group_name_H-M   'P 1'
_cell_length_a   11.32891588
_cell_length_b   13.10879814
_cell_length_c   10.89669191
_cell_angle_alpha   90.00000000
_cell_angle_beta   90.00000000
_cell_angle_gamma   90.00000000
_symmetry_Int_Tables_number   1
_chemical_formula_structural   AlH10SO9F
_chemical_formula_sum   'Al8 H80 S8 O72 F8'
_cell_volume   1618.25105904
_cell_formula_units_Z   8
loop_
 _symmetry_equiv_pos_site_id
 _symmetry_equiv_pos_as_xyz
  1  'x, y, z'
loop_
 _atom_site_type_symbol
 _atom_site_label
 _atom_site_symmetry_multiplicity
 _atom_site_fract_x
 _atom_site_fract_y
 _atom_site_fract_z
 _atom_site_occupancy
  Al  Al0  1  0.50000000  0.00000000  0.50000000  1
  Al  Al1  1  0.00000000  0.00000000  0.00000000  1
  Al  Al2  1  0.50000000  0.50000000  0.00000000  1
  Al  Al3  1  0.00000000  0.50000000  0.50000000  1
  Al  Al4  1  0.50000000  0.00000000  0.00000000  1
  Al  Al5  1  0.00000000  0.00000000  0.50000000  1
  Al  Al6  1  0.50000000  0.50000000  0.50000000  1
  Al  Al7  1  0.00000000  0.50000000  0.00000000  1
  H  H8  1  0.57092265  0.14018521  0.65177976  1
  H  H9  1  0.07092265  0.85981479  0.84822024  1
  H  H10  1  0.42907735  0.35981479  0.15177976  1
  H  H11  1  0.92907735  0.64018521  0.34822024  1
  H  H12  1  0.42907735  0.85981479  0.34822024  1
  H  H13  1  0.92907735  0.14018521  0.15177976  1
  H  H14  1  0.57092265  0.64018521  0.84822024  1
  H  H15  1  0.07092265  0.35981479  0.65177976  1
  H  H16  1  0.44068429  0.17190886  0.60077819  1
  H  H17  1  0.94068429  0.82809114  0.89922181  1
  H  H18  1  0.55931571  0.32809114  0.10077819  1
  H  H19  1  0.05931571  0.67190886  0.39922181  1
  H  H20  1  0.55931571  0.82809114  0.39922181  1
  H  H21  1  0.05931571  0.17190886  0.10077819  1
  H  H22  1  0.44068429  0.67190886  0.89922181  1
  H  H23  1  0.94068429  0.32809114  0.60077819  1
  H  H24  1  0.65044322  0.14332849  0.04068092  1
  H  H25  1  0.15044322  0.85667151  0.45931908  1
  H  H26  1  0.34955678  0.35667151  0.54068092  1
  H  H27  1  0.84955678  0.64332849  0.95931908  1
  H  H28  1  0.34955678  0.85667151  0.95931908  1
  H  H29  1  0.84955678  0.14332849  0.54068092  1
  H  H30  1  0.65044322  0.64332849  0.45931908  1
  H  H31  1  0.15044322  0.35667151  0.04068092  1
  H  H32  1  0.65507268  0.11452176  0.89580646  1
  H  H33  1  0.15507268  0.88547824  0.60419354  1
  H  H34  1  0.34492732  0.38547824  0.39580646  1
  H  H35  1  0.84492732  0.61452176  0.10419354  1
  H  H36  1  0.34492732  0.88547824  0.10419354  1
  H  H37  1  0.84492732  0.11452176  0.39580646  1
  H  H38  1  0.65507268  0.61452176  0.60419354  1
  H  H39  1  0.15507268  0.38547824  0.89580646  1
  H  H40  1  0.37741890  0.16505031  0.96359552  1
  H  H41  1  0.87741890  0.83494969  0.53640448  1
  H  H42  1  0.62258110  0.33494969  0.46359552  1
  H  H43  1  0.12258110  0.66505031  0.03640448  1
  H  H44  1  0.62258110  0.83494969  0.03640448  1
  H  H45  1  0.12258110  0.16505031  0.46359552  1
  H  H46  1  0.37741890  0.66505031  0.53640448  1
  H  H47  1  0.87741890  0.33494969  0.96359552  1
  H  H48  1  0.36909373  0.13321298  0.11030166  1
  H  H49  1  0.86909373  0.86678702  0.38969834  1
  H  H50  1  0.63090627  0.36678702  0.61030166  1
  H  H51  1  0.13090627  0.63321298  0.88969834  1
  H  H52  1  0.63090627  0.86678702  0.88969834  1
  H  H53  1  0.13090627  0.13321298  0.61030166  1
  H  H54  1  0.36909373  0.63321298  0.38969834  1
  H  H55  1  0.86909373  0.36678702  0.11030166  1
  H  H56  1  0.55859033  0.03650495  0.28019535  1
  H  H57  1  0.05859033  0.96349505  0.21980465  1
  H  H58  1  0.44140967  0.46349505  0.78019535  1
  H  H59  1  0.94140967  0.53650495  0.71980465  1
  H  H60  1  0.44140967  0.96349505  0.71980465  1
  H  H61  1  0.94140967  0.03650495  0.78019535  1
  H  H62  1  0.55859033  0.53650495  0.21980465  1
  H  H63  1  0.05859033  0.46349505  0.28019535  1
  H  H64  1  0.60018176  0.13568899  0.36501835  1
  H  H65  1  0.10018176  0.86431101  0.13498165  1
  H  H66  1  0.39981824  0.36431101  0.86501835  1
  H  H67  1  0.89981824  0.63568899  0.63498165  1
  H  H68  1  0.39981824  0.86431101  0.63498165  1
  H  H69  1  0.89981824  0.13568899  0.86501835  1
  H  H70  1  0.60018176  0.63568899  0.13498165  1
  H  H71  1  0.10018176  0.36431101  0.36501835  1
  H  H72  1  0.32894516  0.07753179  0.36571772  1
  H  H73  1  0.82894516  0.92246821  0.13428228  1
  H  H74  1  0.67105484  0.42246821  0.86571772  1
  H  H75  1  0.17105484  0.57753179  0.63428228  1
  H  H76  1  0.67105484  0.92246821  0.63428228  1
  H  H77  1  0.17105484  0.07753179  0.86571772  1
  H  H78  1  0.32894516  0.57753179  0.13428228  1
  H  H79  1  0.82894516  0.42246821  0.36571772  1
  H  H80  1  0.27443286  0.00032911  0.47023358  1
  H  H81  1  0.77443286  0.99967089  0.02976642  1
  H  H82  1  0.72556714  0.49967089  0.97023358  1
  H  H83  1  0.22556714  0.50032911  0.52976642  1
  H  H84  1  0.72556714  0.99967089  0.52976642  1
  H  H85  1  0.22556714  0.00032911  0.97023358  1
  H  H86  1  0.27443286  0.50032911  0.02976642  1
  H  H87  1  0.77443286  0.49967089  0.47023358  1
  S  S88  1  0.73875330  0.25220923  0.24691995  1
  S  S89  1  0.23875330  0.74779077  0.25308005  1
  S  S90  1  0.26124670  0.24779077  0.74691995  1
  S  S91  1  0.76124670  0.75220923  0.75308005  1
  S  S92  1  0.26124670  0.74779077  0.75308005  1
  S  S93  1  0.76124670  0.25220923  0.74691995  1
  S  S94  1  0.73875330  0.75220923  0.25308005  1
  S  S95  1  0.23875330  0.24779077  0.24691995  1
  O  O96  1  0.66853334  0.24310545  0.13111262  1
  O  O97  1  0.16853334  0.75689455  0.36888738  1
  O  O98  1  0.33146666  0.25689455  0.63111262  1
  O  O99  1  0.83146666  0.74310545  0.86888738  1
  O  O100  1  0.33146666  0.75689455  0.86888738  1
  O  O101  1  0.83146666  0.24310545  0.63111262  1
  O  O102  1  0.66853334  0.74310545  0.36888738  1
  O  O103  1  0.16853334  0.25689455  0.13111262  1
  O  O104  1  0.80475686  0.35084150  0.24433984  1
  O  O105  1  0.30475686  0.64915850  0.25566016  1
  O  O106  1  0.19524314  0.14915850  0.74433984  1
  O  O107  1  0.69524314  0.85084150  0.75566016  1
  O  O108  1  0.19524314  0.64915850  0.75566016  1
  O  O109  1  0.69524314  0.35084150  0.74433984  1
  O  O110  1  0.80475686  0.85084150  0.25566016  1
  O  O111  1  0.30475686  0.14915850  0.24433984  1
  O  O112  1  0.65918307  0.24973424  0.35592678  1
  O  O113  1  0.15918307  0.75026576  0.14407322  1
  O  O114  1  0.34081693  0.25026576  0.85592678  1
  O  O115  1  0.84081693  0.74973424  0.64407322  1
  O  O116  1  0.34081693  0.75026576  0.64407322  1
  O  O117  1  0.84081693  0.24973424  0.85592678  1
  O  O118  1  0.65918307  0.74973424  0.14407322  1
  O  O119  1  0.15918307  0.25026576  0.35592678  1
  O  O120  1  0.82241055  0.16418252  0.25536835  1
  O  O121  1  0.32241055  0.83581748  0.24463165  1
  O  O122  1  0.17758945  0.33581748  0.75536835  1
  O  O123  1  0.67758945  0.66418252  0.74463165  1
  O  O124  1  0.17758945  0.83581748  0.74463165  1
  O  O125  1  0.67758945  0.16418252  0.75536835  1
  O  O126  1  0.82241055  0.66418252  0.24463165  1
  O  O127  1  0.32241055  0.33581748  0.25536835  1
  O  O128  1  0.51059149  0.12676308  0.58649653  1
  O  O129  1  0.01059149  0.87323692  0.91350347  1
  O  O130  1  0.48940851  0.37323692  0.08649653  1
  O  O131  1  0.98940851  0.62676308  0.41350347  1
  O  O132  1  0.48940851  0.87323692  0.41350347  1
  O  O133  1  0.98940851  0.12676308  0.08649653  1
  O  O134  1  0.51059149  0.62676308  0.91350347  1
  O  O135  1  0.01059149  0.37323692  0.58649653  1
  O  O136  1  0.64250682  0.08531081  0.98041772  1
  O  O137  1  0.14250682  0.91468919  0.51958228  1
  O  O138  1  0.35749318  0.41468919  0.48041772  1
  O  O139  1  0.85749318  0.58531081  0.01958228  1
  O  O140  1  0.35749318  0.91468919  0.01958228  1
  O  O141  1  0.85749318  0.08531081  0.48041772  1
  O  O142  1  0.64250682  0.58531081  0.51958228  1
  O  O143  1  0.14250682  0.41468919  0.98041772  1
  O  O144  1  0.40831036  0.11944428  0.02929881  1
  O  O145  1  0.90831036  0.88055572  0.47070119  1
  O  O146  1  0.59168964  0.38055572  0.52929881  1
  O  O147  1  0.09168964  0.61944428  0.97070119  1
  O  O148  1  0.59168964  0.88055572  0.97070119  1
  O  O149  1  0.09168964  0.11944428  0.52929881  1
  O  O150  1  0.40831036  0.61944428  0.47070119  1
  O  O151  1  0.90831036  0.38055572  0.02929881  1
  O  O152  1  0.57173723  0.06306078  0.36582353  1
  O  O153  1  0.07173723  0.93693922  0.13417647  1
  O  O154  1  0.42826277  0.43693922  0.86582353  1
  O  O155  1  0.92826277  0.56306078  0.63417647  1
  O  O156  1  0.42826277  0.93693922  0.63417647  1
  O  O157  1  0.92826277  0.06306078  0.86582353  1
  O  O158  1  0.57173723  0.56306078  0.13417647  1
  O  O159  1  0.07173723  0.43693922  0.36582353  1
  O  O160  1  0.34618318  0.03539159  0.44072338  1
  O  O161  1  0.84618318  0.96460841  0.05927662  1
  O  O162  1  0.65381682  0.46460841  0.94072338  1
  O  O163  1  0.15381682  0.53539159  0.55927662  1
  O  O164  1  0.65381682  0.96460841  0.55927662  1
  O  O165  1  0.15381682  0.03539159  0.94072338  1
  O  O166  1  0.34618318  0.53539159  0.05927662  1
  O  O167  1  0.84618318  0.46460841  0.44072338  1
  F  F168  1  0.52822992  0.99026902  0.15908669  1
  F  F169  1  0.02822992  0.00973098  0.34091331  1
  F  F170  1  0.47177008  0.50973098  0.65908669  1
  F  F171  1  0.97177008  0.49026902  0.84091331  1
  F  F172  1  0.47177008  0.00973098  0.84091331  1
  F  F173  1  0.97177008  0.99026902  0.65908669  1
  F  F174  1  0.52822992  0.49026902  0.34091331  1
  F  F175  1  0.02822992  0.50973098  0.15908669  1
