# generated using pymatgen
data_K2PHO4
_symmetry_space_group_name_H-M   'P 1'
_cell_length_a   22.81466086
_cell_length_b   10.48376919
_cell_length_c   6.04479697
_cell_angle_alpha   90.00000000
_cell_angle_beta   90.00000000
_cell_angle_gamma   90.00000000
_symmetry_Int_Tables_number   1
_chemical_formula_structural   K2PHO4
_chemical_formula_sum   'K24 P12 H12 O48'
_cell_volume   1445.81653391
_cell_formula_units_Z   12
loop_
 _symmetry_equiv_pos_site_id
 _symmetry_equiv_pos_as_xyz
  1  'x, y, z'
loop_
 _atom_site_type_symbol
 _atom_site_label
 _atom_site_symmetry_multiplicity
 _atom_site_fract_x
 _atom_site_fract_y
 _atom_site_fract_z
 _atom_site_occupancy
  K  K0  1  0.45047858  0.59647631  0.75082806  1
  K  K1  1  0.54952142  0.40352369  0.25082806  1
  K  K2  1  0.04952142  0.09647631  0.25082806  1
  K  K3  1  0.95047858  0.90352369  0.75082806  1
  K  K4  1  0.09879943  0.63401569  0.74109541  1
  K  K5  1  0.90120057  0.36598431  0.24109541  1
  K  K6  1  0.40120057  0.13401569  0.24109541  1
  K  K7  1  0.59879943  0.86598431  0.74109541  1
  K  K8  1  0.32810858  0.36275560  0.73894428  1
  K  K9  1  0.67189142  0.63724440  0.23894428  1
  K  K10  1  0.17189142  0.86275560  0.23894428  1
  K  K11  1  0.82810858  0.13724440  0.73894428  1
  K  K12  1  0.16415088  0.27560947  0.77305610  1
  K  K13  1  0.83584912  0.72439053  0.27305610  1
  K  K14  1  0.33584912  0.77560947  0.27305610  1
  K  K15  1  0.66415088  0.22439053  0.77305610  1
  K  K16  1  0.28263311  0.00742974  0.79372983  1
  K  K17  1  0.71736689  0.99257026  0.29372983  1
  K  K18  1  0.21736689  0.50742974  0.29372983  1
  K  K19  1  0.78263311  0.49257026  0.79372983  1
  K  K20  1  0.48699507  0.24752898  0.73917430  1
  K  K21  1  0.51300493  0.75247102  0.23917430  1
  K  K22  1  0.01300493  0.74752898  0.23917430  1
  K  K23  1  0.98699507  0.25247102  0.73917430  1
  P  P24  1  0.09420033  0.95601125  0.74635304  1
  P  P25  1  0.90579967  0.04398875  0.24635304  1
  P  P26  1  0.40579967  0.45601125  0.24635304  1
  P  P27  1  0.59420033  0.54398875  0.74635304  1
  P  P28  1  0.42470978  0.93162686  0.76085373  1
  P  P29  1  0.57529022  0.06837314  0.26085373  1
  P  P30  1  0.07529022  0.43162686  0.26085373  1
  P  P31  1  0.92470978  0.56837314  0.76085373  1
  P  P32  1  0.24459033  0.65036808  0.78579442  1
  P  P33  1  0.75540967  0.34963192  0.28579442  1
  P  P34  1  0.25540967  0.15036808  0.28579442  1
  P  P35  1  0.74459033  0.84963192  0.78579442  1
  H  H36  1  0.18300752  0.86644798  0.69387292  1
  H  H37  1  0.81699248  0.13355202  0.19387292  1
  H  H38  1  0.31699248  0.36644798  0.19387292  1
  H  H39  1  0.68300752  0.63355202  0.69387292  1
  H  H40  1  0.47872538  0.97910826  0.46622027  1
  H  H41  1  0.52127462  0.02089174  0.96622027  1
  H  H42  1  0.02127462  0.47910826  0.96622027  1
  H  H43  1  0.97872538  0.52089174  0.46622027  1
  H  H44  1  0.33687254  0.70623790  0.73717551  1
  H  H45  1  0.66312746  0.29376210  0.23717551  1
  H  H46  1  0.16312746  0.20623790  0.23717551  1
  H  H47  1  0.83687254  0.79376210  0.73717551  1
  O  O48  1  0.16597195  0.95325914  0.73666246  1
  O  O49  1  0.83402805  0.04674086  0.23666246  1
  O  O50  1  0.33402805  0.45325914  0.23666246  1
  O  O51  1  0.66597195  0.54674086  0.73666246  1
  O  O52  1  0.07778906  0.09762967  0.75488993  1
  O  O53  1  0.92221094  0.90237033  0.25488993  1
  O  O54  1  0.42221094  0.59762967  0.25488993  1
  O  O55  1  0.57778906  0.40237033  0.75488993  1
  O  O56  1  0.07237414  0.88734183  0.53617583  1
  O  O57  1  0.92762586  0.11265817  0.03617583  1
  O  O58  1  0.42762586  0.38734183  0.03617583  1
  O  O59  1  0.57237414  0.61265817  0.53617583  1
  O  O60  1  0.07522972  0.88360307  0.95696045  1
  O  O61  1  0.92477028  0.11639693  0.45696045  1
  O  O62  1  0.42477028  0.38360307  0.45696045  1
  O  O63  1  0.57522972  0.61639693  0.95696045  1
  O  O64  1  0.47937689  0.90958811  0.90823312  1
  O  O65  1  0.52062311  0.09041189  0.40823312  1
  O  O66  1  0.02062311  0.40958811  0.40823312  1
  O  O67  1  0.97937689  0.59041189  0.90823312  1
  O  O68  1  0.40001817  0.06689647  0.78629143  1
  O  O69  1  0.59998183  0.93310353  0.28629143  1
  O  O70  1  0.09998183  0.56689647  0.28629143  1
  O  O71  1  0.90001817  0.43310353  0.78629143  1
  O  O72  1  0.37804973  0.82749346  0.79361339  1
  O  O73  1  0.62195027  0.17250654  0.29361339  1
  O  O74  1  0.12195027  0.32749346  0.29361339  1
  O  O75  1  0.87804973  0.67250654  0.79361339  1
  O  O76  1  0.44652630  0.91300950  0.50453304  1
  O  O77  1  0.55347370  0.08699050  0.00453304  1
  O  O78  1  0.05347370  0.41300950  0.00453304  1
  O  O79  1  0.94652630  0.58699050  0.50453304  1
  O  O80  1  0.31262469  0.62811524  0.70465015  1
  O  O81  1  0.68737531  0.37188476  0.20465015  1
  O  O82  1  0.18737531  0.12811524  0.20465015  1
  O  O83  1  0.81262469  0.87188476  0.70465015  1
  O  O84  1  0.21747764  0.51629503  0.78216184  1
  O  O85  1  0.78252236  0.48370497  0.28216184  1
  O  O86  1  0.28252236  0.01629503  0.28216184  1
  O  O87  1  0.71747764  0.98370497  0.78216184  1
  O  O88  1  0.21657991  0.73994461  0.61014166  1
  O  O89  1  0.78342009  0.26005539  0.11014166  1
  O  O90  1  0.28342009  0.23994461  0.11014166  1
  O  O91  1  0.71657991  0.76005539  0.61014166  1
  O  O92  1  0.24615540  0.71335696  0.01478881  1
  O  O93  1  0.75384460  0.28664304  0.51478881  1
  O  O94  1  0.25384460  0.21335696  0.51478881  1
  O  O95  1  0.74615540  0.78664304  0.01478881  1
