# generated using pymatgen
data_Na5H3(CO3)4
_symmetry_space_group_name_H-M   'P 1'
_cell_length_a   3.51083577
_cell_length_b   10.13437163
_cell_length_c   15.72548630
_cell_angle_alpha   107.75884612
_cell_angle_beta   95.55280915
_cell_angle_gamma   95.14361147
_symmetry_Int_Tables_number   1
_chemical_formula_structural   Na5H3(CO3)4
_chemical_formula_sum   'Na10 H6 C8 O24'
_cell_volume   526.14470781
_cell_formula_units_Z   2
loop_
 _symmetry_equiv_pos_site_id
 _symmetry_equiv_pos_as_xyz
  1  'x, y, z'
loop_
 _atom_site_type_symbol
 _atom_site_label
 _atom_site_symmetry_multiplicity
 _atom_site_fract_x
 _atom_site_fract_y
 _atom_site_fract_z
 _atom_site_occupancy
  Na  Na0  1  0.21410380  0.32667697  0.95156228  1
  Na  Na1  1  0.78589620  0.67332303  0.04843772  1
  Na  Na2  1  0.18797436  0.81818150  0.90062241  1
  Na  Na3  1  0.81202564  0.18181850  0.09937759  1
  Na  Na4  1  0.81956345  0.28167769  0.72013115  1
  Na  Na5  1  0.18043655  0.71832231  0.27986885  1
  Na  Na6  1  0.57232907  0.78637073  0.69189856  1
  Na  Na7  1  0.42767093  0.21362927  0.30810144  1
  Na  Na8  1  0.22820237  0.25215526  0.52261493  1
  Na  Na9  1  0.77179763  0.74784474  0.47738507  1
  H  H10  1  0.27417540  0.53015215  0.74925807  1
  H  H11  1  0.72582460  0.46984785  0.25074193  1
  H  H12  1  0.50000000  0.50000000  0.50000000  1
  H  H13  1  0.99787738  0.04567745  0.75867671  1
  H  H14  1  0.00212262  0.95432255  0.24132329  1
  H  H15  1  0.50000000  0.00000000  0.50000000  1
  C  C16  1  0.58341241  0.52455877  0.86194565  1
  C  C17  1  0.41658759  0.47544123  0.13805435  1
  C  C18  1  0.86132342  0.53118380  0.62309473  1
  C  C19  1  0.13867658  0.46881620  0.37690527  1
  C  C20  1  0.76156725  0.06276796  0.87080395  1
  C  C21  1  0.23843275  0.93723204  0.12919605  1
  C  C22  1  0.24102554  0.00472897  0.61860168  1
  C  C23  1  0.75897446  0.99527103  0.38139832  1
  O  O24  1  0.71393360  0.44528755  0.90338941  1
  O  O25  1  0.28606640  0.55471245  0.09661059  1
  O  O26  1  0.62532944  0.65709416  0.89090542  1
  O  O27  1  0.37467056  0.34290584  0.10909458  1
  O  O28  1  0.37945859  0.45926063  0.77875999  1
  O  O29  1  0.62054141  0.54073937  0.22124001  1
  O  O30  1  0.05769361  0.61655943  0.69664446  1
  O  O31  1  0.94230639  0.38344057  0.30335554  1
  O  O32  1  0.81970036  0.39874507  0.60527169  1
  O  O33  1  0.18029964  0.60125493  0.39472831  1
  O  O34  1  0.69087365  0.58799438  0.56578169  1
  O  O35  1  0.30912635  0.41200562  0.43421831  1
  O  O36  1  0.69491423  0.14716370  0.94436296  1
  O  O37  1  0.30508577  0.85283630  0.05563704  1
  O  O38  1  0.69710511  0.93023024  0.84628331  1
  O  O39  1  0.30289489  0.06976976  0.15371669  1
  O  O40  1  0.92583512  0.12209400  0.81330464  1
  O  O41  1  0.07416488  0.87790600  0.18669536  1
  O  O42  1  0.11109225  0.93839396  0.67047302  1
  O  O43  1  0.88890775  0.06160604  0.32952698  1
  O  O44  1  0.26176152  0.13721550  0.63750272  1
  O  O45  1  0.73823848  0.86278450  0.36249728  1
  O  O46  1  0.35542161  0.92852381  0.54232248  1
  O  O47  1  0.64457839  0.07147619  0.45767752  1
