# generated using pymatgen
data_Na4AlP2HO9
_symmetry_space_group_name_H-M   'P 1'
_cell_length_a   15.46785063
_cell_length_b   14.86862884
_cell_length_c   7.00741848
_cell_angle_alpha   90.00000000
_cell_angle_beta   90.00000000
_cell_angle_gamma   90.00000000
_symmetry_Int_Tables_number   1
_chemical_formula_structural   Na4AlP2HO9
_chemical_formula_sum   'Na32 Al8 P16 H8 O72'
_cell_volume   1611.60625433
_cell_formula_units_Z   8
loop_
 _symmetry_equiv_pos_site_id
 _symmetry_equiv_pos_as_xyz
  1  'x, y, z'
loop_
 _atom_site_type_symbol
 _atom_site_label
 _atom_site_symmetry_multiplicity
 _atom_site_fract_x
 _atom_site_fract_y
 _atom_site_fract_z
 _atom_site_occupancy
  Na  Na0  1  0.13107903  0.11041498  0.75000000  1
  Na  Na1  1  0.86892097  0.88958502  0.25000000  1
  Na  Na2  1  0.13107903  0.38958502  0.25000000  1
  Na  Na3  1  0.86892097  0.61041498  0.75000000  1
  Na  Na4  1  0.25484113  0.51701836  0.52013480  1
  Na  Na5  1  0.74515887  0.48298164  0.02013480  1
  Na  Na6  1  0.25484113  0.98298164  0.47986520  1
  Na  Na7  1  0.74515887  0.01701836  0.97986520  1
  Na  Na8  1  0.74515887  0.48298164  0.47986520  1
  Na  Na9  1  0.25484113  0.51701836  0.97986520  1
  Na  Na10  1  0.74515887  0.01701836  0.52013480  1
  Na  Na11  1  0.25484113  0.98298164  0.02013480  1
  Na  Na12  1  0.52798879  0.75000000  0.50000000  1
  Na  Na13  1  0.47201121  0.25000000  0.00000000  1
  Na  Na14  1  0.47201121  0.25000000  0.50000000  1
  Na  Na15  1  0.52798879  0.75000000  0.00000000  1
  Na  Na16  1  0.22195701  0.75000000  0.50000000  1
  Na  Na17  1  0.77804299  0.25000000  0.00000000  1
  Na  Na18  1  0.77804299  0.25000000  0.50000000  1
  Na  Na19  1  0.22195701  0.75000000  0.00000000  1
  Na  Na20  1  0.99163404  0.75000000  0.50000000  1
  Na  Na21  1  0.00836596  0.25000000  0.00000000  1
  Na  Na22  1  0.00836596  0.25000000  0.50000000  1
  Na  Na23  1  0.99163404  0.75000000  0.00000000  1
  Na  Na24  1  0.25582205  0.25000000  0.50000000  1
  Na  Na25  1  0.74417795  0.75000000  0.00000000  1
  Na  Na26  1  0.74417795  0.75000000  0.50000000  1
  Na  Na27  1  0.25582205  0.25000000  0.00000000  1
  Na  Na28  1  0.62530445  0.36711632  0.75000000  1
  Na  Na29  1  0.37469555  0.63288368  0.25000000  1
  Na  Na30  1  0.62530445  0.13288368  0.25000000  1
  Na  Na31  1  0.37469555  0.86711632  0.75000000  1
  Al  Al32  1  0.50000000  0.50000000  0.50000000  1
  Al  Al33  1  0.50000000  0.50000000  0.00000000  1
  Al  Al34  1  0.50000000  0.00000000  0.50000000  1
  Al  Al35  1  0.50000000  0.00000000  0.00000000  1
  Al  Al36  1  0.00000000  0.00000000  0.50000000  1
  Al  Al37  1  0.00000000  0.00000000  0.00000000  1
  Al  Al38  1  0.00000000  0.50000000  0.50000000  1
  Al  Al39  1  0.00000000  0.50000000  0.00000000  1
  P  P40  1  0.37964963  0.63572886  0.75000000  1
  P  P41  1  0.62035037  0.36427114  0.25000000  1
  P  P42  1  0.37964963  0.86427114  0.25000000  1
  P  P43  1  0.62035037  0.13572886  0.75000000  1
  P  P44  1  0.12867343  0.87948387  0.75000000  1
  P  P45  1  0.87132657  0.12051613  0.25000000  1
  P  P46  1  0.12867343  0.62051613  0.25000000  1
  P  P47  1  0.87132657  0.37948387  0.75000000  1
  P  P48  1  0.63305676  0.87983444  0.25000000  1
  P  P49  1  0.36694324  0.12016556  0.75000000  1
  P  P50  1  0.63305676  0.62016556  0.75000000  1
  P  P51  1  0.36694324  0.37983444  0.25000000  1
  P  P52  1  0.87507597  0.62992340  0.25000000  1
  P  P53  1  0.12492403  0.37007660  0.75000000  1
  P  P54  1  0.87507597  0.87007660  0.75000000  1
  P  P55  1  0.12492403  0.12992340  0.25000000  1
  H  H56  1  0.93378579  0.08003241  0.75000000  1
  H  H57  1  0.06621421  0.91996759  0.25000000  1
  H  H58  1  0.93378579  0.41996759  0.25000000  1
  H  H59  1  0.06621421  0.58003241  0.75000000  1
  H  H60  1  0.44599887  0.41246412  0.75000000  1
  H  H61  1  0.55400113  0.58753588  0.25000000  1
  H  H62  1  0.44599887  0.08753588  0.25000000  1
  H  H63  1  0.55400113  0.91246412  0.75000000  1
  O  O64  1  0.42681238  0.72667061  0.75000000  1
  O  O65  1  0.57318762  0.27332939  0.25000000  1
  O  O66  1  0.42681238  0.77332939  0.25000000  1
  O  O67  1  0.57318762  0.22667061  0.75000000  1
  O  O68  1  0.27984668  0.64704008  0.75000000  1
  O  O69  1  0.72015332  0.35295992  0.25000000  1
  O  O70  1  0.27984668  0.85295992  0.25000000  1
  O  O71  1  0.72015332  0.14704008  0.75000000  1
  O  O72  1  0.40389286  0.58008052  0.56641687  1
  O  O73  1  0.59610714  0.41991948  0.06641687  1
  O  O74  1  0.40389286  0.91991948  0.43358313  1
  O  O75  1  0.59610714  0.08008052  0.93358313  1
  O  O76  1  0.59610714  0.41991948  0.43358313  1
  O  O77  1  0.40389286  0.58008052  0.93358313  1
  O  O78  1  0.59610714  0.08008052  0.56641687  1
  O  O79  1  0.40389286  0.91991948  0.06641687  1
  O  O80  1  0.08931424  0.78442899  0.75000000  1
  O  O81  1  0.91068576  0.21557101  0.25000000  1
  O  O82  1  0.08931424  0.71557101  0.25000000  1
  O  O83  1  0.91068576  0.28442899  0.75000000  1
  O  O84  1  0.10280873  0.93534424  0.56893617  1
  O  O85  1  0.89719127  0.06465576  0.06893617  1
  O  O86  1  0.10280873  0.56465576  0.43106383  1
  O  O87  1  0.89719127  0.43534424  0.93106383  1
  O  O88  1  0.89719127  0.06465576  0.43106383  1
  O  O89  1  0.10280873  0.93534424  0.93106383  1
  O  O90  1  0.89719127  0.43534424  0.56893617  1
  O  O91  1  0.10280873  0.56465576  0.06893617  1
  O  O92  1  0.22864648  0.87045267  0.75000000  1
  O  O93  1  0.77135352  0.12954733  0.25000000  1
  O  O94  1  0.22864648  0.62954733  0.25000000  1
  O  O95  1  0.77135352  0.37045267  0.75000000  1
  O  O96  1  0.63915911  0.77592562  0.25000000  1
  O  O97  1  0.36084089  0.22407438  0.75000000  1
  O  O98  1  0.63915911  0.72407438  0.75000000  1
  O  O99  1  0.36084089  0.27592562  0.25000000  1
  O  O100  1  0.72502523  0.92092241  0.25000000  1
  O  O101  1  0.27497477  0.07907759  0.75000000  1
  O  O102  1  0.72502523  0.57907759  0.75000000  1
  O  O103  1  0.27497477  0.42092241  0.25000000  1
  O  O104  1  0.58278997  0.91060318  0.43214400  1
  O  O105  1  0.41721003  0.08939682  0.93214400  1
  O  O106  1  0.58278997  0.58939682  0.56785600  1
  O  O107  1  0.41721003  0.41060318  0.06785600  1
  O  O108  1  0.41721003  0.08939682  0.56785600  1
  O  O109  1  0.58278997  0.91060318  0.06785600  1
  O  O110  1  0.41721003  0.41060318  0.43214400  1
  O  O111  1  0.58278997  0.58939682  0.93214400  1
  O  O112  1  0.86725747  0.73414790  0.25000000  1
  O  O113  1  0.13274253  0.26585210  0.75000000  1
  O  O114  1  0.86725747  0.76585210  0.75000000  1
  O  O115  1  0.13274253  0.23414790  0.25000000  1
  O  O116  1  0.92760031  0.60222388  0.43325512  1
  O  O117  1  0.07239969  0.39777612  0.93325512  1
  O  O118  1  0.92760031  0.89777612  0.56674488  1
  O  O119  1  0.07239969  0.10222388  0.06674488  1
  O  O120  1  0.07239969  0.39777612  0.56674488  1
  O  O121  1  0.92760031  0.60222388  0.06674488  1
  O  O122  1  0.07239969  0.10222388  0.43325512  1
  O  O123  1  0.92760031  0.89777612  0.93325512  1
  O  O124  1  0.78532612  0.58628576  0.25000000  1
  O  O125  1  0.21467388  0.41371424  0.75000000  1
  O  O126  1  0.78532612  0.91371424  0.75000000  1
  O  O127  1  0.21467388  0.08628576  0.25000000  1
  O  O128  1  0.98952872  0.04936710  0.75000000  1
  O  O129  1  0.01047128  0.95063290  0.25000000  1
  O  O130  1  0.98952872  0.45063290  0.25000000  1
  O  O131  1  0.01047128  0.54936710  0.75000000  1
  O  O132  1  0.49814432  0.44912294  0.75000000  1
  O  O133  1  0.50185568  0.55087706  0.25000000  1
  O  O134  1  0.49814432  0.05087706  0.25000000  1
  O  O135  1  0.50185568  0.94912294  0.75000000  1
