# generated using pymatgen
data_NaNiP2HO7
_symmetry_space_group_name_H-M   'P 1'
_cell_length_a   6.52977850
_cell_length_b   6.52505168
_cell_length_c   19.85320337
_cell_angle_alpha   67.45882335
_cell_angle_beta   84.01519550
_cell_angle_gamma   88.45839532
_symmetry_Int_Tables_number   1
_chemical_formula_structural   NaNiP2HO7
_chemical_formula_sum   'Na6 Ni6 P12 H6 O42'
_cell_volume   776.92916412
_cell_formula_units_Z   6
loop_
 _symmetry_equiv_pos_site_id
 _symmetry_equiv_pos_as_xyz
  1  'x, y, z'
loop_
 _atom_site_type_symbol
 _atom_site_label
 _atom_site_symmetry_multiplicity
 _atom_site_fract_x
 _atom_site_fract_y
 _atom_site_fract_z
 _atom_site_occupancy
  Na  Na0  1  0.11715070  0.22805661  0.25288936  1
  Na  Na1  1  0.11712026  0.22810134  0.58621939  1
  Na  Na2  1  0.16386309  0.30738837  0.91350331  1
  Na  Na3  1  0.83641184  0.69285459  0.08650555  1
  Na  Na4  1  0.83556125  0.69142168  0.42027755  1
  Na  Na5  1  0.83523912  0.69109244  0.75377644  1
  Ni  Ni6  1  0.35898705  0.71085644  0.29698310  1
  Ni  Ni7  1  0.35909774  0.71081968  0.63020729  1
  Ni  Ni8  1  0.64165575  0.28398771  0.03594650  1
  Ni  Ni9  1  0.35801162  0.71565431  0.96426300  1
  Ni  Ni10  1  0.64007001  0.28377491  0.36943166  1
  Ni  Ni11  1  0.64031554  0.28388435  0.70300624  1
  P  P12  1  0.14131806  0.25551551  0.07219753  1
  P  P13  1  0.14199094  0.25580455  0.40531856  1
  P  P14  1  0.14214593  0.25561605  0.73881827  1
  P  P15  1  0.37931875  0.83279464  0.12159605  1
  P  P16  1  0.37921305  0.83270814  0.45485396  1
  P  P17  1  0.37883114  0.83316345  0.78793531  1
  P  P18  1  0.61893828  0.16733250  0.21213740  1
  P  P19  1  0.61896459  0.16731633  0.54550383  1
  P  P20  1  0.62109821  0.16669731  0.87875939  1
  P  P21  1  0.85753925  0.74493458  0.26089587  1
  P  P22  1  0.85755033  0.74495322  0.59422983  1
  P  P23  1  0.85851975  0.74472677  0.92768522  1
  H  H24  1  0.20071905  0.55330209  0.10239064  1
  H  H25  1  0.20051870  0.55317325  0.43569958  1
  H  H26  1  0.19932735  0.55294763  0.76820923  1
  H  H27  1  0.80212895  0.45233324  0.23114397  1
  H  H28  1  0.80207033  0.45221878  0.56452031  1
  H  H29  1  0.80053245  0.44705502  0.89846160  1
  O  O30  1  0.09189028  0.38154346  0.12377443  1
  O  O31  1  0.03897453  0.77527257  0.29832548  1
  O  O32  1  0.20736822  0.01340402  0.12551160  1
  O  O33  1  0.09155970  0.38207359  0.45682435  1
  O  O34  1  0.03898699  0.77526662  0.63165660  1
  O  O35  1  0.29342686  0.71890628  0.07341949  1
  O  O36  1  0.33004516  0.36244242  0.01638680  1
  O  O37  1  0.20759857  0.01356306  0.45877212  1
  O  O38  1  0.09216435  0.38331010  0.78997965  1
  O  O39  1  0.03938728  0.77014700  0.96586289  1
  O  O40  1  0.29312229  0.71920327  0.40661824  1
  O  O41  1  0.33071344  0.36187606  0.34986884  1
  O  O42  1  0.20779376  0.01359283  0.79209326  1
  O  O43  1  0.38518916  0.66936174  0.19941823  1
  O  O44  1  0.42030815  0.04326134  0.25048193  1
  O  O45  1  0.29354723  0.72021975  0.73951074  1
  O  O46  1  0.33081486  0.36169503  0.68331113  1
  O  O47  1  0.38520330  0.66938634  0.53270175  1
  O  O48  1  0.42032021  0.04325927  0.58380815  1
  O  O49  1  0.57916534  0.95412841  0.08267671  1
  O  O50  1  0.61663534  0.33174526  0.13397333  1
  O  O51  1  0.38290229  0.66830518  0.86601782  1
  O  O52  1  0.42046442  0.04629636  0.91685520  1
  O  O53  1  0.57923391  0.95398630  0.41605181  1
  O  O54  1  0.61659028  0.33189971  0.46736862  1
  O  O55  1  0.67050257  0.63686896  0.31712307  1
  O  O56  1  0.70764127  0.27788200  0.26049084  1
  O  O57  1  0.57948475  0.95367509  0.74976066  1
  O  O58  1  0.61715899  0.33209019  0.80068507  1
  O  O59  1  0.79230737  0.98712413  0.20788460  1
  O  O60  1  0.67050689  0.63690288  0.65045021  1
  O  O61  1  0.70770815  0.27782494  0.59387087  1
  O  O62  1  0.96072215  0.23013504  0.03383127  1
  O  O63  1  0.90641450  0.61654388  0.20989385  1
  O  O64  1  0.79230085  0.98713700  0.54122108  1
  O  O65  1  0.66989037  0.63788221  0.98349566  1
  O  O66  1  0.70616287  0.28028522  0.92698050  1
  O  O67  1  0.96022225  0.22872624  0.36766205  1
  O  O68  1  0.90643057  0.61653392  0.54323646  1
  O  O69  1  0.79242804  0.98675593  0.87445531  1
  O  O70  1  0.96020214  0.22875818  0.70122157  1
  O  O71  1  0.90750125  0.61744271  0.87636785  1
