# generated using pymatgen
data_TeH18(Br3O4)2
_symmetry_space_group_name_H-M   'P 1'
_cell_length_a   7.72754672
_cell_length_b   9.88300674
_cell_length_c   12.10976419
_cell_angle_alpha   90.00000000
_cell_angle_beta   92.70858755
_cell_angle_gamma   90.00000000
_symmetry_Int_Tables_number   1
_chemical_formula_structural   TeH18(Br3O4)2
_chemical_formula_sum   'Te2 H36 Br12 O16'
_cell_volume   923.80637288
_cell_formula_units_Z   2
loop_
 _symmetry_equiv_pos_site_id
 _symmetry_equiv_pos_as_xyz
  1  'x, y, z'
loop_
 _atom_site_type_symbol
 _atom_site_label
 _atom_site_symmetry_multiplicity
 _atom_site_fract_x
 _atom_site_fract_y
 _atom_site_fract_z
 _atom_site_occupancy
  Te  Te0  1  0.50000000  0.00000000  0.50000000  1
  Te  Te1  1  0.00000000  0.50000000  0.00000000  1
  H  H2  1  0.80716204  0.52880103  0.49617052  1
  H  H3  1  0.30716204  0.97119897  0.99617052  1
  H  H4  1  0.19283796  0.47119897  0.50382948  1
  H  H5  1  0.69283796  0.02880103  0.00382948  1
  H  H6  1  0.88746647  0.63089801  0.39479283  1
  H  H7  1  0.38746647  0.86910199  0.89479283  1
  H  H8  1  0.11253353  0.36910199  0.60520717  1
  H  H9  1  0.61253353  0.13089801  0.10520717  1
  H  H10  1  0.72167503  0.51123211  0.36484431  1
  H  H11  1  0.22167503  0.98876789  0.86484431  1
  H  H12  1  0.27832497  0.48876789  0.63515569  1
  H  H13  1  0.77832497  0.01123211  0.13515569  1
  H  H14  1  0.56102153  0.53474709  0.23155881  1
  H  H15  1  0.06102153  0.96525291  0.73155881  1
  H  H16  1  0.43897847  0.46525291  0.76844119  1
  H  H17  1  0.93897847  0.03474709  0.26844119  1
  H  H18  1  0.45080965  0.48131178  0.32847436  1
  H  H19  1  0.95080965  0.01868822  0.82847436  1
  H  H20  1  0.54919035  0.51868822  0.67152564  1
  H  H21  1  0.04919035  0.98131178  0.17152564  1
  H  H22  1  0.97731379  0.80589230  0.30823437  1
  H  H23  1  0.47731379  0.69410770  0.80823437  1
  H  H24  1  0.02268621  0.19410770  0.69176563  1
  H  H25  1  0.52268621  0.30589230  0.19176563  1
  H  H26  1  0.04095386  0.80143504  0.43460299  1
  H  H27  1  0.54095386  0.69856496  0.93460299  1
  H  H28  1  0.95904614  0.19856496  0.56539701  1
  H  H29  1  0.45904614  0.30143504  0.06539701  1
  H  H30  1  0.81620671  0.40810878  0.63722619  1
  H  H31  1  0.31620671  0.09189122  0.13722619  1
  H  H32  1  0.18379329  0.59189122  0.36277381  1
  H  H33  1  0.68379329  0.90810878  0.86277381  1
  H  H34  1  0.84306016  0.56004317  0.66790238  1
  H  H35  1  0.34306016  0.93995683  0.16790238  1
  H  H36  1  0.15693984  0.43995683  0.33209762  1
  H  H37  1  0.65693984  0.06004317  0.83209762  1
  Br  Br38  1  0.49481432  0.16766723  0.68011714  1
  Br  Br39  1  0.99481432  0.33233277  0.18011714  1
  Br  Br40  1  0.50518568  0.83233277  0.31988286  1
  Br  Br41  1  0.00518568  0.66766723  0.81988286  1
  Br  Br42  1  0.26398983  0.83461539  0.59693341  1
  Br  Br43  1  0.76398983  0.66538461  0.09693341  1
  Br  Br44  1  0.73601017  0.16538461  0.40306659  1
  Br  Br45  1  0.23601017  0.33461539  0.90306659  1
  Br  Br46  1  0.76868839  0.86006486  0.59954209  1
  Br  Br47  1  0.26868839  0.63993514  0.09954209  1
  Br  Br48  1  0.23131161  0.13993514  0.40045791  1
  Br  Br49  1  0.73131161  0.36006486  0.90045791  1
  O  O50  1  0.83046490  0.53829938  0.41324189  1
  O  O51  1  0.33046490  0.96170062  0.91324189  1
  O  O52  1  0.16953510  0.46170062  0.58675811  1
  O  O53  1  0.66953510  0.03829938  0.08675811  1
  O  O54  1  0.56214806  0.46813013  0.29215246  1
  O  O55  1  0.06214806  0.03186987  0.79215246  1
  O  O56  1  0.43785194  0.53186987  0.70784754  1
  O  O57  1  0.93785194  0.96813013  0.20784754  1
  O  O58  1  0.01032164  0.74411532  0.36963012  1
  O  O59  1  0.51032164  0.75588468  0.86963012  1
  O  O60  1  0.98967836  0.25588468  0.63036988  1
  O  O61  1  0.48967836  0.24411532  0.13036988  1
  O  O62  1  0.77205233  0.49971977  0.61843495  1
  O  O63  1  0.27205233  0.00028023  0.11843495  1
  O  O64  1  0.22794767  0.50028023  0.38156505  1
  O  O65  1  0.72794767  0.99971977  0.88156505  1
