# generated using pymatgen
data_Ho6ReO12
_symmetry_space_group_name_H-M   'P 1'
_cell_length_a   6.46168320
_cell_length_b   6.46168352
_cell_length_c   6.46168347
_cell_angle_alpha   98.70371790
_cell_angle_beta   98.70372618
_cell_angle_gamma   98.70372032
_symmetry_Int_Tables_number   1
_chemical_formula_structural   Ho6ReO12
_chemical_formula_sum   'Ho6 Re1 O12'
_cell_volume   259.39425710
_cell_formula_units_Z   1
loop_
 _symmetry_equiv_pos_site_id
 _symmetry_equiv_pos_as_xyz
  1  'x, y, z'
loop_
 _atom_site_type_symbol
 _atom_site_label
 _atom_site_symmetry_multiplicity
 _atom_site_fract_x
 _atom_site_fract_y
 _atom_site_fract_z
 _atom_site_occupancy
  Ho  Ho0  1  0.38889071  0.85603472  0.68476985  1
  Ho  Ho1  1  0.31523015  0.61110929  0.14396528  1
  Ho  Ho2  1  0.14396528  0.31523015  0.61110929  1
  Ho  Ho3  1  0.85603472  0.68476985  0.38889071  1
  Ho  Ho4  1  0.68476985  0.38889071  0.85603472  1
  Ho  Ho5  1  0.61110929  0.14396528  0.31523015  1
  Re  Re6  1  0.00000000  0.00000000  0.00000000  1
  O  O7  1  0.03397750  0.92696728  0.70265744  1
  O  O8  1  0.29734256  0.96602250  0.07303272  1
  O  O9  1  0.17698498  0.59115770  0.43256042  1
  O  O10  1  0.56743958  0.82301502  0.40884230  1
  O  O11  1  0.07303272  0.29734256  0.96602250  1
  O  O12  1  0.40884230  0.56743958  0.82301502  1
  O  O13  1  0.59115770  0.43256042  0.17698498  1
  O  O14  1  0.92696728  0.70265744  0.03397750  1
  O  O15  1  0.43256042  0.17698498  0.59115770  1
  O  O16  1  0.82301502  0.40884230  0.56743958  1
  O  O17  1  0.70265744  0.03397750  0.92696728  1
  O  O18  1  0.96602250  0.07303272  0.29734256  1
