# generated using pymatgen
data_Sm2IO2
_symmetry_space_group_name_H-M   'P 1'
_cell_length_a   4.15733967
_cell_length_b   6.76029062
_cell_length_c   8.70292933
_cell_angle_alpha   73.50313729
_cell_angle_beta   76.18149492
_cell_angle_gamma   72.09243065
_symmetry_Int_Tables_number   1
_chemical_formula_structural   Sm2IO2
_chemical_formula_sum   'Sm4 I2 O4'
_cell_volume   220.06432951
_cell_formula_units_Z   2
loop_
 _symmetry_equiv_pos_site_id
 _symmetry_equiv_pos_as_xyz
  1  'x, y, z'
loop_
 _atom_site_type_symbol
 _atom_site_label
 _atom_site_symmetry_multiplicity
 _atom_site_fract_x
 _atom_site_fract_y
 _atom_site_fract_z
 _atom_site_occupancy
  Sm  Sm0  1  0.02755100  0.72791028  0.21698772  1
  O  O1  1  0.46728143  0.37890319  0.68653396  1
  I  I2  1  0.68506717  0.75820051  0.87166514  1
  O  O3  1  0.15699848  0.11012468  0.57587836  1
  Sm  Sm4  1  0.65156798  0.24728604  0.44957800  1
  O  O5  1  0.53271864  0.62109668  0.31346605  1
  O  O6  1  0.84300142  0.88987585  0.42412130  1
  Sm  Sm7  1  0.97244862  0.27209060  0.78301217  1
  Sm  Sm8  1  0.34843216  0.75271360  0.55042208  1
  I  I9  1  0.31493310  0.24179859  0.12833522  1
