# generated using pymatgen
data_LaAgO2
_symmetry_space_group_name_H-M   'P 1'
_cell_length_a   3.83817475
_cell_length_b   3.83823647
_cell_length_c   12.47683701
_cell_angle_alpha   90.00226658
_cell_angle_beta   89.99856308
_cell_angle_gamma   120.00039558
_symmetry_Int_Tables_number   1
_chemical_formula_structural   LaAgO2
_chemical_formula_sum   'La2 Ag2 O4'
_cell_volume   159.18050322
_cell_formula_units_Z   2
loop_
 _symmetry_equiv_pos_site_id
 _symmetry_equiv_pos_as_xyz
  1  'x, y, z'
loop_
 _atom_site_type_symbol
 _atom_site_label
 _atom_site_symmetry_multiplicity
 _atom_site_fract_x
 _atom_site_fract_y
 _atom_site_fract_z
 _atom_site_occupancy
  La  La0  1  0.00002026  0.00016759  0.99998303  1
  La  La1  1  0.99999689  0.99995100  0.50002219  1
  Ag  Ag2  1  0.33331827  0.66665632  0.25000007  1
  Ag  Ag3  1  0.66667307  0.33333855  0.74999871  1
  O  O4  1  0.33331882  0.66674119  0.08383052  1
  O  O5  1  0.33331634  0.66660732  0.41616997  1
  O  O6  1  0.66668037  0.33333442  0.58384759  1
  O  O7  1  0.66667698  0.33340460  0.91614894  1
