# generated using pymatgen
data_Hg3SeO6
_symmetry_space_group_name_H-M   'P 1'
_cell_length_a   7.28552485
_cell_length_b   7.28552461
_cell_length_c   10.63776934
_cell_angle_alpha   90.00000000
_cell_angle_beta   90.00000000
_cell_angle_gamma   120.00000773
_symmetry_Int_Tables_number   1
_chemical_formula_structural   Hg3SeO6
_chemical_formula_sum   'Hg9 Se3 O18'
_cell_volume   488.99322362
_cell_formula_units_Z   3
loop_
 _symmetry_equiv_pos_site_id
 _symmetry_equiv_pos_as_xyz
  1  'x, y, z'
loop_
 _atom_site_type_symbol
 _atom_site_label
 _atom_site_symmetry_multiplicity
 _atom_site_fract_x
 _atom_site_fract_y
 _atom_site_fract_z
 _atom_site_occupancy
  Hg  Hg0  1  0.99877617  0.69742454  0.66168488  1
  Hg  Hg1  1  0.31595576  0.81075584  0.97334012  1
  Hg  Hg2  1  0.18924416  0.50519992  0.30667412  1
  Hg  Hg3  1  0.30257546  0.30135163  0.99501788  1
  Hg  Hg4  1  0.49480008  0.68404424  0.64000712  1
  Hg  Hg5  1  0.49991454  0.18793048  0.67840170  1
  Hg  Hg6  1  0.68801694  0.50008546  0.34506870  1
  Hg  Hg7  1  0.81206952  0.31198306  0.01173570  1
  Hg  Hg8  1  0.69864837  0.00122383  0.32835188  1
  Se  Se9  1  0.23433772  0.01647404  0.32756563  1
  Se  Se10  1  0.78213631  0.76566228  0.99423263  1
  Se  Se11  1  0.98352596  0.21786369  0.66089863  1
  O  O12  1  0.00094389  0.87534685  0.39961237  1
  O  O13  1  0.28295182  0.86433622  0.22849226  1
  O  O14  1  0.32626014  0.84589480  0.70703582  1
  O  O15  1  0.15410520  0.48036634  0.04036982  1
  O  O16  1  0.13566378  0.41861561  0.56182526  1
  O  O17  1  0.12465315  0.12559704  0.73294637  1
  O  O18  1  0.24973897  0.21658452  0.24067532  1
  O  O19  1  0.51963366  0.67373986  0.37370282  1
  O  O20  1  0.58138439  0.71704818  0.89515926  1
  O  O21  1  0.42851800  0.12136964  0.43647312  1
  O  O22  1  0.87440296  0.99905611  0.06627937  1
  O  O23  1  0.48173131  0.15326685  0.94733378  1
  O  O24  1  0.67153555  0.51826869  0.61399978  1
  O  O25  1  0.69285065  0.57148100  0.10313912  1
  O  O26  1  0.96684555  0.75026103  0.90734232  1
  O  O27  1  0.84673315  0.32846445  0.28066678  1
  O  O28  1  0.87863036  0.30714935  0.76980612  1
  O  O29  1  0.78341548  0.03315445  0.57400932  1
