# generated using pymatgen
data_Ce2SeO2
_symmetry_space_group_name_H-M   'P 1'
_cell_length_a   3.98882385
_cell_length_b   3.98907634
_cell_length_c   7.04256883
_cell_angle_alpha   89.99996297
_cell_angle_beta   90.00000076
_cell_angle_gamma   119.99792595
_symmetry_Int_Tables_number   1
_chemical_formula_structural   Ce2SeO2
_chemical_formula_sum   'Ce2 Se1 O2'
_cell_volume   97.04831829
_cell_formula_units_Z   1
loop_
 _symmetry_equiv_pos_site_id
 _symmetry_equiv_pos_as_xyz
  1  'x, y, z'
loop_
 _atom_site_type_symbol
 _atom_site_label
 _atom_site_symmetry_multiplicity
 _atom_site_fract_x
 _atom_site_fract_y
 _atom_site_fract_z
 _atom_site_occupancy
  Ce  Ce0  1  0.33328712  0.66663109  0.71029651  1
  Ce  Ce1  1  0.66664603  0.33337357  0.28974104  1
  Se  Se2  1  0.99998980  0.99999894  0.99996025  1
  O  O3  1  0.33328957  0.66669726  0.37431384  1
  O  O4  1  0.66658647  0.33329914  0.62568836  1
