# generated using pymatgen
data_Pr(ReO4)2
_symmetry_space_group_name_H-M   'P 1'
_cell_length_a   6.27302468
_cell_length_b   6.27212072
_cell_length_c   6.44950572
_cell_angle_alpha   90.00976420
_cell_angle_beta   90.00113487
_cell_angle_gamma   119.99497008
_symmetry_Int_Tables_number   1
_chemical_formula_structural   Pr(ReO4)2
_chemical_formula_sum   'Pr1 Re2 O8'
_cell_volume   219.77104276
_cell_formula_units_Z   1
loop_
 _symmetry_equiv_pos_site_id
 _symmetry_equiv_pos_as_xyz
  1  'x, y, z'
loop_
 _atom_site_type_symbol
 _atom_site_label
 _atom_site_symmetry_multiplicity
 _atom_site_fract_x
 _atom_site_fract_y
 _atom_site_fract_z
 _atom_site_occupancy
  Pr  Pr0  1  0.99999117  0.99999742  0.99994653  1
  Re  Re1  1  0.33338644  0.66671088  0.30376867  1
  Re  Re2  1  0.66659002  0.33330201  0.69623169  1
  O  O3  1  0.21924691  0.85779139  0.20885425  1
  O  O4  1  0.14223983  0.36149834  0.20888582  1
  O  O5  1  0.33329801  0.66668449  0.57281258  1
  O  O6  1  0.36140936  0.21924596  0.79119794  1
  O  O7  1  0.63852595  0.78073422  0.20883639  1
  O  O8  1  0.66660719  0.33330629  0.42717757  1
  O  O9  1  0.85776394  0.63854388  0.79112635  1
  O  O10  1  0.78074217  0.14218611  0.79116122  1
