# generated using pymatgen
data_Eu2SeO2
_symmetry_space_group_name_H-M   'P 1'
_cell_length_a   3.94612776
_cell_length_b   3.94691910
_cell_length_c   7.14404653
_cell_angle_alpha   90.01369658
_cell_angle_beta   90.00000000
_cell_angle_gamma   119.99336790
_symmetry_Int_Tables_number   1
_chemical_formula_structural   Eu2SeO2
_chemical_formula_sum   'Eu2 Se1 O2'
_cell_volume   96.36809534
_cell_formula_units_Z   1
loop_
 _symmetry_equiv_pos_site_id
 _symmetry_equiv_pos_as_xyz
  1  'x, y, z'
loop_
 _atom_site_type_symbol
 _atom_site_label
 _atom_site_symmetry_multiplicity
 _atom_site_fract_x
 _atom_site_fract_y
 _atom_site_fract_z
 _atom_site_occupancy
  Eu  Eu0  1  0.33332187  0.66669615  0.29574456  1
  Eu  Eu1  1  0.66662572  0.33330385  0.70425544  1
  Se  Se2  1  0.99990195  0.00000000  0.00000000  1
  O  O3  1  0.33331227  0.66667408  0.62859060  1
  O  O4  1  0.66663819  0.33332592  0.37140940  1
