# generated using pymatgen
data_NaAg(NO2)2
_symmetry_space_group_name_H-M   'P 1'
_cell_length_a   6.76678912
_cell_length_b   6.76678927
_cell_length_c   6.95018485
_cell_angle_alpha   111.15483283
_cell_angle_beta   111.15483322
_cell_angle_gamma   104.99051954
_symmetry_Int_Tables_number   1
_chemical_formula_structural   NaAg(NO2)2
_chemical_formula_sum   'Na2 Ag2 N4 O8'
_cell_volume   247.58498421
_cell_formula_units_Z   2
loop_
 _symmetry_equiv_pos_site_id
 _symmetry_equiv_pos_as_xyz
  1  'x, y, z'
loop_
 _atom_site_type_symbol
 _atom_site_label
 _atom_site_symmetry_multiplicity
 _atom_site_fract_x
 _atom_site_fract_y
 _atom_site_fract_z
 _atom_site_occupancy
  Na  Na0  1  0.25000000  0.75000000  0.50000000  1
  Na  Na1  1  0.50000000  0.50000000  0.00000000  1
  Ag  Ag2  1  0.75000000  0.25000000  0.50000000  1
  Ag  Ag3  1  0.00000000  0.00000000  0.00000000  1
  N  N4  1  0.01952950  0.98047050  0.50000000  1
  N  N5  1  0.48047050  0.51952950  0.50000000  1
  N  N6  1  0.79802653  0.20197347  1.00000000  1
  N  N7  1  0.20197347  0.79802653  0.00000000  1
  O  O8  1  0.59881576  0.12537227  0.82200606  1
  O  O9  1  0.82741679  0.91595623  0.31714987  1
  O  O10  1  0.30336621  0.77680970  0.17799394  1
  O  O11  1  0.48973308  0.40119364  0.31714987  1
  O  O12  1  0.59880636  0.51026692  0.68285013  1
  O  O13  1  0.87462773  0.40118424  0.17799394  1
  O  O14  1  0.22319030  0.69663379  0.82200606  1
  O  O15  1  0.08404377  0.17258321  0.68285013  1
