# generated using pymatgen
data_NClO3
_symmetry_space_group_name_H-M   'P 1'
_cell_length_a   4.10723915
_cell_length_b   6.99650445
_cell_length_c   11.95156208
_cell_angle_alpha   90.00000000
_cell_angle_beta   90.00000000
_cell_angle_gamma   90.00000000
_symmetry_Int_Tables_number   1
_chemical_formula_structural   NClO3
_chemical_formula_sum   'N4 Cl4 O12'
_cell_volume   343.44387646
_cell_formula_units_Z   4
loop_
 _symmetry_equiv_pos_site_id
 _symmetry_equiv_pos_as_xyz
  1  'x, y, z'
loop_
 _atom_site_type_symbol
 _atom_site_label
 _atom_site_symmetry_multiplicity
 _atom_site_fract_x
 _atom_site_fract_y
 _atom_site_fract_z
 _atom_site_occupancy
  N  N0  1  0.16477333  0.98872531  0.53564395  1
  N  N1  1  0.33522667  0.01127469  0.03564395  1
  N  N2  1  0.66477333  0.51127469  0.46435605  1
  N  N3  1  0.83522667  0.48872531  0.96435605  1
  Cl  Cl4  1  0.21692536  0.95636717  0.75816748  1
  Cl  Cl5  1  0.28307464  0.04363283  0.25816748  1
  Cl  Cl6  1  0.71692536  0.54363283  0.24183252  1
  Cl  Cl7  1  0.78307464  0.45636717  0.74183252  1
  O  O8  1  0.02211068  0.92872674  0.45361631  1
  O  O9  1  0.03206456  0.88585880  0.63978280  1
  O  O10  1  0.12468278  0.89433804  0.04863435  1
  O  O11  1  0.37531722  0.10566196  0.54863435  1
  O  O12  1  0.46793544  0.11414120  0.13978280  1
  O  O13  1  0.47788932  0.07127326  0.95361631  1
  O  O14  1  0.52211068  0.57127326  0.54638369  1
  O  O15  1  0.53206456  0.61414120  0.36021720  1
  O  O16  1  0.62468278  0.60566196  0.95136565  1
  O  O17  1  0.87531722  0.39433804  0.45136565  1
  O  O18  1  0.96793544  0.38585880  0.86021720  1
  O  O19  1  0.97788932  0.42872674  0.04638369  1
