# generated using pymatgen
data_Sm2Ge5Ru3
_symmetry_space_group_name_H-M   'P 1'
_cell_length_a   5.84960183
_cell_length_b   8.53908833
_cell_length_c   8.53963818
_cell_angle_alpha   108.55379096
_cell_angle_beta   110.03885266
_cell_angle_gamma   69.97156077
_symmetry_Int_Tables_number   1
_chemical_formula_structural   Sm2Ge5Ru3
_chemical_formula_sum   'Sm4 Ge10 Ru6'
_cell_volume   366.62209550
_cell_formula_units_Z   2
loop_
 _symmetry_equiv_pos_site_id
 _symmetry_equiv_pos_as_xyz
  1  'x, y, z'
loop_
 _atom_site_type_symbol
 _atom_site_label
 _atom_site_symmetry_multiplicity
 _atom_site_fract_x
 _atom_site_fract_y
 _atom_site_fract_z
 _atom_site_occupancy
  Sm  Sm0  1  0.86102025  0.87030782  0.59235180  1
  Sm  Sm1  1  0.63897068  0.59234858  0.87028513  1
  Sm  Sm2  1  0.36105525  0.40760758  0.12967878  1
  Sm  Sm3  1  0.13895984  0.12978126  0.40767411  1
  Ge  Ge4  1  0.41180386  0.91353359  0.73719334  1
  Ge  Ge5  1  0.45788840  0.79232006  0.20780712  1
  Ge  Ge6  1  0.08823667  0.73725465  0.91356733  1
  Ge  Ge7  1  0.95782732  0.79228070  0.20774635  1
  Ge  Ge8  1  0.24995876  0.50003798  0.50005509  1
  Ge  Ge9  1  0.75003119  0.49999748  0.49996885  1
  Ge  Ge10  1  0.04219691  0.20772707  0.79223688  1
  Ge  Ge11  1  0.91184770  0.26271022  0.08642252  1
  Ge  Ge12  1  0.54205775  0.20769159  0.79222706  1
  Ge  Ge13  1  0.58819351  0.08641333  0.26283782  1
  Ru  Ru14  1  0.35297577  0.73822130  0.44441514  1
  Ru  Ru15  1  0.14688578  0.44453706  0.73831892  1
  Ru  Ru16  1  0.85320652  0.55547452  0.26166524  1
  Ru  Ru17  1  0.64688472  0.26176784  0.55559685  1
  Ru  Ru18  1  0.25000950  0.99996291  0.99993162  1
  Ru  Ru19  1  0.74999063  0.00002443  0.00002005  1
