# generated using pymatgen
data_Er6Te2Ru
_symmetry_space_group_name_H-M   'P 1'
_cell_length_a   8.27183724
_cell_length_b   8.27164324
_cell_length_c   3.99815564
_cell_angle_alpha   90.00000000
_cell_angle_beta   90.00000000
_cell_angle_gamma   60.00077126
_symmetry_Int_Tables_number   1
_chemical_formula_structural   Er6Te2Ru
_chemical_formula_sum   'Er6 Te2 Ru1'
_cell_volume   236.91222885
_cell_formula_units_Z   1
loop_
 _symmetry_equiv_pos_site_id
 _symmetry_equiv_pos_as_xyz
  1  'x, y, z'
loop_
 _atom_site_type_symbol
 _atom_site_label
 _atom_site_symmetry_multiplicity
 _atom_site_fract_x
 _atom_site_fract_y
 _atom_site_fract_z
 _atom_site_occupancy
  Er  Er0  1  0.00000000  0.60817118  0.50000000  1
  Er  Er1  1  0.23917831  0.76079828  0.00000000  1
  Er  Er2  1  0.00000000  0.23916782  0.00000000  1
  Er  Er3  1  0.60813528  0.39186028  0.50000000  1
  Er  Er4  1  0.39186472  -0.00000444  0.50000000  1
  Er  Er5  1  0.76082169  0.99997659  0.00000000  1
  Te  Te6  1  0.33331894  0.33331730  0.00000000  1
  Te  Te7  1  0.66668106  0.66663524  0.00000000  1
  Ru  Ru8  1  0.00000000  0.99997775  0.50000000  1
