# generated using pymatgen
data_NdTeBrO3
_symmetry_space_group_name_H-M   'P 1'
_cell_length_a   3.92603000
_cell_length_b   3.92603000
_cell_length_c   27.93683482
_cell_angle_alpha   90.00000000
_cell_angle_beta   90.00000000
_cell_angle_gamma   90.00000000
_symmetry_Int_Tables_number   1
_chemical_formula_structural   NdTeBrO3
_chemical_formula_sum   'Nd4 Te4 Br4 O12'
_cell_volume   430.61031384
_cell_formula_units_Z   4
loop_
 _symmetry_equiv_pos_site_id
 _symmetry_equiv_pos_as_xyz
  1  'x, y, z'
loop_
 _atom_site_type_symbol
 _atom_site_label
 _atom_site_symmetry_multiplicity
 _atom_site_fract_x
 _atom_site_fract_y
 _atom_site_fract_z
 _atom_site_occupancy
  Nd  Nd0  1  0.75000000  0.75000000  0.71112463  1
  Nd  Nd1  1  0.25000000  0.25000000  0.28887537  1
  Nd  Nd2  1  0.25000000  0.25000000  0.95566248  1
  Nd  Nd3  1  0.75000000  0.75000000  0.04433752  1
  Te  Te4  1  0.25000000  0.25000000  0.79282753  1
  Te  Te5  1  0.75000000  0.75000000  0.38059545  1
  Te  Te6  1  0.75000000  0.75000000  0.20717247  1
  Te  Te7  1  0.25000000  0.25000000  0.61940455  1
  Br  Br8  1  0.25000000  0.25000000  0.44410428  1
  Br  Br9  1  0.75000000  0.75000000  0.55589572  1
  Br  Br10  1  0.25000000  0.25000000  0.10386681  1
  Br  Br11  1  0.75000000  0.75000000  0.89613319  1
  O  O12  1  0.25000000  0.25000000  0.72143694  1
  O  O13  1  0.75000000  0.75000000  0.27856306  1
  O  O14  1  0.75000000  0.25000000  0.77524738  1
  O  O15  1  0.25000000  0.75000000  0.34711046  1
  O  O16  1  0.75000000  0.25000000  0.34711046  1
  O  O17  1  0.25000000  0.75000000  0.22475262  1
  O  O18  1  0.75000000  0.25000000  0.65288954  1
  O  O19  1  0.75000000  0.25000000  0.22475262  1
  O  O20  1  0.25000000  0.75000000  0.00000000  1
  O  O21  1  0.25000000  0.75000000  0.77524738  1
  O  O22  1  0.25000000  0.75000000  0.65288954  1
  O  O23  1  0.75000000  0.25000000  0.00000000  1
