# generated using pymatgen
data_Rb3ClO
_symmetry_space_group_name_H-M   'P 1'
_cell_length_a   9.06987468
_cell_length_b   4.35599370
_cell_length_c   15.94175171
_cell_angle_alpha   90.00000000
_cell_angle_beta   90.00000000
_cell_angle_gamma   90.00000000
_symmetry_Int_Tables_number   1
_chemical_formula_structural   Rb3ClO
_chemical_formula_sum   'Rb12 Cl4 O4'
_cell_volume   629.83177955
_cell_formula_units_Z   4
loop_
 _symmetry_equiv_pos_site_id
 _symmetry_equiv_pos_as_xyz
  1  'x, y, z'
loop_
 _atom_site_type_symbol
 _atom_site_label
 _atom_site_symmetry_multiplicity
 _atom_site_fract_x
 _atom_site_fract_y
 _atom_site_fract_z
 _atom_site_occupancy
  Rb  Rb0  1  0.02215477  0.25000000  0.59459826  1
  Rb  Rb1  1  0.17315174  0.25000000  0.99986046  1
  Rb  Rb2  1  0.21004816  0.75000000  0.79127032  1
  Rb  Rb3  1  0.28995184  0.25000000  0.29127032  1
  Rb  Rb4  1  0.32684826  0.75000000  0.49986046  1
  Rb  Rb5  1  0.47784523  0.75000000  0.09459826  1
  Rb  Rb6  1  0.52215477  0.25000000  0.90540174  1
  Rb  Rb7  1  0.67315174  0.25000000  0.50013954  1
  Rb  Rb8  1  0.71004816  0.75000000  0.70872968  1
  Rb  Rb9  1  0.78995184  0.25000000  0.20872968  1
  Rb  Rb10  1  0.82684826  0.75000000  0.00013954  1
  Rb  Rb11  1  0.97784523  0.75000000  0.40540174  1
  Cl  Cl12  1  0.07919912  0.75000000  0.17401177  1
  Cl  Cl13  1  0.42080088  0.25000000  0.67401177  1
  Cl  Cl14  1  0.57919912  0.75000000  0.32598823  1
  Cl  Cl15  1  0.92080088  0.25000000  0.82598823  1
  O  O16  1  0.16879777  0.25000000  0.43895093  1
  O  O17  1  0.33120223  0.75000000  0.93895093  1
  O  O18  1  0.66879777  0.25000000  0.06104907  1
  O  O19  1  0.83120223  0.75000000  0.56104907  1
