# generated using pymatgen
data_CeOF
_symmetry_space_group_name_H-M   'P 1'
_cell_length_a   4.03124349
_cell_length_b   4.03117240
_cell_length_c   5.77369931
_cell_angle_alpha   90.00007166
_cell_angle_beta   89.99947333
_cell_angle_gamma   90.00049589
_symmetry_Int_Tables_number   1
_chemical_formula_structural   CeOF
_chemical_formula_sum   'Ce2 O2 F2'
_cell_volume   93.82629449
_cell_formula_units_Z   2
loop_
 _symmetry_equiv_pos_site_id
 _symmetry_equiv_pos_as_xyz
  1  'x, y, z'
loop_
 _atom_site_type_symbol
 _atom_site_label
 _atom_site_symmetry_multiplicity
 _atom_site_fract_x
 _atom_site_fract_y
 _atom_site_fract_z
 _atom_site_occupancy
  Ce  Ce0  1  0.00001496  0.50000085  0.71324513  1
  Ce  Ce1  1  0.49999131  -0.00000507  0.28672601  1
  O  O2  1  0.00000443  0.00000283  0.50000405  1
  O  O3  1  0.49999060  0.50000644  0.50000366  1
  F  F4  1  0.99999805  0.99999776  0.00001521  1
  F  F5  1  0.50000065  0.49999719  0.00000593  1
