# generated using pymatgen
data_SiO2
_symmetry_space_group_name_H-M   'P 1'
_cell_length_a   5.46219310
_cell_length_b   5.46219206
_cell_length_c   5.51550863
_cell_angle_alpha   96.48943026
_cell_angle_beta   96.48942911
_cell_angle_gamma   99.68038732
_symmetry_Int_Tables_number   1
_chemical_formula_structural   SiO2
_chemical_formula_sum   'Si4 O8'
_cell_volume   159.70476156
_cell_formula_units_Z   4
loop_
 _symmetry_equiv_pos_site_id
 _symmetry_equiv_pos_as_xyz
  1  'x, y, z'
loop_
 _atom_site_type_symbol
 _atom_site_label
 _atom_site_symmetry_multiplicity
 _atom_site_fract_x
 _atom_site_fract_y
 _atom_site_fract_z
 _atom_site_occupancy
  Si  Si0  1  0.29645510  0.29575713  0.71704579  1
  Si  Si1  1  0.13907833  0.39027993  0.21063994  1
  Si  Si2  1  0.70424287  0.70354490  0.28295421  1
  Si  Si3  1  0.60972007  0.86092167  0.78936006  1
  O  O4  1  0.74906797  0.89052191  0.07314718  1
  O  O5  1  0.40254882  0.59403794  0.24945259  1
  O  O6  1  0.88265278  0.49826653  0.23681719  1
  O  O7  1  0.50173347  0.11734722  0.76318281  1
  O  O8  1  0.78582468  0.83454424  0.56923930  1
  O  O9  1  0.40596206  0.59745118  0.75054741  1
  O  O10  1  0.10947809  0.25093203  0.92685282  1
  O  O11  1  0.16545576  0.21417532  0.43076070  1
