# generated using pymatgen
data_BaTeO4
_symmetry_space_group_name_H-M   'P 1'
_cell_length_a   6.01059121
_cell_length_b   13.83726605
_cell_length_c   5.14830403
_cell_angle_alpha   90.00000000
_cell_angle_beta   90.00000000
_cell_angle_gamma   90.00000000
_symmetry_Int_Tables_number   1
_chemical_formula_structural   BaTeO4
_chemical_formula_sum   'Ba4 Te4 O16'
_cell_volume   428.18521683
_cell_formula_units_Z   4
loop_
 _symmetry_equiv_pos_site_id
 _symmetry_equiv_pos_as_xyz
  1  'x, y, z'
loop_
 _atom_site_type_symbol
 _atom_site_label
 _atom_site_symmetry_multiplicity
 _atom_site_fract_x
 _atom_site_fract_y
 _atom_site_fract_z
 _atom_site_occupancy
  Ba  Ba0  1  0.00000000  0.16461347  0.25000000  1
  Ba  Ba1  1  0.00000000  0.83538653  0.75000000  1
  Ba  Ba2  1  0.50000000  0.66461347  0.25000000  1
  Ba  Ba3  1  0.50000000  0.33538653  0.75000000  1
  Te  Te4  1  0.00000000  0.43321788  0.25000000  1
  Te  Te5  1  0.00000000  0.56678212  0.75000000  1
  Te  Te6  1  0.50000000  0.06678212  0.75000000  1
  Te  Te7  1  0.50000000  0.93321788  0.25000000  1
  O  O8  1  0.20912386  0.33976228  0.35207272  1
  O  O9  1  0.20912386  0.66023772  0.85207272  1
  O  O10  1  0.17615389  0.45959396  0.92806756  1
  O  O11  1  0.17615389  0.54040604  0.42806756  1
  O  O12  1  0.32384611  0.04040604  0.42806756  1
  O  O13  1  0.32384611  0.95959396  0.92806756  1
  O  O14  1  0.29087614  0.16023772  0.85207272  1
  O  O15  1  0.29087614  0.83976228  0.35207272  1
  O  O16  1  0.70912386  0.16023772  0.64792728  1
  O  O17  1  0.70912386  0.83976228  0.14792728  1
  O  O18  1  0.67615389  0.04040604  0.07193244  1
  O  O19  1  0.67615389  0.95959396  0.57193244  1
  O  O20  1  0.82384611  0.45959396  0.57193244  1
  O  O21  1  0.82384611  0.54040604  0.07193244  1
  O  O22  1  0.79087614  0.33976228  0.14792728  1
  O  O23  1  0.79087614  0.66023772  0.64792728  1
