# generated using pymatgen
data_BaTl2O4
_symmetry_space_group_name_H-M   'P 1'
_cell_length_a   10.49268439
_cell_length_b   12.21187494
_cell_length_c   3.53124058
_cell_angle_alpha   90.00000000
_cell_angle_beta   90.00000000
_cell_angle_gamma   90.00000000
_symmetry_Int_Tables_number   1
_chemical_formula_structural   BaTl2O4
_chemical_formula_sum   'Ba4 Tl8 O16'
_cell_volume   452.47674608
_cell_formula_units_Z   4
loop_
 _symmetry_equiv_pos_site_id
 _symmetry_equiv_pos_as_xyz
  1  'x, y, z'
loop_
 _atom_site_type_symbol
 _atom_site_label
 _atom_site_symmetry_multiplicity
 _atom_site_fract_x
 _atom_site_fract_y
 _atom_site_fract_z
 _atom_site_occupancy
  Ba  Ba0  1  0.24523626  0.34800183  0.75000000  1
  Ba  Ba1  1  0.25476374  0.84800183  0.25000000  1
  Ba  Ba2  1  0.74523626  0.15199817  0.75000000  1
  Ba  Ba3  1  0.75476374  0.65199817  0.25000000  1
  Tl  Tl4  1  0.07851936  0.60741881  0.75000000  1
  Tl  Tl5  1  0.07423771  0.10828117  0.75000000  1
  Tl  Tl6  1  0.42576229  0.60828117  0.25000000  1
  Tl  Tl7  1  0.42148064  0.10741881  0.25000000  1
  Tl  Tl8  1  0.57851936  0.89258119  0.75000000  1
  Tl  Tl9  1  0.57423771  0.39171883  0.75000000  1
  Tl  Tl10  1  0.92576229  0.89171883  0.25000000  1
  Tl  Tl11  1  0.92148064  0.39258119  0.25000000  1
  O  O12  1  0.02178298  0.71844739  0.25000000  1
  O  O13  1  0.07719153  0.92557034  0.75000000  1
  O  O14  1  0.12030361  0.48227324  0.25000000  1
  O  O15  1  0.20729929  0.16712988  0.25000000  1
  O  O16  1  0.29270071  0.66712988  0.75000000  1
  O  O17  1  0.37969639  0.98227324  0.75000000  1
  O  O18  1  0.42280847  0.42557034  0.25000000  1
  O  O19  1  0.47821702  0.21844739  0.75000000  1
  O  O20  1  0.52178298  0.78155261  0.25000000  1
  O  O21  1  0.57719153  0.57442966  0.75000000  1
  O  O22  1  0.62030361  0.01772676  0.25000000  1
  O  O23  1  0.70729929  0.33287012  0.25000000  1
  O  O24  1  0.79270071  0.83287012  0.75000000  1
  O  O25  1  0.87969639  0.51772676  0.75000000  1
  O  O26  1  0.92280847  0.07442966  0.25000000  1
  O  O27  1  0.97821702  0.28155261  0.75000000  1
