# generated using pymatgen
data_Ta2Pb2O7
_symmetry_space_group_name_H-M   'P 1'
_cell_length_a   13.95186134
_cell_length_b   13.95186134
_cell_length_c   5.90993093
_cell_angle_alpha   90.00000000
_cell_angle_beta   90.00000000
_cell_angle_gamma   16.41791653
_symmetry_Int_Tables_number   1
_chemical_formula_structural   Ta2Pb2O7
_chemical_formula_sum   'Ta4 Pb4 O14'
_cell_volume   325.14907183
_cell_formula_units_Z   2
loop_
 _symmetry_equiv_pos_site_id
 _symmetry_equiv_pos_as_xyz
  1  'x, y, z'
loop_
 _atom_site_type_symbol
 _atom_site_label
 _atom_site_symmetry_multiplicity
 _atom_site_fract_x
 _atom_site_fract_y
 _atom_site_fract_z
 _atom_site_occupancy
  Ta  Ta0  1  0.15887157  0.15887157  0.25003785  1
  Ta  Ta1  1  0.05653993  0.05653993  0.74861018  1
  Ta  Ta2  1  0.84112843  0.84112843  0.75003785  1
  Ta  Ta3  1  0.94346007  0.94346007  0.24861018  1
  Pb  Pb4  1  0.28484841  0.28484841  0.23858563  1
  Pb  Pb5  1  0.44654798  0.44654798  0.72277842  1
  Pb  Pb6  1  0.71515159  0.71515159  0.73858563  1
  Pb  Pb7  1  0.55345202  0.55345202  0.22277842  1
  O  O8  1  0.09786096  0.09786096  0.03416605  1
  O  O9  1  0.00137531  0.00137531  0.53982842  1
  O  O10  1  0.20482277  0.20482277  0.01477389  1
  O  O11  1  0.10403841  0.10403841  0.52696602  1
  O  O12  1  0.20969693  0.20969693  0.47265161  1
  O  O13  1  0.35126970  0.35126970  0.76285375  1
  O  O14  1  0.45014549  0.45014549  0.29240917  1
  O  O15  1  0.79030307  0.79030307  0.97265161  1
  O  O16  1  0.54985451  0.54985451  0.79240917  1
  O  O17  1  0.64873030  0.64873030  0.26285375  1
  O  O18  1  0.90213904  0.90213904  0.53416605  1
  O  O19  1  0.89596159  0.89596159  0.02696602  1
  O  O20  1  0.99862469  0.99862469  0.03982842  1
  O  O21  1  0.79517723  0.79517723  0.51477389  1
