# generated using pymatgen
data_Gd2HgO4
_symmetry_space_group_name_H-M   'P 1'
_cell_length_a   3.70917892
_cell_length_b   7.14937574
_cell_length_c   8.99246755
_cell_angle_alpha   102.22783925
_cell_angle_beta   101.90198284
_cell_angle_gamma   74.96519741
_symmetry_Int_Tables_number   1
_chemical_formula_structural   Gd2HgO4
_chemical_formula_sum   'Gd4 Hg2 O8'
_cell_volume   222.16675528
_cell_formula_units_Z   2
loop_
 _symmetry_equiv_pos_site_id
 _symmetry_equiv_pos_as_xyz
  1  'x, y, z'
loop_
 _atom_site_type_symbol
 _atom_site_label
 _atom_site_symmetry_multiplicity
 _atom_site_fract_x
 _atom_site_fract_y
 _atom_site_fract_z
 _atom_site_occupancy
  Gd  Gd0  1  0.38030586  0.77797344  0.53858416  1
  Gd  Gd1  1  0.84063999  0.51936046  0.20064044  1
  Gd  Gd2  1  0.15936001  0.48063954  0.79935956  1
  Gd  Gd3  1  0.61969414  0.22202656  0.46141584  1
  Hg  Hg4  1  0.11382201  0.93384048  0.16148451  1
  Hg  Hg5  1  0.88617799  0.06615852  0.83851549  1
  O  O6  1  0.76931021  0.85001708  0.38863850  1
  O  O7  1  0.20324064  0.64931080  0.05579208  1
  O  O8  1  0.96484697  0.78907441  0.71876735  1
  O  O9  1  0.41817101  0.51086752  0.34720954  1
  O  O10  1  0.58182899  0.48913248  0.65279046  1
  O  O11  1  0.03515303  0.21092559  0.28123265  1
  O  O12  1  0.79675936  0.35068920  0.94420792  1
  O  O13  1  0.23068979  0.14998292  0.61136150  1
