# generated using pymatgen
data_Rb2Be2O3
_symmetry_space_group_name_H-M   'P 1'
_cell_length_a   10.96467880
_cell_length_b   5.40352939
_cell_length_c   7.78548714
_cell_angle_alpha   90.00000000
_cell_angle_beta   90.00000000
_cell_angle_gamma   90.00000000
_symmetry_Int_Tables_number   1
_chemical_formula_structural   Rb2Be2O3
_chemical_formula_sum   'Rb8 Be8 O12'
_cell_volume   461.27426294
_cell_formula_units_Z   4
loop_
 _symmetry_equiv_pos_site_id
 _symmetry_equiv_pos_as_xyz
  1  'x, y, z'
loop_
 _atom_site_type_symbol
 _atom_site_label
 _atom_site_symmetry_multiplicity
 _atom_site_fract_x
 _atom_site_fract_y
 _atom_site_fract_z
 _atom_site_occupancy
  Rb  Rb0  1  0.08026547  0.25000000  0.86956504  1
  Rb  Rb1  1  0.11637726  0.75000000  0.50703187  1
  Rb  Rb2  1  0.38362174  0.25000000  0.00703187  1
  Rb  Rb3  1  0.41973453  0.75000000  0.36956504  1
  Rb  Rb4  1  0.58026547  0.25000000  0.63043496  1
  Rb  Rb5  1  0.61637826  0.75000000  0.99296813  1
  Rb  Rb6  1  0.88362174  0.25000000  0.49296813  1
  Rb  Rb7  1  0.91973453  0.75000000  0.13043496  1
  Be  Be8  1  0.16758929  0.25000000  0.27544378  1
  Be  Be9  1  0.21321263  0.75000000  0.10531767  1
  Be  Be10  1  0.28678737  0.25000000  0.60531767  1
  Be  Be11  1  0.33241071  0.75000000  0.77544378  1
  Be  Be12  1  0.66758929  0.25000000  0.22455622  1
  Be  Be13  1  0.71321263  0.75000000  0.39468233  1
  Be  Be14  1  0.78678737  0.25000000  0.89468233  1
  Be  Be15  1  0.83241071  0.75000000  0.72455622  1
  O  O16  1  0.17864053  0.25000000  0.47570049  1
  O  O17  1  0.16054649  0.99949058  0.17491419  1
  O  O18  1  0.16054649  0.50050942  0.17491419  1
  O  O19  1  0.33945351  0.00050942  0.67491419  1
  O  O20  1  0.33945351  0.49949058  0.67491419  1
  O  O21  1  0.32135947  0.75000000  0.97570049  1
  O  O22  1  0.67864053  0.25000000  0.02429951  1
  O  O23  1  0.66054649  0.99949058  0.32508581  1
  O  O24  1  0.66054649  0.50050942  0.32508581  1
  O  O25  1  0.83945351  0.49949058  0.82508581  1
  O  O26  1  0.83945351  0.00050942  0.82508581  1
  O  O27  1  0.82135947  0.75000000  0.52429951  1
