# generated using pymatgen
data_NbAgO3
_symmetry_space_group_name_H-M   'P 1'
_cell_length_a   6.84232445
_cell_length_b   6.84232538
_cell_length_c   6.23120178
_cell_angle_alpha   90.00000000
_cell_angle_beta   90.00000000
_cell_angle_gamma   110.17785585
_symmetry_Int_Tables_number   1
_chemical_formula_structural   NbAgO3
_chemical_formula_sum   'Nb4 Ag4 O12'
_cell_volume   273.82428955
_cell_formula_units_Z   4
loop_
 _symmetry_equiv_pos_site_id
 _symmetry_equiv_pos_as_xyz
  1  'x, y, z'
loop_
 _atom_site_type_symbol
 _atom_site_label
 _atom_site_symmetry_multiplicity
 _atom_site_fract_x
 _atom_site_fract_y
 _atom_site_fract_z
 _atom_site_occupancy
  Nb  Nb0  1  0.50000000  -0.00000000  0.50000000  1
  Nb  Nb1  1  0.50000000  0.00000000  0.00000000  1
  Nb  Nb2  1  0.00000000  0.50000000  0.50000000  1
  Nb  Nb3  1  -0.00000000  0.50000000  0.00000000  1
  Ag  Ag4  1  0.49887562  0.50112438  0.75000000  1
  Ag  Ag5  1  0.99895991  0.00104009  0.25000000  1
  Ag  Ag6  1  0.50112438  0.49887562  0.25000000  1
  Ag  Ag7  1  0.00104009  0.99895991  0.75000000  1
  O  O8  1  0.73713064  0.26286936  0.49751201  1
  O  O9  1  0.63017138  0.89178294  0.75000000  1
  O  O10  1  0.26286936  0.73713064  0.50248799  1
  O  O11  1  0.73713064  0.26286936  0.00248799  1
  O  O12  1  0.89178294  0.63017138  0.25000000  1
  O  O13  1  0.11131120  0.37239964  0.25000000  1
  O  O14  1  0.62760036  0.88868880  0.25000000  1
  O  O15  1  0.26286936  0.73713064  0.99751201  1
  O  O16  1  0.88868880  0.62760036  0.75000000  1
  O  O17  1  0.36982862  0.10821706  0.25000000  1
  O  O18  1  0.37239964  0.11131120  0.75000000  1
  O  O19  1  0.10821706  0.36982862  0.75000000  1
