# generated using pymatgen
data_Er3TaO7
_symmetry_space_group_name_H-M   'P 1'
_cell_length_a   6.34978300
_cell_length_b   6.43880718
_cell_length_c   7.55048537
_cell_angle_alpha   73.19821306
_cell_angle_beta   89.63797809
_cell_angle_gamma   82.27412758
_symmetry_Int_Tables_number   1
_chemical_formula_structural   Er3TaO7
_chemical_formula_sum   'Er6 Ta2 O14'
_cell_volume   292.66854166
_cell_formula_units_Z   2
loop_
 _symmetry_equiv_pos_site_id
 _symmetry_equiv_pos_as_xyz
  1  'x, y, z'
loop_
 _atom_site_type_symbol
 _atom_site_label
 _atom_site_symmetry_multiplicity
 _atom_site_fract_x
 _atom_site_fract_y
 _atom_site_fract_z
 _atom_site_occupancy
  Er  Er0  1  0.26343253  0.46089657  0.88491329  1
  Er  Er1  1  0.26750358  0.45829986  0.39141656  1
  Er  Er2  1  0.45541144  0.99316947  0.25044664  1
  Er  Er3  1  0.54458856  0.00683053  0.74955336  1
  Er  Er4  1  0.73249642  0.54170014  0.60858344  1
  Er  Er5  1  0.73656747  0.53910343  0.11508671  1
  Ta  Ta6  1  0.00000000  0.00000000  0.00000000  1
  Ta  Ta7  1  0.00000000  0.00000000  0.50000000  1
  O  O8  1  0.29276754  0.06520058  0.51977549  1
  O  O9  1  0.07702430  0.67918564  0.04006030  1
  O  O10  1  0.29342102  0.07278958  0.94827148  1
  O  O11  1  0.06830623  0.66569212  0.61439835  1
  O  O12  1  0.09616013  0.93887512  0.26593448  1
  O  O13  1  0.44181348  0.34937641  0.16660674  1
  O  O14  1  0.45747818  0.36114184  0.65720977  1
  O  O15  1  0.54252182  0.63885816  0.34279023  1
  O  O16  1  0.55818652  0.65062359  0.83339326  1
  O  O17  1  0.90383987  0.06112488  0.73406552  1
  O  O18  1  0.93169377  0.33430788  0.38560165  1
  O  O19  1  0.70657898  0.92721042  0.05172852  1
  O  O20  1  0.92297570  0.32081436  0.95993970  1
  O  O21  1  0.70723246  0.93479942  0.48022451  1
