# generated using pymatgen
data_K4TiO4
_symmetry_space_group_name_H-M   'P 1'
_cell_length_a   6.45478480
_cell_length_b   6.47740961
_cell_length_c   9.69083402
_cell_angle_alpha   71.96098505
_cell_angle_beta   100.06842595
_cell_angle_gamma   113.14813167
_symmetry_Int_Tables_number   1
_chemical_formula_structural   K4TiO4
_chemical_formula_sum   'K8 Ti2 O8'
_cell_volume   353.58997187
_cell_formula_units_Z   2
loop_
 _symmetry_equiv_pos_site_id
 _symmetry_equiv_pos_as_xyz
  1  'x, y, z'
loop_
 _atom_site_type_symbol
 _atom_site_label
 _atom_site_symmetry_multiplicity
 _atom_site_fract_x
 _atom_site_fract_y
 _atom_site_fract_z
 _atom_site_occupancy
  K  K0  1  0.27781392  0.96217985  0.61746472  1
  K  K1  1  0.24545685  0.41010499  0.83604636  1
  K  K2  1  0.22632595  0.51271944  0.43820476  1
  K  K3  1  0.25603256  0.76467623  0.02700891  1
  K  K4  1  0.74396744  0.23532377  0.97299109  1
  K  K5  1  0.77367405  0.48728056  0.56179524  1
  K  K6  1  0.75454315  0.58989501  0.16395364  1
  K  K7  1  0.72218608  0.03782015  0.38253528  1
  Ti  Ti8  1  0.22436108  0.15527192  0.24786764  1
  Ti  Ti9  1  0.77563892  0.84472808  0.75213236  1
  O  O10  1  0.05056332  0.85781715  0.34725166  1
  O  O11  1  0.04579176  0.33497523  0.19256841  1
  O  O12  1  0.63708694  0.83991696  0.90536491  1
  O  O13  1  0.54687143  0.71062512  0.62706154  1
  O  O14  1  0.45312857  0.28937488  0.37293846  1
  O  O15  1  0.36291306  0.16008304  0.09463509  1
  O  O16  1  0.95420824  0.66502477  0.80743159  1
  O  O17  1  0.94943668  0.14218285  0.65274834  1
