# generated using pymatgen
data_RbMgH12(ClO2)3
_symmetry_space_group_name_H-M   'P 1'
_cell_length_a   6.66023959
_cell_length_b   6.72129371
_cell_length_c   13.55060500
_cell_angle_alpha   90.65025524
_cell_angle_beta   92.03563826
_cell_angle_gamma   88.74014819
_symmetry_Int_Tables_number   1
_chemical_formula_structural   RbMgH12(ClO2)3
_chemical_formula_sum   'Rb2 Mg2 H24 Cl6 O12'
_cell_volume   606.03535453
_cell_formula_units_Z   2
loop_
 _symmetry_equiv_pos_site_id
 _symmetry_equiv_pos_as_xyz
  1  'x, y, z'
loop_
 _atom_site_type_symbol
 _atom_site_label
 _atom_site_symmetry_multiplicity
 _atom_site_fract_x
 _atom_site_fract_y
 _atom_site_fract_z
 _atom_site_occupancy
  Rb  Rb0  1  0.00747622  0.97925977  0.99110091  1
  Rb  Rb1  1  0.99444830  0.99531223  0.49682693  1
  Mg  Mg2  1  0.50208536  0.47548230  0.75438364  1
  Mg  Mg3  1  0.49435605  0.48197860  0.24377667  1
  H  H4  1  0.25489800  0.52616627  0.58262154  1
  H  H5  1  0.41634898  0.69499667  0.58758662  1
  H  H6  1  0.70819250  0.12553715  0.71932940  1
  H  H7  1  0.54410319  0.13112939  0.63244882  1
  H  H8  1  0.85771780  0.68883974  0.73445751  1
  H  H9  1  0.83685990  0.53282715  0.64802786  1
  H  H10  1  0.16246364  0.24413036  0.77467435  1
  H  H11  1  0.16169311  0.41938650  0.85448965  1
  H  H12  1  0.29506093  0.82757299  0.78079643  1
  H  H13  1  0.46248657  0.83218403  0.86640069  1
  H  H14  1  0.74840941  0.43378192  0.92576017  1
  H  H15  1  0.56667254  0.28624332  0.93054596  1
  H  H16  1  0.72520066  0.82893482  0.26705851  1
  H  H17  1  0.56620810  0.82498908  0.35119097  1
  H  H18  1  0.15639808  0.54252529  0.35970874  1
  H  H19  1  0.14993018  0.69960452  0.27325318  1
  H  H20  1  0.90859049  0.45737630  0.21844531  1
  H  H21  1  0.82399531  0.24680476  0.20411557  1
  H  H22  1  0.27042852  0.13870579  0.21968843  1
  H  H23  1  0.43447175  0.13841259  0.13785501  1
  H  H24  1  0.68938939  0.42711394  0.42289265  1
  H  H25  1  0.53481872  0.25174491  0.41703652  1
  H  H26  1  0.29758796  0.54518723  0.06586005  1
  H  H27  1  0.46564226  0.70993706  0.07362135  1
  Cl  Cl28  1  0.03254054  0.48976344  0.98671994  1
  Cl  Cl29  1  0.98305232  0.49090618  0.49500919  1
  Cl  Cl30  1  0.51578170  0.99545892  0.00404448  1
  Cl  Cl31  1  0.48644357  0.96981337  0.49231980  1
  Cl  Cl32  1  0.00247557  0.97043652  0.74432184  1
  Cl  Cl33  1  0.00129935  0.97491332  0.24063083  1
  O  O34  1  0.38000546  0.56945264  0.61747292  1
  O  O35  1  0.58387367  0.19508090  0.69573893  1
  O  O36  1  0.78563822  0.56795217  0.71329815  1
  O  O37  1  0.22902255  0.36877623  0.79457878  1
  O  O38  1  0.42057510  0.76121767  0.80524232  1
  O  O39  1  0.61897039  0.39731544  0.89292666  1
  O  O40  1  0.61123393  0.75406429  0.29151431  1
  O  O41  1  0.19901297  0.56382170  0.29139712  1
  O  O42  1  0.78479774  0.38879361  0.19960508  1
  O  O43  1  0.39369379  0.20434868  0.20003594  1
  O  O44  1  0.56772264  0.37954264  0.38699107  1
  O  O45  1  0.41462655  0.59147755  0.10649920  1
