# generated using pymatgen
data_EuAgO2
_symmetry_space_group_name_H-M   'P 1'
_cell_length_a   3.67010572
_cell_length_b   3.66991308
_cell_length_c   12.44479535
_cell_angle_alpha   90.01094252
_cell_angle_beta   90.09426566
_cell_angle_gamma   120.00184081
_symmetry_Int_Tables_number   1
_chemical_formula_structural   EuAgO2
_chemical_formula_sum   'Eu2 Ag2 O4'
_cell_volume   145.15894474
_cell_formula_units_Z   2
loop_
 _symmetry_equiv_pos_site_id
 _symmetry_equiv_pos_as_xyz
  1  'x, y, z'
loop_
 _atom_site_type_symbol
 _atom_site_label
 _atom_site_symmetry_multiplicity
 _atom_site_fract_x
 _atom_site_fract_y
 _atom_site_fract_z
 _atom_site_occupancy
  Eu  Eu0  1  0.99994651  0.00006310  -0.00000284  1
  Eu  Eu1  1  0.99995418  0.99990906  0.50001359  1
  Ag  Ag2  1  0.33345425  0.66687531  0.25044693  1
  Ag  Ag3  1  0.66645161  0.33302307  0.74954599  1
  O  O4  1  0.33256496  0.66649894  0.08466996  1
  O  O5  1  0.33332490  0.66657965  0.41548894  1
  O  O6  1  0.66685579  0.33360656  0.58451964  1
  O  O7  1  0.66744678  0.33364432  0.91531680  1
