# generated using pymatgen
data_Cs3TmO3
_symmetry_space_group_name_H-M   'P 1'
_cell_length_a   12.17406848
_cell_length_b   7.59865400
_cell_length_c   8.34533702
_cell_angle_alpha   90.00000000
_cell_angle_beta   95.82413826
_cell_angle_gamma   90.00000000
_symmetry_Int_Tables_number   1
_chemical_formula_structural   Cs3TmO3
_chemical_formula_sum   'Cs12 Tm4 O12'
_cell_volume   768.01318453
_cell_formula_units_Z   4
loop_
 _symmetry_equiv_pos_site_id
 _symmetry_equiv_pos_as_xyz
  1  'x, y, z'
loop_
 _atom_site_type_symbol
 _atom_site_label
 _atom_site_symmetry_multiplicity
 _atom_site_fract_x
 _atom_site_fract_y
 _atom_site_fract_z
 _atom_site_occupancy
  Cs  Cs0  1  0.07534470  0.33826906  0.65150469  1
  Cs  Cs1  1  0.15547389  0.61853730  0.05411684  1
  Cs  Cs2  1  0.19435920  0.82095560  0.61965753  1
  Cs  Cs3  1  0.30564080  0.32095560  0.38034247  1
  Cs  Cs4  1  0.34452611  0.11853730  0.94588316  1
  Cs  Cs5  1  0.42465530  0.83826906  0.34849531  1
  Cs  Cs6  1  0.57534470  0.16173094  0.65150469  1
  Cs  Cs7  1  0.65547389  0.88146270  0.05411684  1
  Cs  Cs8  1  0.69435920  0.67904440  0.61965753  1
  Cs  Cs9  1  0.80564080  0.17904440  0.38034247  1
  Cs  Cs10  1  0.84452611  0.38146270  0.94588316  1
  Cs  Cs11  1  0.92465530  0.66173094  0.34849531  1
  Tm  Tm12  1  0.06685485  0.08430926  0.15584047  1
  Tm  Tm13  1  0.43314515  0.58431026  0.84415953  1
  Tm  Tm14  1  0.56685485  0.41569074  0.15584047  1
  Tm  Tm15  1  0.93314515  0.91568974  0.84415953  1
  O  O16  1  0.04322340  0.33948296  0.24351987  1
  O  O17  1  0.08683638  0.05661679  0.90051139  1
  O  O18  1  0.18985975  0.94484493  0.29557622  1
  O  O19  1  0.31014025  0.44484493  0.70442378  1
  O  O20  1  0.41316362  0.55661679  0.09948861  1
  O  O21  1  0.45677660  0.83948296  0.75648013  1
  O  O22  1  0.54322340  0.16051704  0.24351987  1
  O  O23  1  0.58683638  0.44338321  0.90051139  1
  O  O24  1  0.68985975  0.55515507  0.29557622  1
  O  O25  1  0.81014025  0.05515507  0.70442378  1
  O  O26  1  0.91316362  0.94338321  0.09948861  1
  O  O27  1  0.95677660  0.66051704  0.75648013  1
