# generated using pymatgen
data_SrPt3O4
_symmetry_space_group_name_H-M   'P 1'
_cell_length_a   5.94223955
_cell_length_b   5.94214574
_cell_length_c   5.94212267
_cell_angle_alpha   89.99999103
_cell_angle_beta   89.99991023
_cell_angle_gamma   89.99996760
_symmetry_Int_Tables_number   1
_chemical_formula_structural   SrPt3O4
_chemical_formula_sum   'Sr2 Pt6 O8'
_cell_volume   209.81429210
_cell_formula_units_Z   2
loop_
 _symmetry_equiv_pos_site_id
 _symmetry_equiv_pos_as_xyz
  1  'x, y, z'
loop_
 _atom_site_type_symbol
 _atom_site_label
 _atom_site_symmetry_multiplicity
 _atom_site_fract_x
 _atom_site_fract_y
 _atom_site_fract_z
 _atom_site_occupancy
  Sr  Sr0  1  0.00000009  0.00000003  0.00000033  1
  Sr  Sr1  1  0.50000000  0.49999999  0.50000019  1
  Pt  Pt2  1  0.00000016  0.50000015  0.24999706  1
  Pt  Pt3  1  0.99999993  0.50000001  0.75000283  1
  Pt  Pt4  1  0.24999854  0.99999990  0.50000016  1
  Pt  Pt5  1  0.49999997  0.25000469  0.00000010  1
  Pt  Pt6  1  0.50000008  0.74999533  0.99999970  1
  Pt  Pt7  1  0.75000133  0.00000027  0.49999997  1
  O  O8  1  0.24999552  0.25001350  0.24999130  1
  O  O9  1  0.24999585  0.74998657  0.24999156  1
  O  O10  1  0.24999526  0.25001332  0.75000837  1
  O  O11  1  0.24999570  0.74998665  0.75000841  1
  O  O12  1  0.75000456  0.25001341  0.24999148  1
  O  O13  1  0.75000432  0.25001328  0.75000851  1
  O  O14  1  0.75000450  0.74998647  0.24999138  1
  O  O15  1  0.75000420  0.74998644  0.75000864  1
