# generated using pymatgen
data_K2SbPCO7
_symmetry_space_group_name_H-M   'P 1'
_cell_length_a   9.94011255
_cell_length_b   7.01048191
_cell_length_c   6.06035643
_cell_angle_alpha   90.00000000
_cell_angle_beta   97.03937593
_cell_angle_gamma   90.00000000
_symmetry_Int_Tables_number   1
_chemical_formula_structural   K2SbPCO7
_chemical_formula_sum   'K4 Sb2 P2 C2 O14'
_cell_volume   419.13246449
_cell_formula_units_Z   2
loop_
 _symmetry_equiv_pos_site_id
 _symmetry_equiv_pos_as_xyz
  1  'x, y, z'
loop_
 _atom_site_type_symbol
 _atom_site_label
 _atom_site_symmetry_multiplicity
 _atom_site_fract_x
 _atom_site_fract_y
 _atom_site_fract_z
 _atom_site_occupancy
  K  K0  1  0.22396700  0.01089414  0.24834647  1
  K  K1  1  0.22396700  0.48910586  0.24834647  1
  K  K2  1  0.77603300  0.51089414  0.75165353  1
  K  K3  1  0.77603300  0.98910586  0.75165353  1
  Sb  Sb4  1  0.37942834  0.75000000  0.80948216  1
  Sb  Sb5  1  0.62057166  0.25000000  0.19051784  1
  P  P6  1  0.40926792  0.25000000  0.74332397  1
  P  P7  1  0.59073208  0.75000000  0.25667603  1
  C  C8  1  0.10536922  0.75000000  0.71852448  1
  C  C9  1  0.89463078  0.25000000  0.28147552  1
  O  O10  1  0.02003495  0.25000000  0.28277879  1
  O  O11  1  0.18762042  0.75000000  0.91502763  1
  O  O12  1  0.17183515  0.75000000  0.54600360  1
  O  O13  1  0.34361672  0.07041150  0.84138390  1
  O  O14  1  0.34361672  0.42958850  0.84138390  1
  O  O15  1  0.43268081  0.75000000  0.15944701  1
  O  O16  1  0.39804381  0.25000000  0.49093631  1
  O  O17  1  0.60195619  0.75000000  0.50906369  1
  O  O18  1  0.56731919  0.25000000  0.84055299  1
  O  O19  1  0.65638328  0.57041150  0.15861610  1
  O  O20  1  0.65638328  0.92958850  0.15861610  1
  O  O21  1  0.82816485  0.25000000  0.45399640  1
  O  O22  1  0.81237958  0.25000000  0.08497237  1
  O  O23  1  0.97996505  0.75000000  0.71722121  1
