# generated using pymatgen
data_CeMgAu
_symmetry_space_group_name_H-M   'P 1'
_cell_length_a   7.68653664
_cell_length_b   7.68236346
_cell_length_c   4.23295946
_cell_angle_alpha   90.00000000
_cell_angle_beta   90.00000000
_cell_angle_gamma   119.98204412
_symmetry_Int_Tables_number   1
_chemical_formula_structural   CeMgAu
_chemical_formula_sum   'Ce3 Mg3 Au3'
_cell_volume   216.51044036
_cell_formula_units_Z   3
loop_
 _symmetry_equiv_pos_site_id
 _symmetry_equiv_pos_as_xyz
  1  'x, y, z'
loop_
 _atom_site_type_symbol
 _atom_site_label
 _atom_site_symmetry_multiplicity
 _atom_site_fract_x
 _atom_site_fract_y
 _atom_site_fract_z
 _atom_site_occupancy
  Ce  Ce0  1  0.00000000  0.58413438  0.00000000  1
  Ce  Ce1  1  0.41590747  0.41588859  0.00000000  1
  Ce  Ce2  1  0.58409253  0.99998112  0.00000000  1
  Mg  Mg3  1  0.00000000  0.24183933  0.50000000  1
  Mg  Mg4  1  0.24186090  0.00002734  0.50000000  1
  Mg  Mg5  1  0.75813910  0.75816644  0.50000000  1
  Au  Au6  1  0.33340458  0.66669992  0.50000000  1
  Au  Au7  1  0.00000000  0.00006753  0.00000000  1
  Au  Au8  1  0.66659542  0.33329634  0.50000000  1
