# generated using pymatgen
data_Ba2CaP4(H3O8)2
_symmetry_space_group_name_H-M   'P 1'
_cell_length_a   5.55757548
_cell_length_b   10.38231734
_cell_length_c   12.42323464
_cell_angle_alpha   90.00000000
_cell_angle_beta   100.46583638
_cell_angle_gamma   90.00000000
_symmetry_Int_Tables_number   1
_chemical_formula_structural   Ba2CaP4(H3O8)2
_chemical_formula_sum   'Ba4 Ca2 P8 H12 O32'
_cell_volume   704.90143426
_cell_formula_units_Z   2
loop_
 _symmetry_equiv_pos_site_id
 _symmetry_equiv_pos_as_xyz
  1  'x, y, z'
loop_
 _atom_site_type_symbol
 _atom_site_label
 _atom_site_symmetry_multiplicity
 _atom_site_fract_x
 _atom_site_fract_y
 _atom_site_fract_z
 _atom_site_occupancy
  Ba  Ba0  1  0.14110443  0.34494829  0.82106974  1
  Ba  Ba1  1  0.14110443  0.15505171  0.32106974  1
  Ba  Ba2  1  0.85889557  0.84494829  0.67893026  1
  Ba  Ba3  1  0.85889557  0.65505171  0.17893026  1
  Ca  Ca4  1  0.00000000  0.50000000  0.50000000  1
  Ca  Ca5  1  0.00000000  0.00000000  0.00000000  1
  P  P6  1  0.23391995  0.69384647  0.94566788  1
  P  P7  1  0.23391995  0.80615353  0.44566788  1
  P  P8  1  0.41128855  0.00735789  0.79825757  1
  P  P9  1  0.41128855  0.49264211  0.29825757  1
  P  P10  1  0.58871145  0.50735789  0.70174243  1
  P  P11  1  0.58871145  0.99264211  0.20174243  1
  P  P12  1  0.76608005  0.19384647  0.55433212  1
  P  P13  1  0.76608005  0.30615353  0.05433212  1
  H  H14  1  0.28863138  0.96641033  0.56481138  1
  H  H15  1  0.38638474  0.67281899  0.75836199  1
  H  H16  1  0.56137152  0.81403059  0.93913851  1
  H  H17  1  0.43862848  0.31403059  0.56086149  1
  H  H18  1  0.28863138  0.53358967  0.06481138  1
  H  H19  1  0.61361526  0.17281899  0.74163801  1
  H  H20  1  0.38638474  0.82718101  0.25836199  1
  H  H21  1  0.71136862  0.46641033  0.93518862  1
  H  H22  1  0.56137152  0.68596941  0.43913851  1
  H  H23  1  0.43862848  0.18596941  0.06086149  1
  H  H24  1  0.61361526  0.32718101  0.24163801  1
  H  H25  1  0.71136862  0.03358967  0.43518862  1
  O  O26  1  0.16621061  0.69500887  0.82124336  1
  O  O27  1  0.18075878  0.00806002  0.84864005  1
  O  O28  1  0.23748515  0.54638245  0.98103886  1
  O  O29  1  0.06939926  0.72914738  0.50730117  1
  O  O30  1  0.16621061  0.80499113  0.32124336  1
  O  O31  1  0.18075878  0.49193998  0.34864005  1
  O  O32  1  0.23748515  0.95361755  0.48103886  1
  O  O33  1  0.06939926  0.77085262  0.00730117  1
  O  O34  1  0.36803649  0.94172736  0.68493398  1
  O  O35  1  0.36489000  0.44282783  0.62845137  1
  O  O36  1  0.51463558  0.73670480  0.98122651  1
  O  O37  1  0.47152440  0.15658837  0.78169480  1
  O  O38  1  0.52847560  0.65658837  0.71830520  1
  O  O39  1  0.48536442  0.23670480  0.51877349  1
  O  O40  1  0.63511000  0.94282783  0.87154863  1
  O  O41  1  0.63196351  0.44172736  0.81506602  1
  O  O42  1  0.36803649  0.55827264  0.18493398  1
  O  O43  1  0.36489000  0.05717217  0.12845137  1
  O  O44  1  0.51463558  0.76329520  0.48122651  1
  O  O45  1  0.47152440  0.34341163  0.28169480  1
  O  O46  1  0.52847560  0.84341163  0.21830520  1
  O  O47  1  0.48536442  0.26329520  0.01877349  1
  O  O48  1  0.63511000  0.55717217  0.37154863  1
  O  O49  1  0.63196351  0.05827264  0.31506602  1
  O  O50  1  0.93060074  0.22914738  0.99269883  1
  O  O51  1  0.76251485  0.04638245  0.51896114  1
  O  O52  1  0.81924122  0.50806002  0.65135995  1
  O  O53  1  0.83378939  0.19500887  0.67875664  1
  O  O54  1  0.93060074  0.27085262  0.49269883  1
  O  O55  1  0.76251485  0.45361755  0.01896114  1
  O  O56  1  0.81924122  0.99193998  0.15135995  1
  O  O57  1  0.83378939  0.30499113  0.17875664  1
