# generated using pymatgen
data_YH24C9N6(ClO)3
_symmetry_space_group_name_H-M   'P 1'
_cell_length_a   10.19180796
_cell_length_b   10.19180839
_cell_length_c   10.19180814
_cell_angle_alpha   87.82610636
_cell_angle_beta   87.82610628
_cell_angle_gamma   87.82610306
_symmetry_Int_Tables_number   1
_chemical_formula_structural   YH24C9N6(ClO)3
_chemical_formula_sum   'Y2 H48 C18 N12 Cl6 O6'
_cell_volume   1056.42374459
_cell_formula_units_Z   2
loop_
 _symmetry_equiv_pos_site_id
 _symmetry_equiv_pos_as_xyz
  1  'x, y, z'
loop_
 _atom_site_type_symbol
 _atom_site_label
 _atom_site_symmetry_multiplicity
 _atom_site_fract_x
 _atom_site_fract_y
 _atom_site_fract_z
 _atom_site_occupancy
  Y  Y0  1  0.50000000  0.50000000  0.50000000  1
  Y  Y1  1  0.00000000  0.00000000  0.00000000  1
  H  H2  1  0.85546205  0.19511436  0.74220989  1
  H  H3  1  0.50972533  0.94539987  0.64681121  1
  H  H4  1  0.33906116  0.84656111  0.44018537  1
  H  H5  1  0.92532983  0.43239289  0.17963675  1
  H  H6  1  0.64681121  0.50972533  0.94539987  1
  H  H7  1  0.05460013  0.35318879  0.49027467  1
  H  H8  1  0.78094427  0.53292922  0.20312557  1
  H  H9  1  0.86805474  0.84941111  0.36535680  1
  H  H10  1  0.80488564  0.25779011  0.14453795  1
  H  H11  1  0.40463063  0.09332467  0.20612190  1
  H  H12  1  0.90667533  0.79387810  0.59536937  1
  H  H13  1  0.78902961  0.66855935  0.59118025  1
  H  H14  1  0.19511436  0.74220989  0.85546205  1
  H  H15  1  0.20612190  0.40463063  0.09332467  1
  H  H16  1  0.07467017  0.56760711  0.82036325  1
  H  H17  1  0.56760711  0.82036325  0.07467017  1
  H  H18  1  0.53292922  0.20312557  0.78094427  1
  H  H19  1  0.66855935  0.59118025  0.78902961  1
  H  H20  1  0.21097039  0.33144065  0.40881975  1
  H  H21  1  0.94539987  0.64681121  0.50972533  1
  H  H22  1  0.15343889  0.55981463  0.66093884  1
  H  H23  1  0.43239289  0.17963675  0.92532983  1
  H  H24  1  0.44018537  0.33906116  0.84656111  1
  H  H25  1  0.17963675  0.92532983  0.43239289  1
  H  H26  1  0.84941110  0.36535681  0.86805474  1
  H  H27  1  0.74220989  0.85546205  0.19511436  1
  H  H28  1  0.36535681  0.86805474  0.84941111  1
  H  H29  1  0.35318879  0.49027467  0.05460013  1
  H  H30  1  0.40881975  0.21097039  0.33144065  1
  H  H31  1  0.82036325  0.07467017  0.56760711  1
  H  H32  1  0.33144065  0.40881975  0.21097039  1
  H  H33  1  0.55981463  0.66093884  0.15343889  1
  H  H34  1  0.13194526  0.15058889  0.63464320  1
  H  H35  1  0.21905573  0.46707078  0.79687443  1
  H  H36  1  0.14453795  0.80488564  0.25779011  1
  H  H37  1  0.20312557  0.78094427  0.53292922  1
  H  H38  1  0.46707078  0.79687443  0.21905573  1
  H  H39  1  0.59536937  0.90667533  0.79387810  1
  H  H40  1  0.79687443  0.21905573  0.46707078  1
  H  H41  1  0.79387810  0.59536937  0.90667533  1
  H  H42  1  0.09332467  0.20612190  0.40463063  1
  H  H43  1  0.15058890  0.63464319  0.13194526  1
  H  H44  1  0.84656111  0.44018537  0.33906116  1
  H  H45  1  0.25779011  0.14453795  0.80488564  1
  H  H46  1  0.63464319  0.13194526  0.15058889  1
  H  H47  1  0.49027467  0.05460013  0.35318879  1
  H  H48  1  0.66093884  0.15343889  0.55981463  1
  H  H49  1  0.59118025  0.78902961  0.66855935  1
  C  C50  1  0.56052911  0.76702995  0.16984051  1
  C  C51  1  0.23297005  0.83015949  0.43947089  1
  C  C52  1  0.53452123  0.86629743  0.71954464  1
  C  C53  1  0.71954464  0.53452123  0.86629743  1
  C  C54  1  0.13370257  0.28045536  0.46547877  1
  C  C55  1  0.36277061  0.70092212  0.74597603  1
  C  C56  1  0.74597603  0.36277061  0.70092212  1
  C  C57  1  0.86629743  0.71954464  0.53452123  1
  C  C58  1  0.46547877  0.13370257  0.28045536  1
  C  C59  1  0.70092212  0.74597603  0.36277061  1
  C  C60  1  0.43947089  0.23297005  0.83015949  1
  C  C61  1  0.28045536  0.46547877  0.13370257  1
  C  C62  1  0.16984051  0.56052911  0.76702995  1
  C  C63  1  0.25402397  0.63722939  0.29907788  1
  C  C64  1  0.76702995  0.16984051  0.56052911  1
  C  C65  1  0.29907788  0.25402397  0.63722939  1
  C  C66  1  0.83015949  0.43947089  0.23297005  1
  C  C67  1  0.63722939  0.29907788  0.25402397  1
  N  N68  1  0.81234186  0.78182405  0.41709974  1
  N  N69  1  0.78182405  0.41709974  0.81234186  1
  N  N70  1  0.80078705  0.24363255  0.67282808  1
  N  N71  1  0.41709974  0.81234186  0.78182405  1
  N  N72  1  0.75636745  0.32717192  0.19921295  1
  N  N73  1  0.58290026  0.18765814  0.21817595  1
  N  N74  1  0.24363255  0.67282808  0.80078705  1
  N  N75  1  0.19921295  0.75636745  0.32717192  1
  N  N76  1  0.32717192  0.19921295  0.75636745  1
  N  N77  1  0.67282808  0.80078705  0.24363255  1
  N  N78  1  0.21817595  0.58290026  0.18765814  1
  N  N79  1  0.18765814  0.21817595  0.58290026  1
  Cl  Cl80  1  0.97935944  0.74167663  0.03393530  1
  Cl  Cl81  1  0.25832337  0.96606470  0.02064056  1
  Cl  Cl82  1  0.74167663  0.03393530  0.97935944  1
  Cl  Cl83  1  0.02064056  0.25832337  0.96606470  1
  Cl  Cl84  1  0.96606470  0.02064056  0.25832337  1
  Cl  Cl85  1  0.03393530  0.97935944  0.74167663  1
  O  O86  1  0.33452770  0.57858478  0.37643897  1
  O  O87  1  0.37643897  0.33452770  0.57858478  1
  O  O88  1  0.57858478  0.37643897  0.33452770  1
  O  O89  1  0.42141522  0.62356103  0.66547230  1
  O  O90  1  0.62356103  0.66547230  0.42141522  1
  O  O91  1  0.66547230  0.42141522  0.62356103  1
