# generated using pymatgen
data_Ga2CoO4
_symmetry_space_group_name_H-M   'P 1'
_cell_length_a   5.97756450
_cell_length_b   5.97756450
_cell_length_c   5.97756460
_cell_angle_alpha   60.00000422
_cell_angle_beta   89.99999795
_cell_angle_gamma   120.00000129
_symmetry_Int_Tables_number   1
_chemical_formula_structural   Ga2CoO4
_chemical_formula_sum   'Ga4 Co2 O8'
_cell_volume   151.02812591
_cell_formula_units_Z   2
loop_
 _symmetry_equiv_pos_site_id
 _symmetry_equiv_pos_as_xyz
  1  'x, y, z'
loop_
 _atom_site_type_symbol
 _atom_site_label
 _atom_site_symmetry_multiplicity
 _atom_site_fract_x
 _atom_site_fract_y
 _atom_site_fract_z
 _atom_site_occupancy
  Ga  Ga0  1  0.50000000  0.00000000  0.00000000  1
  Ga  Ga1  1  0.50000000  0.00000000  0.50000000  1
  Ga  Ga2  1  0.00000000  0.50000000  0.50000000  1
  Ga  Ga3  1  0.50000000  0.50000000  0.50000000  1
  Co  Co4  1  0.12500000  0.25000000  0.12500000  1
  Co  Co5  1  0.87500000  0.75000000  0.87500000  1
  O  O6  1  0.28488833  0.02325889  0.73837056  1
  O  O7  1  0.26162944  0.52325889  0.26162944  1
  O  O8  1  0.26162944  0.52325889  0.71511167  1
  O  O9  1  0.26162944  0.97674111  0.26162944  1
  O  O10  1  0.73837056  0.02325889  0.73837056  1
  O  O11  1  0.73837056  0.47674111  0.28488833  1
  O  O12  1  0.71511167  0.97674111  0.26162944  1
  O  O13  1  0.73837056  0.47674111  0.73837056  1
