# generated using pymatgen
data_BaNb5O8
_symmetry_space_group_name_H-M   'P 1'
_cell_length_a   6.70138928
_cell_length_b   7.88906883
_cell_length_c   4.16968398
_cell_angle_alpha   58.24939323
_cell_angle_beta   89.98948031
_cell_angle_gamma   89.99094820
_symmetry_Int_Tables_number   1
_chemical_formula_structural   BaNb5O8
_chemical_formula_sum   'Ba1 Nb5 O8'
_cell_volume   187.45184972
_cell_formula_units_Z   1
loop_
 _symmetry_equiv_pos_site_id
 _symmetry_equiv_pos_as_xyz
  1  'x, y, z'
loop_
 _atom_site_type_symbol
 _atom_site_label
 _atom_site_symmetry_multiplicity
 _atom_site_fract_x
 _atom_site_fract_y
 _atom_site_fract_z
 _atom_site_occupancy
  Ba  Ba0  1  0.00000000  0.00000000  0.99415100  1
  Nb  Nb1  1  0.21189521  0.40158408  0.09266172  1
  Nb  Nb2  1  0.40164280  0.78810181  0.70724347  1
  Nb  Nb3  1  0.50000000  0.50000000  0.49415100  1
  Nb  Nb4  1  0.59835720  0.21189819  0.28105753  1
  Nb  Nb5  1  0.78810479  0.59841592  0.89564028  1
  O  O6  1  0.09940725  0.69886044  0.79657039  1
  O  O7  1  0.20421489  0.38754834  0.60665476  1
  O  O8  1  0.30085170  0.09922984  0.39390698  1
  O  O9  1  0.38713340  0.79551731  0.19989130  1
  O  O10  1  0.61286660  0.20448269  0.78840970  1
  O  O11  1  0.69914830  0.90077016  0.59439402  1
  O  O12  1  0.79578511  0.61245166  0.38164724  1
  O  O13  1  0.90059275  0.30113956  0.19173061  1
