# generated using pymatgen
data_Na4(NiO2)5
_symmetry_space_group_name_H-M   'P 1'
_cell_length_a   5.15731643
_cell_length_b   6.34548902
_cell_length_c   6.92602617
_cell_angle_alpha   110.13288409
_cell_angle_beta   96.28482003
_cell_angle_gamma   105.92946521
_symmetry_Int_Tables_number   1
_chemical_formula_structural   Na4(NiO2)5
_chemical_formula_sum   'Na4 Ni5 O10'
_cell_volume   199.34861619
_cell_formula_units_Z   1
loop_
 _symmetry_equiv_pos_site_id
 _symmetry_equiv_pos_as_xyz
  1  'x, y, z'
loop_
 _atom_site_type_symbol
 _atom_site_label
 _atom_site_symmetry_multiplicity
 _atom_site_fract_x
 _atom_site_fract_y
 _atom_site_fract_z
 _atom_site_occupancy
  Na  Na0  1  0.81292119  0.62128183  0.62334424  1
  Na  Na1  1  0.59953790  0.19177059  0.18894341  1
  Na  Na2  1  0.40046210  0.80822941  0.81105659  1
  Na  Na3  1  0.18707881  0.37871817  0.37665576  1
  Ni  Ni4  1  0.79620677  0.09803905  0.59806865  1
  Ni  Ni5  1  0.39883227  0.30134825  0.79558015  1
  Ni  Ni6  1  0.60116773  0.69865175  0.20441985  1
  Ni  Ni7  1  0.20379323  0.90196095  0.40193135  1
  Ni  Ni8  1  0.00000000  0.50000000  0.00000000  1
  O  O9  1  0.86988960  0.00870490  0.32565848  1
  O  O10  1  0.66748640  0.61338484  0.92673787  1
  O  O11  1  0.89539647  0.59215794  0.28697873  1
  O  O12  1  0.68539686  0.18196068  0.85896562  1
  O  O13  1  0.48206677  0.22407371  0.52492828  1
  O  O14  1  0.51793323  0.77592629  0.47507172  1
  O  O15  1  0.31460314  0.81803932  0.14103438  1
  O  O16  1  0.10460353  0.40784206  0.71302127  1
  O  O17  1  0.33251360  0.38661516  0.07326213  1
  O  O18  1  0.13011040  0.99129510  0.67434152  1
