# generated using pymatgen
data_V2CoO4
_symmetry_space_group_name_H-M   'P 1'
_cell_length_a   6.07751239
_cell_length_b   6.07751250
_cell_length_c   6.07751212
_cell_angle_alpha   120.66633753
_cell_angle_beta   120.66634239
_cell_angle_gamma   88.84968698
_symmetry_Int_Tables_number   1
_chemical_formula_structural   V2CoO4
_chemical_formula_sum   'V4 Co2 O8'
_cell_volume   157.09825452
_cell_formula_units_Z   2
loop_
 _symmetry_equiv_pos_site_id
 _symmetry_equiv_pos_as_xyz
  1  'x, y, z'
loop_
 _atom_site_type_symbol
 _atom_site_label
 _atom_site_symmetry_multiplicity
 _atom_site_fract_x
 _atom_site_fract_y
 _atom_site_fract_z
 _atom_site_occupancy
  V  V0  1  0.00000000  0.50000000  0.50000000  1
  V  V1  1  0.50000000  0.50000000  0.50000000  1
  V  V2  1  0.50000000  0.50000000  0.00000000  1
  V  V3  1  0.50000000  0.00000000  0.00000000  1
  Co  Co4  1  0.12500000  0.87500000  0.25000000  1
  Co  Co5  1  0.87500000  0.12500000  0.75000000  1
  O  O6  1  0.25908104  0.73747932  0.97839828  1
  O  O7  1  0.26252068  0.74091896  0.52160172  1
  O  O8  1  0.25908104  0.28068376  0.52160172  1
  O  O9  1  0.71931624  0.74091896  0.97839828  1
  O  O10  1  0.28068376  0.25908104  0.02160172  1
  O  O11  1  0.74091896  0.71931624  0.47839828  1
  O  O12  1  0.73747932  0.25908104  0.47839828  1
  O  O13  1  0.74091896  0.26252068  0.02160172  1
