# generated using pymatgen
data_K2Se3
_symmetry_space_group_name_H-M   'P 1'
_cell_length_a   6.60586010
_cell_length_b   6.60586010
_cell_length_c   7.75218447
_cell_angle_alpha   90.00000000
_cell_angle_beta   90.00000000
_cell_angle_gamma   108.86639292
_symmetry_Int_Tables_number   1
_chemical_formula_structural   K2Se3
_chemical_formula_sum   'K4 Se6'
_cell_volume   320.11077800
_cell_formula_units_Z   2
loop_
 _symmetry_equiv_pos_site_id
 _symmetry_equiv_pos_as_xyz
  1  'x, y, z'
loop_
 _atom_site_type_symbol
 _atom_site_label
 _atom_site_symmetry_multiplicity
 _atom_site_fract_x
 _atom_site_fract_y
 _atom_site_fract_z
 _atom_site_occupancy
  K  K0  1  0.09847448  0.90152552  0.87106832  1
  K  K1  1  0.90152552  0.09847448  0.37106832  1
  K  K2  1  0.58813798  0.41186202  0.14975175  1
  K  K3  1  0.41186202  0.58813798  0.64975175  1
  Se  Se4  1  0.79276158  0.20723842  0.81784101  1
  Se  Se5  1  0.20723842  0.79276158  0.31784101  1
  Se  Se6  1  0.08846584  0.40771008  0.99956946  1
  Se  Se7  1  0.91153416  0.59228992  0.49956946  1
  Se  Se8  1  0.59228992  0.91153416  0.99956946  1
  Se  Se9  1  0.40771008  0.08846584  0.49956946  1
