# generated using pymatgen
data_PH5NO3F
_symmetry_space_group_name_H-M   'P 1'
_cell_length_a   7.54700320
_cell_length_b   15.74473438
_cell_length_c   7.63105806
_cell_angle_alpha   90.00000000
_cell_angle_beta   108.11966229
_cell_angle_gamma   90.00000000
_symmetry_Int_Tables_number   1
_chemical_formula_structural   PH5NO3F
_chemical_formula_sum   'P8 H40 N8 O24 F8'
_cell_volume   861.79743691
_cell_formula_units_Z   8
loop_
 _symmetry_equiv_pos_site_id
 _symmetry_equiv_pos_as_xyz
  1  'x, y, z'
loop_
 _atom_site_type_symbol
 _atom_site_label
 _atom_site_symmetry_multiplicity
 _atom_site_fract_x
 _atom_site_fract_y
 _atom_site_fract_z
 _atom_site_occupancy
  P  P0  1  0.23974130  0.03326383  0.77693405  1
  P  P1  1  0.26025870  0.53326383  0.72306595  1
  P  P2  1  0.12277957  0.20419096  0.22719166  1
  P  P3  1  0.37722043  0.70419096  0.27280834  1
  P  P4  1  0.62277957  0.29580904  0.72719166  1
  P  P5  1  0.87722043  0.79580904  0.77280834  1
  P  P6  1  0.73974130  0.46673617  0.27693405  1
  P  P7  1  0.76025870  0.96673617  0.22306595  1
  H  H8  1  0.08203020  0.89711144  0.89435975  1
  H  H9  1  0.09864737  0.36511117  0.75103851  1
  H  H10  1  0.15326554  0.27739049  0.88501704  1
  H  H11  1  0.03951196  0.72374584  0.30427026  1
  H  H12  1  0.17572858  0.27786608  0.66996123  1
  H  H13  1  0.17505771  0.11919019  0.53553333  1
  H  H14  1  0.32494229  0.61919019  0.96446667  1
  H  H15  1  0.12152384  0.47302204  0.23229851  1
  H  H16  1  0.32427142  0.77786608  0.83003877  1
  H  H17  1  0.14118697  0.96863335  0.21875131  1
  H  H18  1  0.28607950  0.96457617  0.43960542  1
  H  H19  1  0.34673446  0.77739049  0.61498296  1
  H  H20  1  0.22748426  0.38068861  0.20060916  1
  H  H21  1  0.40135263  0.86511117  0.74896149  1
  H  H22  1  0.27251574  0.88068861  0.29939084  1
  H  H23  1  0.21392050  0.46457617  0.06039458  1
  H  H24  1  0.41796980  0.39711144  0.60564025  1
  H  H25  1  0.35881303  0.46863335  0.28124869  1
  H  H26  1  0.53951196  0.77625416  0.80427026  1
  H  H27  1  0.37847616  0.97302204  0.26770149  1
  H  H28  1  0.62152384  0.02697796  0.73229851  1
  H  H29  1  0.46048804  0.22374584  0.19572974  1
  H  H30  1  0.64118697  0.53136665  0.71875131  1
  H  H31  1  0.58203020  0.60288856  0.39435975  1
  H  H32  1  0.78607950  0.53542383  0.93960542  1
  H  H33  1  0.72748426  0.11931139  0.70060916  1
  H  H34  1  0.59864737  0.13488883  0.25103851  1
  H  H35  1  0.77251574  0.61931139  0.79939084  1
  H  H36  1  0.65326554  0.22260951  0.38501704  1
  H  H37  1  0.71392050  0.03542383  0.56039458  1
  H  H38  1  0.85881303  0.03136665  0.78124869  1
  H  H39  1  0.67572858  0.22213392  0.16996123  1
  H  H40  1  0.87847616  0.52697796  0.76770149  1
  H  H41  1  0.67505771  0.38080981  0.03553333  1
  H  H42  1  0.82494229  0.88080981  0.46446667  1
  H  H43  1  0.82427142  0.72213392  0.33003877  1
  H  H44  1  0.96048804  0.27625416  0.69572974  1
  H  H45  1  0.84673446  0.72260951  0.11498296  1
  H  H46  1  0.90135263  0.63488883  0.24896149  1
  H  H47  1  0.91796980  0.10288856  0.10564025  1
  N  N48  1  0.09743095  0.29894176  0.74943923  1
  N  N49  1  0.40256905  0.79894176  0.75056077  1
  N  N50  1  0.23098450  0.44662975  0.19632531  1
  N  N51  1  0.26901550  0.94662975  0.30367469  1
  N  N52  1  0.73098450  0.05337025  0.69632531  1
  N  N53  1  0.76901550  0.55337025  0.80367469  1
  N  N54  1  0.59743095  0.20105824  0.24943923  1
  N  N55  1  0.90256905  0.70105824  0.25056077  1
  O  O56  1  0.05367261  0.83466740  0.92014388  1
  O  O57  1  0.11422104  0.98895497  0.86753976  1
  O  O58  1  0.14048426  0.48099385  0.80926354  1
  O  O59  1  0.12440038  0.10353569  0.64280110  1
  O  O60  1  0.37559962  0.60353569  0.85719890  1
  O  O61  1  0.23412759  0.14104095  0.36631199  1
  O  O62  1  0.35951574  0.98099385  0.69073646  1
  O  O63  1  0.27335090  0.76186459  0.36644387  1
  O  O64  1  0.38577896  0.48895497  0.63246024  1
  O  O65  1  0.22664910  0.26186459  0.13355613  1
  O  O66  1  0.26587241  0.64104095  0.13368801  1
  O  O67  1  0.44632739  0.33466740  0.57985612  1
  O  O68  1  0.55367261  0.66533260  0.42014388  1
  O  O69  1  0.73412759  0.35895905  0.86631199  1
  O  O70  1  0.77335090  0.73813541  0.86644387  1
  O  O71  1  0.61422104  0.51104503  0.36753976  1
  O  O72  1  0.72664910  0.23813541  0.63355613  1
  O  O73  1  0.64048426  0.01900615  0.30926354  1
  O  O74  1  0.76587241  0.85895905  0.63368801  1
  O  O75  1  0.62440038  0.39646431  0.14280110  1
  O  O76  1  0.87559962  0.89646431  0.35719890  1
  O  O77  1  0.85951574  0.51900615  0.19073646  1
  O  O78  1  0.88577896  0.01104503  0.13246024  1
  O  O79  1  0.94632739  0.16533260  0.07985612  1
  F  F80  1  0.02573684  0.26658147  0.33746962  1
  F  F81  1  0.11969208  0.58831604  0.56356826  1
  F  F82  1  0.38030792  0.08831604  0.93643174  1
  F  F83  1  0.52573684  0.23341853  0.83746962  1
  F  F84  1  0.47426316  0.76658147  0.16253038  1
  F  F85  1  0.61969208  0.91168396  0.06356826  1
  F  F86  1  0.88030792  0.41168396  0.43643174  1
  F  F87  1  0.97426316  0.73341853  0.66253038  1
