# generated using pymatgen
data_Na2BiO3
_symmetry_space_group_name_H-M   'P 1'
_cell_length_a   5.95874637
_cell_length_b   5.95874637
_cell_length_c   11.32982927
_cell_angle_alpha   85.23275313
_cell_angle_beta   94.76724687
_cell_angle_gamma   60.11316455
_symmetry_Int_Tables_number   1
_chemical_formula_structural   Na2BiO3
_chemical_formula_sum   'Na8 Bi4 O12'
_cell_volume   343.94990828
_cell_formula_units_Z   4
loop_
 _symmetry_equiv_pos_site_id
 _symmetry_equiv_pos_as_xyz
  1  'x, y, z'
loop_
 _atom_site_type_symbol
 _atom_site_label
 _atom_site_symmetry_multiplicity
 _atom_site_fract_x
 _atom_site_fract_y
 _atom_site_fract_z
 _atom_site_occupancy
  Na  Na0  1  0.15294645  0.67861959  0.00135716  1
  Na  Na1  1  0.32138041  0.84705355  0.50135716  1
  Na  Na2  1  0.00000000  0.50000000  0.50000000  1
  Na  Na3  1  0.08383757  0.08383757  0.75000000  1
  Na  Na4  1  0.91616243  0.91616243  0.25000000  1
  Na  Na5  1  0.67861959  0.15294645  0.49864284  1
  Na  Na6  1  0.50000000  0.00000000  0.00000000  1
  Na  Na7  1  0.84705355  0.32138041  0.99864284  1
  Bi  Bi8  1  0.41745308  0.41745308  0.75000000  1
  Bi  Bi9  1  0.75025056  0.75025056  0.75000000  1
  Bi  Bi10  1  0.58254692  0.58254692  0.25000000  1
  Bi  Bi11  1  0.24974944  0.24974944  0.25000000  1
  O  O12  1  0.02079259  0.77617434  0.63778587  1
  O  O13  1  0.09097419  0.42166166  0.85865597  1
  O  O14  1  0.22382566  0.97920741  0.13778587  1
  O  O15  1  0.49537611  0.70091635  0.86337389  1
  O  O16  1  0.57833834  0.90902581  0.35865597  1
  O  O17  1  0.29908365  0.50462389  0.36337389  1
  O  O18  1  0.70091635  0.49537611  0.63662611  1
  O  O19  1  0.42166166  0.09097419  0.64134403  1
  O  O20  1  0.50462389  0.29908365  0.13662611  1
  O  O21  1  0.77617434  0.02079259  0.86221413  1
  O  O22  1  0.90902581  0.57833834  0.14134403  1
  O  O23  1  0.97920741  0.22382566  0.36221413  1
