# generated using pymatgen
data_LiPH21S3N7
_symmetry_space_group_name_H-M   'P 1'
_cell_length_a   7.25208394
_cell_length_b   7.41591203
_cell_length_c   13.32009219
_cell_angle_alpha   87.72964579
_cell_angle_beta   89.12776935
_cell_angle_gamma   74.11162498
_symmetry_Int_Tables_number   1
_chemical_formula_structural   LiPH21S3N7
_chemical_formula_sum   'Li2 P2 H42 S6 N14'
_cell_volume   688.45004810
_cell_formula_units_Z   2
loop_
 _symmetry_equiv_pos_site_id
 _symmetry_equiv_pos_as_xyz
  1  'x, y, z'
loop_
 _atom_site_type_symbol
 _atom_site_label
 _atom_site_symmetry_multiplicity
 _atom_site_fract_x
 _atom_site_fract_y
 _atom_site_fract_z
 _atom_site_occupancy
  Li  Li0  1  0.43531054  0.22092800  0.09102317  1
  Li  Li1  1  0.56468946  0.77907200  0.90897683  1
  P  P2  1  0.04358191  0.80939911  0.69753590  1
  P  P3  1  0.95641809  0.19060089  0.30246410  1
  H  H4  1  0.08733516  0.28072840  0.05623206  1
  H  H5  1  0.17846156  0.15003773  0.96107082  1
  H  H6  1  0.04460324  0.70581369  0.46746500  1
  H  H7  1  0.06341505  0.74548103  0.34117591  1
  H  H8  1  0.10955844  0.52178014  0.39101824  1
  H  H9  1  0.15836363  0.37420953  0.95358898  1
  H  H10  1  0.36568090  0.04333654  0.79041149  1
  H  H11  1  0.26791772  0.55326631  0.17683782  1
  H  H12  1  0.32041408  0.37082717  0.25407455  1
  H  H13  1  0.26862037  0.65483189  0.40962658  1
  H  H14  1  0.22934661  0.75759908  0.93420286  1
  H  H15  1  0.19375515  0.93056306  0.56660732  1
  H  H16  1  0.26404270  0.83721823  0.04408623  1
  H  H17  1  0.34680367  0.61347478  0.02236348  1
  H  H18  1  0.38851003  0.40099601  0.63054088  1
  H  H19  1  0.47202982  0.14809013  0.86805078  1
  H  H20  1  0.44790105  0.33821185  0.51435990  1
  H  H21  1  0.35124292  0.80105383  0.64993821  1
  H  H22  1  0.52118626  0.18605014  0.60757686  1
  H  H23  1  0.49295743  0.46605392  0.21459620  1
  H  H24  1  0.59969707  0.02732927  0.77747134  1
  H  H25  1  0.40030293  0.97267073  0.22252866  1
  H  H26  1  0.50704257  0.53394608  0.78540380  1
  H  H27  1  0.47881374  0.81394986  0.39242314  1
  H  H28  1  0.64875708  0.19894617  0.35006179  1
  H  H29  1  0.55209895  0.66178815  0.48564010  1
  H  H30  1  0.52797018  0.85190987  0.13194922  1
  H  H31  1  0.61148997  0.59900399  0.36945912  1
  H  H32  1  0.65319633  0.38652522  0.97763652  1
  H  H33  1  0.73595730  0.16278177  0.95591377  1
  H  H34  1  0.80624485  0.06943694  0.43339268  1
  H  H35  1  0.77065339  0.24240092  0.06579714  1
  H  H36  1  0.73137963  0.34516811  0.59037342  1
  H  H37  1  0.67958592  0.62917283  0.74592545  1
  H  H38  1  0.73208228  0.44673369  0.82316218  1
  H  H39  1  0.63431910  0.95666346  0.20958851  1
  H  H40  1  0.84163737  0.62579047  0.04641102  1
  H  H41  1  0.89044156  0.47821986  0.60898176  1
  H  H42  1  0.93658495  0.25451897  0.65882409  1
  H  H43  1  0.95539676  0.29418631  0.53253500  1
  H  H44  1  0.82153844  0.84996227  0.03892918  1
  H  H45  1  0.91266484  0.71927160  0.94376794  1
  S  S46  1  0.18321618  0.17422185  0.39667778  1
  S  S47  1  0.00561851  0.96880083  0.20976232  1
  S  S48  1  0.13406531  0.55807871  0.77225905  1
  S  S49  1  0.86593469  0.44192129  0.22774095  1
  S  S50  1  0.99438149  0.03119917  0.79023768  1
  S  S51  1  0.81678382  0.82577815  0.60332222  1
  N  N52  1  0.19275919  0.25927361  0.00220832  1
  N  N53  1  0.12015903  0.65623497  0.40269497  1
  N  N54  1  0.22453990  0.81353739  0.61435391  1
  N  N55  1  0.37169311  0.43166442  0.19299812  1
  N  N56  1  0.49158300  0.02944378  0.82824188  1
  N  N57  1  0.32822508  0.74478745  0.99042791  1
  N  N58  1  0.49769677  0.32466383  0.58650077  1
  N  N59  1  0.50230323  0.67533617  0.41349923  1
  N  N60  1  0.67177492  0.25521255  0.00957209  1
  N  N61  1  0.50841700  0.97055622  0.17175812  1
  N  N62  1  0.62830689  0.56833558  0.80700188  1
  N  N63  1  0.77546010  0.18646261  0.38564609  1
  N  N64  1  0.87984097  0.34376503  0.59730503  1
  N  N65  1  0.80724081  0.74072639  0.99779168  1
