# generated using pymatgen
data_K2Hg3S3O10
_symmetry_space_group_name_H-M   'P 1'
_cell_length_a   7.65286491
_cell_length_b   8.03130465
_cell_length_c   21.21282126
_cell_angle_alpha   90.00000000
_cell_angle_beta   90.00000000
_cell_angle_gamma   90.00000000
_symmetry_Int_Tables_number   1
_chemical_formula_structural   K2Hg3S3O10
_chemical_formula_sum   'K8 Hg12 S12 O40'
_cell_volume   1303.79280475
_cell_formula_units_Z   4
loop_
 _symmetry_equiv_pos_site_id
 _symmetry_equiv_pos_as_xyz
  1  'x, y, z'
loop_
 _atom_site_type_symbol
 _atom_site_label
 _atom_site_symmetry_multiplicity
 _atom_site_fract_x
 _atom_site_fract_y
 _atom_site_fract_z
 _atom_site_occupancy
  K  K0  1  0.36159930  0.36449633  0.44023245  1
  K  K1  1  0.13840070  0.86449633  0.55976755  1
  K  K2  1  0.63840070  0.63550367  0.55976755  1
  K  K3  1  0.86159930  0.13550367  0.44023245  1
  K  K4  1  0.63840070  0.63550367  0.94023245  1
  K  K5  1  0.86159930  0.13550367  0.05976755  1
  K  K6  1  0.13840070  0.86449633  0.94023245  1
  K  K7  1  0.36159930  0.36449633  0.05976755  1
  Hg  Hg8  1  0.72958667  0.72994867  0.17045767  1
  Hg  Hg9  1  0.05670065  0.41104572  0.25000000  1
  Hg  Hg10  1  0.77041333  0.22994867  0.82954233  1
  Hg  Hg11  1  0.44329935  0.91104572  0.75000000  1
  Hg  Hg12  1  0.27041333  0.27005133  0.67045767  1
  Hg  Hg13  1  0.22958667  0.77005133  0.17045767  1
  Hg  Hg14  1  0.27041333  0.27005133  0.82954233  1
  Hg  Hg15  1  0.77041333  0.22994867  0.67045767  1
  Hg  Hg16  1  0.55670065  0.08895428  0.25000000  1
  Hg  Hg17  1  0.22958667  0.77005133  0.32954233  1
  Hg  Hg18  1  0.72958667  0.72994867  0.32954233  1
  Hg  Hg19  1  0.94329935  0.58895428  0.75000000  1
  S  S20  1  0.99024286  0.88287385  0.75000000  1
  S  S21  1  0.86768796  0.58977364  0.08319548  1
  S  S22  1  0.13231204  0.41022636  0.91680452  1
  S  S23  1  0.63231204  0.08977364  0.58319548  1
  S  S24  1  0.86768796  0.58977364  0.41680452  1
  S  S25  1  0.13231204  0.41022636  0.58319548  1
  S  S26  1  0.63231204  0.08977364  0.91680452  1
  S  S27  1  0.36768796  0.91022636  0.41680452  1
  S  S28  1  0.50975714  0.38287385  0.25000000  1
  S  S29  1  0.00975714  0.11712615  0.25000000  1
  S  S30  1  0.36768796  0.91022636  0.08319548  1
  S  S31  1  0.49024286  0.61712615  0.75000000  1
  O  O32  1  0.08824764  0.92631103  0.80815219  1
  O  O33  1  0.47933483  0.99865029  0.89071199  1
  O  O34  1  0.58988705  0.82779266  0.25000000  1
  O  O35  1  0.91175236  0.07368897  0.19184781  1
  O  O36  1  0.08332698  0.28064863  0.96277564  1
  O  O37  1  0.26666898  0.52625882  0.94134396  1
  O  O38  1  0.41667302  0.78064863  0.03722436  1
  O  O39  1  0.91175236  0.07368897  0.30815219  1
  O  O40  1  0.58332698  0.21935137  0.53722436  1
  O  O41  1  0.08988705  0.67220734  0.25000000  1
  O  O42  1  0.97933483  0.50134971  0.89071199  1
  O  O43  1  0.08824764  0.92631103  0.69184781  1
  O  O44  1  0.91667302  0.71935137  0.46277564  1
  O  O45  1  0.52066517  0.00134971  0.10928801  1
  O  O46  1  0.41011295  0.17220734  0.75000000  1
  O  O47  1  0.23333102  0.02625882  0.44134396  1
  O  O48  1  0.58824764  0.57368897  0.80815219  1
  O  O49  1  0.73333102  0.47374118  0.44134396  1
  O  O50  1  0.02066517  0.49865029  0.10928801  1
  O  O51  1  0.52066517  0.00134971  0.39071199  1
  O  O52  1  0.68805994  0.45702529  0.25000000  1
  O  O53  1  0.41175236  0.42631103  0.19184781  1
  O  O54  1  0.47933483  0.99865029  0.60928801  1
  O  O55  1  0.73333102  0.47374118  0.05865604  1
  O  O56  1  0.76666898  0.97374118  0.94134396  1
  O  O57  1  0.02066517  0.49865029  0.39071199  1
  O  O58  1  0.18805994  0.04297471  0.25000000  1
  O  O59  1  0.41175236  0.42631103  0.30815219  1
  O  O60  1  0.58332698  0.21935137  0.96277564  1
  O  O61  1  0.91667302  0.71935137  0.03722436  1
  O  O62  1  0.91011295  0.32779266  0.75000000  1
  O  O63  1  0.26666898  0.52625882  0.55865604  1
  O  O64  1  0.08332698  0.28064863  0.53722436  1
  O  O65  1  0.41667302  0.78064863  0.46277564  1
  O  O66  1  0.58824764  0.57368897  0.69184781  1
  O  O67  1  0.81194006  0.95702529  0.75000000  1
  O  O68  1  0.23333102  0.02625882  0.05865604  1
  O  O69  1  0.76666898  0.97374118  0.55865604  1
  O  O70  1  0.97933483  0.50134971  0.60928801  1
  O  O71  1  0.31194006  0.54297471  0.75000000  1
