# generated using pymatgen
data_Cs(WO3)3
_symmetry_space_group_name_H-M   'P 1'
_cell_length_a   7.54327360
_cell_length_b   7.54621926
_cell_length_c   3.88745932
_cell_angle_alpha   90.00028183
_cell_angle_beta   89.99943611
_cell_angle_gamma   119.98708380
_symmetry_Int_Tables_number   1
_chemical_formula_structural   Cs(WO3)3
_chemical_formula_sum   'Cs1 W3 O9'
_cell_volume   191.66476403
_cell_formula_units_Z   1
loop_
 _symmetry_equiv_pos_site_id
 _symmetry_equiv_pos_as_xyz
  1  'x, y, z'
loop_
 _atom_site_type_symbol
 _atom_site_label
 _atom_site_symmetry_multiplicity
 _atom_site_fract_x
 _atom_site_fract_y
 _atom_site_fract_z
 _atom_site_occupancy
  Cs  Cs0  1  0.99931941  0.00000000  0.00012218  1
  W  W1  1  0.99898100  0.50022525  0.49993569  1
  W  W2  1  0.49875575  0.49977475  0.49993569  1
  W  W3  1  0.49933797  1.00000000  0.49993159  1
  O  O4  1  0.99880623  0.50060987  -0.00001001  1
  O  O5  1  0.20983907  0.78883969  0.50001659  1
  O  O6  1  0.20933952  0.42209915  0.50001478  1
  O  O7  1  0.57669280  0.78838682  0.50001756  1
  O  O8  1  0.49819636  0.49939013  -0.00001001  1
  O  O9  1  0.42099938  0.21116031  0.50001659  1
  O  O10  1  0.49937215  0.00000000  -0.00000600  1
  O  O11  1  0.78724037  0.57790085  0.50001478  1
  O  O12  1  0.78830598  0.21161318  0.50001756  1
