# generated using pymatgen
data_SnP4O11
_symmetry_space_group_name_H-M   'P 1'
_cell_length_a   8.92998317
_cell_length_b   13.00193102
_cell_length_c   9.23289369
_cell_angle_alpha   90.00000000
_cell_angle_beta   90.64478249
_cell_angle_gamma   90.00000000
_symmetry_Int_Tables_number   1
_chemical_formula_structural   SnP4O11
_chemical_formula_sum   'Sn4 P16 O44'
_cell_volume   1071.93593969
_cell_formula_units_Z   4
loop_
 _symmetry_equiv_pos_site_id
 _symmetry_equiv_pos_as_xyz
  1  'x, y, z'
loop_
 _atom_site_type_symbol
 _atom_site_label
 _atom_site_symmetry_multiplicity
 _atom_site_fract_x
 _atom_site_fract_y
 _atom_site_fract_z
 _atom_site_occupancy
  Sn  Sn0  1  0.22295563  0.46789969  0.72991644  1
  Sn  Sn1  1  0.27704437  0.96789969  0.77008356  1
  Sn  Sn2  1  0.72295563  0.03210131  0.22991644  1
  Sn  Sn3  1  0.77704437  0.53210031  0.27008356  1
  P  P4  1  0.08936291  0.20804643  0.58814681  1
  P  P5  1  0.12171778  0.16707682  0.27402427  1
  P  P6  1  0.19616836  0.49624393  0.32771796  1
  P  P7  1  0.24126199  0.84380889  0.39376902  1
  P  P8  1  0.25873801  0.34380889  0.10623098  1
  P  P9  1  0.30383164  0.99624393  0.17228204  1
  P  P10  1  0.41063709  0.70804643  0.91185319  1
  P  P11  1  0.37828222  0.66707682  0.22597573  1
  P  P12  1  0.62171778  0.33292318  0.77402427  1
  P  P13  1  0.58936291  0.29195357  0.08814681  1
  P  P14  1  0.69616836  0.00375607  0.82771796  1
  P  P15  1  0.74126199  0.65619111  0.89376902  1
  P  P16  1  0.75873801  0.15619111  0.60623098  1
  P  P17  1  0.80383164  0.50375607  0.67228204  1
  P  P18  1  0.87828222  0.83292318  0.72597573  1
  P  P19  1  0.91063709  0.79195357  0.41185319  1
  O  O20  1  0.02038432  0.88724565  0.75206210  1
  O  O21  1  0.03585149  0.46932944  0.30265540  1
  O  O22  1  0.09446222  0.78252008  0.43003034  1
  O  O23  1  0.13138765  0.10145127  0.62784683  1
  O  O24  1  0.13951861  0.29994019  0.67127149  1
  O  O25  1  0.19000469  0.40261454  0.98686288  1
  O  O26  1  0.13619551  0.23125342  0.41887179  1
  O  O27  1  0.14758757  0.25368651  0.15472860  1
  O  O28  1  0.19999959  0.90714716  0.25182923  1
  O  O29  1  0.23225992  0.59734760  0.22447295  1
  O  O30  1  0.26380150  0.51415109  0.47371847  1
  O  O31  1  0.23619850  0.01415109  0.02628153  1
  O  O32  1  0.26774008  0.09734760  0.27552705  1
  O  O33  1  0.30999531  0.90261454  0.51313712  1
  O  O34  1  0.36048139  0.79994019  0.82872851  1
  O  O35  1  0.30000041  0.40714716  0.24817077  1
  O  O36  1  0.36861235  0.60145127  0.87215317  1
  O  O37  1  0.35241243  0.75368651  0.34527140  1
  O  O38  1  0.36380449  0.73125342  0.08112821  1
  O  O39  1  0.40553778  0.28252008  0.06996966  1
  O  O40  1  0.47961568  0.38724565  0.74793790  1
  O  O41  1  0.53585149  0.03067056  0.80265540  1
  O  O42  1  0.46414851  0.96932944  0.19734460  1
  O  O43  1  0.52038432  0.61275435  0.25206210  1
  O  O44  1  0.59446222  0.71747992  0.93003034  1
  O  O45  1  0.63619551  0.26874658  0.91887179  1
  O  O46  1  0.64758757  0.24631349  0.65472860  1
  O  O47  1  0.63138765  0.39854873  0.12784683  1
  O  O48  1  0.69999959  0.59285284  0.75182923  1
  O  O49  1  0.63951861  0.20005981  0.17127149  1
  O  O50  1  0.69000469  0.09738546  0.48686288  1
  O  O51  1  0.73225992  0.90265240  0.72447295  1
  O  O52  1  0.76380150  0.98584891  0.97371847  1
  O  O53  1  0.73619850  0.48584891  0.52628153  1
  O  O54  1  0.76774008  0.40265240  0.77552705  1
  O  O55  1  0.80000041  0.09285284  0.74817077  1
  O  O56  1  0.85241243  0.74631349  0.84527140  1
  O  O57  1  0.86380449  0.76874658  0.58112821  1
  O  O58  1  0.80999531  0.59738546  0.01313712  1
  O  O59  1  0.86048139  0.70005981  0.32872851  1
  O  O60  1  0.86861235  0.89854873  0.37215317  1
  O  O61  1  0.90553778  0.21747992  0.56996966  1
  O  O62  1  0.96414851  0.53067056  0.69734460  1
  O  O63  1  0.97961568  0.11275435  0.24793790  1
