# generated using pymatgen
data_Lu3Sb5O12
_symmetry_space_group_name_H-M   'P 1'
_cell_length_a   9.32604157
_cell_length_b   9.32604157
_cell_length_c   9.32604157
_cell_angle_alpha   109.47122063
_cell_angle_beta   109.47122063
_cell_angle_gamma   109.47122063
_symmetry_Int_Tables_number   1
_chemical_formula_structural   Lu3Sb5O12
_chemical_formula_sum   'Lu6 Sb10 O24'
_cell_volume   624.41043156
_cell_formula_units_Z   2
loop_
 _symmetry_equiv_pos_site_id
 _symmetry_equiv_pos_as_xyz
  1  'x, y, z'
loop_
 _atom_site_type_symbol
 _atom_site_label
 _atom_site_symmetry_multiplicity
 _atom_site_fract_x
 _atom_site_fract_y
 _atom_site_fract_z
 _atom_site_occupancy
  Lu  Lu0  1  0.75000000  0.25000000  0.50000000  1
  Lu  Lu1  1  0.75000000  0.50000000  0.25000000  1
  Lu  Lu2  1  0.50000000  0.25000000  0.75000000  1
  Lu  Lu3  1  0.50000000  0.75000000  0.25000000  1
  Lu  Lu4  1  0.25000000  0.75000000  0.50000000  1
  Lu  Lu5  1  0.25000000  0.50000000  0.75000000  1
  Sb  Sb6  1  0.51976589  0.00000000  0.00000000  1
  Sb  Sb7  1  0.28511803  0.00000000  0.28511803  1
  Sb  Sb8  1  0.28511803  0.28511803  0.00000000  1
  Sb  Sb9  1  0.71488197  0.00000000  0.71488197  1
  Sb  Sb10  1  0.71488197  0.71488197  0.00000000  1
  Sb  Sb11  1  0.00000000  0.51976589  0.00000000  1
  Sb  Sb12  1  0.00000000  0.00000000  0.51976589  1
  Sb  Sb13  1  0.48023411  0.48023411  0.48023411  1
  Sb  Sb14  1  0.00000000  0.28511803  0.28511803  1
  Sb  Sb15  1  0.00000000  0.71488197  0.71488197  1
  O  O16  1  0.48393300  0.00000000  0.20422141  1
  O  O17  1  0.48393300  0.20422141  0.00000000  1
  O  O18  1  0.70146175  0.49735906  0.00000000  1
  O  O19  1  0.70146175  0.00000000  0.49735906  1
  O  O20  1  0.79589631  0.29853825  0.29853825  1
  O  O21  1  0.50264094  0.50264094  0.20410369  1
  O  O22  1  0.50264094  0.20410369  0.50264094  1
  O  O23  1  0.49735906  0.70146175  0.00000000  1
  O  O24  1  0.49735906  0.00000000  0.70146175  1
  O  O25  1  0.72028841  0.51606700  0.51606700  1
  O  O26  1  0.79577859  0.27971159  0.79577859  1
  O  O27  1  0.79577859  0.79577859  0.27971159  1
  O  O28  1  0.20422141  0.48393300  0.00000000  1
  O  O29  1  0.20422141  0.00000000  0.48393300  1
  O  O30  1  0.51606700  0.72028841  0.51606700  1
  O  O31  1  0.51606700  0.51606700  0.72028841  1
  O  O32  1  0.00000000  0.48393300  0.20422141  1
  O  O33  1  0.00000000  0.20422141  0.48393300  1
  O  O34  1  0.29853825  0.79589631  0.29853825  1
  O  O35  1  0.29853825  0.29853825  0.79589631  1
  O  O36  1  0.20410369  0.50264094  0.50264094  1
  O  O37  1  0.00000000  0.70146175  0.49735906  1
  O  O38  1  0.00000000  0.49735906  0.70146175  1
  O  O39  1  0.27971159  0.79577859  0.79577859  1
