# generated using pymatgen
data_LuGaO3
_symmetry_space_group_name_H-M   'P 1'
_cell_length_a   6.00022731
_cell_length_b   6.00011225
_cell_length_c   11.67075868
_cell_angle_alpha   89.99950104
_cell_angle_beta   90.00163383
_cell_angle_gamma   120.00046229
_symmetry_Int_Tables_number   1
_chemical_formula_structural   LuGaO3
_chemical_formula_sum   'Lu6 Ga6 O18'
_cell_volume   363.87714278
_cell_formula_units_Z   6
loop_
 _symmetry_equiv_pos_site_id
 _symmetry_equiv_pos_as_xyz
  1  'x, y, z'
loop_
 _atom_site_type_symbol
 _atom_site_label
 _atom_site_symmetry_multiplicity
 _atom_site_fract_x
 _atom_site_fract_y
 _atom_site_fract_z
 _atom_site_occupancy
  Lu  Lu0  1  0.33332919  0.66665635  0.23196259  1
  Lu  Lu1  1  -0.00000006  -0.00000625  0.27245304  1
  Lu  Lu2  1  0.00000849  0.00000080  0.77245005  1
  Lu  Lu3  1  0.33334443  0.66667402  0.73197511  1
  Lu  Lu4  1  0.66665901  0.33332741  0.73197733  1
  Lu  Lu5  1  0.66665745  0.33333685  0.23197303  1
  Ga  Ga6  1  -0.00000159  0.66593110  0.49868859  1
  Ga  Ga7  1  0.99999574  0.33406110  0.99867733  1
  Ga  Ga8  1  0.33406416  0.33406592  0.49868683  1
  Ga  Ga9  1  0.66594062  0.66593810  0.99868019  1
  Ga  Ga10  1  0.33406424  0.00000669  0.99868059  1
  Ga  Ga11  1  0.66591667  0.99998611  0.49868881  1
  O  O12  1  0.00000600  0.69382852  0.66368948  1
  O  O13  1  -0.00000193  0.63949823  0.33523603  1
  O  O14  1  0.00001044  0.36051366  0.83523761  1
  O  O15  1  0.99997774  0.30616922  0.16370623  1
  O  O16  1  0.33333197  0.66666150  0.02022451  1
  O  O17  1  -0.00000018  -0.00000041  0.47360470  1
  O  O18  1  0.99999531  0.00000410  0.97356644  1
  O  O19  1  0.33332859  0.66666804  0.52020431  1
  O  O20  1  0.30616423  0.30617258  0.66368673  1
  O  O21  1  0.36050996  0.36050535  0.33524085  1
  O  O22  1  0.30620106  0.00003090  0.16370571  1
  O  O23  1  0.63948263  0.63948452  0.83524298  1
  O  O24  1  0.69383059  0.69381076  0.16370224  1
  O  O25  1  0.36051157  0.00000048  0.83523832  1
  O  O26  1  0.66666760  0.33333199  0.52019602  1
  O  O27  1  0.66667109  0.33333203  0.02022354  1
  O  O28  1  0.63949361  0.00000878  0.33524287  1
  O  O29  1  0.69382034  0.00000254  0.66368797  1
