# generated using pymatgen
data_Tm3Sb5O12
_symmetry_space_group_name_H-M   'P 1'
_cell_length_a   9.35758727
_cell_length_b   9.35758727
_cell_length_c   9.35758727
_cell_angle_alpha   109.47122063
_cell_angle_beta   109.47122063
_cell_angle_gamma   109.47122063
_symmetry_Int_Tables_number   1
_chemical_formula_structural   Tm3Sb5O12
_chemical_formula_sum   'Tm6 Sb10 O24'
_cell_volume   630.76816704
_cell_formula_units_Z   2
loop_
 _symmetry_equiv_pos_site_id
 _symmetry_equiv_pos_as_xyz
  1  'x, y, z'
loop_
 _atom_site_type_symbol
 _atom_site_label
 _atom_site_symmetry_multiplicity
 _atom_site_fract_x
 _atom_site_fract_y
 _atom_site_fract_z
 _atom_site_occupancy
  Tm  Tm0  1  0.75000000  0.25000000  0.50000000  1
  Tm  Tm1  1  0.75000000  0.50000000  0.25000000  1
  Tm  Tm2  1  0.50000000  0.25000000  0.75000000  1
  Tm  Tm3  1  0.50000000  0.75000000  0.25000000  1
  Tm  Tm4  1  0.25000000  0.75000000  0.50000000  1
  Tm  Tm5  1  0.25000000  0.50000000  0.75000000  1
  Sb  Sb6  1  0.51803432  0.00000000  0.00000000  1
  Sb  Sb7  1  0.28390136  0.00000000  0.28390136  1
  Sb  Sb8  1  0.28390136  0.28390136  0.00000000  1
  Sb  Sb9  1  0.71609864  0.00000000  0.71609864  1
  Sb  Sb10  1  0.71609864  0.71609864  0.00000000  1
  Sb  Sb11  1  0.00000000  0.51803432  0.00000000  1
  Sb  Sb12  1  0.00000000  0.00000000  0.51803432  1
  Sb  Sb13  1  0.48196568  0.48196568  0.48196568  1
  Sb  Sb14  1  0.00000000  0.28390136  0.28390136  1
  Sb  Sb15  1  0.00000000  0.71609864  0.71609864  1
  O  O16  1  0.48152033  0.00000000  0.20284661  1
  O  O17  1  0.48152033  0.20284661  0.00000000  1
  O  O18  1  0.70282826  0.49942162  0.00000000  1
  O  O19  1  0.70282826  0.00000000  0.49942162  1
  O  O20  1  0.79659336  0.29717174  0.29717174  1
  O  O21  1  0.50057838  0.50057838  0.20340664  1
  O  O22  1  0.50057838  0.20340664  0.50057838  1
  O  O23  1  0.49942162  0.70282826  0.00000000  1
  O  O24  1  0.49942162  0.00000000  0.70282826  1
  O  O25  1  0.72132627  0.51847967  0.51847967  1
  O  O26  1  0.79715339  0.27867373  0.79715339  1
  O  O27  1  0.79715339  0.79715339  0.27867373  1
  O  O28  1  0.20284661  0.48152033  0.00000000  1
  O  O29  1  0.20284661  0.00000000  0.48152033  1
  O  O30  1  0.51847967  0.72132627  0.51847967  1
  O  O31  1  0.51847967  0.51847967  0.72132627  1
  O  O32  1  0.00000000  0.48152033  0.20284661  1
  O  O33  1  0.00000000  0.20284661  0.48152033  1
  O  O34  1  0.29717174  0.79659336  0.29717174  1
  O  O35  1  0.29717174  0.29717174  0.79659336  1
  O  O36  1  0.20340664  0.50057838  0.50057838  1
  O  O37  1  0.00000000  0.70282826  0.49942162  1
  O  O38  1  0.00000000  0.49942162  0.70282826  1
  O  O39  1  0.27867373  0.79715339  0.79715339  1
