# generated using pymatgen
data_Gd3As5O12
_symmetry_space_group_name_H-M   'P 1'
_cell_length_a   9.30408272
_cell_length_b   9.30408282
_cell_length_c   9.30408246
_cell_angle_alpha   109.46612583
_cell_angle_beta   109.46612949
_cell_angle_gamma   109.46613084
_symmetry_Int_Tables_number   1
_chemical_formula_structural   Gd3As5O12
_chemical_formula_sum   'Gd6 As10 O24'
_cell_volume   620.12699671
_cell_formula_units_Z   2
loop_
 _symmetry_equiv_pos_site_id
 _symmetry_equiv_pos_as_xyz
  1  'x, y, z'
loop_
 _atom_site_type_symbol
 _atom_site_label
 _atom_site_symmetry_multiplicity
 _atom_site_fract_x
 _atom_site_fract_y
 _atom_site_fract_z
 _atom_site_occupancy
  Gd  Gd0  1  0.24795590  0.74633114  0.49825003  1
  Gd  Gd1  1  0.24795590  0.49825003  0.74633114  1
  Gd  Gd2  1  0.49825003  0.74633114  0.24795590  1
  Gd  Gd3  1  0.49825003  0.24795590  0.74633114  1
  Gd  Gd4  1  0.74633114  0.24795590  0.49825003  1
  Gd  Gd5  1  0.74633114  0.49825003  0.24795590  1
  As  As6  1  0.99627236  0.70956386  0.70956386  1
  As  As7  1  0.50186451  0.99778794  0.99778794  1
  As  As8  1  0.28545324  0.99380369  0.28545324  1
  As  As9  1  0.28545324  0.28545324  0.99380369  1
  As  As10  1  0.49346870  0.49346870  0.49346870  1
  As  As11  1  0.70956386  0.70956386  0.99627236  1
  As  As12  1  0.70956386  0.99627236  0.70956386  1
  As  As13  1  0.99778794  0.99778794  0.50186451  1
  As  As14  1  0.99778794  0.50186451  0.99778794  1
  As  As15  1  0.99380369  0.28545324  0.28545324  1
  O  O16  1  0.18268516  0.70035016  0.70035016  1
  O  O17  1  0.99619915  0.29652198  0.48221617  1
  O  O18  1  0.99619915  0.48221617  0.29652198  1
  O  O19  1  0.18935101  0.71437713  0.18935101  1
  O  O20  1  0.18935101  0.18935101  0.71437713  1
  O  O21  1  0.52595159  0.99821856  0.80842589  1
  O  O22  1  0.52595159  0.80842589  0.99821856  1
  O  O23  1  0.28000316  0.47096992  0.47096992  1
  O  O24  1  0.51468001  0.51468001  0.80987516  1
  O  O25  1  0.51468001  0.80987516  0.51468001  1
  O  O26  1  0.29652198  0.99619915  0.48221617  1
  O  O27  1  0.29652198  0.48221617  0.99619915  1
  O  O28  1  0.47096992  0.28000316  0.47096992  1
  O  O29  1  0.47096992  0.47096992  0.28000316  1
  O  O30  1  0.80842589  0.99821856  0.52595159  1
  O  O31  1  0.80842589  0.52595159  0.99821856  1
  O  O32  1  0.70035016  0.70035016  0.18268516  1
  O  O33  1  0.70035016  0.18268516  0.70035016  1
  O  O34  1  0.48221617  0.99619915  0.29652198  1
  O  O35  1  0.48221617  0.29652198  0.99619915  1
  O  O36  1  0.80987516  0.51468001  0.51468001  1
  O  O37  1  0.99821856  0.52595159  0.80842589  1
  O  O38  1  0.99821856  0.80842589  0.52595159  1
  O  O39  1  0.71437713  0.18935101  0.18935101  1
