# generated using pymatgen
data_BeH2
_symmetry_space_group_name_H-M   'P 1'
_cell_length_a   6.17478636
_cell_length_b   6.17478636
_cell_length_c   6.17478636
_cell_angle_alpha   88.27403362
_cell_angle_beta   141.75195959
_cell_angle_gamma   104.16889993
_symmetry_Int_Tables_number   1
_chemical_formula_structural   BeH2
_chemical_formula_sum   'Be6 H12'
_cell_volume   136.06250152
_cell_formula_units_Z   6
loop_
 _symmetry_equiv_pos_site_id
 _symmetry_equiv_pos_as_xyz
  1  'x, y, z'
loop_
 _atom_site_type_symbol
 _atom_site_label
 _atom_site_symmetry_multiplicity
 _atom_site_fract_x
 _atom_site_fract_y
 _atom_site_fract_z
 _atom_site_occupancy
  Be  Be0  1  0.75000000  0.75000000  0.00000000  1
  Be  Be1  1  0.25000000  0.25000000  0.00000000  1
  Be  Be2  1  0.12076905  0.16783361  0.28860265  1
  Be  Be3  1  0.37923095  0.66783361  0.04706356  1
  Be  Be4  1  0.62076905  0.33216639  0.95293644  1
  Be  Be5  1  0.87923095  0.83216639  0.71139735  1
  H  H6  1  0.58047585  0.25800648  0.14473780  1
  H  H7  1  0.88673232  0.56426195  0.14473780  1
  H  H8  1  0.91952415  0.06426195  0.67752963  1
  H  H9  1  0.38673232  0.24199352  0.32247037  1
  H  H10  1  0.73048350  0.68425235  0.41473585  1
  H  H11  1  0.76951650  0.18425235  0.95376785  1
  H  H12  1  0.26951550  0.31574765  0.58526415  1
  H  H13  1  0.23048350  0.81574765  0.04623215  1
  H  H14  1  0.61326768  0.75800648  0.67752963  1
  H  H15  1  0.08047585  0.93573805  0.32247037  1
  H  H16  1  0.11326768  0.43573805  0.85526220  1
  H  H17  1  0.41952415  0.74199352  0.85526220  1
