# generated using pymatgen
data_Li2Ti3CoO8
_symmetry_space_group_name_H-M   'P 1'
_cell_length_a   8.44436710
_cell_length_b   8.44444074
_cell_length_c   8.44491955
_cell_angle_alpha   90.00004648
_cell_angle_beta   90.00009594
_cell_angle_gamma   90.00024324
_symmetry_Int_Tables_number   1
_chemical_formula_structural   Li2Ti3CoO8
_chemical_formula_sum   'Li8 Ti12 Co4 O32'
_cell_volume   602.18996489
_cell_formula_units_Z   4
loop_
 _symmetry_equiv_pos_site_id
 _symmetry_equiv_pos_as_xyz
  1  'x, y, z'
loop_
 _atom_site_type_symbol
 _atom_site_label
 _atom_site_symmetry_multiplicity
 _atom_site_fract_x
 _atom_site_fract_y
 _atom_site_fract_z
 _atom_site_occupancy
  Li  Li0  1  0.99767779  0.99767905  0.99768092  1
  Li  Li1  1  0.00232276  0.49767797  0.50231890  1
  Li  Li2  1  0.12434239  0.87565882  0.37565401  1
  Li  Li3  1  0.37565735  0.12434136  0.87565402  1
  Li  Li4  1  0.50232304  0.00232132  0.49768110  1
  Li  Li5  1  0.49767765  0.50232180  0.00231889  1
  Li  Li6  1  0.62434223  0.62434196  0.62434568  1
  Li  Li7  1  0.87565812  0.37565818  0.12434579  1
  Ti  Ti8  1  0.13499441  0.12006354  0.62761359  1
  Ti  Ti9  1  0.12006597  0.62760820  0.13498908  1
  Ti  Ti10  1  0.12761048  0.36500627  0.87994413  1
  Ti  Ti11  1  0.37993485  0.37239169  0.63498904  1
  Ti  Ti12  1  0.37238840  0.63499603  0.37994672  1
  Ti  Ti13  1  0.36500616  0.87993275  0.12761279  1
  Ti  Ti14  1  0.62760916  0.13499536  0.12005515  1
  Ti  Ti15  1  0.63499439  0.37993344  0.37238849  1
  Ti  Ti16  1  0.62006160  0.87238922  0.86500929  1
  Ti  Ti17  1  0.87993554  0.12760967  0.36500933  1
  Ti  Ti18  1  0.87239028  0.86500487  0.62005578  1
  Ti  Ti19  1  0.86500673  0.62006637  0.87238782  1
  Co  Co20  1  0.25248565  0.25248526  0.25249116  1
  Co  Co21  1  0.24751375  0.74751360  0.75249274  1
  Co  Co22  1  0.75248431  0.24751275  0.74750704  1
  Co  Co23  1  0.74751500  0.75248680  0.24750807  1
  O  O24  1  0.12797703  0.38957662  0.10753165  1
  O  O25  1  0.13927602  0.36072416  0.63925693  1
  O  O26  1  0.14388933  0.85874998  0.12324116  1
  O  O27  1  0.11041838  0.89245491  0.62797508  1
  O  O28  1  0.10754273  0.12797449  0.38959059  1
  O  O29  1  0.12325277  0.14389061  0.85875159  1
  O  O30  1  0.14124753  0.62325170  0.35609236  1
  O  O31  1  0.11189267  0.61189148  0.88811263  1
  O  O32  1  0.38958256  0.10754268  0.12797449  1
  O  O33  1  0.35611042  0.14125029  0.62324479  1
  O  O34  1  0.38810763  0.38811020  0.38811301  1
  O  O35  1  0.35875240  0.37675127  0.85609199  1
  O  O36  1  0.36072461  0.63927677  0.13925649  1
  O  O37  1  0.37202131  0.61042486  0.60753337  1
  O  O38  1  0.37674739  0.85610986  0.35875203  1
  O  O39  1  0.39245576  0.87202322  0.88959015  1
  O  O40  1  0.63927416  0.13927778  0.36074208  1
  O  O41  1  0.62324932  0.35610858  0.14124978  1
  O  O42  1  0.60754298  0.37202639  0.61041044  1
  O  O43  1  0.61041844  0.60754419  0.37202474  1
  O  O44  1  0.61189137  0.88810965  0.11188735  1
  O  O45  1  0.64124539  0.87674537  0.64390739  1
  O  O46  1  0.62797532  0.11042461  0.89246905  1
  O  O47  1  0.64388770  0.64125089  0.87675459  1
  O  O48  1  0.85875485  0.12325235  0.14390786  1
  O  O49  1  0.88810995  0.11189126  0.61188838  1
  O  O50  1  0.85611157  0.35874912  0.37675451  1
  O  O51  1  0.89245693  0.62797389  0.11041069  1
  O  O52  1  0.87675272  0.64389169  0.64125042  1
  O  O53  1  0.87202283  0.88957642  0.39246861  1
  O  O54  1  0.88958254  0.39245578  0.87202391  1
  O  O55  1  0.86072738  0.86072263  0.86074237  1
