# generated using pymatgen
data_Na3AuO3
_symmetry_space_group_name_H-M   'P 1'
_cell_length_a   9.57400212
_cell_length_b   9.57363413
_cell_length_c   4.56254214
_cell_angle_alpha   90.00000000
_cell_angle_beta   90.00000000
_cell_angle_gamma   89.99925725
_symmetry_Int_Tables_number   1
_chemical_formula_structural   Na3AuO3
_chemical_formula_sum   'Na12 Au4 O12'
_cell_volume   418.19345760
_cell_formula_units_Z   4
loop_
 _symmetry_equiv_pos_site_id
 _symmetry_equiv_pos_as_xyz
  1  'x, y, z'
loop_
 _atom_site_type_symbol
 _atom_site_label
 _atom_site_symmetry_multiplicity
 _atom_site_fract_x
 _atom_site_fract_y
 _atom_site_fract_z
 _atom_site_occupancy
  Na  Na0  1  0.11970271  0.62629166  0.00000000  1
  Na  Na1  1  0.12626577  0.38029930  0.50000000  1
  Na  Na2  1  0.14697112  0.85304238  0.50000000  1
  Na  Na3  1  0.35303131  0.35304182  0.00000000  1
  Na  Na4  1  0.37373342  0.88029835  0.00000000  1
  Na  Na5  1  0.38029882  0.12628712  0.50000000  1
  Na  Na6  1  0.61969650  0.87370445  0.50000000  1
  Na  Na7  1  0.62626823  0.11969312  0.00000000  1
  Na  Na8  1  0.64696406  0.64694722  0.00000000  1
  Na  Na9  1  0.85303066  0.14695591  0.50000000  1
  Na  Na10  1  0.87372895  0.61969330  0.50000000  1
  Na  Na11  1  0.88029278  0.37370900  0.00000000  1
  Au  Au12  1  0.11636549  0.11637738  0.00000000  1
  Au  Au13  1  0.38361672  0.61637887  0.50000000  1
  Au  Au14  1  0.61637431  0.38360748  0.50000000  1
  Au  Au15  1  0.88362252  0.88361280  0.00000000  1
  O  O16  1  0.10188682  0.89812503  0.00000000  1
  O  O17  1  0.11478445  0.32801278  0.00000000  1
  O  O18  1  0.17200855  0.61480291  0.50000000  1
  O  O19  1  0.32800656  0.11478523  0.00000000  1
  O  O20  1  0.38522882  0.82802771  0.50000000  1
  O  O21  1  0.39813106  0.39814440  0.50000000  1
  O  O22  1  0.60189028  0.60188471  0.50000000  1
  O  O23  1  0.61479153  0.17200125  0.50000000  1
  O  O24  1  0.67199692  0.88524488  0.00000000  1
  O  O25  1  0.82801610  0.38521469  0.50000000  1
  O  O26  1  0.88521336  0.67198555  0.00000000  1
  O  O27  1  0.89812217  0.10186972  0.00000000  1
