# generated using pymatgen
data_Sn2(SO4)3
_symmetry_space_group_name_H-M   'P 1'
_cell_length_a   8.66501514
_cell_length_b   9.61849255
_cell_length_c   8.66501544
_cell_angle_alpha   116.77161017
_cell_angle_beta   59.99999558
_cell_angle_gamma   116.77161285
_symmetry_Int_Tables_number   1
_chemical_formula_structural   Sn2(SO4)3
_chemical_formula_sum   'Sn4 S6 O24'
_cell_volume   534.17337411
_cell_formula_units_Z   2
loop_
 _symmetry_equiv_pos_site_id
 _symmetry_equiv_pos_as_xyz
  1  'x, y, z'
loop_
 _atom_site_type_symbol
 _atom_site_label
 _atom_site_symmetry_multiplicity
 _atom_site_fract_x
 _atom_site_fract_y
 _atom_site_fract_z
 _atom_site_occupancy
  Sn  Sn0  1  0.14109970  0.42329911  0.14109970  1
  Sn  Sn1  1  0.34434336  0.03303108  0.34434336  1
  Sn  Sn2  1  0.65565664  0.96696892  0.65565664  1
  Sn  Sn3  1  0.85890030  0.57670089  0.85890030  1
  S  S4  1  0.05257029  0.23014696  0.44628380  1
  S  S5  1  0.55371620  0.76985304  0.26870813  1
  S  S6  1  0.26870813  0.76985304  0.94742871  1
  S  S7  1  0.73129187  0.23014696  0.05257029  1
  S  S8  1  0.44628380  0.23014696  0.73129187  1
  S  S9  1  0.94742871  0.76985304  0.55371620  1
  O  O10  1  0.22977520  0.89224328  0.14058946  1
  O  O11  1  0.14058946  0.89224328  0.52187862  1
  O  O12  1  0.03954623  0.39108278  0.57550133  1
  O  O13  1  0.13555896  0.22462499  0.24997273  1
  O  O14  1  0.52187862  0.89224328  0.22977520  1
  O  O15  1  0.16090669  0.77537501  0.86444104  1
  O  O16  1  0.42449867  0.60891722  0.22396578  1
  O  O17  1  0.16678280  0.17883742  0.48856959  1
  O  O18  1  0.51143041  0.82116258  0.47651497  1
  O  O19  1  0.22396578  0.60891722  0.96045377  1
  O  O20  1  0.75002727  0.77537501  0.16090669  1
  O  O21  1  0.47651497  0.82116258  0.83321720  1
  O  O22  1  0.52348503  0.17883742  0.16678280  1
  O  O23  1  0.24997273  0.22462499  0.83909331  1
  O  O24  1  0.77603422  0.39108278  0.03954623  1
  O  O25  1  0.48856959  0.17883742  0.52348503  1
  O  O26  1  0.83321720  0.82116258  0.51143041  1
  O  O27  1  0.57550133  0.39108278  0.77603422  1
  O  O28  1  0.83909331  0.22462499  0.13555896  1
  O  O29  1  0.47812138  0.10775672  0.77022480  1
  O  O30  1  0.86444104  0.77537501  0.75002727  1
  O  O31  1  0.96045377  0.60891722  0.42449867  1
  O  O32  1  0.85941054  0.10775672  0.47812138  1
  O  O33  1  0.77022480  0.10775672  0.85941054  1
