# generated using pymatgen
data_CrIrO4
_symmetry_space_group_name_H-M   'P 1'
_cell_length_a   3.11761663
_cell_length_b   5.51244767
_cell_length_c   4.55307924
_cell_angle_alpha   90.85292504
_cell_angle_beta   90.01811888
_cell_angle_gamma   55.53424033
_symmetry_Int_Tables_number   1
_chemical_formula_structural   CrIrO4
_chemical_formula_sum   'Cr1 Ir1 O4'
_cell_volume   64.50230676
_cell_formula_units_Z   1
loop_
 _symmetry_equiv_pos_site_id
 _symmetry_equiv_pos_as_xyz
  1  'x, y, z'
loop_
 _atom_site_type_symbol
 _atom_site_label
 _atom_site_symmetry_multiplicity
 _atom_site_fract_x
 _atom_site_fract_y
 _atom_site_fract_z
 _atom_site_occupancy
  Cr  Cr0  1  0.49996415  0.99954350  0.00039080  1
  Ir  Ir1  1  0.49991700  0.49955954  0.50037679  1
  O  O2  1  0.19659033  0.80297360  0.80525145  1
  O  O3  1  0.19084218  0.30866109  0.68997939  1
  O  O4  1  0.80347361  0.19595227  0.19569481  1
  O  O5  1  0.80898273  0.69046600  0.31080675  1
