# generated using pymatgen
data_Mn2V3Cr(PO4)6
_symmetry_space_group_name_H-M   'P 1'
_cell_length_a   8.62868128
_cell_length_b   8.61557818
_cell_length_c   8.61557817
_cell_angle_alpha   60.00000162
_cell_angle_beta   60.05021967
_cell_angle_gamma   60.05021656
_symmetry_Int_Tables_number   1
_chemical_formula_structural   Mn2V3Cr(PO4)6
_chemical_formula_sum   'Mn2 V3 Cr1 P6 O24'
_cell_volume   453.23926139
_cell_formula_units_Z   1
loop_
 _symmetry_equiv_pos_site_id
 _symmetry_equiv_pos_as_xyz
  1  'x, y, z'
loop_
 _atom_site_type_symbol
 _atom_site_label
 _atom_site_symmetry_multiplicity
 _atom_site_fract_x
 _atom_site_fract_y
 _atom_site_fract_z
 _atom_site_occupancy
  Mn  Mn0  1  0.99925294  0.00024935  0.00024935  1
  Mn  Mn1  1  0.49856818  0.50047694  0.50047694  1
  V  V2  1  0.06721885  0.64426005  0.64426005  1
  V  V3  1  0.43024187  0.85658604  0.85658604  1
  V  V4  1  0.93258327  0.35580524  0.35580524  1
  Cr  Cr5  1  0.57189372  0.14270176  0.14270176  1
  P  P6  1  0.25147276  0.24975660  0.53977420  1
  P  P7  1  0.25147276  0.95899643  0.24975660  1
  P  P8  1  0.25147276  0.53977420  0.95899643  1
  P  P9  1  0.74984126  0.45819458  0.04170524  1
  P  P10  1  0.74984126  0.04170524  0.75025893  1
  P  P11  1  0.74984126  0.75025893  0.45819458  1
  O  O12  1  0.06830492  0.11979284  0.30683104  1
  O  O13  1  0.06830492  0.50507119  0.11979284  1
  O  O14  1  0.06830492  0.30683104  0.50507119  1
  O  O15  1  0.23720603  0.08553750  0.73575936  1
  O  O16  1  0.43169449  0.19614339  0.38179671  1
  O  O17  1  0.25805345  0.41605978  0.56161379  1
  O  O18  1  0.23720603  0.94149710  0.08553750  1
  O  O19  1  0.25805345  0.76427298  0.41605978  1
  O  O20  1  0.56898274  0.61945922  0.00538917  1
  O  O21  1  0.25805345  0.56161379  0.76427298  1
  O  O22  1  0.76519389  0.26472081  0.05647507  1
  O  O23  1  0.56898274  0.00538917  0.80616987  1
  O  O24  1  0.43169449  0.99036541  0.19614339  1
  O  O25  1  0.23720603  0.73575936  0.94149710  1
  O  O26  1  0.73867145  0.44163054  0.23572518  1
  O  O27  1  0.43169449  0.38179671  0.99036541  1
  O  O28  1  0.73867145  0.23572518  0.58397183  1
  O  O29  1  0.76519389  0.05647507  0.91360923  1
  O  O30  1  0.73867145  0.58397183  0.44163054  1
  O  O31  1  0.56898274  0.80616987  0.61945922  1
  O  O32  1  0.76519389  0.91360923  0.26472081  1
  O  O33  1  0.93066039  0.69002522  0.49766947  1
  O  O34  1  0.93066039  0.49766947  0.88164592  1
  O  O35  1  0.93066039  0.88164592  0.69002522  1
