# generated using pymatgen
data_Sr3TeO6
_symmetry_space_group_name_H-M   'P 1'
_cell_length_a   5.91197576
_cell_length_b   6.13200767
_cell_length_c   8.47918984
_cell_angle_alpha   90.00000000
_cell_angle_beta   89.97404283
_cell_angle_gamma   90.00000000
_symmetry_Int_Tables_number   1
_chemical_formula_structural   Sr3TeO6
_chemical_formula_sum   'Sr6 Te2 O12'
_cell_volume   307.38993857
_cell_formula_units_Z   2
loop_
 _symmetry_equiv_pos_site_id
 _symmetry_equiv_pos_as_xyz
  1  'x, y, z'
loop_
 _atom_site_type_symbol
 _atom_site_label
 _atom_site_symmetry_multiplicity
 _atom_site_fract_x
 _atom_site_fract_y
 _atom_site_fract_z
 _atom_site_occupancy
  Sr  Sr0  1  0.00000000  0.50000000  0.50000000  1
  Sr  Sr1  1  0.01387613  0.95191228  0.74603195  1
  Sr  Sr2  1  0.48612387  0.45191228  0.75396805  1
  Sr  Sr3  1  0.50000000  0.00000000  0.00000000  1
  Sr  Sr4  1  0.51387613  0.54808772  0.24603195  1
  Sr  Sr5  1  0.98612387  0.04808772  0.25396805  1
  Te  Te6  1  0.00000000  0.50000000  0.00000000  1
  Te  Te7  1  0.50000000  0.00000000  0.50000000  1
  O  O8  1  0.10046472  0.45159916  0.21787704  1
  O  O9  1  0.16928533  0.23782045  0.93536774  1
  O  O10  1  0.23153438  0.17704487  0.54276108  1
  O  O11  1  0.26846562  0.67704487  0.95723892  1
  O  O12  1  0.33071467  0.73782045  0.56463226  1
  O  O13  1  0.39953528  0.95159916  0.28212296  1
  O  O14  1  0.60046472  0.04840084  0.71787704  1
  O  O15  1  0.66928533  0.26217955  0.43536774  1
  O  O16  1  0.73153438  0.32295513  0.04276108  1
  O  O17  1  0.76846562  0.82295513  0.45723892  1
  O  O18  1  0.83071467  0.76217955  0.06463226  1
  O  O19  1  0.89953528  0.54840084  0.78212296  1
