# generated using pymatgen
data_Ho2(SO4)3
_symmetry_space_group_name_H-M   'P 1'
_cell_length_a   9.53388779
_cell_length_b   9.53386387
_cell_length_c   9.53377042
_cell_angle_alpha   57.93135882
_cell_angle_beta   57.93154170
_cell_angle_gamma   57.93138884
_symmetry_Int_Tables_number   1
_chemical_formula_structural   Ho2(SO4)3
_chemical_formula_sum   'Ho4 S6 O24'
_cell_volume   583.67110410
_cell_formula_units_Z   2
loop_
 _symmetry_equiv_pos_site_id
 _symmetry_equiv_pos_as_xyz
  1  'x, y, z'
loop_
 _atom_site_type_symbol
 _atom_site_label
 _atom_site_symmetry_multiplicity
 _atom_site_fract_x
 _atom_site_fract_y
 _atom_site_fract_z
 _atom_site_occupancy
  Ho  Ho0  1  0.64390546  0.64390907  0.64391641  1
  Ho  Ho1  1  0.35609237  0.35609470  0.35608263  1
  Ho  Ho2  1  0.14386264  0.14386559  0.14387224  1
  Ho  Ho3  1  0.85612530  0.85614029  0.85613401  1
  S  S4  1  0.03748249  0.74984924  0.46263120  1
  S  S5  1  0.53736797  0.96251161  0.25015590  1
  S  S6  1  0.25014869  0.53737081  0.96250927  1
  S  S7  1  0.74984826  0.46263067  0.03748736  1
  S  S8  1  0.46262398  0.03749289  0.74984501  1
  S  S9  1  0.96251174  0.25015721  0.53737147  1
  O  O10  1  0.06431996  0.90696256  0.30337375  1
  O  O11  1  0.00870630  0.77449218  0.61823476  1
  O  O12  1  0.38176584  0.99128848  0.22551305  1
  O  O13  1  0.09302968  0.69662356  0.93567431  1
  O  O14  1  0.19650306  0.59277949  0.43600654  1
  O  O15  1  0.49147056  0.88178565  0.72557106  1
  O  O16  1  0.27442669  0.50853781  0.11820966  1
  O  O17  1  0.56399617  0.80349412  0.40721780  1
  O  O18  1  0.69662390  0.93567877  0.09303917  1
  O  O19  1  0.40721211  0.56400224  0.80348384  1
  O  O20  1  0.22551088  0.38176637  0.99128991  1
  O  O21  1  0.11821586  0.27443314  0.50852597  1
  O  O22  1  0.88178056  0.72557311  0.49147452  1
  O  O23  1  0.77448649  0.61823559  0.00871336  1
  O  O24  1  0.59278356  0.43599981  0.19651145  1
  O  O25  1  0.30337307  0.06433551  0.90695703  1
  O  O26  1  0.43600121  0.19650885  0.59277837  1
  O  O27  1  0.72557080  0.49147071  0.88178666  1
  O  O28  1  0.50852296  0.11821962  0.27443040  1
  O  O29  1  0.80349364  0.40722557  0.56399905  1
  O  O30  1  0.90696313  0.30337972  0.06432496  1
  O  O31  1  0.61823127  0.00872312  0.77447778  1
  O  O32  1  0.99127907  0.22551770  0.38177126  1
  O  O33  1  0.93566532  0.09304323  0.69663185  1
