# generated using pymatgen
data_PrOF
_symmetry_space_group_name_H-M   'P 1'
_cell_length_a   7.09718667
_cell_length_b   7.09718667
_cell_length_c   7.09718681
_cell_angle_alpha   32.85355415
_cell_angle_beta   32.85355415
_cell_angle_gamma   32.85354839
_symmetry_Int_Tables_number   1
_chemical_formula_structural   PrOF
_chemical_formula_sum   'Pr2 O2 F2'
_cell_volume   93.60371895
_cell_formula_units_Z   2
loop_
 _symmetry_equiv_pos_site_id
 _symmetry_equiv_pos_as_xyz
  1  'x, y, z'
loop_
 _atom_site_type_symbol
 _atom_site_label
 _atom_site_symmetry_multiplicity
 _atom_site_fract_x
 _atom_site_fract_y
 _atom_site_fract_z
 _atom_site_occupancy
  Pr  Pr0  1  0.24146679  0.24146679  0.24146679  1
  Pr  Pr1  1  0.75853321  0.75853321  0.75853321  1
  O  O2  1  0.12225532  0.12225532  0.12225532  1
  O  O3  1  0.87774468  0.87774468  0.87774468  1
  F  F4  1  0.37061444  0.37061444  0.37061444  1
  F  F5  1  0.62938556  0.62938556  0.62938556  1
