# generated using pymatgen
data_Na2CrPCO7
_symmetry_space_group_name_H-M   'P 1'
_cell_length_a   8.97013336
_cell_length_b   6.53939033
_cell_length_c   5.21149774
_cell_angle_alpha   90.00000000
_cell_angle_beta   89.23872435
_cell_angle_gamma   90.00000000
_symmetry_Int_Tables_number   1
_chemical_formula_structural   Na2CrPCO7
_chemical_formula_sum   'Na4 Cr2 P2 C2 O14'
_cell_volume   305.67532218
_cell_formula_units_Z   2
loop_
 _symmetry_equiv_pos_site_id
 _symmetry_equiv_pos_as_xyz
  1  'x, y, z'
loop_
 _atom_site_type_symbol
 _atom_site_label
 _atom_site_symmetry_multiplicity
 _atom_site_fract_x
 _atom_site_fract_y
 _atom_site_fract_z
 _atom_site_occupancy
  Na  Na0  1  0.23504470  0.49357935  0.23531279  1
  Na  Na1  1  0.23504470  0.00642065  0.23531279  1
  Na  Na2  1  0.76495530  0.50642065  0.76468721  1
  Na  Na3  1  0.76495530  0.99357935  0.76468721  1
  Cr  Cr4  1  0.34914687  0.75000000  0.78270537  1
  Cr  Cr5  1  0.65085313  0.25000000  0.21729463  1
  P  P6  1  0.42413761  0.25000000  0.71163736  1
  P  P7  1  0.57586239  0.75000000  0.28836264  1
  C  C8  1  0.07630043  0.75000000  0.72731458  1
  C  C9  1  0.92369957  0.25000000  0.27268542  1
  O  O10  1  0.06188895  0.25000000  0.29719038  1
  O  O11  1  0.14366077  0.75000000  0.95039342  1
  O  O12  1  0.17283548  0.75000000  0.53282684  1
  O  O13  1  0.33220069  0.05938161  0.78996181  1
  O  O14  1  0.33220069  0.44061839  0.78996181  1
  O  O15  1  0.42280845  0.75000000  0.15159709  1
  O  O16  1  0.45242639  0.25000000  0.41411954  1
  O  O17  1  0.54757361  0.75000000  0.58588046  1
  O  O18  1  0.57719155  0.25000000  0.84840291  1
  O  O19  1  0.66779931  0.55938161  0.21003819  1
  O  O20  1  0.66779931  0.94061839  0.21003819  1
  O  O21  1  0.82716452  0.25000000  0.46717316  1
  O  O22  1  0.85633923  0.25000000  0.04960658  1
  O  O23  1  0.93811105  0.75000000  0.70280962  1
