# generated using pymatgen
data_Rb3FeO3
_symmetry_space_group_name_H-M   'P 1'
_cell_length_a   11.17876426
_cell_length_b   7.01629294
_cell_length_c   7.71717094
_cell_angle_alpha   90.00000000
_cell_angle_beta   95.56050440
_cell_angle_gamma   90.00000000
_symmetry_Int_Tables_number   1
_chemical_formula_structural   Rb3FeO3
_chemical_formula_sum   'Rb12 Fe4 O12'
_cell_volume   602.43640080
_cell_formula_units_Z   4
loop_
 _symmetry_equiv_pos_site_id
 _symmetry_equiv_pos_as_xyz
  1  'x, y, z'
loop_
 _atom_site_type_symbol
 _atom_site_label
 _atom_site_symmetry_multiplicity
 _atom_site_fract_x
 _atom_site_fract_y
 _atom_site_fract_z
 _atom_site_occupancy
  Rb  Rb0  1  0.07362087  0.31853004  0.64327495  1
  Rb  Rb1  1  0.15258651  0.62830559  0.05136776  1
  Rb  Rb2  1  0.19465221  0.80910584  0.63583829  1
  Rb  Rb3  1  0.30534779  0.30910584  0.36416171  1
  Rb  Rb4  1  0.34741349  0.12830559  0.94863224  1
  Rb  Rb5  1  0.42637913  0.81853004  0.35672505  1
  Rb  Rb6  1  0.57362087  0.18146996  0.64327495  1
  Rb  Rb7  1  0.65258651  0.87169441  0.05136776  1
  Rb  Rb8  1  0.69465221  0.69089416  0.63583829  1
  Rb  Rb9  1  0.80534779  0.19089416  0.36416171  1
  Rb  Rb10  1  0.84741349  0.37169441  0.94863224  1
  Rb  Rb11  1  0.92637913  0.68146996  0.35672505  1
  Fe  Fe12  1  0.06366403  0.08146996  0.15386658  1
  Fe  Fe13  1  0.43633597  0.58146996  0.84613342  1
  Fe  Fe14  1  0.56366403  0.41853004  0.15386658  1
  Fe  Fe15  1  0.93633597  0.91853004  0.84613342  1
  O  O16  1  0.04016653  0.32877876  0.24144872  1
  O  O17  1  0.09324684  0.04889306  0.90340329  1
  O  O18  1  0.17862364  0.94435670  0.29631351  1
  O  O19  1  0.32137636  0.44435670  0.70368649  1
  O  O20  1  0.40675316  0.54889306  0.09659671  1
  O  O21  1  0.45983347  0.82877876  0.75855128  1
  O  O22  1  0.54016653  0.17122124  0.24144872  1
  O  O23  1  0.59324684  0.45110694  0.90340329  1
  O  O24  1  0.67862364  0.55564330  0.29631351  1
  O  O25  1  0.82137636  0.05564330  0.70368649  1
  O  O26  1  0.90675316  0.95110694  0.09659671  1
  O  O27  1  0.95983347  0.67122124  0.75855128  1
