# generated using pymatgen
data_P2H17C4NO8
_symmetry_space_group_name_H-M   'P 1'
_cell_length_a   8.19781769
_cell_length_b   8.72042414
_cell_length_c   16.92537097
_cell_angle_alpha   93.10893753
_cell_angle_beta   90.00000000
_cell_angle_gamma   90.00000000
_symmetry_Int_Tables_number   1
_chemical_formula_structural   P2H17C4NO8
_chemical_formula_sum   'P8 H68 C16 N4 O32'
_cell_volume   1208.18768606
_cell_formula_units_Z   4
loop_
 _symmetry_equiv_pos_site_id
 _symmetry_equiv_pos_as_xyz
  1  'x, y, z'
loop_
 _atom_site_type_symbol
 _atom_site_label
 _atom_site_symmetry_multiplicity
 _atom_site_fract_x
 _atom_site_fract_y
 _atom_site_fract_z
 _atom_site_occupancy
  P  P0  1  0.06305075  0.27141102  0.96700229  1
  P  P1  1  0.18028389  0.88938594  0.15479936  1
  P  P2  1  0.81971611  0.11061406  0.84520064  1
  P  P3  1  0.68028389  0.61061406  0.34520064  1
  P  P4  1  0.43694925  0.77141102  0.46700229  1
  P  P5  1  0.93694925  0.72858898  0.03299771  1
  P  P6  1  0.31971611  0.38938594  0.65479936  1
  P  P7  1  0.56305075  0.22858898  0.53299771  1
  H  H8  1  0.96883668  0.51139910  0.16094591  1
  H  H9  1  0.58388652  0.66779407  0.71665265  1
  H  H10  1  0.49293531  0.92184195  0.86152215  1
  H  H11  1  0.56453448  0.60688485  0.18011197  1
  H  H12  1  0.73402318  0.81733783  0.70922871  1
  H  H13  1  0.76597682  0.31733783  0.20922871  1
  H  H14  1  0.06434217  0.39927398  0.46225408  1
  H  H15  1  0.79368810  0.02392676  0.11077919  1
  H  H16  1  0.39568169  0.39047753  0.91028592  1
  H  H17  1  0.53116332  0.01139910  0.66094591  1
  H  H18  1  0.99293531  0.57815805  0.63847785  1
  H  H19  1  0.46883668  0.98860090  0.33905409  1
  H  H20  1  0.67641273  0.70135356  0.58146818  1
  H  H21  1  0.26597682  0.18266217  0.29077129  1
  H  H22  1  0.32926972  0.05007261  0.62876817  1
  H  H23  1  0.79144089  0.63464014  0.74363644  1
  H  H24  1  0.08388652  0.83220593  0.78334735  1
  H  H25  1  0.17641273  0.79864644  0.91853182  1
  H  H26  1  0.50706469  0.07815805  0.13847785  1
  H  H27  1  0.23402318  0.68266217  0.79077129  1
  H  H28  1  0.91611348  0.16779407  0.21665265  1
  H  H29  1  0.17073028  0.55007261  0.12876817  1
  H  H30  1  0.82078132  0.72993824  0.21049396  1
  H  H31  1  0.32358727  0.29864644  0.41853182  1
  H  H32  1  0.00706469  0.42184195  0.36152215  1
  H  H33  1  0.17921868  0.27006176  0.78950604  1
  H  H34  1  0.56434217  0.10072602  0.03774592  1
  H  H35  1  0.09689303  0.23982052  0.61705804  1
  H  H36  1  0.14966059  0.51426836  0.97160632  1
  H  H37  1  0.43546552  0.39311515  0.81988803  1
  H  H38  1  0.85918599  0.92407208  0.93504874  1
  H  H39  1  0.82358727  0.20135356  0.08146818  1
  H  H40  1  0.03116332  0.48860090  0.83905409  1
  H  H41  1  0.89151880  0.39110451  0.77320052  1
  H  H42  1  0.06453448  0.89311515  0.31988803  1
  H  H43  1  0.59689303  0.26017948  0.88294196  1
  H  H44  1  0.70855911  0.13464014  0.24363644  1
  H  H45  1  0.10431831  0.89047753  0.41028592  1
  H  H46  1  0.43565783  0.89927398  0.96225408  1
  H  H47  1  0.35918599  0.57592792  0.56495126  1
  H  H48  1  0.20631190  0.97607324  0.88922081  1
  H  H49  1  0.45983443  0.73319404  0.89628020  1
  H  H50  1  0.85033941  0.48573164  0.02839368  1
  H  H51  1  0.29368810  0.47607324  0.38922081  1
  H  H52  1  0.64081401  0.42407208  0.43504874  1
  H  H53  1  0.64966059  0.98573164  0.52839368  1
  H  H54  1  0.60848120  0.89110451  0.27320052  1
  H  H55  1  0.67073028  0.94992739  0.37123183  1
  H  H56  1  0.20855911  0.36535986  0.25636356  1
  H  H57  1  0.29144089  0.86535986  0.75636356  1
  H  H58  1  0.95983443  0.76680596  0.60371980  1
  H  H59  1  0.35033941  0.01426836  0.47160632  1
  H  H60  1  0.54016557  0.26680596  0.10371980  1
  H  H61  1  0.41611348  0.33220593  0.28334735  1
  H  H62  1  0.04016557  0.23319404  0.39628020  1
  H  H63  1  0.82926972  0.44992739  0.87123183  1
  H  H64  1  0.90310697  0.76017948  0.38294196  1
  H  H65  1  0.39151880  0.10889549  0.72679948  1
  H  H66  1  0.10848120  0.60889549  0.22679948  1
  H  H67  1  0.93546552  0.10688485  0.68011197  1
  H  H68  1  0.32078132  0.77006176  0.28950604  1
  H  H69  1  0.40310697  0.73982052  0.11705804  1
  H  H70  1  0.89568169  0.10952247  0.58971408  1
  H  H71  1  0.93565783  0.60072602  0.53774592  1
  H  H72  1  0.70631190  0.52392676  0.61077919  1
  H  H73  1  0.14081401  0.07592792  0.06495126  1
  H  H74  1  0.67921868  0.22993824  0.71049396  1
  H  H75  1  0.60431831  0.60952247  0.08971408  1
  C  C76  1  0.93151061  0.40471118  0.83509566  1
  C  C77  1  0.78876842  0.19333814  0.20332200  1
  C  C78  1  0.51060789  0.74958470  0.36308045  1
  C  C79  1  0.01060789  0.75041530  0.13691955  1
  C  C80  1  0.43151061  0.09528882  0.66490434  1
  C  C81  1  0.21123158  0.80666186  0.79667800  1
  C  C82  1  0.92093502  0.64639827  0.59876831  1
  C  C83  1  0.07906498  0.35360173  0.40123169  1
  C  C84  1  0.98939211  0.24958470  0.86308045  1
  C  C85  1  0.42093502  0.85360173  0.90123169  1
  C  C86  1  0.71123158  0.69333814  0.70332200  1
  C  C87  1  0.57906498  0.14639827  0.09876831  1
  C  C88  1  0.28876842  0.30666186  0.29667800  1
  C  C89  1  0.56848939  0.90471118  0.33509566  1
  C  C90  1  0.48939211  0.25041530  0.63691955  1
  C  C91  1  0.06848939  0.59528882  0.16490434  1
  N  N92  1  0.74558509  0.63658194  0.62055354  1
  N  N93  1  0.75441491  0.13658194  0.12055354  1
  N  N94  1  0.24558509  0.86341806  0.87944646  1
  N  N95  1  0.25441491  0.36341806  0.37944646  1
  O  O96  1  0.92371169  0.32334474  0.02240480  1
  O  O97  1  0.37770784  0.68570511  0.31655410  1
  O  O98  1  0.30214940  0.90476767  0.46507436  1
  O  O99  1  0.85001614  0.87587070  0.01353786  1
  O  O100  1  0.33068726  0.83525480  0.10342250  1
  O  O101  1  0.01168823  0.89100431  0.37287927  1
  O  O102  1  0.64998386  0.37587070  0.51353786  1
  O  O103  1  0.87770784  0.81429489  0.18344590  1
  O  O104  1  0.71096544  0.59923492  0.25678109  1
  O  O105  1  0.87044917  0.95078556  0.87431866  1
  O  O106  1  0.62229216  0.31429489  0.68344590  1
  O  O107  1  0.83068726  0.66474520  0.39657750  1
  O  O108  1  0.14998386  0.12412930  0.98646214  1
  O  O109  1  0.80214940  0.59523233  0.03492564  1
  O  O110  1  0.12955083  0.04921444  0.12568134  1
  O  O111  1  0.37044917  0.54921444  0.62568134  1
  O  O112  1  0.19785060  0.40476767  0.96507436  1
  O  O113  1  0.07628831  0.67665526  0.97759520  1
  O  O114  1  0.57628831  0.82334474  0.52240480  1
  O  O115  1  0.98831177  0.10899569  0.62712073  1
  O  O116  1  0.12229216  0.18570511  0.81655410  1
  O  O117  1  0.51168823  0.60899569  0.12712073  1
  O  O118  1  0.28903456  0.40076508  0.74321891  1
  O  O119  1  0.21096544  0.90076508  0.24321891  1
  O  O120  1  0.42371169  0.17665526  0.47759520  1
  O  O121  1  0.16931274  0.33525480  0.60342250  1
  O  O122  1  0.78903456  0.09923492  0.75678109  1
  O  O123  1  0.35001614  0.62412930  0.48646214  1
  O  O124  1  0.48831177  0.39100431  0.87287927  1
  O  O125  1  0.66931274  0.16474520  0.89657750  1
  O  O126  1  0.69785060  0.09523233  0.53492564  1
  O  O127  1  0.62955083  0.45078556  0.37431866  1
