# generated using pymatgen
data_LiTiCrO4
_symmetry_space_group_name_H-M   'P 1'
_cell_length_a   5.99516325
_cell_length_b   5.94410614
_cell_length_c   5.94410614
_cell_angle_alpha   60.03987805
_cell_angle_beta   59.71544350
_cell_angle_gamma   59.71544350
_symmetry_Int_Tables_number   1
_chemical_formula_structural   LiTiCrO4
_chemical_formula_sum   'Li2 Ti2 Cr2 O8'
_cell_volume   149.17887239
_cell_formula_units_Z   2
loop_
 _symmetry_equiv_pos_site_id
 _symmetry_equiv_pos_as_xyz
  1  'x, y, z'
loop_
 _atom_site_type_symbol
 _atom_site_label
 _atom_site_symmetry_multiplicity
 _atom_site_fract_x
 _atom_site_fract_y
 _atom_site_fract_z
 _atom_site_occupancy
  Li  Li0  1  0.12706349  0.12293651  0.12293651  1
  Li  Li1  1  0.87293651  0.87706349  0.87706349  1
  Ti  Ti2  1  0.50000000  0.00000000  0.50000000  1
  Ti  Ti3  1  0.50000000  0.50000000  0.00000000  1
  Cr  Cr4  1  0.00000000  0.50000000  0.50000000  1
  Cr  Cr5  1  0.50000000  0.50000000  0.50000000  1
  O  O6  1  0.27139757  0.25744473  0.25744473  1
  O  O7  1  0.71371197  0.25744473  0.25744473  1
  O  O8  1  0.26610181  0.71126878  0.25652761  1
  O  O9  1  0.26610181  0.25652761  0.71126878  1
  O  O10  1  0.73389819  0.28873122  0.74347239  1
  O  O11  1  0.73389819  0.74347239  0.28873122  1
  O  O12  1  0.28628803  0.74255527  0.74255527  1
  O  O13  1  0.72860243  0.74255527  0.74255527  1
