# generated using pymatgen
data_Mn(Cu3O4)2
_symmetry_space_group_name_H-M   'P 1'
_cell_length_a   6.47507629
_cell_length_b   6.47050739
_cell_length_c   6.47404562
_cell_angle_alpha   60.08449066
_cell_angle_beta   60.00742105
_cell_angle_gamma   60.07391902
_symmetry_Int_Tables_number   1
_chemical_formula_structural   Mn(Cu3O4)2
_chemical_formula_sum   'Mn1 Cu6 O8'
_cell_volume   192.03804669
_cell_formula_units_Z   1
loop_
 _symmetry_equiv_pos_site_id
 _symmetry_equiv_pos_as_xyz
  1  'x, y, z'
loop_
 _atom_site_type_symbol
 _atom_site_label
 _atom_site_symmetry_multiplicity
 _atom_site_fract_x
 _atom_site_fract_y
 _atom_site_fract_z
 _atom_site_occupancy
  Mn  Mn0  1  0.99998237  0.00000326  0.00000920  1
  Cu  Cu1  1  0.50000955  0.99999627  0.99999422  1
  Cu  Cu2  1  0.49999829  0.50000835  0.99999206  1
  Cu  Cu3  1  0.49999251  0.00000315  0.50000342  1
  Cu  Cu4  1  0.00000157  0.50000765  0.99999826  1
  Cu  Cu5  1  0.00000190  -0.00000063  0.50000835  1
  Cu  Cu6  1  0.00000043  0.49999056  0.50000220  1
  O  O7  1  0.57742808  0.14093874  0.14119740  1
  O  O8  1  0.14060552  0.14115800  0.14075533  1
  O  O9  1  0.14089175  0.57732274  0.14084591  1
  O  O10  1  0.14117315  0.14086466  0.57739914  1
  O  O11  1  0.85911148  0.42267228  0.85915788  1
  O  O12  1  0.85883128  0.85913504  0.42259576  1
  O  O13  1  0.85939869  0.85883833  0.85923993  1
  O  O14  1  0.42257343  0.85906160  0.85880093  1
