# generated using pymatgen
data_Eu2Mn2O7
_symmetry_space_group_name_H-M   'P 1'
_cell_length_a   7.18218238
_cell_length_b   7.19286386
_cell_length_c   7.18043310
_cell_angle_alpha   59.97383822
_cell_angle_beta   60.03782505
_cell_angle_gamma   59.98143243
_symmetry_Int_Tables_number   1
_chemical_formula_structural   Eu2Mn2O7
_chemical_formula_sum   'Eu4 Mn4 O14'
_cell_volume   262.28347356
_cell_formula_units_Z   2
loop_
 _symmetry_equiv_pos_site_id
 _symmetry_equiv_pos_as_xyz
  1  'x, y, z'
loop_
 _atom_site_type_symbol
 _atom_site_label
 _atom_site_symmetry_multiplicity
 _atom_site_fract_x
 _atom_site_fract_y
 _atom_site_fract_z
 _atom_site_occupancy
  Eu  Eu0  1  0.49999822  -0.00000454  0.49999066  1
  Eu  Eu1  1  0.50000709  0.50000908  0.99998242  1
  Eu  Eu2  1  -0.00001581  0.49998962  0.50001258  1
  Eu  Eu3  1  0.50000633  0.50000309  0.49999794  1
  Mn  Mn4  1  -0.00002924  0.00000848  0.00001366  1
  Mn  Mn5  1  0.50005550  -0.00000691  0.99998967  1
  Mn  Mn6  1  0.00000807  0.99997317  0.50002497  1
  Mn  Mn7  1  -0.00001020  0.49999999  -0.00001207  1
  O  O8  1  0.67415852  0.07588807  0.07615315  1
  O  O9  1  0.92372906  0.32640221  0.32577956  1
  O  O10  1  0.07623111  0.07589311  0.67420099  1
  O  O11  1  0.67417144  0.67373123  0.07618340  1
  O  O12  1  0.37502688  0.37503266  0.37501828  1
  O  O13  1  0.67413602  0.07577314  0.67434160  1
  O  O14  1  0.07663064  0.67339909  0.07653015  1
  O  O15  1  0.32584191  0.92423937  0.32565774  1
  O  O16  1  0.92377039  0.92411155  0.32579669  1
  O  O17  1  0.32582020  0.32627015  0.92381381  1
  O  O18  1  0.62497649  0.62496964  0.62497347  1
  O  O19  1  0.92337407  0.32660451  0.92348366  1
  O  O20  1  0.07627178  0.67359664  0.67422378  1
  O  O21  1  0.32584152  0.92411663  0.92384389  1
