# generated using pymatgen
data_V2(SO4)3
_symmetry_space_group_name_H-M   'P 1'
_cell_length_a   8.50329380
_cell_length_b   8.68476245
_cell_length_c   11.96059735
_cell_angle_alpha   90.00000000
_cell_angle_beta   89.44156292
_cell_angle_gamma   90.00000000
_symmetry_Int_Tables_number   1
_chemical_formula_structural   V2(SO4)3
_chemical_formula_sum   'V8 S12 O48'
_cell_volume   883.23723725
_cell_formula_units_Z   4
loop_
 _symmetry_equiv_pos_site_id
 _symmetry_equiv_pos_as_xyz
  1  'x, y, z'
loop_
 _atom_site_type_symbol
 _atom_site_label
 _atom_site_symmetry_multiplicity
 _atom_site_fract_x
 _atom_site_fract_y
 _atom_site_fract_z
 _atom_site_occupancy
  V  V0  1  0.24891996  0.96740442  0.38276462  1
  V  V1  1  0.24829963  0.53781481  0.61629850  1
  V  V2  1  0.25108004  0.46740442  0.11723538  1
  V  V3  1  0.25170037  0.03781481  0.88370150  1
  V  V4  1  0.74829963  0.96218519  0.11629850  1
  V  V5  1  0.74891996  0.53259558  0.88276462  1
  V  V6  1  0.75170037  0.46218519  0.38370150  1
  V  V7  1  0.75108004  0.03259558  0.61723538  1
  S  S8  1  0.03400860  0.25209224  0.50745395  1
  S  S9  1  0.10094382  0.11789506  0.14886493  1
  S  S10  1  0.10904380  0.38871934  0.85518439  1
  S  S11  1  0.39095620  0.88871934  0.64481561  1
  S  S12  1  0.39905618  0.61789506  0.35113507  1
  S  S13  1  0.46599140  0.75209224  0.99254605  1
  S  S14  1  0.53400860  0.24790776  0.00745395  1
  S  S15  1  0.60094382  0.38210494  0.64886493  1
  S  S16  1  0.60904380  0.11128066  0.35518439  1
  S  S17  1  0.89095620  0.61128066  0.14481561  1
  S  S18  1  0.89905618  0.88210494  0.85113507  1
  S  S19  1  0.96599140  0.74790776  0.49254605  1
  O  O20  1  0.05012982  0.63319179  0.56220472  1
  O  O21  1  0.06331784  0.61894484  0.12085805  1
  O  O22  1  0.06528690  0.92224195  0.82615552  1
  O  O23  1  0.07183110  0.80952126  0.40292244  1
  O  O24  1  0.08820082  0.12970782  0.43121664  1
  O  O25  1  0.11690698  0.28459224  0.17161348  1
  O  O26  1  0.13997478  0.08169116  0.03204806  1
  O  O27  1  0.14091851  0.50390183  0.76831435  1
  O  O28  1  0.16934861  0.32704277  0.56130245  1
  O  O29  1  0.16441486  0.23448310  0.81759369  1
  O  O30  1  0.19668522  0.43286485  0.95670853  1
  O  O31  1  0.20609633  0.02591548  0.22256553  1
  O  O32  1  0.29390367  0.52591548  0.27743447  1
  O  O33  1  0.30331478  0.93286485  0.54329147  1
  O  O34  1  0.33558514  0.73448310  0.68240631  1
  O  O35  1  0.33065139  0.82704277  0.93869755  1
  O  O36  1  0.36002522  0.58169116  0.46795194  1
  O  O37  1  0.35908149  0.00390183  0.73168565  1
  O  O38  1  0.38309302  0.78459224  0.32838652  1
  O  O39  1  0.41179918  0.62970782  0.06878336  1
  O  O40  1  0.42816890  0.30952026  0.09707756  1
  O  O41  1  0.43668216  0.11894484  0.37914195  1
  O  O42  1  0.43471310  0.42224195  0.67384448  1
  O  O43  1  0.44987018  0.13319179  0.93779528  1
  O  O44  1  0.55012982  0.86680821  0.06220472  1
  O  O45  1  0.56528690  0.57775805  0.32615552  1
  O  O46  1  0.56331784  0.88105516  0.62085805  1
  O  O47  1  0.57183110  0.69047874  0.90292244  1
  O  O48  1  0.58820082  0.37029218  0.93121664  1
  O  O49  1  0.61690698  0.21540776  0.67161348  1
  O  O50  1  0.64091851  0.99609817  0.26831435  1
  O  O51  1  0.63997478  0.41830884  0.53204806  1
  O  O52  1  0.66934861  0.17295723  0.06130245  1
  O  O53  1  0.66441486  0.26551690  0.31759369  1
  O  O54  1  0.69668522  0.06713515  0.45670853  1
  O  O55  1  0.70609633  0.47408452  0.72256553  1
  O  O56  1  0.79390367  0.97408452  0.77743447  1
  O  O57  1  0.80331478  0.56713515  0.04329147  1
  O  O58  1  0.83558514  0.76551690  0.18240631  1
  O  O59  1  0.83065139  0.67295723  0.43869755  1
  O  O60  1  0.85908149  0.49609817  0.23168565  1
  O  O61  1  0.86002522  0.91830884  0.96795194  1
  O  O62  1  0.88309302  0.71540776  0.82838652  1
  O  O63  1  0.91179918  0.87029218  0.56878336  1
  O  O64  1  0.92816890  0.19047974  0.59707756  1
  O  O65  1  0.93471310  0.07775805  0.17384448  1
  O  O66  1  0.93668216  0.38105516  0.87914195  1
  O  O67  1  0.94987018  0.36680821  0.43779528  1
