# generated using pymatgen
data_TmAsO4
_symmetry_space_group_name_H-M   'P 1'
_cell_length_a   5.90904255
_cell_length_b   5.90904255
_cell_length_c   5.90904255
_cell_angle_alpha   106.55008884
_cell_angle_beta   106.54312297
_cell_angle_gamma   115.49355980
_symmetry_Int_Tables_number   1
_chemical_formula_structural   TmAsO4
_chemical_formula_sum   'Tm2 As2 O8'
_cell_volume   157.49910742
_cell_formula_units_Z   2
loop_
 _symmetry_equiv_pos_site_id
 _symmetry_equiv_pos_as_xyz
  1  'x, y, z'
loop_
 _atom_site_type_symbol
 _atom_site_label
 _atom_site_symmetry_multiplicity
 _atom_site_fract_x
 _atom_site_fract_y
 _atom_site_fract_z
 _atom_site_occupancy
  Tm  Tm0  1  0.87503049  0.12503049  0.75000000  1
  Tm  Tm1  1  0.12496951  0.87496951  0.25000000  1
  As  As2  1  0.62510321  0.37510321  0.25000000  1
  As  As3  1  0.37489679  0.62489679  0.75000000  1
  O  O4  1  0.80530648  0.37276123  0.06745475  1
  O  O5  1  0.26215184  0.19475512  0.06739672  1
  O  O6  1  0.62735840  0.19475512  0.43260328  1
  O  O7  1  0.80530648  0.73785173  0.43254525  1
  O  O8  1  0.19469352  0.26214827  0.56745475  1
  O  O9  1  0.37264160  0.80524488  0.56739672  1
  O  O10  1  0.73784816  0.80524488  0.93260328  1
  O  O11  1  0.19469352  0.62723877  0.93254525  1
