# generated using pymatgen
data_LiNbFeO4
_symmetry_space_group_name_H-M   'P 1'
_cell_length_a   6.28735658
_cell_length_b   6.28763321
_cell_length_c   8.40819170
_cell_angle_alpha   89.98972295
_cell_angle_beta   90.00536857
_cell_angle_gamma   90.00010221
_symmetry_Int_Tables_number   1
_chemical_formula_structural   LiNbFeO4
_chemical_formula_sum   'Li4 Nb4 Fe4 O16'
_cell_volume   332.39760566
_cell_formula_units_Z   4
loop_
 _symmetry_equiv_pos_site_id
 _symmetry_equiv_pos_as_xyz
  1  'x, y, z'
loop_
 _atom_site_type_symbol
 _atom_site_label
 _atom_site_symmetry_multiplicity
 _atom_site_fract_x
 _atom_site_fract_y
 _atom_site_fract_z
 _atom_site_occupancy
  Li  Li0  1  0.99998175  0.22019716  0.99998589  1
  Li  Li1  1  -0.00000916  0.77976737  0.50000542  1
  Li  Li2  1  0.22019435  0.99997799  0.24999800  1
  Li  Li3  1  0.77975740  -0.00000367  0.75000868  1
  Nb  Nb4  1  0.21471957  0.50000307  0.24998391  1
  Nb  Nb5  1  0.50001574  0.21463705  -0.00006376  1
  Nb  Nb6  1  0.50001975  0.78533636  0.50002887  1
  Nb  Nb7  1  0.78535345  0.49997211  0.74997345  1
  Fe  Fe8  1  0.25967966  0.25983980  0.62480764  1
  Fe  Fe9  1  0.25970882  0.74008398  0.87500240  1
  Fe  Fe10  1  0.74003458  0.25978683  0.37491741  1
  Fe  Fe11  1  0.74025284  0.74010332  0.12507337  1
  O  O12  1  0.02391867  0.26554658  0.25684859  1
  O  O13  1  0.02369354  0.73438466  0.24321182  1
  O  O14  1  0.26550581  0.02391165  0.99319433  1
  O  O15  1  0.26549457  0.97612757  0.50688035  1
  O  O16  1  0.26803284  0.47904898  0.01500933  1
  O  O17  1  0.26811726  0.52099114  0.48506340  1
  O  O18  1  0.47903837  0.26801610  0.23507555  1
  O  O19  1  0.47887569  0.73209697  0.26495034  1
  O  O20  1  0.52110299  0.26813244  0.76500972  1
  O  O21  1  0.52106532  0.73197529  0.73504598  1
  O  O22  1  0.73199322  0.52108028  0.51495899  1
  O  O23  1  0.73208298  0.47898190  0.98502888  1
  O  O24  1  0.73440115  0.02377562  0.00680302  1
  O  O25  1  0.73444684  0.97624916  0.49320830  1
  O  O26  1  0.97624486  0.26553270  0.74321531  1
  O  O27  1  0.97627712  0.73444760  0.75677480  1
