# generated using pymatgen
data_Li6Hf2O7
_symmetry_space_group_name_H-M   'P 1'
_cell_length_a   6.02722874
_cell_length_b   6.02722874
_cell_length_c   10.20055589
_cell_angle_alpha   81.05459529
_cell_angle_beta   98.94540471
_cell_angle_gamma   120.32638740
_symmetry_Int_Tables_number   1
_chemical_formula_structural   Li6Hf2O7
_chemical_formula_sum   'Li12 Hf4 O14'
_cell_volume   314.67345727
_cell_formula_units_Z   2
loop_
 _symmetry_equiv_pos_site_id
 _symmetry_equiv_pos_as_xyz
  1  'x, y, z'
loop_
 _atom_site_type_symbol
 _atom_site_label
 _atom_site_symmetry_multiplicity
 _atom_site_fract_x
 _atom_site_fract_y
 _atom_site_fract_z
 _atom_site_occupancy
  Li  Li0  1  0.33627081  0.92256028  0.89521290  1
  Li  Li1  1  0.07743972  0.66372919  0.39521290  1
  Li  Li2  1  0.79355848  0.91842177  0.91479885  1
  Li  Li3  1  0.33574490  0.46849507  0.89674263  1
  Li  Li4  1  0.08157823  0.20644152  0.41479885  1
  Li  Li5  1  0.53150493  0.66425510  0.39674263  1
  Li  Li6  1  0.46849507  0.33574490  0.60325737  1
  Li  Li7  1  0.91842177  0.79355848  0.58520115  1
  Li  Li8  1  0.66425510  0.53150493  0.10325737  1
  Li  Li9  1  0.20644152  0.08157823  0.08520115  1
  Li  Li10  1  0.92256028  0.33627081  0.60478710  1
  Li  Li11  1  0.66372919  0.07743972  0.10478710  1
  Hf  Hf12  1  0.43928765  0.80653374  0.63525232  1
  Hf  Hf13  1  0.19346626  0.56071235  0.13525232  1
  Hf  Hf14  1  0.80653374  0.43928765  0.86474768  1
  Hf  Hf15  1  0.56071235  0.19346626  0.36474768  1
  O  O16  1  0.13832262  0.63857346  0.75452522  1
  O  O17  1  0.99957108  0.26756685  0.99775412  1
  O  O18  1  0.36142654  0.86167738  0.25452522  1
  O  O19  1  0.73243315  0.00042892  0.49775412  1
  O  O20  1  0.25727890  0.50119052  0.52353440  1
  O  O21  1  0.65012633  0.65012633  0.75000000  1
  O  O22  1  0.49880948  0.74272110  0.02353440  1
  O  O23  1  0.50119052  0.25727890  0.97646560  1
  O  O24  1  0.34987367  0.34987367  0.25000000  1
  O  O25  1  0.74272110  0.49880948  0.47646560  1
  O  O26  1  0.26756685  0.99957108  0.50224588  1
  O  O27  1  0.63857346  0.13832262  0.74547478  1
  O  O28  1  0.00042892  0.73243315  0.00224588  1
  O  O29  1  0.86167738  0.36142654  0.24547478  1
