# generated using pymatgen
data_ErAsO4
_symmetry_space_group_name_H-M   'P 1'
_cell_length_a   5.93358656
_cell_length_b   5.93358605
_cell_length_c   5.93358639
_cell_angle_alpha   106.53157067
_cell_angle_beta   106.53157438
_cell_angle_gamma   115.52549527
_symmetry_Int_Tables_number   1
_chemical_formula_structural   ErAsO4
_chemical_formula_sum   'Er2 As2 O8'
_cell_volume   159.45545752
_cell_formula_units_Z   2
loop_
 _symmetry_equiv_pos_site_id
 _symmetry_equiv_pos_as_xyz
  1  'x, y, z'
loop_
 _atom_site_type_symbol
 _atom_site_label
 _atom_site_symmetry_multiplicity
 _atom_site_fract_x
 _atom_site_fract_y
 _atom_site_fract_z
 _atom_site_occupancy
  Er  Er0  1  0.12500000  0.87500000  0.25000000  1
  Er  Er1  1  0.87500000  0.12500000  0.75000000  1
  As  As2  1  0.37500000  0.62500000  0.75000000  1
  As  As3  1  0.62500000  0.37500000  0.25000000  1
  O  O4  1  0.19635026  0.62891043  0.93256117  1
  O  O5  1  0.37108957  0.80364974  0.56743883  1
  O  O6  1  0.19635026  0.26378909  0.56743883  1
  O  O7  1  0.73621091  0.80364974  0.93256117  1
  O  O8  1  0.26378909  0.19635026  0.06743883  1
  O  O9  1  0.80364974  0.73621091  0.43256117  1
  O  O10  1  0.62891043  0.19635026  0.43256117  1
  O  O11  1  0.80364974  0.37108957  0.06743883  1
