# generated using pymatgen
data_Li2V3SbO8
_symmetry_space_group_name_H-M   'P 1'
_cell_length_a   6.15398493
_cell_length_b   6.15398494
_cell_length_c   6.15398524
_cell_angle_alpha   58.78041835
_cell_angle_beta   58.78041594
_cell_angle_gamma   58.78041329
_symmetry_Int_Tables_number   1
_chemical_formula_structural   Li2V3SbO8
_chemical_formula_sum   'Li2 V3 Sb1 O8'
_cell_volume   160.20848145
_cell_formula_units_Z   1
loop_
 _symmetry_equiv_pos_site_id
 _symmetry_equiv_pos_as_xyz
  1  'x, y, z'
loop_
 _atom_site_type_symbol
 _atom_site_label
 _atom_site_symmetry_multiplicity
 _atom_site_fract_x
 _atom_site_fract_y
 _atom_site_fract_z
 _atom_site_occupancy
  Li  Li0  1  0.13073183  0.13073183  0.13073183  1
  Li  Li1  1  0.86926817  0.86926817  0.86926817  1
  V  V2  1  0.00000000  0.50000000  0.50000000  1
  V  V3  1  0.50000000  0.00000000  0.50000000  1
  V  V4  1  0.50000000  0.50000000  0.00000000  1
  Sb  Sb5  1  0.50000000  0.50000000  0.50000000  1
  O  O6  1  0.26579845  0.26579845  0.26579845  1
  O  O7  1  0.26529198  0.26529198  0.71779929  1
  O  O8  1  0.26529198  0.71779929  0.26529198  1
  O  O9  1  0.71779929  0.26529198  0.26529198  1
  O  O10  1  0.28220071  0.73470802  0.73470802  1
  O  O11  1  0.73470802  0.28220071  0.73470802  1
  O  O12  1  0.73470802  0.73470802  0.28220071  1
  O  O13  1  0.73420155  0.73420155  0.73420155  1
