# generated using pymatgen
data_SbSNCl5
_symmetry_space_group_name_H-M   'P 1'
_cell_length_a   13.73769601
_cell_length_b   13.73769580
_cell_length_c   13.73769588
_cell_angle_alpha   105.65566360
_cell_angle_beta   111.41203410
_cell_angle_gamma   111.41203282
_symmetry_Int_Tables_number   1
_chemical_formula_structural   SbSNCl5
_chemical_formula_sum   'Sb8 S8 N8 Cl40'
_cell_volume   1989.23177272
_cell_formula_units_Z   8
loop_
 _symmetry_equiv_pos_site_id
 _symmetry_equiv_pos_as_xyz
  1  'x, y, z'
loop_
 _atom_site_type_symbol
 _atom_site_label
 _atom_site_symmetry_multiplicity
 _atom_site_fract_x
 _atom_site_fract_y
 _atom_site_fract_z
 _atom_site_occupancy
  Sb  Sb0  1  0.78996946  0.91496946  0.62500000  1
  Sb  Sb1  1  0.77002635  0.39502635  0.12500000  1
  Sb  Sb2  1  0.72997365  0.37500000  0.60497365  1
  Sb  Sb3  1  0.27002635  0.87500000  0.64502635  1
  Sb  Sb4  1  0.21003054  0.83503054  0.12500000  1
  Sb  Sb5  1  0.22997365  0.35497365  0.62500000  1
  Sb  Sb6  1  0.28996946  0.37500000  0.16496946  1
  Sb  Sb7  1  0.71003054  0.87500000  0.08503054  1
  S  S8  1  0.56811933  0.93701663  0.84972729  1
  S  S9  1  0.08728933  0.15027271  0.71839204  1
  S  S10  1  0.93188067  0.11889729  0.53160796  1
  S  S11  1  0.41271067  0.81298337  0.88110271  1
  S  S12  1  0.91271067  0.63110271  0.06298337  1
  S  S13  1  0.43188067  0.28160796  0.36889729  1
  S  S14  1  0.58728933  0.46839204  0.40027271  1
  S  S15  1  0.06811933  0.59972729  0.18701663  1
  N  N16  1  0.06212612  0.68712612  0.12500000  1
  N  N17  1  0.93787388  0.06287388  0.62500000  1
  N  N18  1  0.41877234  0.87500000  0.79377234  1
  N  N19  1  0.43787388  0.37500000  0.31287388  1
  N  N20  1  0.91877234  0.54377234  0.12500000  1
  N  N21  1  0.58122766  0.37500000  0.45622766  1
  N  N22  1  0.08122766  0.20622766  0.62500000  1
  N  N23  1  0.56212612  0.87500000  0.93712612  1
  Cl  Cl24  1  0.44297355  0.97653808  0.63024046  1
  Cl  Cl25  1  0.61794668  0.24294668  0.12500000  1
  Cl  Cl26  1  0.55702645  0.18726691  0.53356453  1
  Cl  Cl27  1  0.73162920  0.26770683  0.94167510  1
  Cl  Cl28  1  0.21902901  0.96840547  0.28489992  1
  Cl  Cl29  1  0.76837080  0.28607762  0.46004590  1
  Cl  Cl30  1  0.65370238  0.46643547  0.02346192  1
  Cl  Cl31  1  0.31649445  0.25062355  0.03159453  1
  Cl  Cl32  1  0.81649445  0.78159453  0.50062355  1
  Cl  Cl33  1  0.83376531  0.00874628  0.04058286  1
  Cl  Cl34  1  0.63750392  0.76250392  0.62500000  1
  Cl  Cl35  1  0.23162920  0.69167510  0.51770683  1
  Cl  Cl36  1  0.26837080  0.21004590  0.53607762  1
  Cl  Cl37  1  0.88205332  0.37500000  0.75705332  1
  Cl  Cl38  1  0.86249608  0.87500000  0.23749608  1
  Cl  Cl39  1  0.03183658  0.82501903  0.99125372  1
  Cl  Cl40  1  0.38205332  0.50705332  0.62500000  1
  Cl  Cl41  1  0.18350555  0.68412909  0.96510008  1
  Cl  Cl42  1  0.53183658  0.74125372  0.07501903  1
  Cl  Cl43  1  0.33376531  0.79058286  0.25874628  1
  Cl  Cl44  1  0.34629762  0.36975954  0.81273309  1
  Cl  Cl45  1  0.17396827  0.48229317  0.71392238  1
  Cl  Cl46  1  0.32603173  0.05832490  0.78995410  1
  Cl  Cl47  1  0.15370238  0.77346192  0.71643547  1
  Cl  Cl48  1  0.67396827  0.46392238  0.73229317  1
  Cl  Cl49  1  0.28097099  0.49937645  0.31587091  1
  Cl  Cl50  1  0.66623469  0.92498097  0.45681755  1
  Cl  Cl51  1  0.71902901  0.03489992  0.21840547  1
  Cl  Cl52  1  0.68350555  0.71510008  0.93412909  1
  Cl  Cl53  1  0.13750392  0.37500000  0.01250392  1
  Cl  Cl54  1  0.82603173  0.53995410  0.30832490  1
  Cl  Cl55  1  0.78097099  0.06587091  0.74937645  1
  Cl  Cl56  1  0.94297355  0.38024046  0.22653808  1
  Cl  Cl57  1  0.46816342  0.54318245  0.20941714  1
  Cl  Cl58  1  0.11794668  0.87500000  0.49294668  1
  Cl  Cl59  1  0.16623469  0.20681755  0.17498097  1
  Cl  Cl60  1  0.36249608  0.98749608  0.12500000  1
  Cl  Cl61  1  0.96816342  0.95941714  0.79318245  1
  Cl  Cl62  1  0.05702645  0.28356453  0.43726691  1
  Cl  Cl63  1  0.84629762  0.56273309  0.61975954  1
