# generated using pymatgen
data_LiNiSbO4
_symmetry_space_group_name_H-M   'P 1'
_cell_length_a   6.04520895
_cell_length_b   6.09834710
_cell_length_c   6.09834711
_cell_angle_alpha   61.22256829
_cell_angle_beta   60.28783071
_cell_angle_gamma   60.28783062
_symmetry_Int_Tables_number   1
_chemical_formula_structural   LiNiSbO4
_chemical_formula_sum   'Li2 Ni2 Sb2 O8'
_cell_volume   161.09585739
_cell_formula_units_Z   2
loop_
 _symmetry_equiv_pos_site_id
 _symmetry_equiv_pos_as_xyz
  1  'x, y, z'
loop_
 _atom_site_type_symbol
 _atom_site_label
 _atom_site_symmetry_multiplicity
 _atom_site_fract_x
 _atom_site_fract_y
 _atom_site_fract_z
 _atom_site_occupancy
  Li  Li0  1  0.14008104  0.10991896  0.10991896  1
  Li  Li1  1  0.85991896  0.89008104  0.89008104  1
  Ni  Ni2  1  0.00000000  0.50000000  0.50000000  1
  Ni  Ni3  1  0.50000000  0.50000000  0.50000000  1
  Sb  Sb4  1  0.50000000  0.00000000  0.50000000  1
  Sb  Sb5  1  0.50000000  0.50000000  0.00000000  1
  O  O6  1  0.27129094  0.25216016  0.25216016  1
  O  O7  1  0.27134985  0.24906406  0.70823623  1
  O  O8  1  0.27134985  0.70823623  0.24906406  1
  O  O9  1  0.72438974  0.25216016  0.25216016  1
  O  O10  1  0.27561026  0.74783984  0.74783984  1
  O  O11  1  0.72865015  0.75093594  0.29176377  1
  O  O12  1  0.72865015  0.29176377  0.75093594  1
  O  O13  1  0.72870906  0.74783984  0.74783984  1
