# generated using pymatgen
data_Tm(ClO4)3
_symmetry_space_group_name_H-M   'P 1'
_cell_length_a   8.20335877
_cell_length_b   9.39222959
_cell_length_c   8.20335862
_cell_angle_alpha   115.89414747
_cell_angle_beta   59.99999943
_cell_angle_gamma   115.89414569
_symmetry_Int_Tables_number   1
_chemical_formula_structural   Tm(ClO4)3
_chemical_formula_sum   'Tm2 Cl6 O24'
_cell_volume   472.68136773
_cell_formula_units_Z   2
loop_
 _symmetry_equiv_pos_site_id
 _symmetry_equiv_pos_as_xyz
  1  'x, y, z'
loop_
 _atom_site_type_symbol
 _atom_site_label
 _atom_site_symmetry_multiplicity
 _atom_site_fract_x
 _atom_site_fract_y
 _atom_site_fract_z
 _atom_site_occupancy
  Tm  Tm0  1  0.05879508  0.17638425  0.05879508  1
  Tm  Tm1  1  0.55879508  0.67638425  0.55879508  1
  Cl  Cl2  1  0.46564532  0.50072783  0.18996918  1
  Cl  Cl3  1  0.18996918  0.50072783  0.84511233  1
  Cl  Cl4  1  0.34511233  0.00072783  0.68996918  1
  Cl  Cl5  1  0.84511233  0.50072783  0.46564532  1
  Cl  Cl6  1  0.96564632  0.00072783  0.34511233  1
  Cl  Cl7  1  0.68996918  0.00072783  0.96564632  1
  O  O8  1  0.07552037  0.96008739  0.12982997  1
  O  O9  1  0.12982997  0.96008739  0.75473706  1
  O  O10  1  0.28023924  0.36841502  0.20148310  1
  O  O11  1  0.99836054  0.52208920  0.94875637  1
  O  O12  1  0.41739806  0.65239547  0.34163297  1
  O  O13  1  0.07497329  0.02208920  0.44875637  1
  O  O14  1  0.38669169  0.86841502  0.70148310  1
  O  O15  1  0.75473706  0.96008739  0.07552037  1
  O  O16  1  0.57497329  0.52208920  0.99836054  1
  O  O17  1  0.25473706  0.46008739  0.62982997  1
  O  O18  1  0.20148310  0.36841502  0.88669169  1
  O  O19  1  0.34163297  0.65239547  0.89336445  1
  O  O20  1  0.57552037  0.46008739  0.25473706  1
  O  O21  1  0.49836054  0.02208920  0.07497329  1
  O  O22  1  0.78023924  0.86841502  0.38669169  1
  O  O23  1  0.70148310  0.86841502  0.78023924  1
  O  O24  1  0.44875637  0.02208920  0.49836054  1
  O  O25  1  0.62982997  0.46008739  0.57552037  1
  O  O26  1  0.39336445  0.15239547  0.84163297  1
  O  O27  1  0.89336445  0.65239547  0.41739806  1
  O  O28  1  0.88669169  0.36841502  0.28023924  1
  O  O29  1  0.94875637  0.52208920  0.57497329  1
  O  O30  1  0.91739806  0.15239547  0.39336445  1
  O  O31  1  0.84163297  0.15239547  0.91739806  1
