# generated using pymatgen
data_Ti2V(PO4)3
_symmetry_space_group_name_H-M   'P 1'
_cell_length_a   8.58437261
_cell_length_b   8.70194996
_cell_length_c   8.70194935
_cell_angle_alpha   60.00000206
_cell_angle_beta   59.54587650
_cell_angle_gamma   59.54587838
_symmetry_Int_Tables_number   1
_chemical_formula_structural   Ti2V(PO4)3
_chemical_formula_sum   'Ti4 V2 P6 O24'
_cell_volume   456.46903503
_cell_formula_units_Z   2
loop_
 _symmetry_equiv_pos_site_id
 _symmetry_equiv_pos_as_xyz
  1  'x, y, z'
loop_
 _atom_site_type_symbol
 _atom_site_label
 _atom_site_symmetry_multiplicity
 _atom_site_fract_x
 _atom_site_fract_y
 _atom_site_fract_z
 _atom_site_occupancy
  Ti  Ti0  1  0.06912355  0.64362582  0.64362582  1
  Ti  Ti1  1  0.56912355  0.14362582  0.14362582  1
  Ti  Ti2  1  0.43087645  0.85637418  0.85637418  1
  Ti  Ti3  1  0.93087645  0.35637418  0.35637418  1
  V  V4  1  0.00000000  0.00000000  0.00000000  1
  V  V5  1  0.50000000  0.50000000  0.50000000  1
  P  P6  1  0.25000000  0.25000000  0.54264438  1
  P  P7  1  0.25000000  0.95735562  0.25000000  1
  P  P8  1  0.25000000  0.54264438  0.95735562  1
  P  P9  1  0.75000000  0.45735562  0.04264438  1
  P  P10  1  0.75000000  0.04264438  0.75000000  1
  P  P11  1  0.75000000  0.75000000  0.45735562  1
  O  O12  1  0.06884129  0.11458728  0.31736771  1
  O  O13  1  0.06884129  0.49920372  0.11458728  1
  O  O14  1  0.06884129  0.31736771  0.49920372  1
  O  O15  1  0.22947897  0.09013033  0.73739250  1
  O  O16  1  0.43115871  0.18263229  0.38541272  1
  O  O17  1  0.27052103  0.40986967  0.55700181  1
  O  O18  1  0.22947897  0.94299819  0.09013033  1
  O  O19  1  0.27052103  0.76260750  0.40986967  1
  O  O20  1  0.56884129  0.61458728  0.99920372  1
  O  O21  1  0.27052103  0.55700181  0.76260750  1
  O  O22  1  0.77052103  0.26260750  0.05700181  1
  O  O23  1  0.56884129  0.99920372  0.81736771  1
  O  O24  1  0.43115871  0.00079628  0.18263229  1
  O  O25  1  0.22947897  0.73739250  0.94299819  1
  O  O26  1  0.72947897  0.44299819  0.23739250  1
  O  O27  1  0.43115871  0.38541272  0.00079628  1
  O  O28  1  0.72947897  0.23739250  0.59013033  1
  O  O29  1  0.77052103  0.05700181  0.90986967  1
  O  O30  1  0.72947897  0.59013033  0.44299819  1
  O  O31  1  0.56884129  0.81736771  0.61458728  1
  O  O32  1  0.77052103  0.90986967  0.26260750  1
  O  O33  1  0.93115871  0.68263229  0.50079628  1
  O  O34  1  0.93115871  0.50079628  0.88541272  1
  O  O35  1  0.93115871  0.88541272  0.68263229  1
