# generated using pymatgen
data_MgCr3Se3(SO8)3
_symmetry_space_group_name_H-M   'P 1'
_cell_length_a   9.06264085
_cell_length_b   9.05484067
_cell_length_c   8.96349338
_cell_angle_alpha   56.27148406
_cell_angle_beta   56.00378585
_cell_angle_gamma   55.72354354
_symmetry_Int_Tables_number   1
_chemical_formula_structural   MgCr3Se3(SO8)3
_chemical_formula_sum   'Mg1 Cr3 Se3 S3 O24'
_cell_volume   471.88589595
_cell_formula_units_Z   1
loop_
 _symmetry_equiv_pos_site_id
 _symmetry_equiv_pos_as_xyz
  1  'x, y, z'
loop_
 _atom_site_type_symbol
 _atom_site_label
 _atom_site_symmetry_multiplicity
 _atom_site_fract_x
 _atom_site_fract_y
 _atom_site_fract_z
 _atom_site_occupancy
  Mg  Mg0  1  0.84172462  0.86844000  0.85297050  1
  Cr  Cr1  1  0.15736720  0.14640670  0.14686277  1
  Cr  Cr2  1  0.35670409  0.34658986  0.36482986  1
  Cr  Cr3  1  0.64480366  0.64784462  0.63751438  1
  Se  Se4  1  0.04555129  0.74459011  0.46498318  1
  Se  Se5  1  0.25239929  0.53643677  0.96139482  1
  Se  Se6  1  0.74406061  0.46192417  0.04674844  1
  S  S7  1  0.52912536  0.96342332  0.25594484  1
  S  S8  1  0.46151793  0.03784824  0.74963252  1
  S  S9  1  0.96430908  0.25915639  0.52635333  1
  O  O10  1  0.01451076  0.97341499  0.31190843  1
  O  O11  1  0.02040915  0.71042055  0.67696018  1
  O  O12  1  0.02821511  0.68142313  0.00202413  1
  O  O13  1  0.33834959  0.98070481  0.28623661  1
  O  O14  1  0.48593076  0.88606836  0.70851638  1
  O  O15  1  0.26578435  0.60228036  0.37204545  1
  O  O16  1  0.65765783  0.99197908  0.05687225  1
  O  O17  1  0.39334442  0.62676180  0.74013284  1
  O  O18  1  0.32031738  0.50945613  0.11619224  1
  O  O19  1  0.10950109  0.30647435  0.50307378  1
  O  O20  1  0.60947825  0.77014872  0.38445260  1
  O  O21  1  0.29908843  0.31988090  0.97476334  1
  O  O22  1  0.69852585  0.66979132  0.03602121  1
  O  O23  1  0.36487793  0.22749177  0.62825063  1
  O  O24  1  0.88592370  0.70148278  0.47021686  1
  O  O25  1  0.70451613  0.47327523  0.87836850  1
  O  O26  1  0.61764855  0.34628696  0.26389906  1
  O  O27  1  0.32797702  0.01286798  0.95666109  1
  O  O28  1  0.77120283  0.39771126  0.59432901  1
  O  O29  1  0.49603756  0.10500323  0.31604490  1
  O  O30  1  0.64300718  0.02637180  0.71930053  1
  O  O31  1  0.97848298  0.31610859  0.00763757  1
  O  O32  1  0.99341304  0.28674780  0.32915567  1
  O  O33  1  0.97823795  0.06519093  0.65970410  1
