# generated using pymatgen
data_Ba2Cu2O5
_symmetry_space_group_name_H-M   'P 1'
_cell_length_a   11.54344717
_cell_length_b   4.13854610
_cell_length_c   13.76475069
_cell_angle_alpha   90.00000000
_cell_angle_beta   90.00000000
_cell_angle_gamma   90.00000000
_symmetry_Int_Tables_number   1
_chemical_formula_structural   Ba2Cu2O5
_chemical_formula_sum   'Ba8 Cu8 O20'
_cell_volume   657.58464967
_cell_formula_units_Z   4
loop_
 _symmetry_equiv_pos_site_id
 _symmetry_equiv_pos_as_xyz
  1  'x, y, z'
loop_
 _atom_site_type_symbol
 _atom_site_label
 _atom_site_symmetry_multiplicity
 _atom_site_fract_x
 _atom_site_fract_y
 _atom_site_fract_z
 _atom_site_occupancy
  Ba  Ba0  1  0.05433775  0.25828954  0.86051740  1
  Ba  Ba1  1  0.19410019  0.25900358  0.54368229  1
  Ba  Ba2  1  0.30589981  0.75900358  0.04368229  1
  Ba  Ba3  1  0.44566225  0.75828954  0.36051740  1
  Ba  Ba4  1  0.55433775  0.24171046  0.86051740  1
  Ba  Ba5  1  0.69410019  0.24099642  0.54368229  1
  Ba  Ba6  1  0.80589981  0.74099642  0.04368229  1
  Ba  Ba7  1  0.94566225  0.74171046  0.36051740  1
  Cu  Cu8  1  0.01856663  0.23439267  0.15641972  1
  Cu  Cu9  1  0.23453808  0.27143493  0.24971815  1
  Cu  Cu10  1  0.26546192  0.77143493  0.74971815  1
  Cu  Cu11  1  0.48143337  0.73439267  0.65641972  1
  Cu  Cu12  1  0.51856663  0.26560733  0.15641972  1
  Cu  Cu13  1  0.73453808  0.22856507  0.24971815  1
  Cu  Cu14  1  0.76546192  0.72856507  0.74971815  1
  Cu  Cu15  1  0.98143337  0.76560733  0.65641972  1
  O  O16  1  0.07982667  0.23069655  0.28372416  1
  O  O17  1  0.03587611  0.72551588  0.53147956  1
  O  O18  1  0.12405417  0.90627083  0.70089561  1
  O  O19  1  0.17314185  0.27399492  0.12310819  1
  O  O20  1  0.20949779  0.74318051  0.87445491  1
  O  O21  1  0.29050221  0.24318051  0.37445491  1
  O  O22  1  0.32685815  0.77399492  0.62310819  1
  O  O23  1  0.37594583  0.40627083  0.20089561  1
  O  O24  1  0.46412389  0.22551588  0.03147956  1
  O  O25  1  0.42017333  0.73069655  0.78372416  1
  O  O26  1  0.57982667  0.26930345  0.28372416  1
  O  O27  1  0.53587611  0.77448412  0.53147956  1
  O  O28  1  0.62405417  0.59372917  0.70089561  1
  O  O29  1  0.67314185  0.22600508  0.12310819  1
  O  O30  1  0.70949779  0.75681949  0.87445491  1
  O  O31  1  0.79050221  0.25681949  0.37445491  1
  O  O32  1  0.82685815  0.72600508  0.62310819  1
  O  O33  1  0.87594583  0.09372917  0.20089561  1
  O  O34  1  0.96412389  0.27448412  0.03147956  1
  O  O35  1  0.92017333  0.76930345  0.78372416  1
