# generated using pymatgen
data_Na2CoAsCO7
_symmetry_space_group_name_H-M   'P 1'
_cell_length_a   9.12896469
_cell_length_b   6.60087653
_cell_length_c   5.36723990
_cell_angle_alpha   90.00000000
_cell_angle_beta   87.18546617
_cell_angle_gamma   90.00000000
_symmetry_Int_Tables_number   1
_chemical_formula_structural   Na2CoAsCO7
_chemical_formula_sum   'Na4 Co2 As2 C2 O14'
_cell_volume   323.03527133
_cell_formula_units_Z   2
loop_
 _symmetry_equiv_pos_site_id
 _symmetry_equiv_pos_as_xyz
  1  'x, y, z'
loop_
 _atom_site_type_symbol
 _atom_site_label
 _atom_site_symmetry_multiplicity
 _atom_site_fract_x
 _atom_site_fract_y
 _atom_site_fract_z
 _atom_site_occupancy
  Na  Na0  1  0.22613800  0.50020416  0.23111491  1
  Na  Na1  1  0.22613800  -0.00020416  0.23111491  1
  Na  Na2  1  0.77386200  0.49979584  0.76888509  1
  Na  Na3  1  0.77386200  0.00020416  0.76888509  1
  Co  Co4  1  0.34418641  0.75000000  0.78571205  1
  Co  Co5  1  0.65581359  0.25000000  0.21428795  1
  As  As6  1  0.43089165  0.25000000  0.70461820  1
  As  As7  1  0.56910835  0.75000000  0.29538180  1
  C  C8  1  0.07775628  0.75000000  0.72137347  1
  C  C9  1  0.92224372  0.25000000  0.27862653  1
  O  O10  1  0.05900224  0.25000000  0.28592987  1
  O  O11  1  0.14414224  0.75000000  0.93547927  1
  O  O12  1  0.16975815  0.75000000  0.52860098  1
  O  O13  1  0.32150730  0.04649787  0.79133582  1
  O  O14  1  0.32150730  0.45350213  0.79133582  1
  O  O15  1  0.40611030  0.75000000  0.15216081  1
  O  O16  1  0.45938500  0.25000000  0.37998965  1
  O  O17  1  0.54061500  0.75000000  0.62001035  1
  O  O18  1  0.59388970  0.25000000  0.84783919  1
  O  O19  1  0.67849270  0.54649787  0.20866418  1
  O  O20  1  0.67849270  0.95350213  0.20866418  1
  O  O21  1  0.83024185  0.25000000  0.47139902  1
  O  O22  1  0.85585776  0.25000000  0.06452073  1
  O  O23  1  0.94099776  0.75000000  0.71407013  1
