# generated using pymatgen
data_Cs6Co2O7
_symmetry_space_group_name_H-M   'P 1'
_cell_length_a   7.34690746
_cell_length_b   9.86186000
_cell_length_c   12.35722198
_cell_angle_alpha   90.00000000
_cell_angle_beta   125.78343266
_cell_angle_gamma   90.00000000
_symmetry_Int_Tables_number   1
_chemical_formula_structural   Cs6Co2O7
_chemical_formula_sum   'Cs12 Co4 O14'
_cell_volume   726.32304114
_cell_formula_units_Z   2
loop_
 _symmetry_equiv_pos_site_id
 _symmetry_equiv_pos_as_xyz
  1  'x, y, z'
loop_
 _atom_site_type_symbol
 _atom_site_label
 _atom_site_symmetry_multiplicity
 _atom_site_fract_x
 _atom_site_fract_y
 _atom_site_fract_z
 _atom_site_occupancy
  Cs  Cs0  1  0.08945295  0.70907997  0.71680285  1
  Cs  Cs1  1  0.54996321  0.14302381  0.91597534  1
  Cs  Cs2  1  0.29992409  0.03018241  0.55122281  1
  Cs  Cs3  1  0.70007591  0.53018241  0.94877719  1
  Cs  Cs4  1  0.08945295  0.79092003  0.21680285  1
  Cs  Cs5  1  0.45003679  0.64302381  0.58402466  1
  Cs  Cs6  1  0.54996321  0.35697619  0.41597534  1
  Cs  Cs7  1  0.91054705  0.20907997  0.78319715  1
  Cs  Cs8  1  0.29992409  0.46981759  0.05122281  1
  Cs  Cs9  1  0.70007591  0.96981759  0.44877719  1
  Cs  Cs10  1  0.45003679  0.85697619  0.08402466  1
  Cs  Cs11  1  0.91054705  0.29092003  0.28319715  1
  Co  Co12  1  0.17301179  0.36331668  0.62803741  1
  Co  Co13  1  0.82698821  0.86331668  0.87196259  1
  Co  Co14  1  0.17301179  0.13668332  0.12803741  1
  Co  Co15  1  0.82698821  0.63668332  0.37196259  1
  O  O16  1  0.99720906  0.71220297  0.92734730  1
  O  O17  1  0.24120250  0.41144527  0.78835842  1
  O  O18  1  0.00000000  0.50000000  0.50000000  1
  O  O19  1  0.99720906  0.78779703  0.42734730  1
  O  O20  1  0.57467285  0.83443797  0.86212495  1
  O  O21  1  0.42532715  0.33443797  0.63787505  1
  O  O22  1  0.24120250  0.08855473  0.28835842  1
  O  O23  1  0.00000000  0.00000000  0.00000000  1
  O  O24  1  0.75879750  0.91144527  0.71164158  1
  O  O25  1  0.57467285  0.66556203  0.36212495  1
  O  O26  1  0.42532715  0.16556203  0.13787505  1
  O  O27  1  0.00279094  0.21220297  0.57265270  1
  O  O28  1  0.75879750  0.58855473  0.21164158  1
  O  O29  1  0.00279094  0.28779703  0.07265270  1
