# generated using pymatgen
data_Ta2WO8
_symmetry_space_group_name_H-M   'P 1'
_cell_length_a   3.88429913
_cell_length_b   18.11844765
_cell_length_c   16.94644345
_cell_angle_alpha   90.00000000
_cell_angle_beta   90.03110432
_cell_angle_gamma   90.00000000
_symmetry_Int_Tables_number   1
_chemical_formula_structural   Ta2WO8
_chemical_formula_sum   'Ta16 W8 O64'
_cell_volume   1192.64764714
_cell_formula_units_Z   8
loop_
 _symmetry_equiv_pos_site_id
 _symmetry_equiv_pos_as_xyz
  1  'x, y, z'
loop_
 _atom_site_type_symbol
 _atom_site_label
 _atom_site_symmetry_multiplicity
 _atom_site_fract_x
 _atom_site_fract_y
 _atom_site_fract_z
 _atom_site_occupancy
  Ta  Ta0  1  0.00085888  0.34525896  0.25053917  1
  Ta  Ta1  1  0.00085888  0.15474104  0.75053917  1
  Ta  Ta2  1  0.99902582  0.19764210  0.36953159  1
  Ta  Ta3  1  0.99902582  0.30235790  0.86953159  1
  Ta  Ta4  1  0.01775102  0.02706746  0.25176755  1
  Ta  Ta5  1  0.01775102  0.47293254  0.75176755  1
  Ta  Ta6  1  0.99355174  0.09410234  0.55887116  1
  Ta  Ta7  1  0.99355174  0.40589766  0.05887116  1
  Ta  Ta8  1  0.99325140  0.09667745  0.93908006  1
  Ta  Ta9  1  0.99325140  0.40332255  0.43908006  1
  Ta  Ta10  1  0.00064565  0.70033430  0.13218052  1
  Ta  Ta11  1  0.00022487  0.69941426  0.36876025  1
  Ta  Ta12  1  0.00064565  0.79966570  0.63218052  1
  Ta  Ta13  1  0.00022487  0.80058574  0.86876025  1
  Ta  Ta14  1  0.99199116  0.84367984  0.24927481  1
  Ta  Ta15  1  0.99199116  0.65632016  0.74927481  1
  W  W16  1  0.03086747  0.19982793  0.13242540  1
  W  W17  1  0.03086747  0.30017207  0.63242540  1
  W  W18  1  0.02997792  0.59153400  0.55964056  1
  W  W19  1  0.02997792  0.90846600  0.05964056  1
  W  W20  1  0.03006979  0.90682223  0.44009936  1
  W  W21  1  0.03006979  0.59317777  0.94009936  1
  W  W22  1  0.95380498  0.52696484  0.24935200  1
  W  W23  1  0.95380498  0.97303516  0.74935200  1
  O  O24  1  0.99935367  0.99733848  0.00489020  1
  O  O25  1  0.99945952  0.99627840  0.49444964  1
  O  O26  1  0.99945952  0.50372160  0.99444964  1
  O  O27  1  0.99935367  0.50266152  0.50489020  1
  O  O28  1  0.99875018  0.81077855  0.13019009  1
  O  O29  1  0.99876767  0.81110079  0.36903550  1
  O  O30  1  0.99875018  0.68922145  0.63019009  1
  O  O31  1  0.99876767  0.68889921  0.86903550  1
  O  O32  1  0.00111849  0.93782760  0.17249344  1
  O  O33  1  0.00111849  0.56217240  0.67249344  1
  O  O34  1  0.00138680  0.93823326  0.32583979  1
  O  O35  1  0.00138680  0.56176674  0.82583979  1
  O  O36  1  0.99880846  0.23067789  0.24766420  1
  O  O37  1  0.99880846  0.26932211  0.74766420  1
  O  O38  1  0.99973674  0.66138382  0.02208550  1
  O  O39  1  0.99893708  0.66125709  0.47777433  1
  O  O40  1  0.99973674  0.83861618  0.52208550  1
  O  O41  1  0.99893708  0.83874291  0.97777433  1
  O  O42  1  0.99265367  0.59558985  0.16846790  1
  O  O43  1  0.99296385  0.59619899  0.33036776  1
  O  O44  1  0.99265367  0.90441015  0.66846790  1
  O  O45  1  0.99296385  0.90380101  0.83036776  1
  O  O46  1  0.48159473  0.97685802  0.74975216  1
  O  O47  1  0.48159473  0.52314198  0.24975216  1
  O  O48  1  0.50775459  0.90759154  0.06358418  1
  O  O49  1  0.50778736  0.90727742  0.43504759  1
  O  O50  1  0.50775459  0.59240846  0.56358418  1
  O  O51  1  0.50778736  0.59272258  0.93504759  1
  O  O52  1  0.50643244  0.29549468  0.63089264  1
  O  O53  1  0.49965888  0.29405616  0.86879709  1
  O  O54  1  0.50643244  0.20450532  0.13089264  1
  O  O55  1  0.49965888  0.20594384  0.36879709  1
  O  O56  1  0.49737112  0.15250357  0.74976449  1
  O  O57  1  0.49737112  0.34749643  0.24976449  1
  O  O58  1  0.49729389  0.65347874  0.74980974  1
  O  O59  1  0.49729389  0.84652126  0.24980974  1
  O  O60  1  0.49762342  0.70058036  0.37262996  1
  O  O61  1  0.49781927  0.69993003  0.12682819  1
  O  O62  1  0.49781927  0.80006997  0.62682819  1
  O  O63  1  0.49762342  0.79941964  0.87262996  1
  O  O64  1  0.49585131  0.08273617  0.56161607  1
  O  O65  1  0.49585131  0.41726383  0.06161607  1
  O  O66  1  0.49492000  0.08648604  0.94372326  1
  O  O67  1  0.49492000  0.41351396  0.44372326  1
  O  O68  1  0.50724199  0.02305101  0.24497138  1
  O  O69  1  0.50724199  0.47694899  0.74497138  1
  O  O70  1  0.00443898  0.10286193  0.16809482  1
  O  O71  1  0.00758056  0.09730544  0.33386966  1
  O  O72  1  0.00443898  0.39713807  0.66809482  1
  O  O73  1  0.00758056  0.40269456  0.83386966  1
  O  O74  1  0.99312019  0.16971297  0.02561987  1
  O  O75  1  0.99680142  0.16594558  0.47811648  1
  O  O76  1  0.99312019  0.33028703  0.52561987  1
  O  O77  1  0.99680142  0.33405442  0.97811648  1
  O  O78  1  0.99761290  0.72840281  0.24973931  1
  O  O79  1  0.99761290  0.77159719  0.74973931  1
  O  O80  1  0.99554456  0.43939356  0.17722590  1
  O  O81  1  0.99554456  0.06060644  0.67722590  1
  O  O82  1  0.99480440  0.05852891  0.82573941  1
  O  O83  1  0.99480440  0.44147109  0.32573941  1
  O  O84  1  0.99654057  0.18895577  0.63026998  1
  O  O85  1  0.99654057  0.31104423  0.13026998  1
  O  O86  1  0.99825061  0.18664485  0.86912903  1
  O  O87  1  0.99825061  0.31335515  0.36912903  1
