# generated using pymatgen
data_TmClO
_symmetry_space_group_name_H-M   'P 1'
_cell_length_a   3.75554031
_cell_length_b   9.68006611
_cell_length_c   3.75554079
_cell_angle_alpha   101.18533301
_cell_angle_beta   60.00000431
_cell_angle_gamma   101.18533079
_symmetry_Int_Tables_number   1
_chemical_formula_structural   TmClO
_chemical_formula_sum   'Tm2 Cl2 O2'
_cell_volume   115.23282787
_cell_formula_units_Z   2
loop_
 _symmetry_equiv_pos_site_id
 _symmetry_equiv_pos_as_xyz
  1  'x, y, z'
loop_
 _atom_site_type_symbol
 _atom_site_label
 _atom_site_symmetry_multiplicity
 _atom_site_fract_x
 _atom_site_fract_y
 _atom_site_fract_z
 _atom_site_occupancy
  Tm  Tm0  1  0.28340874  0.85022523  0.28340874  1
  Tm  Tm1  1  0.71659126  0.14977477  0.71659126  1
  Cl  Cl2  1  0.11090056  0.33270267  0.11090056  1
  Cl  Cl3  1  0.88909944  0.66729733  0.88909944  1
  O  O4  1  0.36309605  0.08928915  0.36309605  1
  O  O5  1  0.63690395  0.91071085  0.63690395  1
