# generated using pymatgen
data_Dy2Ge2O7
_symmetry_space_group_name_H-M   'P 1'
_cell_length_a   6.87138671
_cell_length_b   6.87135108
_cell_length_c   12.51820717
_cell_angle_alpha   89.99985249
_cell_angle_beta   90.00021862
_cell_angle_gamma   90.00015543
_symmetry_Int_Tables_number   1
_chemical_formula_structural   Dy2Ge2O7
_chemical_formula_sum   'Dy8 Ge8 O28'
_cell_volume   591.05604560
_cell_formula_units_Z   4
loop_
 _symmetry_equiv_pos_site_id
 _symmetry_equiv_pos_as_xyz
  1  'x, y, z'
loop_
 _atom_site_type_symbol
 _atom_site_label
 _atom_site_symmetry_multiplicity
 _atom_site_fract_x
 _atom_site_fract_y
 _atom_site_fract_z
 _atom_site_occupancy
  Dy  Dy0  1  0.12461270  0.64669219  0.63540478  1
  Dy  Dy1  1  0.14668720  0.37536378  0.38540470  1
  Dy  Dy2  1  0.35330459  0.87539721  0.86459681  1
  Dy  Dy3  1  0.37536495  0.14668821  0.61459446  1
  Dy  Dy4  1  0.62462952  0.85331419  0.11459429  1
  Dy  Dy5  1  0.64669329  0.12460350  0.36459517  1
  Dy  Dy6  1  0.85331074  0.62463114  0.88540574  1
  Dy  Dy7  1  0.87538575  0.35330406  0.13540578  1
  Ge  Ge8  1  0.09929526  0.84836493  0.11901733  1
  Ge  Ge9  1  0.15164493  0.90071102  0.38098202  1
  Ge  Ge10  1  0.34837089  0.40071445  0.86901523  1
  Ge  Ge11  1  0.40072141  0.34836210  0.13098775  1
  Ge  Ge12  1  0.59927743  0.65163864  0.63098657  1
  Ge  Ge13  1  0.65163139  0.59928504  0.36901210  1
  Ge  Ge14  1  0.84836402  0.09929503  0.88098333  1
  Ge  Ge15  1  0.90071052  0.15164572  0.61901659  1
  O  O16  1  0.03154451  0.92144330  0.87716550  1
  O  O17  1  0.06356983  0.33810869  0.57093147  1
  O  O18  1  0.07855271  0.96844847  0.62283154  1
  O  O19  1  0.14359356  0.68356829  0.45536207  1
  O  O20  1  0.16190786  0.56358309  0.82092989  1
  O  O21  1  0.18358616  0.35639761  0.20536070  1
  O  O22  1  0.19672430  0.80340033  0.24999495  1
  O  O23  1  0.30339348  0.30328922  0.99999378  1
  O  O24  1  0.31643127  0.85639035  0.04463234  1
  O  O25  1  0.33811144  0.06356882  0.42907074  1
  O  O26  1  0.35639101  0.18358817  0.79462847  1
  O  O27  1  0.42143241  0.46844110  0.62717240  1
  O  O28  1  0.43641259  0.83809126  0.67907633  1
  O  O29  1  0.46844584  0.42143219  0.37282962  1
  O  O30  1  0.53155795  0.57856873  0.87282873  1
  O  O31  1  0.56359040  0.16190682  0.17907877  1
  O  O32  1  0.57856947  0.53156041  0.12717107  1
  O  O33  1  0.64361741  0.81640988  0.29463343  1
  O  O34  1  0.66189965  0.93643887  0.92906018  1
  O  O35  1  0.68357125  0.14360151  0.54464316  1
  O  O36  1  0.69660440  0.69670949  0.49999887  1
  O  O37  1  0.80339823  0.19672156  0.75000533  1
  O  O38  1  0.81640993  0.64361327  0.70535857  1
  O  O39  1  0.83808669  0.43641747  0.32092975  1
  O  O40  1  0.85639761  0.31643200  0.95536805  1
  O  O41  1  0.92144605  0.03154549  0.12283256  1
  O  O42  1  0.93644393  0.66189744  0.07094022  1
  O  O43  1  0.96844848  0.07855496  0.37716987  1
