# generated using pymatgen
data_LiCoNiO4
_symmetry_space_group_name_H-M   'P 1'
_cell_length_a   5.69608433
_cell_length_b   5.69227547
_cell_length_c   5.69227492
_cell_angle_alpha   60.23141543
_cell_angle_beta   59.97785973
_cell_angle_gamma   59.97786293
_symmetry_Int_Tables_number   1
_chemical_formula_structural   LiCoNiO4
_chemical_formula_sum   'Li2 Co2 Ni2 O8'
_cell_volume   130.68961110
_cell_formula_units_Z   2
loop_
 _symmetry_equiv_pos_site_id
 _symmetry_equiv_pos_as_xyz
  1  'x, y, z'
loop_
 _atom_site_type_symbol
 _atom_site_label
 _atom_site_symmetry_multiplicity
 _atom_site_fract_x
 _atom_site_fract_y
 _atom_site_fract_z
 _atom_site_occupancy
  Li  Li0  1  0.12081487  0.12918513  0.12918513  1
  Li  Li1  1  0.87918513  0.87081487  0.87081487  1
  Co  Co2  1  0.50000000  0.00000000  0.50000000  1
  Co  Co3  1  0.50000000  0.50000000  0.00000000  1
  Ni  Ni4  1  0.00000000  0.50000000  0.50000000  1
  Ni  Ni5  1  0.50000000  0.50000000  0.50000000  1
  O  O6  1  0.26106621  0.26551543  0.26551543  1
  O  O7  1  0.26222994  0.26750073  0.70803839  1
  O  O8  1  0.26222994  0.70803839  0.26750073  1
  O  O9  1  0.70790394  0.26551543  0.26551543  1
  O  O10  1  0.29209606  0.73448457  0.73448457  1
  O  O11  1  0.73777006  0.73249927  0.29196161  1
  O  O12  1  0.73777006  0.29196161  0.73249927  1
  O  O13  1  0.73893379  0.73448457  0.73448457  1
