# generated using pymatgen
data_MnP6(WO8)3
_symmetry_space_group_name_H-M   'P 1'
_cell_length_a   8.98415408
_cell_length_b   8.98415445
_cell_length_c   8.98415448
_cell_angle_alpha   58.83083699
_cell_angle_beta   58.83083914
_cell_angle_gamma   58.83084193
_symmetry_Int_Tables_number   1
_chemical_formula_structural   MnP6(WO8)3
_chemical_formula_sum   'Mn1 P6 W3 O24'
_cell_volume   499.07457214
_cell_formula_units_Z   1
loop_
 _symmetry_equiv_pos_site_id
 _symmetry_equiv_pos_as_xyz
  1  'x, y, z'
loop_
 _atom_site_type_symbol
 _atom_site_label
 _atom_site_symmetry_multiplicity
 _atom_site_fract_x
 _atom_site_fract_y
 _atom_site_fract_z
 _atom_site_occupancy
  Mn  Mn0  1  0.86063305  0.86063305  0.86063305  1
  P  P1  1  0.03676794  0.75199389  0.46388687  1
  P  P2  1  0.46388687  0.03676794  0.75199389  1
  P  P3  1  0.75199389  0.46388687  0.03676794  1
  P  P4  1  0.25431453  0.53417989  0.96221098  1
  P  P5  1  0.53417989  0.96221098  0.25431453  1
  P  P6  1  0.96221098  0.25431453  0.53417989  1
  W  W7  1  0.14321696  0.14321696  0.14321696  1
  W  W8  1  0.35724846  0.35724846  0.35724846  1
  W  W9  1  0.64344768  0.64344768  0.64344768  1
  O  O10  1  0.13176128  0.30326507  0.48242429  1
  O  O11  1  0.30326507  0.48242429  0.13176128  1
  O  O12  1  0.06164701  0.92259905  0.28449800  1
  O  O13  1  0.48242429  0.13176128  0.30326507  1
  O  O14  1  0.21508347  0.58095453  0.41577596  1
  O  O15  1  0.02633597  0.76147075  0.62939617  1
  O  O16  1  0.28449800  0.06164701  0.92259905  1
  O  O17  1  0.41577596  0.21508347  0.58095453  1
  O  O18  1  0.58095453  0.41577596  0.21508347  1
  O  O19  1  0.22592167  0.36237355  0.99044218  1
  O  O20  1  0.09044834  0.70537167  0.95284639  1
  O  O21  1  0.36237355  0.99044218  0.22592167  1
  O  O22  1  0.62939617  0.02633597  0.76147075  1
  O  O23  1  0.92259905  0.28449800  0.06164701  1
  O  O24  1  0.76147075  0.62939617  0.02633597  1
  O  O25  1  0.43103446  0.55216412  0.78891530  1
  O  O26  1  0.55216412  0.78891530  0.43103446  1
  O  O27  1  0.70537167  0.95284639  0.09044834  1
  O  O28  1  0.99044218  0.22592167  0.36237355  1
  O  O29  1  0.78891530  0.43103446  0.55216412  1
  O  O30  1  0.48889452  0.86950323  0.71897578  1
  O  O31  1  0.95284639  0.09044834  0.70537167  1
  O  O32  1  0.71897578  0.48889452  0.86950323  1
  O  O33  1  0.86950323  0.71897578  0.48889452  1
