# generated using pymatgen
data_V4(OF3)3
_symmetry_space_group_name_H-M   'P 1'
_cell_length_a   5.27235112
_cell_length_b   5.42097545
_cell_length_c   17.57739986
_cell_angle_alpha   91.24751175
_cell_angle_beta   99.10870604
_cell_angle_gamma   60.74656687
_symmetry_Int_Tables_number   1
_chemical_formula_structural   V4(OF3)3
_chemical_formula_sum   'V8 O6 F18'
_cell_volume   431.88468403
_cell_formula_units_Z   2
loop_
 _symmetry_equiv_pos_site_id
 _symmetry_equiv_pos_as_xyz
  1  'x, y, z'
loop_
 _atom_site_type_symbol
 _atom_site_label
 _atom_site_symmetry_multiplicity
 _atom_site_fract_x
 _atom_site_fract_y
 _atom_site_fract_z
 _atom_site_occupancy
  V  V0  1  0.74949150  0.62060473  0.12497356  1
  V  V1  1  0.78483260  0.10758044  0.62996044  1
  V  V2  1  0.45750659  0.26818466  0.24943062  1
  V  V3  1  0.49575712  0.75840521  0.75010900  1
  V  V4  1  0.25161247  0.90471353  0.37277036  1
  V  V5  1  0.27455691  0.34515611  0.87129744  1
  V  V6  1  0.03717638  0.97294572  0.00133226  1
  V  V7  1  0.00442356  0.53100441  0.50446412  1
  O  O8  1  0.95308183  0.80647742  0.55860005  1
  O  O9  1  0.39428946  0.79402563  0.04150565  1
  O  O10  1  0.38919802  0.08512179  0.33313835  1
  O  O11  1  0.10391694  0.45174262  0.20766877  1
  O  O12  1  0.08184930  0.95313580  0.70092203  1
  O  O13  1  0.43948616  0.07609978  0.81490821  1
  F  F14  1  0.90744763  0.83708098  0.08253935  1
  F  F15  1  0.95661421  0.31145036  0.06042278  1
  F  F16  1  0.54108001  0.93156874  0.18888957  1
  F  F17  1  0.89697259  0.04038795  0.29324502  1
  F  F18  1  0.92121851  0.33741179  0.58353688  1
  F  F19  1  0.92077804  0.54911507  0.79113581  1
  F  F20  1  0.59462784  0.40362942  0.16805550  1
  F  F21  1  0.58415630  0.91485597  0.66408116  1
  F  F22  1  0.57773308  0.71021420  0.45921603  1
  F  F23  1  0.46240024  0.56249979  0.31533978  1
  F  F24  1  0.54375758  0.42813463  0.68785464  1
  F  F25  1  0.42811838  0.29163524  0.54261437  1
  F  F26  1  0.42355127  0.58448630  0.83635429  1
  F  F27  1  0.59081126  0.20187973  0.96050401  1
  F  F28  1  0.08486980  0.67461706  0.41500746  1
  F  F29  1  0.04165821  0.67679549  0.93442437  1
  F  F30  1  0.03520113  0.20049103  0.44106191  1
  F  F31  1  0.07182705  0.16854840  0.91463220  1
