# generated using pymatgen
data_K2MoH2(CO4)2
_symmetry_space_group_name_H-M   'P 1'
_cell_length_a   7.66104540
_cell_length_b   8.84385971
_cell_length_c   12.94994602
_cell_angle_alpha   90.00000000
_cell_angle_beta   90.00000000
_cell_angle_gamma   93.96930400
_symmetry_Int_Tables_number   1
_chemical_formula_structural   K2MoH2(CO4)2
_chemical_formula_sum   'K8 Mo4 H8 C8 O32'
_cell_volume   875.29578230
_cell_formula_units_Z   4
loop_
 _symmetry_equiv_pos_site_id
 _symmetry_equiv_pos_as_xyz
  1  'x, y, z'
loop_
 _atom_site_type_symbol
 _atom_site_label
 _atom_site_symmetry_multiplicity
 _atom_site_fract_x
 _atom_site_fract_y
 _atom_site_fract_z
 _atom_site_occupancy
  K  K0  1  0.31362190  0.89520437  0.11153903  1
  K  K1  1  0.68637810  0.10479563  0.88846097  1
  K  K2  1  0.22509645  0.36088139  0.98554827  1
  K  K3  1  0.72509645  0.36088139  0.51445173  1
  K  K4  1  0.77490355  0.63911861  0.01445173  1
  K  K5  1  0.81362190  0.89520437  0.38846097  1
  K  K6  1  0.27490355  0.63911861  0.48554827  1
  K  K7  1  0.18637810  0.10479563  0.61153903  1
  Mo  Mo8  1  0.06098618  0.55530741  0.23500540  1
  Mo  Mo9  1  0.56098618  0.55530741  0.26499460  1
  Mo  Mo10  1  0.43901382  0.44469259  0.73500540  1
  Mo  Mo11  1  0.93901382  0.44469259  0.76499460  1
  H  H12  1  0.76160027  0.04598836  0.62013377  1
  H  H13  1  0.73839973  0.95401164  0.12013377  1
  H  H14  1  0.56560659  0.99495763  0.61467255  1
  H  H15  1  0.06560659  0.99495763  0.88532745  1
  H  H16  1  0.93439341  0.00504237  0.11467255  1
  H  H17  1  0.26160027  0.04598836  0.87986623  1
  H  H18  1  0.23839973  0.95401164  0.37986623  1
  H  H19  1  0.43439341  0.00504237  0.38532745  1
  C  C20  1  0.42800890  0.79213268  0.75224589  1
  C  C21  1  0.07199110  0.20786732  0.25224589  1
  C  C22  1  0.96728135  0.73741246  0.63616800  1
  C  C23  1  0.46728135  0.73741246  0.86383200  1
  C  C24  1  0.92800890  0.79213268  0.74775411  1
  C  C25  1  0.03271865  0.26258754  0.36383200  1
  C  C26  1  0.53271865  0.26258754  0.13616800  1
  C  C27  1  0.57199110  0.20786732  0.24775411  1
  O  O28  1  0.62111519  0.61178839  0.39208050  1
  O  O29  1  0.17734074  0.47708133  0.77931279  1
  O  O30  1  0.47017939  0.59259561  0.87429580  1
  O  O31  1  0.37888481  0.38821161  0.60791950  1
  O  O32  1  0.50139194  0.16828896  0.06587150  1
  O  O33  1  0.00139194  0.16828896  0.43412850  1
  O  O34  1  0.91138349  0.68601943  0.81538133  1
  O  O35  1  0.49860806  0.83171104  0.93412850  1
  O  O36  1  0.07677395  0.72306679  0.30877805  1
  O  O37  1  0.02982061  0.40740439  0.37429580  1
  O  O38  1  0.83793103  0.95884579  0.07263358  1
  O  O39  1  0.91896796  0.93073138  0.76525672  1
  O  O40  1  0.12111519  0.61178839  0.10791950  1
  O  O41  1  0.57677395  0.72306679  0.19122195  1
  O  O42  1  0.67734074  0.47708133  0.72068721  1
  O  O43  1  0.58103204  0.06926862  0.26525672  1
  O  O44  1  0.33793103  0.95884579  0.42736642  1
  O  O45  1  0.42322605  0.27693321  0.80877805  1
  O  O46  1  0.92322605  0.27693321  0.69122195  1
  O  O47  1  0.41896796  0.93073138  0.73474328  1
  O  O48  1  0.08861651  0.31398057  0.18461867  1
  O  O49  1  0.52982061  0.40740439  0.12570420  1
  O  O50  1  0.41138349  0.68601943  0.68461867  1
  O  O51  1  0.97017939  0.59259561  0.62570420  1
  O  O52  1  0.87888481  0.38821161  0.89208050  1
  O  O53  1  0.99860806  0.83171104  0.56587150  1
  O  O54  1  0.32265926  0.52291867  0.27931279  1
  O  O55  1  0.58861651  0.31398057  0.31538133  1
  O  O56  1  0.08103204  0.06926862  0.23474328  1
  O  O57  1  0.82265926  0.52291867  0.22068721  1
  O  O58  1  0.66206897  0.04115421  0.57263358  1
  O  O59  1  0.16206897  0.04115421  0.92736642  1
