# generated using pymatgen
data_SmHIClO13
_symmetry_space_group_name_H-M   'P 1'
_cell_length_a   7.26802488
_cell_length_b   11.11125980
_cell_length_c   13.26578711
_cell_angle_alpha   96.00603612
_cell_angle_beta   90.00000000
_cell_angle_gamma   90.00000000
_symmetry_Int_Tables_number   1
_chemical_formula_structural   SmHIClO13
_chemical_formula_sum   'Sm4 H4 I4 Cl4 O52'
_cell_volume   1065.42349222
_cell_formula_units_Z   4
loop_
 _symmetry_equiv_pos_site_id
 _symmetry_equiv_pos_as_xyz
  1  'x, y, z'
loop_
 _atom_site_type_symbol
 _atom_site_label
 _atom_site_symmetry_multiplicity
 _atom_site_fract_x
 _atom_site_fract_y
 _atom_site_fract_z
 _atom_site_occupancy
  Sm  Sm0  1  0.64111418  0.02046075  0.31968740  1
  Sm  Sm1  1  0.14111418  0.97953925  0.18031260  1
  Sm  Sm2  1  0.35888582  0.97953925  0.68031260  1
  Sm  Sm3  1  0.85888582  0.02046075  0.81968740  1
  H  H4  1  0.68438599  0.71316640  0.01075634  1
  H  H5  1  0.18438599  0.28683360  0.48924366  1
  H  H6  1  0.31561401  0.28683360  0.98924366  1
  H  H7  1  0.81561401  0.71316640  0.51075634  1
  I  I8  1  0.63326074  0.92744315  0.06036309  1
  I  I9  1  0.13326074  0.07255685  0.43963691  1
  I  I10  1  0.36673926  0.07255685  0.93963691  1
  I  I11  1  0.86673926  0.92744315  0.56036309  1
  Cl  Cl12  1  0.76624974  0.45035624  0.11415791  1
  Cl  Cl13  1  0.26624974  0.54964376  0.38584209  1
  Cl  Cl14  1  0.23375026  0.54964376  0.88584209  1
  Cl  Cl15  1  0.73375026  0.45035624  0.61415791  1
  O  O16  1  0.80496067  0.91842145  0.95733826  1
  O  O17  1  0.30496067  0.08157855  0.54266174  1
  O  O18  1  0.19503933  0.08157855  0.04266174  1
  O  O19  1  0.69503933  0.91842145  0.45733826  1
  O  O20  1  0.57716429  0.09779880  0.03645584  1
  O  O21  1  0.07716429  0.90220120  0.46354416  1
  O  O22  1  0.42283571  0.90220120  0.96354416  1
  O  O23  1  0.92283571  0.09779880  0.53645584  1
  O  O24  1  0.46643632  0.94303649  0.17122443  1
  O  O25  1  0.96643632  0.05696351  0.32877557  1
  O  O26  1  0.53356368  0.05696351  0.82877557  1
  O  O27  1  0.03356368  0.94303649  0.67122443  1
  O  O28  1  0.63463039  0.75923560  0.07291190  1
  O  O29  1  0.13463039  0.24076440  0.42708810  1
  O  O30  1  0.36536961  0.24076440  0.92708810  1
  O  O31  1  0.86536961  0.75923560  0.57291190  1
  O  O32  1  0.61106604  0.22253524  0.41427603  1
  O  O33  1  0.11106604  0.77746476  0.08572397  1
  O  O34  1  0.38893396  0.77746476  0.58572397  1
  O  O35  1  0.88893396  0.22253524  0.91427603  1
  O  O36  1  0.72508624  0.71105932  0.30261954  1
  O  O37  1  0.22508624  0.28894068  0.19738046  1
  O  O38  1  0.27491376  0.28894068  0.69738046  1
  O  O39  1  0.77491376  0.71105932  0.80261954  1
  O  O40  1  0.30951214  0.02515438  0.33902184  1
  O  O41  1  0.80951214  0.97484562  0.16097816  1
  O  O42  1  0.69048786  0.97484562  0.66097816  1
  O  O43  1  0.19048786  0.02515438  0.83902184  1
  O  O44  1  0.60191587  0.23616231  0.31881265  1
  O  O45  1  0.10191587  0.76383769  0.18118735  1
  O  O46  1  0.39808413  0.76383769  0.68118735  1
  O  O47  1  0.89808413  0.23616231  0.81881265  1
  O  O48  1  0.73314698  0.64521736  0.86791520  1
  O  O49  1  0.23314698  0.35478264  0.63208480  1
  O  O50  1  0.26685302  0.35478264  0.13208480  1
  O  O51  1  0.76685302  0.64521736  0.36791520  1
  O  O52  1  0.82635395  0.34810336  0.16528122  1
  O  O53  1  0.32635395  0.65189664  0.33471878  1
  O  O54  1  0.17364605  0.65189664  0.83471878  1
  O  O55  1  0.67364605  0.34810336  0.66528122  1
  O  O56  1  0.71461663  0.40577507  0.00825037  1
  O  O57  1  0.21461663  0.59422493  0.49174963  1
  O  O58  1  0.28538337  0.59422493  0.99174963  1
  O  O59  1  0.78538337  0.40577507  0.50825037  1
  O  O60  1  0.59733102  0.50331448  0.15957652  1
  O  O61  1  0.09733102  0.49668552  0.34042348  1
  O  O62  1  0.40266898  0.49668552  0.84042348  1
  O  O63  1  0.90266898  0.50331448  0.65957652  1
  O  O64  1  0.90850319  0.54120780  0.11468335  1
  O  O65  1  0.40850319  0.45879220  0.38531665  1
  O  O66  1  0.09149681  0.45879220  0.88531665  1
  O  O67  1  0.59149681  0.54120780  0.61468335  1
