# generated using pymatgen
data_Ni(IO3)2
_symmetry_space_group_name_H-M   'P 1'
_cell_length_a   5.48416635
_cell_length_b   10.86087173
_cell_length_c   5.26004470
_cell_angle_alpha   90.00000000
_cell_angle_beta   90.00000000
_cell_angle_gamma   120.36235624
_symmetry_Int_Tables_number   1
_chemical_formula_structural   Ni(IO3)2
_chemical_formula_sum   'Ni2 I4 O12'
_cell_volume   270.33234071
_cell_formula_units_Z   2
loop_
 _symmetry_equiv_pos_site_id
 _symmetry_equiv_pos_as_xyz
  1  'x, y, z'
loop_
 _atom_site_type_symbol
 _atom_site_label
 _atom_site_symmetry_multiplicity
 _atom_site_fract_x
 _atom_site_fract_y
 _atom_site_fract_z
 _atom_site_occupancy
  Ni  Ni0  1  0.98238942  0.74714231  0.41416602  1
  Ni  Ni1  1  0.01761058  0.25285769  0.91416602  1
  I  I2  1  0.67110404  0.93297290  0.48707538  1
  I  I3  1  0.32989265  0.59883761  0.01296099  1
  I  I4  1  0.67010735  0.40116239  0.51296099  1
  I  I5  1  0.32889596  0.06702710  0.98707538  1
  O  O6  1  0.26892161  0.92021282  0.20284538  1
  O  O7  1  0.04798030  0.60105525  0.20139518  1
  O  O8  1  0.33497882  0.79985599  0.63586396  1
  O  O9  1  0.28478974  0.42962528  0.13298117  1
  O  O10  1  0.63902547  0.72637924  0.20202410  1
  O  O11  1  0.09951827  0.12193782  0.14768780  1
  O  O12  1  0.90048173  0.87806218  0.64768780  1
  O  O13  1  0.36097453  0.27362076  0.70202410  1
  O  O14  1  0.71521026  0.57037472  0.63298117  1
  O  O15  1  0.66502118  0.20014401  0.13586396  1
  O  O16  1  0.95201970  0.39894475  0.70139518  1
  O  O17  1  0.73107839  0.07978718  0.70284538  1
