# generated using pymatgen
data_Na3V2(PO4)3
_symmetry_space_group_name_H-M   'P 1'
_cell_length_a   8.87318257
_cell_length_b   8.87318223
_cell_length_c   8.89775230
_cell_angle_alpha   89.68509069
_cell_angle_beta   60.03413542
_cell_angle_gamma   119.57889684
_symmetry_Int_Tables_number   1
_chemical_formula_structural   Na3V2(PO4)3
_chemical_formula_sum   'Na6 V4 P6 O24'
_cell_volume   497.39694121
_cell_formula_units_Z   2
loop_
 _symmetry_equiv_pos_site_id
 _symmetry_equiv_pos_as_xyz
  1  'x, y, z'
loop_
 _atom_site_type_symbol
 _atom_site_label
 _atom_site_symmetry_multiplicity
 _atom_site_fract_x
 _atom_site_fract_y
 _atom_site_fract_z
 _atom_site_occupancy
  Na  Na0  1  0.00000000  0.50000000  0.00000000  1
  Na  Na1  1  0.00000000  0.00000000  0.50000000  1
  Na  Na2  1  0.13086331  0.24688665  0.76458210  1
  Na  Na3  1  0.51146875  0.89544641  0.73541790  1
  Na  Na4  1  0.48853125  0.10455359  0.26458210  1
  Na  Na5  1  0.86913669  0.75311335  0.23541790  1
  V  V6  1  0.28659703  0.63987818  0.56241982  1
  V  V7  1  0.29770100  0.15098315  0.06241982  1
  V  V8  1  0.70229900  0.84901685  0.93758018  1
  V  V9  1  0.71340297  0.36012182  0.43758018  1
  P  P10  1  0.20993170  0.74782858  0.24280677  1
  P  P11  1  0.20652537  0.95652537  0.75000000  1
  P  P12  1  0.49063534  0.45273847  0.25719323  1
  P  P13  1  0.50936466  0.54726153  0.74280677  1
  P  P14  1  0.79347463  0.04347463  0.25000000  1
  P  P15  1  0.79006830  0.25217142  0.75719323  1
  O  O16  1  0.01899252  0.58693108  0.25063733  1
  O  O17  1  0.18935601  0.91384260  0.24687055  1
  O  O18  1  0.01651784  0.93758217  0.76313883  1
  O  O19  1  0.41471742  0.79941131  0.05748242  1
  O  O20  1  0.21821868  0.71087240  0.40540050  1
  O  O21  1  0.20143514  0.98393181  0.92400368  1
  O  O22  1  0.20072200  0.77965667  0.73686117  1
  O  O23  1  0.33756842  0.26962985  0.24936267  1
  O  O24  1  0.35689473  0.47219984  0.44251758  1
  O  O25  1  0.61627190  0.62361818  0.09459950  1
  O  O26  1  0.59206551  0.87456118  0.42400368  1
  O  O27  1  0.33928685  0.56377344  0.74687055  1
  O  O28  1  0.66071315  0.43622656  0.25312945  1
  O  O29  1  0.40793449  0.12543882  0.57599632  1
  O  O30  1  0.38372810  0.37638182  0.90540050  1
  O  O31  1  0.64310527  0.52780016  0.55748242  1
  O  O32  1  0.66243158  0.73037015  0.75063733  1
  O  O33  1  0.79927800  0.22034333  0.26313883  1
  O  O34  1  0.79856486  0.01606819  0.07599632  1
  O  O35  1  0.78178132  0.28912760  0.59459950  1
  O  O36  1  0.58528258  0.20058869  0.94251758  1
  O  O37  1  0.98348216  0.06241683  0.23686117  1
  O  O38  1  0.81064399  0.08615740  0.75312945  1
  O  O39  1  0.98100748  0.41306892  0.74936267  1
