# generated using pymatgen
data_Rb4SbO4
_symmetry_space_group_name_H-M   'P 1'
_cell_length_a   11.53130755
_cell_length_b   7.18432601
_cell_length_c   11.67336743
_cell_angle_alpha   90.00000000
_cell_angle_beta   111.41257127
_cell_angle_gamma   90.00000000
_symmetry_Int_Tables_number   1
_chemical_formula_structural   Rb4SbO4
_chemical_formula_sum   'Rb16 Sb4 O16'
_cell_volume   900.32457411
_cell_formula_units_Z   4
loop_
 _symmetry_equiv_pos_site_id
 _symmetry_equiv_pos_as_xyz
  1  'x, y, z'
loop_
 _atom_site_type_symbol
 _atom_site_label
 _atom_site_symmetry_multiplicity
 _atom_site_fract_x
 _atom_site_fract_y
 _atom_site_fract_z
 _atom_site_occupancy
  Rb  Rb0  1  0.08243102  0.31677016  0.71398137  1
  Rb  Rb1  1  0.12493125  0.82705849  0.60715151  1
  Rb  Rb2  1  0.34439179  0.61320420  0.92298289  1
  Rb  Rb3  1  0.08243102  0.18322984  0.21398137  1
  Rb  Rb4  1  0.12493125  0.67294151  0.10715151  1
  Rb  Rb5  1  0.43411723  0.08347693  0.79759418  1
  Rb  Rb6  1  0.34439179  0.88679580  0.42298289  1
  Rb  Rb7  1  0.56588277  0.58347693  0.70240582  1
  Rb  Rb8  1  0.43411723  0.41652307  0.29759418  1
  Rb  Rb9  1  0.65560821  0.11320420  0.57701711  1
  Rb  Rb10  1  0.56588277  0.91652307  0.20240582  1
  Rb  Rb11  1  0.87506875  0.32705849  0.89284849  1
  Rb  Rb12  1  0.91756898  0.81677016  0.78601863  1
  Rb  Rb13  1  0.65560821  0.38679580  0.07701711  1
  Rb  Rb14  1  0.87506875  0.17294151  0.39284849  1
  Rb  Rb15  1  0.91756898  0.68322984  0.28601863  1
  Sb  Sb16  1  0.25789847  0.38186462  0.51231223  1
  Sb  Sb17  1  0.25789847  0.11813538  0.01231223  1
  Sb  Sb18  1  0.74210153  0.88186462  0.98768777  1
  Sb  Sb19  1  0.74210153  0.61813538  0.48768777  1
  O  O20  1  0.18447669  0.96181212  0.85802852  1
  O  O21  1  0.14498750  0.16661897  0.49797158  1
  O  O22  1  0.29131395  0.51235712  0.67330785  1
  O  O23  1  0.18447669  0.53818788  0.35802752  1
  O  O24  1  0.14498750  0.33338103  0.99797158  1
  O  O25  1  0.41651595  0.26824898  0.52391992  1
  O  O26  1  0.58348405  0.76824898  0.97608008  1
  O  O27  1  0.29131395  0.98764288  0.17330785  1
  O  O28  1  0.70868605  0.01235712  0.82669215  1
  O  O29  1  0.41651595  0.23175102  0.02391992  1
  O  O30  1  0.58348405  0.73175102  0.47608008  1
  O  O31  1  0.85501250  0.66661897  0.00202842  1
  O  O32  1  0.81552331  0.46181212  0.64197148  1
  O  O33  1  0.70868605  0.48764288  0.32669215  1
  O  O34  1  0.85501250  0.83338103  0.50202842  1
  O  O35  1  0.81552331  0.03818788  0.14197148  1
