# generated using pymatgen
data_Li4V3CrO8
_symmetry_space_group_name_H-M   'P 1'
_cell_length_a   5.18463756
_cell_length_b   5.94699870
_cell_length_c   5.94836922
_cell_angle_alpha   119.98526811
_cell_angle_beta   90.01291319
_cell_angle_gamma   73.34444243
_symmetry_Int_Tables_number   1
_chemical_formula_structural   Li4V3CrO8
_chemical_formula_sum   'Li4 V3 Cr1 O8'
_cell_volume   149.91569815
_cell_formula_units_Z   1
loop_
 _symmetry_equiv_pos_site_id
 _symmetry_equiv_pos_as_xyz
  1  'x, y, z'
loop_
 _atom_site_type_symbol
 _atom_site_label
 _atom_site_symmetry_multiplicity
 _atom_site_fract_x
 _atom_site_fract_y
 _atom_site_fract_z
 _atom_site_occupancy
  Li  Li0  1  0.00114367  0.99614404  0.49764893  1
  Li  Li1  1  0.99884457  0.00387296  0.00235438  1
  Li  Li2  1  0.99980686  0.50006360  0.49487107  1
  Li  Li3  1  0.00020107  0.49989583  0.00510755  1
  V  V4  1  0.50000458  0.00002975  0.75002811  1
  V  V5  1  0.50001526  0.00004419  0.25001597  1
  V  V6  1  0.50001756  0.49996878  0.74998029  1
  Cr  Cr7  1  0.50004573  0.49979821  0.24986886  1
  O  O8  1  0.27320833  0.24226743  0.62077501  1
  O  O9  1  0.73053101  0.25622742  0.88077089  1
  O  O10  1  0.27000780  0.24569342  0.12420803  1
  O  O11  1  0.73100690  0.25932588  0.37872136  1
  O  O12  1  0.26942254  0.74384047  0.61929486  1
  O  O13  1  0.72681234  0.75772258  0.87922845  1
  O  O14  1  0.26892878  0.74073690  0.12130183  1
  O  O15  1  0.73000200  0.75436753  0.37582643  1
