# generated using pymatgen
data_NaNiPO4
_symmetry_space_group_name_H-M   'P 1'
_cell_length_a   11.31743116
_cell_length_b   6.41862275
_cell_length_c   4.68503389
_cell_angle_alpha   90.00000000
_cell_angle_beta   90.00049985
_cell_angle_gamma   90.00000000
_symmetry_Int_Tables_number   1
_chemical_formula_structural   NaNiPO4
_chemical_formula_sum   'Na4 Ni4 P4 O16'
_cell_volume   340.33173627
_cell_formula_units_Z   4
loop_
 _symmetry_equiv_pos_site_id
 _symmetry_equiv_pos_as_xyz
  1  'x, y, z'
loop_
 _atom_site_type_symbol
 _atom_site_label
 _atom_site_symmetry_multiplicity
 _atom_site_fract_x
 _atom_site_fract_y
 _atom_site_fract_z
 _atom_site_occupancy
  Na  Na0  1  0.22096101  0.75000000  0.47755607  1
  Na  Na1  1  0.27906266  0.25000000  0.97752507  1
  Na  Na2  1  0.72093734  0.75000000  0.02247493  1
  Na  Na3  1  0.77903899  0.25000000  0.52244393  1
  Ni  Ni4  1  0.00000000  0.00000000  0.00000000  1
  Ni  Ni5  1  0.00000000  0.50000000  0.00000000  1
  Ni  Ni6  1  0.50000000  0.00000000  0.50000000  1
  Ni  Ni7  1  0.50000000  0.50000000  0.50000000  1
  P  P8  1  0.08117883  0.25000000  0.40366636  1
  P  P9  1  0.41881079  0.75000000  0.90365350  1
  P  P10  1  0.58118921  0.25000000  0.09634650  1
  P  P11  1  0.91882117  0.75000000  0.59633364  1
  O  O12  1  0.04600388  0.75000000  0.74491840  1
  O  O13  1  0.07334603  0.25000000  0.73486815  1
  O  O14  1  0.14139178  0.44919140  0.28420300  1
  O  O15  1  0.14139178  0.05080860  0.28420300  1
  O  O16  1  0.35859524  0.94918315  0.78417877  1
  O  O17  1  0.35859524  0.55081685  0.78417877  1
  O  O18  1  0.42665803  0.75000000  0.23484866  1
  O  O19  1  0.45400328  0.25000000  0.24492428  1
  O  O20  1  0.54599672  0.75000000  0.75507572  1
  O  O21  1  0.57334197  0.25000000  0.76515134  1
  O  O22  1  0.64140476  0.05081685  0.21582123  1
  O  O23  1  0.64140476  0.44918315  0.21582123  1
  O  O24  1  0.85860822  0.55080860  0.71579700  1
  O  O25  1  0.85860822  0.94919140  0.71579700  1
  O  O26  1  0.92665397  0.75000000  0.26513185  1
  O  O27  1  0.95399612  0.25000000  0.25508160  1
