# generated using pymatgen
data_Ca3WO6
_symmetry_space_group_name_H-M   'P 1'
_cell_length_a   6.61106650
_cell_length_b   6.61106640
_cell_length_c   6.61106610
_cell_angle_alpha   91.52728661
_cell_angle_beta   91.52728768
_cell_angle_gamma   91.52728324
_symmetry_Int_Tables_number   1
_chemical_formula_structural   Ca3WO6
_chemical_formula_sum   'Ca6 W2 O12'
_cell_volume   288.63104211
_cell_formula_units_Z   2
loop_
 _symmetry_equiv_pos_site_id
 _symmetry_equiv_pos_as_xyz
  1  'x, y, z'
loop_
 _atom_site_type_symbol
 _atom_site_label
 _atom_site_symmetry_multiplicity
 _atom_site_fract_x
 _atom_site_fract_y
 _atom_site_fract_z
 _atom_site_occupancy
  Ca  Ca0  1  0.06559108  0.56217983  0.25207138  1
  Ca  Ca1  1  0.25207138  0.06559108  0.56217983  1
  Ca  Ca2  1  0.43782017  0.74792862  0.93440892  1
  Ca  Ca3  1  0.56217983  0.25207138  0.06559108  1
  Ca  Ca4  1  0.74792862  0.93440892  0.43782017  1
  Ca  Ca5  1  0.93440892  0.43782017  0.74792862  1
  W  W6  1  0.00000000  0.00000000  0.00000000  1
  W  W7  1  0.50000000  0.50000000  0.50000000  1
  O  O8  1  0.06235531  0.71676048  0.93218987  1
  O  O9  1  0.06781013  0.93764469  0.28323952  1
  O  O10  1  0.21719631  0.42160513  0.54716888  1
  O  O11  1  0.28323952  0.06781013  0.93764469  1
  O  O12  1  0.42160513  0.54716888  0.21719631  1
  O  O13  1  0.45283112  0.78280369  0.57839487  1
  O  O14  1  0.54716888  0.21719631  0.42160513  1
  O  O15  1  0.57839487  0.45283112  0.78280369  1
  O  O16  1  0.71676048  0.93218987  0.06235531  1
  O  O17  1  0.78280369  0.57839487  0.45283112  1
  O  O18  1  0.93218987  0.06235531  0.71676048  1
  O  O19  1  0.93764469  0.28323952  0.06781013  1
