# generated using pymatgen
data_Na4VO4
_symmetry_space_group_name_H-M   'P 1'
_cell_length_a   8.70836583
_cell_length_b   5.83210189
_cell_length_c   5.80962367
_cell_angle_alpha   68.47171601
_cell_angle_beta   109.27092112
_cell_angle_gamma   99.75923577
_symmetry_Int_Tables_number   1
_chemical_formula_structural   Na4VO4
_chemical_formula_sum   'Na8 V2 O8'
_cell_volume   258.70215081
_cell_formula_units_Z   2
loop_
 _symmetry_equiv_pos_site_id
 _symmetry_equiv_pos_as_xyz
  1  'x, y, z'
loop_
 _atom_site_type_symbol
 _atom_site_label
 _atom_site_symmetry_multiplicity
 _atom_site_fract_x
 _atom_site_fract_y
 _atom_site_fract_z
 _atom_site_occupancy
  Na  Na0  1  0.18111960  0.01193858  0.63763700  1
  Na  Na1  1  0.14441128  0.51554558  0.10723186  1
  Na  Na2  1  0.31303314  0.54701855  0.67797571  1
  Na  Na3  1  0.35040354  0.03920907  0.21121249  1
  Na  Na4  1  0.56737005  0.01987002  0.75871385  1
  Na  Na5  1  0.73083339  0.52485096  0.91964244  1
  Na  Na6  1  0.76234467  0.02823895  0.39684835  1
  Na  Na7  1  0.92837411  0.53299774  0.56199276  1
  V  V8  1  0.50532362  0.55971501  0.31444479  1
  V  V9  1  0.98999908  0.99514858  0.00344331  1
  O  O10  1  0.12548716  0.25022221  0.86085829  1
  O  O11  1  0.10405031  0.79756872  0.32401161  1
  O  O12  1  0.39135758  0.75759460  0.99408977  1
  O  O13  1  0.37057864  0.30408193  0.45778958  1
  O  O14  1  0.54802688  0.75343291  0.52038698  1
  O  O15  1  0.67354829  0.41915767  0.30885999  1
  O  O16  1  0.94590680  0.80137984  0.79734090  1
  O  O17  1  0.82296286  0.13800506  0.00956530  1
