# generated using pymatgen
data_V4O5F7
_symmetry_space_group_name_H-M   'P 1'
_cell_length_a   5.28489977
_cell_length_b   5.34791512
_cell_length_c   9.04865363
_cell_angle_alpha   74.34584862
_cell_angle_beta   90.33468365
_cell_angle_gamma   60.45153478
_symmetry_Int_Tables_number   1
_chemical_formula_structural   V4O5F7
_chemical_formula_sum   'V4 O5 F7'
_cell_volume   211.26311192
_cell_formula_units_Z   1
loop_
 _symmetry_equiv_pos_site_id
 _symmetry_equiv_pos_as_xyz
  1  'x, y, z'
loop_
 _atom_site_type_symbol
 _atom_site_label
 _atom_site_symmetry_multiplicity
 _atom_site_fract_x
 _atom_site_fract_y
 _atom_site_fract_z
 _atom_site_occupancy
  V  V0  1  0.78246954  0.47369808  0.26123354  1
  V  V1  1  0.48772066  0.01891673  0.51162110  1
  V  V2  1  0.27028684  0.51953945  0.74441485  1
  V  V3  1  0.04594709  0.99594646  0.01570192  1
  O  O4  1  0.94794661  0.24458062  0.11817133  1
  O  O5  1  0.40319595  0.75632222  0.08592515  1
  O  O6  1  0.40298555  0.74379460  0.66267917  1
  O  O7  1  0.44208891  0.24142628  0.62325086  1
  O  O8  1  0.08186804  0.25579425  0.40280704  1
  F  F9  1  0.91357525  0.73831393  0.58384251  1
  F  F10  1  0.90929571  0.76011417  0.15684535  1
  F  F11  1  0.54421779  0.75386155  0.37553348  1
  F  F12  1  0.58369124  0.24648662  0.32989420  1
  F  F13  1  0.57666639  0.24409286  0.91767382  1
  F  F14  1  0.03255105  0.75753219  0.87714058  1
  F  F15  1  0.07549437  0.24958199  0.83326509  1
