# generated using pymatgen
data_Rb3GePSe7
_symmetry_space_group_name_H-M   'P 1'
_cell_length_a   7.42543057
_cell_length_b   10.01162040
_cell_length_c   12.19816890
_cell_angle_alpha   78.69189096
_cell_angle_beta   89.53086427
_cell_angle_gamma   68.57120190
_symmetry_Int_Tables_number   1
_chemical_formula_structural   Rb3GePSe7
_chemical_formula_sum   'Rb6 Ge2 P2 Se14'
_cell_volume   825.74333722
_cell_formula_units_Z   2
loop_
 _symmetry_equiv_pos_site_id
 _symmetry_equiv_pos_as_xyz
  1  'x, y, z'
loop_
 _atom_site_type_symbol
 _atom_site_label
 _atom_site_symmetry_multiplicity
 _atom_site_fract_x
 _atom_site_fract_y
 _atom_site_fract_z
 _atom_site_occupancy
  Rb  Rb0  1  0.05919891  0.48017486  0.78967403  1
  Rb  Rb1  1  0.94080209  0.51982414  0.21032597  1
  Rb  Rb2  1  0.68029205  0.12581864  0.39598052  1
  Rb  Rb3  1  0.31970795  0.87418236  0.60401848  1
  Rb  Rb4  1  0.61447786  0.19405180  0.01121690  1
  Rb  Rb5  1  0.38552314  0.80594820  0.98878410  1
  Ge  Ge6  1  0.39895028  0.56357777  0.37190425  1
  Ge  Ge7  1  0.60105072  0.43642123  0.62809575  1
  P  P8  1  0.23064524  0.07141540  0.21937460  1
  P  P9  1  0.76935476  0.92858460  0.78062640  1
  Se  Se10  1  0.10998120  0.22370757  0.05654465  1
  Se  Se11  1  0.89001880  0.77629243  0.94345435  1
  Se  Se12  1  0.04448990  0.93457887  0.19480744  1
  Se  Se13  1  0.95551110  0.06542013  0.80519356  1
  Se  Se14  1  0.08323897  0.76260805  0.36670745  1
  Se  Se15  1  0.91676203  0.23739095  0.63329155  1
  Se  Se16  1  0.34954893  0.39157898  0.53115929  1
  Se  Se17  1  0.65045207  0.60842102  0.46884071  1
  Se  Se18  1  0.46942946  0.48465384  0.20596136  1
  Se  Se19  1  0.53057154  0.51534616  0.79403864  1
  Se  Se20  1  0.46378360  0.07026235  0.77593902  1
  Se  Se21  1  0.53621540  0.92973765  0.22405998  1
  Se  Se22  1  0.15370701  0.16675266  0.36780605  1
  Se  Se23  1  0.84629299  0.83324634  0.63219295  1
