# generated using pymatgen
data_FeH10N2Cl5O
_symmetry_space_group_name_H-M   'P 1'
_cell_length_a   13.92887920
_cell_length_b   9.95730153
_cell_length_c   7.17052371
_cell_angle_alpha   90.00000000
_cell_angle_beta   90.00000000
_cell_angle_gamma   90.00000000
_symmetry_Int_Tables_number   1
_chemical_formula_structural   FeH10N2Cl5O
_chemical_formula_sum   'Fe4 H40 N8 Cl20 O4'
_cell_volume   994.50897518
_cell_formula_units_Z   4
loop_
 _symmetry_equiv_pos_site_id
 _symmetry_equiv_pos_as_xyz
  1  'x, y, z'
loop_
 _atom_site_type_symbol
 _atom_site_label
 _atom_site_symmetry_multiplicity
 _atom_site_fract_x
 _atom_site_fract_y
 _atom_site_fract_z
 _atom_site_occupancy
  Fe  Fe0  1  0.11981762  0.25000000  0.18730960  1
  Fe  Fe1  1  0.38018238  0.75000000  0.68730960  1
  Fe  Fe2  1  0.61981762  0.25000000  0.31269040  1
  Fe  Fe3  1  0.88018238  0.75000000  0.81269040  1
  H  H4  1  0.02959591  0.66939340  0.05194377  1
  H  H5  1  0.02959591  0.83060660  0.05194377  1
  H  H6  1  0.09865778  0.58058713  0.65330828  1
  H  H7  1  0.09865778  0.91941287  0.65330828  1
  H  H8  1  0.10592469  0.08817411  0.62719114  1
  H  H9  1  0.10592469  0.41182589  0.62719114  1
  H  H10  1  0.15466648  0.01547448  0.81721795  1
  H  H11  1  0.15466648  0.48452552  0.81721795  1
  H  H12  1  0.20544307  0.99296801  0.60811609  1
  H  H13  1  0.20544307  0.50703199  0.60811609  1
  H  H14  1  0.29455693  0.49296801  0.10811609  1
  H  H15  1  0.29455693  0.00703199  0.10811609  1
  H  H16  1  0.34533352  0.98452552  0.31721795  1
  H  H17  1  0.34533352  0.51547448  0.31721795  1
  H  H18  1  0.39407531  0.58817411  0.12719114  1
  H  H19  1  0.39407531  0.91182589  0.12719114  1
  H  H20  1  0.40134222  0.08058713  0.15330828  1
  H  H21  1  0.40134222  0.41941287  0.15330828  1
  H  H22  1  0.47040409  0.16939340  0.55194377  1
  H  H23  1  0.47040409  0.33060660  0.55194377  1
  H  H24  1  0.52959591  0.66939340  0.44805623  1
  H  H25  1  0.52959591  0.83060660  0.44805623  1
  H  H26  1  0.59865778  0.58058713  0.84669172  1
  H  H27  1  0.59865778  0.91941287  0.84669172  1
  H  H28  1  0.60592469  0.08817411  0.87280886  1
  H  H29  1  0.60592469  0.41182589  0.87280886  1
  H  H30  1  0.65466648  0.48452552  0.68278205  1
  H  H31  1  0.65466648  0.01547448  0.68278205  1
  H  H32  1  0.70544307  0.99296801  0.89188391  1
  H  H33  1  0.70544307  0.50703199  0.89188391  1
  H  H34  1  0.79455693  0.49296801  0.39188391  1
  H  H35  1  0.79455693  0.00703199  0.39188391  1
  H  H36  1  0.84533352  0.98452552  0.18278205  1
  H  H37  1  0.84533352  0.51547448  0.18278205  1
  H  H38  1  0.89407531  0.58817411  0.37280886  1
  H  H39  1  0.89407531  0.91182589  0.37280886  1
  H  H40  1  0.90134222  0.08058713  0.34669172  1
  H  H41  1  0.90134222  0.41941287  0.34669172  1
  H  H42  1  0.97040409  0.16939340  0.94805623  1
  H  H43  1  0.97040409  0.33060660  0.94805623  1
  N  N44  1  0.14094201  0.00371249  0.67671765  1
  N  N45  1  0.14094201  0.49628751  0.67671765  1
  N  N46  1  0.35905799  0.50371249  0.17671765  1
  N  N47  1  0.35905799  0.99628751  0.17671765  1
  N  N48  1  0.64094201  0.00371249  0.82328235  1
  N  N49  1  0.64094201  0.49628751  0.82328235  1
  N  N50  1  0.85905799  0.50371249  0.32328235  1
  N  N51  1  0.85905799  0.99628751  0.32328235  1
  Cl  Cl52  1  0.00585146  0.25000000  0.45514701  1
  Cl  Cl53  1  0.10621848  0.00897450  0.17259508  1
  Cl  Cl54  1  0.10621848  0.49102550  0.17259508  1
  Cl  Cl55  1  0.22482105  0.25000000  0.93043239  1
  Cl  Cl56  1  0.24633599  0.25000000  0.39805041  1
  Cl  Cl57  1  0.25366401  0.75000000  0.89805041  1
  Cl  Cl58  1  0.27517895  0.75000000  0.43043239  1
  Cl  Cl59  1  0.39378152  0.50897450  0.67259508  1
  Cl  Cl60  1  0.39378152  0.99102550  0.67259508  1
  Cl  Cl61  1  0.49414854  0.75000000  0.95514701  1
  Cl  Cl62  1  0.50585146  0.25000000  0.04485299  1
  Cl  Cl63  1  0.60621848  0.00897450  0.32740492  1
  Cl  Cl64  1  0.60621848  0.49102550  0.32740492  1
  Cl  Cl65  1  0.72482105  0.25000000  0.56956761  1
  Cl  Cl66  1  0.74633599  0.25000000  0.10194959  1
  Cl  Cl67  1  0.75366401  0.75000000  0.60194959  1
  Cl  Cl68  1  0.77517895  0.75000000  0.06956761  1
  Cl  Cl69  1  0.89378152  0.50897450  0.82740492  1
  Cl  Cl70  1  0.89378152  0.99102550  0.82740492  1
  Cl  Cl71  1  0.99414854  0.75000000  0.54485299  1
  O  O72  1  0.00191760  0.75000000  0.99312671  1
  O  O73  1  0.49808240  0.25000000  0.49312671  1
  O  O74  1  0.50191760  0.75000000  0.50687329  1
  O  O75  1  0.99808240  0.25000000  0.00687329  1
