# generated using pymatgen
data_V(SO4)2
_symmetry_space_group_name_H-M   'P 1'
_cell_length_a   9.08230116
_cell_length_b   8.95037982
_cell_length_c   13.32034338
_cell_angle_alpha   90.00000000
_cell_angle_beta   90.00000000
_cell_angle_gamma   90.00000000
_symmetry_Int_Tables_number   1
_chemical_formula_structural   V(SO4)2
_chemical_formula_sum   'V8 S16 O64'
_cell_volume   1082.81131306
_cell_formula_units_Z   8
loop_
 _symmetry_equiv_pos_site_id
 _symmetry_equiv_pos_as_xyz
  1  'x, y, z'
loop_
 _atom_site_type_symbol
 _atom_site_label
 _atom_site_symmetry_multiplicity
 _atom_site_fract_x
 _atom_site_fract_y
 _atom_site_fract_z
 _atom_site_occupancy
  V  V0  1  0.14158093  0.10598344  0.12668296  1
  V  V1  1  0.14158093  0.39401656  0.62668296  1
  V  V2  1  0.35841907  0.60598344  0.12668296  1
  V  V3  1  0.35841907  0.89401656  0.62668296  1
  V  V4  1  0.64158093  0.10598344  0.37331704  1
  V  V5  1  0.64158093  0.39401656  0.87331704  1
  V  V6  1  0.85841907  0.60598344  0.37331704  1
  V  V7  1  0.85841907  0.89401656  0.87331704  1
  S  S8  1  0.07269150  0.06463779  0.72028788  1
  S  S9  1  0.07269150  0.43536221  0.22028788  1
  S  S10  1  0.15992077  0.68821805  0.48674123  1
  S  S11  1  0.15992077  0.81178195  0.98674123  1
  S  S12  1  0.34007923  0.18821805  0.48674123  1
  S  S13  1  0.34007923  0.31178195  0.98674123  1
  S  S14  1  0.42730850  0.93536221  0.22028788  1
  S  S15  1  0.42730850  0.56463779  0.72028788  1
  S  S16  1  0.57269150  0.43536221  0.27971212  1
  S  S17  1  0.57269150  0.06463779  0.77971212  1
  S  S18  1  0.65992077  0.68821805  0.01325977  1
  S  S19  1  0.65992077  0.81178195  0.51325877  1
  S  S20  1  0.84007923  0.18821805  0.01325977  1
  S  S21  1  0.84007923  0.31178195  0.51325877  1
  S  S22  1  0.92730850  0.56463779  0.77971212  1
  S  S23  1  0.92730850  0.93536221  0.27971212  1
  O  O24  1  0.99505490  0.69738710  0.47249941  1
  O  O25  1  0.99505490  0.80261290  0.97249941  1
  O  O26  1  0.01924523  0.99149119  0.35764983  1
  O  O27  1  0.01924523  0.50850881  0.85764983  1
  O  O28  1  0.02252481  0.47330415  0.32542950  1
  O  O29  1  0.02252481  0.02669585  0.82542950  1
  O  O30  1  0.08564209  0.23496097  0.71973330  1
  O  O31  1  0.08564209  0.26503903  0.21973330  1
  O  O32  1  0.18997839  0.72408837  0.08262210  1
  O  O33  1  0.18997839  0.77591163  0.58262210  1
  O  O34  1  0.19424580  0.97155057  0.01692060  1
  O  O35  1  0.19424580  0.52844943  0.51692060  1
  O  O36  1  0.23041769  0.00702993  0.71633665  1
  O  O37  1  0.23041769  0.49297007  0.21633665  1
  O  O38  1  0.24256252  0.73446038  0.40181270  1
  O  O39  1  0.24256252  0.76553962  0.90181270  1
  O  O40  1  0.25743748  0.23446038  0.40181270  1
  O  O41  1  0.25743748  0.26553962  0.90181270  1
  O  O42  1  0.26958231  0.99297007  0.21633665  1
  O  O43  1  0.26958231  0.50702993  0.71633665  1
  O  O44  1  0.30575420  0.02844943  0.51692060  1
  O  O45  1  0.30575420  0.47155057  0.01692060  1
  O  O46  1  0.31002161  0.22408837  0.08262210  1
  O  O47  1  0.31002161  0.27591163  0.58262210  1
  O  O48  1  0.41435791  0.76503903  0.21973330  1
  O  O49  1  0.41435791  0.73496097  0.71973330  1
  O  O50  1  0.47747519  0.52669585  0.82542950  1
  O  O51  1  0.47747519  0.97330415  0.32542950  1
  O  O52  1  0.48075477  0.49149119  0.35764983  1
  O  O53  1  0.48075477  0.00850881  0.85764983  1
  O  O54  1  0.50494510  0.19738710  0.47249941  1
  O  O55  1  0.50494510  0.30261290  0.97249941  1
  O  O56  1  0.49505490  0.69738710  0.02750059  1
  O  O57  1  0.49505490  0.80261290  0.52750059  1
  O  O58  1  0.51924523  0.50850881  0.64235017  1
  O  O59  1  0.51924523  0.99149119  0.14235017  1
  O  O60  1  0.52252481  0.47330415  0.17457050  1
  O  O61  1  0.52252481  0.02669585  0.67457050  1
  O  O62  1  0.58564209  0.26503903  0.28026670  1
  O  O63  1  0.58564209  0.23496097  0.78026670  1
  O  O64  1  0.68997839  0.72408837  0.41737790  1
  O  O65  1  0.68997839  0.77591163  0.91737790  1
  O  O66  1  0.69424580  0.52844943  0.98307940  1
  O  O67  1  0.69424580  0.97155057  0.48307940  1
  O  O68  1  0.73041769  0.49297007  0.28366335  1
  O  O69  1  0.73041769  0.00702993  0.78366335  1
  O  O70  1  0.74256252  0.73446038  0.09818730  1
  O  O71  1  0.74256252  0.76553962  0.59818730  1
  O  O72  1  0.75743748  0.23446038  0.09818730  1
  O  O73  1  0.75743748  0.26553962  0.59818730  1
  O  O74  1  0.76958231  0.50702993  0.78366335  1
  O  O75  1  0.76958231  0.99297007  0.28366335  1
  O  O76  1  0.80575420  0.47155057  0.48307940  1
  O  O77  1  0.80575420  0.02844943  0.98307940  1
  O  O78  1  0.81002161  0.22408837  0.41737790  1
  O  O79  1  0.81002161  0.27591163  0.91737790  1
  O  O80  1  0.91435791  0.73496097  0.78026670  1
  O  O81  1  0.91435791  0.76503903  0.28026670  1
  O  O82  1  0.97747519  0.52669585  0.67457050  1
  O  O83  1  0.97747519  0.97330415  0.17457050  1
  O  O84  1  0.98075477  0.00850881  0.64235017  1
  O  O85  1  0.98075477  0.49149119  0.14235017  1
  O  O86  1  0.00494510  0.19738710  0.02750059  1
  O  O87  1  0.00494510  0.30261290  0.52750059  1
