# generated using pymatgen
data_Al7(CN)3
_symmetry_space_group_name_H-M   'P 1'
_cell_length_a   3.24861642
_cell_length_b   3.25411661
_cell_length_c   32.07933649
_cell_angle_alpha   90.00000000
_cell_angle_beta   90.00000000
_cell_angle_gamma   119.94410354
_symmetry_Int_Tables_number   1
_chemical_formula_structural   Al7(CN)3
_chemical_formula_sum   'Al14 C6 N6'
_cell_volume   293.85419579
_cell_formula_units_Z   2
loop_
 _symmetry_equiv_pos_site_id
 _symmetry_equiv_pos_as_xyz
  1  'x, y, z'
loop_
 _atom_site_type_symbol
 _atom_site_label
 _atom_site_symmetry_multiplicity
 _atom_site_fract_x
 _atom_site_fract_y
 _atom_site_fract_z
 _atom_site_occupancy
  Al  Al0  1  0.99961721  0.99923443  0.11110554  1
  Al  Al1  1  0.00066950  0.00133901  0.89173401  1
  Al  Al2  1  0.00038279  0.00076557  0.61110554  1
  Al  Al3  1  0.66676591  0.33353182  0.18362446  1
  Al  Al4  1  0.66642010  0.33284020  0.46984684  1
  Al  Al5  1  0.00128392  0.00256784  0.74136808  1
  Al  Al6  1  0.66656593  0.33313186  0.03165372  1
  Al  Al7  1  0.66575931  0.33151863  0.31296066  1
  Al  Al8  1  0.99933050  0.99866099  0.39173401  1
  Al  Al9  1  0.33357990  0.66715980  0.96984684  1
  Al  Al10  1  0.33343407  0.66686814  0.53165372  1
  Al  Al11  1  0.33424069  0.66848137  0.81296066  1
  Al  Al12  1  0.33323409  0.66646818  0.68362446  1
  Al  Al13  1  0.99871608  0.99743216  0.24136808  1
  C  C14  1  0.33403206  0.66806412  0.75196973  1
  C  C15  1  0.00009974  0.00019948  0.99979704  1
  C  C16  1  0.66596794  0.33193588  0.25196973  1
  C  C17  1  0.99990026  0.99980052  0.49979704  1
  C  C18  1  0.99947022  0.99894044  0.17120157  1
  C  C19  1  0.00052978  0.00105956  0.67120157  1
  N  N20  1  0.66623312  0.33246625  0.41212257  1
  N  N21  1  0.33376688  0.66753375  0.91212257  1
  N  N22  1  0.00107602  0.00215204  0.83400766  1
  N  N23  1  0.99892398  0.99784796  0.33400766  1
  N  N24  1  0.33351601  0.66703203  0.58850812  1
  N  N25  1  0.66648399  0.33296797  0.08850812  1
