# generated using pymatgen
data_Rb4Zr6CCl18
_symmetry_space_group_name_H-M   'P 1'
_cell_length_a   10.33285104
_cell_length_b   10.33285104
_cell_length_c   10.01703394
_cell_angle_alpha   77.27577364
_cell_angle_beta   102.72422636
_cell_angle_gamma   62.48676959
_symmetry_Int_Tables_number   1
_chemical_formula_structural   Rb4Zr6CCl18
_chemical_formula_sum   'Rb4 Zr6 C1 Cl18'
_cell_volume   858.76593455
_cell_formula_units_Z   1
loop_
 _symmetry_equiv_pos_site_id
 _symmetry_equiv_pos_as_xyz
  1  'x, y, z'
loop_
 _atom_site_type_symbol
 _atom_site_label
 _atom_site_symmetry_multiplicity
 _atom_site_fract_x
 _atom_site_fract_y
 _atom_site_fract_z
 _atom_site_occupancy
  Rb  Rb0  1  0.23014255  0.44602831  0.68195800  1
  Rb  Rb1  1  0.44602931  0.23014155  0.31804200  1
  Rb  Rb2  1  0.76985845  0.55397069  0.31804200  1
  Rb  Rb3  1  0.55397169  0.76985745  0.68195800  1
  Zr  Zr4  1  0.87819101  0.12180899  0.14330412  1
  Zr  Zr5  1  0.12180899  0.87819101  0.85669488  1
  Zr  Zr6  1  0.05186003  0.76422399  0.14890280  1
  Zr  Zr7  1  0.76422299  0.05186103  0.85109720  1
  Zr  Zr8  1  0.94813897  0.23577801  0.85109720  1
  Zr  Zr9  1  0.23577701  0.94813997  0.14890280  1
  C  C10  1  0.00000000  0.00000000  0.00000000  1
  Cl  Cl11  1  0.19233397  0.60282050  0.00792182  1
  Cl  Cl12  1  0.60282050  0.19233397  0.99207918  1
  Cl  Cl13  1  0.80766603  0.39717950  0.99207918  1
  Cl  Cl14  1  0.39717950  0.80766503  0.00792182  1
  Cl  Cl15  1  0.79548857  0.79548857  0.00000000  1
  Cl  Cl16  1  0.20451143  0.20451143  0.00000000  1
  Cl  Cl17  1  0.68010673  0.31989227  0.67269529  1
  Cl  Cl18  1  0.31989327  0.68010673  0.32730571  1
  Cl  Cl19  1  0.11193695  0.49353674  0.32401551  1
  Cl  Cl20  1  0.49353574  0.11193795  0.67598349  1
  Cl  Cl21  1  0.88806205  0.50646526  0.67598349  1
  Cl  Cl22  1  0.50646326  0.88806305  0.32401551  1
  Cl  Cl23  1  0.73776996  0.26222904  0.30115957  1
  Cl  Cl24  1  0.26223004  0.73776896  0.69884043  1
  Cl  Cl25  1  0.92218005  0.87315387  0.31998042  1
  Cl  Cl26  1  0.87315487  0.92217905  0.68002058  1
  Cl  Cl27  1  0.07782095  0.12684613  0.68002058  1
  Cl  Cl28  1  0.12684613  0.07782095  0.31998042  1
