# generated using pymatgen
data_Cu2PdAu
_symmetry_space_group_name_H-M   'P 1'
_cell_length_a   4.31640586
_cell_length_b   4.31640962
_cell_length_c   4.31641024
_cell_angle_alpha   60.00007381
_cell_angle_beta   60.00015146
_cell_angle_gamma   60.00015840
_symmetry_Int_Tables_number   1
_chemical_formula_structural   Cu2PdAu
_chemical_formula_sum   'Cu2 Pd1 Au1'
_cell_volume   56.86615971
_cell_formula_units_Z   1
loop_
 _symmetry_equiv_pos_site_id
 _symmetry_equiv_pos_as_xyz
  1  'x, y, z'
loop_
 _atom_site_type_symbol
 _atom_site_label
 _atom_site_symmetry_multiplicity
 _atom_site_fract_x
 _atom_site_fract_y
 _atom_site_fract_z
 _atom_site_occupancy
  Cu  Cu0  1  0.50000094  0.50000185  0.49999701  1
  Cu  Cu1  1  -0.00000256  0.99999895  0.99999864  1
  Pd  Pd2  1  0.74999988  0.74999596  0.75000422  1
  Au  Au3  1  0.25000075  0.25000224  0.24999913  1
