# generated using pymatgen
data_BaNa2Mg(PO4)2
_symmetry_space_group_name_H-M   'P 1'
_cell_length_a   5.37288037
_cell_length_b   5.37288055
_cell_length_c   7.04243448
_cell_angle_alpha   90.00012939
_cell_angle_beta   90.00015209
_cell_angle_gamma   120.00016522
_symmetry_Int_Tables_number   1
_chemical_formula_structural   BaNa2Mg(PO4)2
_chemical_formula_sum   'Ba1 Na2 Mg1 P2 O8'
_cell_volume   176.06258745
_cell_formula_units_Z   1
loop_
 _symmetry_equiv_pos_site_id
 _symmetry_equiv_pos_as_xyz
  1  'x, y, z'
loop_
 _atom_site_type_symbol
 _atom_site_label
 _atom_site_symmetry_multiplicity
 _atom_site_fract_x
 _atom_site_fract_y
 _atom_site_fract_z
 _atom_site_occupancy
  Ba  Ba0  1  0.00000100  0.00000100  0.50000000  1
  Na  Na1  1  0.66666695  0.33333210  0.17856190  1
  Na  Na2  1  0.33333405  0.66666890  0.82143810  1
  Mg  Mg3  1  0.00000000  0.00000000  0.00000000  1
  P  P4  1  0.33332550  0.66666173  0.25739928  1
  P  P5  1  0.66667550  0.33333927  0.74259972  1
  O  O6  1  0.64218552  0.77101048  0.17883715  1
  O  O7  1  0.22898300  0.87116502  0.17884527  1
  O  O8  1  0.12882915  0.35781656  0.17884934  1
  O  O9  1  0.33334135  0.66667248  0.47556581  1
  O  O10  1  0.66665865  0.33332852  0.52443419  1
  O  O11  1  0.87117185  0.64218444  0.82115066  1
  O  O12  1  0.77101700  0.12883398  0.82115473  1
  O  O13  1  0.35781348  0.22898852  0.82116185  1
