# generated using pymatgen
data_Nd2Ga12Ni
_symmetry_space_group_name_H-M   'P 1'
_cell_length_a   6.03810909
_cell_length_b   6.03810909
_cell_length_c   15.63967501
_cell_angle_alpha   90.00000000
_cell_angle_beta   90.00000000
_cell_angle_gamma   90.00000000
_symmetry_Int_Tables_number   1
_chemical_formula_structural   Nd2Ga12Ni
_chemical_formula_sum   'Nd4 Ga24 Ni2'
_cell_volume   570.20317929
_cell_formula_units_Z   2
loop_
 _symmetry_equiv_pos_site_id
 _symmetry_equiv_pos_as_xyz
  1  'x, y, z'
loop_
 _atom_site_type_symbol
 _atom_site_label
 _atom_site_symmetry_multiplicity
 _atom_site_fract_x
 _atom_site_fract_y
 _atom_site_fract_z
 _atom_site_occupancy
  Nd  Nd0  1  0.75000100  0.24999900  0.24606902  1
  Nd  Nd1  1  0.75000100  0.24999900  0.75393098  1
  Nd  Nd2  1  0.24999900  0.75000100  0.75393098  1
  Nd  Nd3  1  0.24999900  0.75000100  0.24606902  1
  Ga  Ga4  1  0.57953586  0.07953486  0.42907607  1
  Ga  Ga5  1  0.92046514  0.42046414  0.42907607  1
  Ga  Ga6  1  0.57953586  0.42046414  0.57092393  1
  Ga  Ga7  1  0.92046514  0.07953486  0.57092393  1
  Ga  Ga8  1  0.42046414  0.92046514  0.57092393  1
  Ga  Ga9  1  0.07953486  0.57953586  0.57092393  1
  Ga  Ga10  1  0.07953486  0.92046514  0.42907607  1
  Ga  Ga11  1  0.42046414  0.57953586  0.42907607  1
  Ga  Ga12  1  0.50035732  0.00035632  0.91599066  1
  Ga  Ga13  1  0.99964368  0.49964268  0.91599066  1
  Ga  Ga14  1  0.50035732  0.49964268  0.08400934  1
  Ga  Ga15  1  0.99964368  0.00035632  0.08400934  1
  Ga  Ga16  1  0.49964268  0.99964368  0.08400934  1
  Ga  Ga17  1  0.00035632  0.50035732  0.08400934  1
  Ga  Ga18  1  0.00035632  0.99964368  0.91599066  1
  Ga  Ga19  1  0.49964268  0.50035732  0.91599066  1
  Ga  Ga20  1  0.75000100  0.75000100  0.34090942  1
  Ga  Ga21  1  0.75000100  0.75000100  0.65908958  1
  Ga  Ga22  1  0.24999900  0.24999900  0.65908958  1
  Ga  Ga23  1  0.24999900  0.24999900  0.34090942  1
  Ga  Ga24  1  0.75000100  0.75000100  0.18372681  1
  Ga  Ga25  1  0.75000100  0.75000100  0.81627419  1
  Ga  Ga26  1  0.24999900  0.24999900  0.81627419  1
  Ga  Ga27  1  0.24999900  0.24999900  0.18372681  1
  Ni  Ni28  1  0.75000100  0.24999900  0.00000000  1
  Ni  Ni29  1  0.24999900  0.75000100  0.00000000  1
