# generated using pymatgen
data_Be3Rh
_symmetry_space_group_name_H-M   'P 1'
_cell_length_a   4.83198367
_cell_length_b   4.83198357
_cell_length_c   3.74555064
_cell_angle_alpha   90.00000000
_cell_angle_beta   90.00000000
_cell_angle_gamma   120.00000059
_symmetry_Int_Tables_number   1
_chemical_formula_structural   Be3Rh
_chemical_formula_sum   'Be6 Rh2'
_cell_volume   75.73510107
_cell_formula_units_Z   2
loop_
 _symmetry_equiv_pos_site_id
 _symmetry_equiv_pos_as_xyz
  1  'x, y, z'
loop_
 _atom_site_type_symbol
 _atom_site_label
 _atom_site_symmetry_multiplicity
 _atom_site_fract_x
 _atom_site_fract_y
 _atom_site_fract_z
 _atom_site_occupancy
  Be  Be0  1  0.15897254  0.31794508  0.25000000  1
  Be  Be1  1  0.68205492  0.84102646  0.25000000  1
  Be  Be2  1  0.15897154  0.84102646  0.25000000  1
  Be  Be3  1  0.84102946  0.68205692  0.74999900  1
  Be  Be4  1  0.31794408  0.15897254  0.74999900  1
  Be  Be5  1  0.84102646  0.15897254  0.74999900  1
  Rh  Rh6  1  0.33333400  0.66666800  0.74999900  1
  Rh  Rh7  1  0.66666800  0.33333400  0.25000000  1
