# generated using pymatgen
data_Yb3N2
_symmetry_space_group_name_H-M   'P 1'
_cell_length_a   6.12798777
_cell_length_b   6.12798846
_cell_length_c   6.47615163
_cell_angle_alpha   118.23698848
_cell_angle_beta   61.76301095
_cell_angle_gamma   120.00000172
_symmetry_Int_Tables_number   1
_chemical_formula_structural   Yb3N2
_chemical_formula_sum   'Yb6 N4'
_cell_volume   176.40498370
_cell_formula_units_Z   2
loop_
 _symmetry_equiv_pos_site_id
 _symmetry_equiv_pos_as_xyz
  1  'x, y, z'
loop_
 _atom_site_type_symbol
 _atom_site_label
 _atom_site_symmetry_multiplicity
 _atom_site_fract_x
 _atom_site_fract_y
 _atom_site_fract_z
 _atom_site_occupancy
  Yb  Yb0  1  0.25000000  0.04590756  0.25000000  1
  Yb  Yb1  1  0.95409144  0.45409244  0.25000000  1
  Yb  Yb2  1  0.54590656  0.75000000  0.25000000  1
  Yb  Yb3  1  0.45409144  0.25000000  0.75000000  1
  Yb  Yb4  1  0.04590956  0.54590956  0.75000000  1
  Yb  Yb5  1  0.75000000  0.95409244  0.75000000  1
  N  N6  1  0.64551207  0.35448793  0.06346480  1
  N  N7  1  0.85448793  0.14551207  0.43653520  1
  N  N8  1  0.14551207  0.85448793  0.56346280  1
  N  N9  1  0.35448793  0.64551307  0.93653820  1
