# generated using pymatgen
data_TlInS2
_symmetry_space_group_name_H-M   'P 1'
_cell_length_a   7.88644746
_cell_length_b   7.88644746
_cell_length_c   15.37830220
_cell_angle_alpha   82.55554153
_cell_angle_beta   97.44445847
_cell_angle_gamma   89.93519179
_symmetry_Int_Tables_number   1
_chemical_formula_structural   TlInS2
_chemical_formula_sum   'Tl8 In8 S16'
_cell_volume   940.25717774
_cell_formula_units_Z   8
loop_
 _symmetry_equiv_pos_site_id
 _symmetry_equiv_pos_as_xyz
  1  'x, y, z'
loop_
 _atom_site_type_symbol
 _atom_site_label
 _atom_site_symmetry_multiplicity
 _atom_site_fract_x
 _atom_site_fract_y
 _atom_site_fract_z
 _atom_site_occupancy
  Tl  Tl0  1  0.34412281  0.77262411  0.38050037  1
  Tl  Tl1  1  0.77262288  0.34412390  0.11949964  1
  Tl  Tl2  1  0.65587710  0.22737512  0.61949964  1
  Tl  Tl3  1  0.22737489  0.65587619  0.88050037  1
  Tl  Tl4  1  0.78147889  0.84355072  0.11712037  1
  Tl  Tl5  1  0.84355010  0.78147907  0.38287906  1
  Tl  Tl6  1  0.21852193  0.15644990  0.88287906  1
  Tl  Tl7  1  0.15644928  0.21852111  0.61712037  1
  In  In8  1  0.28852368  0.08885548  0.15504258  1
  In  In9  1  0.08885563  0.28852387  0.34495795  1
  In  In10  1  0.71147513  0.91114537  0.84495795  1
  In  In11  1  0.91114552  0.71147532  0.65504258  1
  In  In12  1  0.58760361  0.28805316  0.34510259  1
  In  In13  1  0.28805256  0.58760340  0.15489734  1
  In  In14  1  0.41239560  0.71194644  0.65489734  1
  In  In15  1  0.71194684  0.41239639  0.84510259  1
  S  S16  1  0.57368732  0.05221763  0.24958321  1
  S  S17  1  0.05221592  0.57368791  0.25041623  1
  S  S18  1  0.42631209  0.94778308  0.75041623  1
  S  S19  1  0.94778237  0.42631168  0.74958321  1
  S  S20  1  0.57328220  0.57328228  0.24999982  1
  S  S21  1  0.42671972  0.42671880  0.74999982  1
  S  S22  1  0.05235689  0.05235724  0.25000002  1
  S  S23  1  0.94764176  0.94764211  0.75000002  1
  S  S24  1  0.36335714  0.26679772  0.44471763  1
  S  S25  1  0.26679669  0.36335725  0.05528213  1
  S  S26  1  0.63664475  0.73320331  0.55528213  1
  S  S27  1  0.73320328  0.63664486  0.94471663  1
  S  S28  1  0.26152975  0.86338527  0.05548923  1
  S  S29  1  0.86338519  0.26153023  0.44451083  1
  S  S30  1  0.73847177  0.13661481  0.94451083  1
  S  S31  1  0.13661473  0.73847225  0.55548923  1
