# generated using pymatgen
data_LuTlRh2
_symmetry_space_group_name_H-M   'P 1'
_cell_length_a   4.69203804
_cell_length_b   4.69202349
_cell_length_c   4.69201581
_cell_angle_alpha   59.99983918
_cell_angle_beta   60.00009213
_cell_angle_gamma   59.99974266
_symmetry_Int_Tables_number   1
_chemical_formula_structural   LuTlRh2
_chemical_formula_sum   'Lu1 Tl1 Rh2'
_cell_volume   73.04072921
_cell_formula_units_Z   1
loop_
 _symmetry_equiv_pos_site_id
 _symmetry_equiv_pos_as_xyz
  1  'x, y, z'
loop_
 _atom_site_type_symbol
 _atom_site_label
 _atom_site_symmetry_multiplicity
 _atom_site_fract_x
 _atom_site_fract_y
 _atom_site_fract_z
 _atom_site_occupancy
  Lu  Lu0  1  0.24999905  0.24999978  0.25000011  1
  Tl  Tl1  1  0.74999951  0.75000037  0.74999888  1
  Rh  Rh2  1  0.00000147  0.99999847  0.00000202  1
  Rh  Rh3  1  0.49999897  0.50000038  0.49999798  1
