# generated using pymatgen
data_H2CN2
_symmetry_space_group_name_H-M   'P 1'
_cell_length_a   3.91292571
_cell_length_b   9.12784496
_cell_length_c   12.60482249
_cell_angle_alpha   90.00000000
_cell_angle_beta   90.00000000
_cell_angle_gamma   91.37367961
_symmetry_Int_Tables_number   1
_chemical_formula_structural   H2CN2
_chemical_formula_sum   'H16 C8 N16'
_cell_volume   450.07175660
_cell_formula_units_Z   8
loop_
 _symmetry_equiv_pos_site_id
 _symmetry_equiv_pos_as_xyz
  1  'x, y, z'
loop_
 _atom_site_type_symbol
 _atom_site_label
 _atom_site_symmetry_multiplicity
 _atom_site_fract_x
 _atom_site_fract_y
 _atom_site_fract_z
 _atom_site_occupancy
  H  H0  1  0.85552770  0.36672631  0.68516099  1
  H  H1  1  0.14447230  0.13327369  0.18516099  1
  H  H2  1  0.14447230  0.63327369  0.31483901  1
  H  H3  1  0.85552770  0.86672631  0.81483901  1
  H  H4  1  0.16629538  0.63937930  0.44869427  1
  H  H5  1  0.16629538  0.13937930  0.05130573  1
  H  H6  1  0.83370462  0.36062070  0.55130573  1
  H  H7  1  0.14785869  0.96262261  0.88954794  1
  H  H8  1  0.15414859  0.27415491  0.61576634  1
  H  H9  1  0.84585141  0.22584509  0.11576634  1
  H  H10  1  0.84585141  0.72584509  0.38423366  1
  H  H11  1  0.83370462  0.86062070  0.94869427  1
  H  H12  1  0.14785869  0.46262261  0.61045206  1
  H  H13  1  0.85214131  0.53737739  0.38954794  1
  H  H14  1  0.85214131  0.03737739  0.11045206  1
  H  H15  1  0.15414859  0.77415491  0.88423366  1
  C  C16  1  0.49266813  0.24889254  0.87282868  1
  C  C17  1  0.50733187  0.25110746  0.37282868  1
  C  C18  1  0.50733187  0.75110746  0.12717132  1
  C  C19  1  0.50148192  0.49925396  0.85850884  1
  C  C20  1  0.49266813  0.74889254  0.62717132  1
  C  C21  1  0.49851808  0.50074604  0.14149116  1
  C  C22  1  0.50148192  0.99925396  0.64149116  1
  C  C23  1  0.49851808  0.00074604  0.35850884  1
  N  N24  1  -0.00242241  0.86648642  0.88417963  1
  N  N25  1  1.00242241  0.13351358  0.11582037  1
  N  N26  1  1.00242241  0.63351358  0.38417963  1
  N  N27  1  -0.00242241  0.36648642  0.61582037  1
  N  N28  1  0.41312976  0.13302142  0.90822763  1
  N  N29  1  0.58687024  0.36697858  0.40822763  1
  N  N30  1  0.58687024  0.86697858  0.09177237  1
  N  N31  1  0.41312976  0.63302142  0.59177237  1
  N  N32  1  0.59790976  0.36991235  0.82790216  1
  N  N33  1  0.40209024  0.13008765  0.32790216  1
  N  N34  1  0.40209024  0.63008765  0.17209784  1
  N  N35  1  0.59790976  0.86991235  0.67209784  1
  N  N36  1  0.43183737  0.62102223  0.87857096  1
  N  N37  1  0.56816263  0.87897777  0.37857096  1
  N  N38  1  0.56816263  0.37897777  0.12142904  1
  N  N39  1  0.43183737  0.12102223  0.62142904  1
