# generated using pymatgen
data_H8C3SN2
_symmetry_space_group_name_H-M   'P 1'
_cell_length_a   6.36478841
_cell_length_b   11.86466970
_cell_length_c   15.11679772
_cell_angle_alpha   90.00000000
_cell_angle_beta   90.00000000
_cell_angle_gamma   90.00000000
_symmetry_Int_Tables_number   1
_chemical_formula_structural   H8C3SN2
_chemical_formula_sum   'H64 C24 S8 N16'
_cell_volume   1141.56179265
_cell_formula_units_Z   8
loop_
 _symmetry_equiv_pos_site_id
 _symmetry_equiv_pos_as_xyz
  1  'x, y, z'
loop_
 _atom_site_type_symbol
 _atom_site_label
 _atom_site_symmetry_multiplicity
 _atom_site_fract_x
 _atom_site_fract_y
 _atom_site_fract_z
 _atom_site_occupancy
  H  H0  1  0.26714798  0.99120705  0.19721828  1
  H  H1  1  0.28309701  0.30309802  0.13730333  1
  H  H2  1  0.36985858  0.92446322  0.96044122  1
  H  H3  1  0.73285202  0.49120705  0.30278172  1
  H  H4  1  0.23285202  0.00879295  0.69721828  1
  H  H5  1  0.94897537  0.91647730  0.78580652  1
  H  H6  1  0.21690299  0.69690198  0.63730333  1
  H  H7  1  0.32501736  0.92593446  0.60734664  1
  H  H8  1  0.44950854  0.74255055  0.85237187  1
  H  H9  1  0.71690299  0.80309802  0.36269667  1
  H  H10  1  0.05049146  0.25744945  0.35237187  1
  H  H11  1  0.55102463  0.41647730  0.78580652  1
  H  H12  1  0.85619660  0.12617363  0.08937407  1
  H  H13  1  0.14380340  0.62617363  0.41062593  1
  H  H14  1  0.94897537  0.58352270  0.28580652  1
  H  H15  1  0.55049146  0.24255055  0.64762813  1
  H  H16  1  0.05102463  0.08352270  0.21419348  1
  H  H17  1  0.58562130  0.81867736  0.25884435  1
  H  H18  1  0.76714798  0.50879295  0.80278172  1
  H  H19  1  0.85619660  0.37382637  0.58937407  1
  H  H20  1  0.94950854  0.74255055  0.64762813  1
  H  H21  1  0.21690299  0.80309802  0.13730333  1
  H  H22  1  0.64380340  0.87382637  0.58937407  1
  H  H23  1  0.41437870  0.18132264  0.74115565  1
  H  H24  1  0.76714798  0.99120705  0.30278172  1
  H  H25  1  0.63014142  0.42446322  0.53955878  1
  H  H26  1  0.64380340  0.62617363  0.08937407  1
  H  H27  1  0.05102463  0.41647730  0.71419348  1
  H  H28  1  0.55102463  0.08352270  0.28580652  1
  H  H29  1  0.14380340  0.87382637  0.91062593  1
  H  H30  1  0.91437870  0.18132264  0.75884435  1
  H  H31  1  0.17498264  0.07406554  0.10734664  1
  H  H32  1  0.78309701  0.19690198  0.86269667  1
  H  H33  1  0.08562130  0.68132264  0.74115565  1
  H  H34  1  0.35619660  0.37382637  0.91062593  1
  H  H35  1  0.86985858  0.92446322  0.53955878  1
  H  H36  1  0.08562130  0.81867736  0.24115565  1
  H  H37  1  0.67498264  0.07406554  0.39265336  1
  H  H38  1  0.71690299  0.69690198  0.86269667  1
  H  H39  1  0.05049146  0.24255055  0.85237187  1
  H  H40  1  0.13014142  0.42446322  0.96044122  1
  H  H41  1  0.91437870  0.31867736  0.25884435  1
  H  H42  1  0.35619660  0.12617363  0.41062593  1
  H  H43  1  0.44897537  0.91647730  0.71419348  1
  H  H44  1  0.44950854  0.75744945  0.35237187  1
  H  H45  1  0.17498264  0.42593446  0.60734664  1
  H  H46  1  0.28309701  0.19690198  0.63730333  1
  H  H47  1  0.73285202  0.00879295  0.80278172  1
  H  H48  1  0.86985858  0.57553678  0.03955878  1
  H  H49  1  0.63014142  0.07553678  0.03955878  1
  H  H50  1  0.55049146  0.25744945  0.14762813  1
  H  H51  1  0.94950854  0.75744945  0.14762813  1
  H  H52  1  0.82501736  0.92593446  0.89265336  1
  H  H53  1  0.67498264  0.42593446  0.89265336  1
  H  H54  1  0.26714798  0.50879295  0.69721828  1
  H  H55  1  0.44897537  0.58352270  0.21419348  1
  H  H56  1  0.78309701  0.30309802  0.36269667  1
  H  H57  1  0.13014142  0.07553678  0.46044122  1
  H  H58  1  0.23285202  0.49120705  0.19721828  1
  H  H59  1  0.41437870  0.31867736  0.24115565  1
  H  H60  1  0.36985858  0.57553678  0.46044122  1
  H  H61  1  0.58562130  0.68132264  0.75884435  1
  H  H62  1  0.32501736  0.57406554  0.10734664  1
  H  H63  1  0.82501736  0.57406554  0.39265336  1
  C  C64  1  0.68941238  0.04901928  0.59642128  1
  C  C65  1  0.18941238  0.04901928  0.90357872  1
  C  C66  1  0.06411724  0.82083752  0.16872650  1
  C  C67  1  0.81058762  0.95098072  0.09642128  1
  C  C68  1  0.62646379  0.47373205  0.83365665  1
  C  C69  1  0.56411724  0.67916248  0.83127350  1
  C  C70  1  0.31058762  0.95098072  0.40357872  1
  C  C71  1  0.81058762  0.54901928  0.59642128  1
  C  C72  1  0.37353621  0.97373205  0.66634335  1
  C  C73  1  0.87353621  0.97373205  0.83365665  1
  C  C74  1  0.06411724  0.67916248  0.66872650  1
  C  C75  1  0.12646379  0.47373205  0.66634335  1
  C  C76  1  0.93588276  0.17916248  0.83127350  1
  C  C77  1  0.18941238  0.45098072  0.40357872  1
  C  C78  1  0.43588276  0.32083752  0.16872650  1
  C  C79  1  0.12646379  0.02626795  0.16634335  1
  C  C80  1  0.43588276  0.17916248  0.66872650  1
  C  C81  1  0.56411724  0.82083752  0.33127350  1
  C  C82  1  0.31058762  0.54901928  0.90357872  1
  C  C83  1  0.62646379  0.02626795  0.33365665  1
  C  C84  1  0.37353621  0.52626795  0.16634335  1
  C  C85  1  0.68941238  0.45098072  0.09642128  1
  C  C86  1  0.93588276  0.32083752  0.33127350  1
  C  C87  1  0.87353621  0.52626795  0.33365665  1
  S  S88  1  0.35742424  0.15307367  0.93679267  1
  S  S89  1  0.35742424  0.34692633  0.43679267  1
  S  S90  1  0.85742424  0.15307367  0.56320733  1
  S  S91  1  0.14257576  0.84692633  0.43679267  1
  S  S92  1  0.64257576  0.84692633  0.06320733  1
  S  S93  1  0.14257576  0.65307367  0.93679267  1
  S  S94  1  0.64257576  0.65307367  0.56320733  1
  S  S95  1  0.85742424  0.34692633  0.06320733  1
  N  N96  1  0.51028063  0.43234872  0.14248873  1
  N  N97  1  0.73837424  0.55892207  0.07621340  1
  N  N98  1  0.48971937  0.56765128  0.85751127  1
  N  N99  1  0.23837424  0.94107793  0.92378660  1
  N  N100  1  0.01028063  0.43234872  0.35751127  1
  N  N101  1  0.98971937  0.56765128  0.64248873  1
  N  N102  1  0.23837424  0.55892207  0.42378660  1
  N  N103  1  0.26162576  0.05892207  0.42378660  1
  N  N104  1  0.51028063  0.06765128  0.64248873  1
  N  N105  1  0.98971937  0.93234872  0.14248873  1
  N  N106  1  0.76162576  0.05892207  0.07621340  1
  N  N107  1  0.01028063  0.06765128  0.85751127  1
  N  N108  1  0.48971937  0.93234872  0.35751127  1
  N  N109  1  0.76162576  0.44107793  0.57621340  1
  N  N110  1  0.73837424  0.94107793  0.57621340  1
  N  N111  1  0.26162576  0.44107793  0.92378660  1
