# generated using pymatgen
data_Cs4P2PdSe8
_symmetry_space_group_name_H-M   'P 1'
_cell_length_a   7.72958164
_cell_length_b   13.88428273
_cell_length_c   10.32185304
_cell_angle_alpha   90.12235082
_cell_angle_beta   93.45825786
_cell_angle_gamma   89.97776050
_symmetry_Int_Tables_number   1
_chemical_formula_structural   Cs4P2PdSe8
_chemical_formula_sum   'Cs8 P4 Pd2 Se16'
_cell_volume   1105.71839984
_cell_formula_units_Z   2
loop_
 _symmetry_equiv_pos_site_id
 _symmetry_equiv_pos_as_xyz
  1  'x, y, z'
loop_
 _atom_site_type_symbol
 _atom_site_label
 _atom_site_symmetry_multiplicity
 _atom_site_fract_x
 _atom_site_fract_y
 _atom_site_fract_z
 _atom_site_occupancy
  Cs  Cs0  1  0.67662541  0.86926394  0.67771432  1
  Cs  Cs1  1  0.32099751  0.36842189  0.82528026  1
  Cs  Cs2  1  0.31876869  0.13132242  0.32110372  1
  Cs  Cs3  1  0.67958811  0.63373759  0.17818325  1
  Cs  Cs4  1  0.22716843  0.65439335  0.53684778  1
  Cs  Cs5  1  0.77460872  0.15177045  0.96365729  1
  Cs  Cs6  1  0.77139304  0.34539583  0.46463503  1
  Cs  Cs7  1  0.22740648  0.84398591  0.03490082  1
  P  P8  1  0.73721804  0.57994536  0.75874437  1
  P  P9  1  0.26294369  0.08023990  0.74191387  1
  P  P10  1  0.26574402  0.41961738  0.24415046  1
  P  P11  1  0.73496734  0.92015372  0.25658419  1
  Pd  Pd12  1  0.99856526  0.00078014  0.49869728  1
  Pd  Pd13  1  0.00025121  0.49955780  0.00147636  1
  Se  Se14  1  0.18604206  0.92774306  0.67642604  1
  Se  Se15  1  0.80867020  0.42709567  0.82489339  1
  Se  Se16  1  0.81140653  0.07310370  0.31954802  1
  Se  Se17  1  0.19003457  0.57222277  0.17857750  1
  Se  Se18  1  0.73664520  0.60562496  0.54951658  1
  Se  Se19  1  0.26286440  0.10566599  0.95076775  1
  Se  Se20  1  0.26430394  0.39364111  0.45296737  1
  Se  Se21  1  0.73482301  0.89245804  0.04774159  1
  Se  Se22  1  0.97174473  0.85353705  0.36261584  1
  Se  Se23  1  0.02886337  0.35295032  0.13749907  1
  Se  Se24  1  0.02672149  0.14752571  0.63590551  1
  Se  Se25  1  0.97466543  0.64611207  0.86510270  1
  Se  Se26  1  0.49357547  0.62576395  0.83767728  1
  Se  Se27  1  0.50754205  0.12511363  0.66293447  1
  Se  Se28  1  0.50935876  0.37436462  0.16399006  1
  Se  Se29  1  0.49055583  0.87669667  0.33692885  1
