# generated using pymatgen
data_Sc2Ni
_symmetry_space_group_name_H-M   'P 1'
_cell_length_a   8.54993107
_cell_length_b   8.54992468
_cell_length_c   8.54991782
_cell_angle_alpha   60.00018614
_cell_angle_beta   60.00029708
_cell_angle_gamma   60.00022206
_symmetry_Int_Tables_number   1
_chemical_formula_structural   Sc2Ni
_chemical_formula_sum   'Sc16 Ni8'
_cell_volume   441.95103935
_cell_formula_units_Z   8
loop_
 _symmetry_equiv_pos_site_id
 _symmetry_equiv_pos_as_xyz
  1  'x, y, z'
loop_
 _atom_site_type_symbol
 _atom_site_label
 _atom_site_symmetry_multiplicity
 _atom_site_fract_x
 _atom_site_fract_y
 _atom_site_fract_z
 _atom_site_occupancy
  Sc  Sc0  1  0.99999034  -0.00000016  0.99998334  1
  Sc  Sc1  1  0.99998577  0.99999361  0.50003541  1
  Sc  Sc2  1  0.50002940  -0.00000225  0.99998231  1
  Sc  Sc3  1  0.99999442  0.50002056  0.99998863  1
  Sc  Sc4  1  0.81063106  0.43937006  0.43937075  1
  Sc  Sc5  1  0.43937725  0.81062769  0.81062519  1
  Sc  Sc6  1  0.43937035  0.81062994  0.43937256  1
  Sc  Sc7  1  0.43937051  0.43937156  0.81062893  1
  Sc  Sc8  1  0.81062871  0.43937704  0.81062633  1
  Sc  Sc9  1  0.81062569  0.81062595  0.43937868  1
  Sc  Sc10  1  0.56062944  0.18937019  0.56062969  1
  Sc  Sc11  1  0.18937316  0.56062267  0.18937277  1
  Sc  Sc12  1  0.18936909  0.56062703  0.56063243  1
  Sc  Sc13  1  0.56063277  0.56062655  0.18936929  1
  Sc  Sc14  1  0.56062515  0.18937423  0.18937172  1
  Sc  Sc15  1  0.18937281  0.18937417  0.56062461  1
  Ni  Ni16  1  0.21203192  0.21203237  0.21203209  1
  Ni  Ni17  1  0.21203070  0.21202981  0.86391388  1
  Ni  Ni18  1  0.86391022  0.21202964  0.21203180  1
  Ni  Ni19  1  0.21203452  0.86390247  0.21202936  1
  Ni  Ni20  1  0.78797253  0.78797660  0.78797181  1
  Ni  Ni21  1  0.78797222  0.78797474  0.13608480  1
  Ni  Ni22  1  0.78797500  0.13607538  0.78797552  1
  Ni  Ni23  1  0.13607296  0.78797612  0.78797411  1
