# generated using pymatgen
data_K3P2AuSe8
_symmetry_space_group_name_H-M   'P 1'
_cell_length_a   7.33585677
_cell_length_b   7.33585677
_cell_length_c   18.90989081
_cell_angle_alpha   86.87852637
_cell_angle_beta   93.12147363
_cell_angle_gamma   59.04023446
_symmetry_Int_Tables_number   1
_chemical_formula_structural   K3P2AuSe8
_chemical_formula_sum   'K6 P4 Au2 Se16'
_cell_volume   867.30334490
_cell_formula_units_Z   2
loop_
 _symmetry_equiv_pos_site_id
 _symmetry_equiv_pos_as_xyz
  1  'x, y, z'
loop_
 _atom_site_type_symbol
 _atom_site_label
 _atom_site_symmetry_multiplicity
 _atom_site_fract_x
 _atom_site_fract_y
 _atom_site_fract_z
 _atom_site_occupancy
  K  K0  1  0.36126254  0.50073418  0.89435095  1
  K  K1  1  0.49926582  0.63873746  0.39435095  1
  K  K2  1  0.67990827  0.10637480  0.24573545  1
  K  K3  1  0.89362620  0.32009273  0.74573645  1
  K  K4  1  0.03276382  0.41953530  0.10171341  1
  K  K5  1  0.58046370  0.96723618  0.60171241  1
  P  P6  1  0.43238754  0.69493914  0.12365360  1
  P  P7  1  0.30506086  0.56761046  0.62365460  1
  P  P8  1  0.68005866  0.78413855  0.87559763  1
  P  P9  1  0.21586145  0.31994134  0.37559763  1
  Au  Au10  1  0.95088017  0.95281981  0.00071098  1
  Au  Au11  1  0.04718119  0.04912083  0.50071098  1
  Se  Se12  1  0.17515200  0.50785343  0.27630789  1
  Se  Se13  1  0.49214657  0.82484800  0.77630789  1
  Se  Se14  1  0.07405971  0.92211010  0.12655373  1
  Se  Se15  1  0.07788990  0.92594129  0.62655373  1
  Se  Se16  1  0.63454882  0.65402380  0.21949138  1
  Se  Se17  1  0.34597520  0.36545118  0.71949038  1
  Se  Se18  1  0.51040516  0.39844706  0.07905232  1
  Se  Se19  1  0.60155394  0.48959584  0.57905232  1
  Se  Se20  1  0.54181022  0.89726050  0.06067596  1
  Se  Se21  1  0.10273950  0.45818978  0.56067696  1
  Se  Se22  1  0.38740196  0.95030639  0.94154490  1
  Se  Se23  1  0.04969361  0.61259804  0.44154490  1
  Se  Se24  1  0.91350243  0.45511903  0.91602221  1
  Se  Se25  1  0.54488197  0.08649757  0.41602221  1
  Se  Se26  1  0.82283270  0.99651591  0.87488958  1
  Se  Se27  1  0.00348509  0.17716730  0.37488958  1
