# generated using pymatgen
data_Nd(BIr)4
_symmetry_space_group_name_H-M   'P 1'
_cell_length_a   3.99445481
_cell_length_b   7.70268591
_cell_length_c   7.70268591
_cell_angle_alpha   90.00000000
_cell_angle_beta   90.00000000
_cell_angle_gamma   90.00000000
_symmetry_Int_Tables_number   1
_chemical_formula_structural   Nd(BIr)4
_chemical_formula_sum   'Nd2 B8 Ir8'
_cell_volume   236.99647719
_cell_formula_units_Z   2
loop_
 _symmetry_equiv_pos_site_id
 _symmetry_equiv_pos_as_xyz
  1  'x, y, z'
loop_
 _atom_site_type_symbol
 _atom_site_label
 _atom_site_symmetry_multiplicity
 _atom_site_fract_x
 _atom_site_fract_y
 _atom_site_fract_z
 _atom_site_occupancy
  B  B0  1  0.85868700  0.02927067  0.90829323  1
  B  B1  1  0.14131300  0.52927067  0.40829323  1
  B  B2  1  0.35868700  0.09170677  0.52927067  1
  B  B3  1  0.35868700  0.40829323  0.97072933  1
  B  B4  1  0.85868700  0.47072933  0.59170677  1
  B  B5  1  0.14131300  0.97072933  0.09170677  1
  B  B6  1  0.64131300  0.90829323  0.47072933  1
  B  B7  1  0.64131300  0.59170677  0.02927067  1
  Nd  Nd8  1  0.25000000  0.75000000  0.75000000  1
  Nd  Nd9  1  0.75000000  0.25000000  0.25000000  1
  Ir  Ir10  1  0.35913869  0.35960940  0.59096631  1
  Ir  Ir11  1  0.35913869  0.14039060  0.90903369  1
  Ir  Ir12  1  0.85913869  0.40903369  0.85960940  1
  Ir  Ir13  1  0.14086131  0.90903369  0.35960940  1
  Ir  Ir14  1  0.64086131  0.64039060  0.40903369  1
  Ir  Ir15  1  0.64086131  0.85960940  0.09096631  1
  Ir  Ir16  1  0.14086131  0.59096631  0.14039060  1
  Ir  Ir17  1  0.85913869  0.09096631  0.64039060  1
