# generated using pymatgen
data_CsCoF3
_symmetry_space_group_name_H-M   'P 1'
_cell_length_a   8.41035615
_cell_length_b   8.41035594
_cell_length_c   8.41035625
_cell_angle_alpha   43.85106086
_cell_angle_beta   43.85106235
_cell_angle_gamma   43.85106171
_symmetry_Int_Tables_number   1
_chemical_formula_structural   CsCoF3
_chemical_formula_sum   'Cs3 Co3 F9'
_cell_volume   259.25241938
_cell_formula_units_Z   3
loop_
 _symmetry_equiv_pos_site_id
 _symmetry_equiv_pos_as_xyz
  1  'x, y, z'
loop_
 _atom_site_type_symbol
 _atom_site_label
 _atom_site_symmetry_multiplicity
 _atom_site_fract_x
 _atom_site_fract_y
 _atom_site_fract_z
 _atom_site_occupancy
  Cs  Cs0  1  0.21395700  0.21395700  0.21395700  1
  Cs  Cs1  1  0.78604300  0.78604300  0.78604300  1
  Cs  Cs2  1  0.00000000  0.00000000  0.00000000  1
  Co  Co3  1  0.37824199  0.37824199  0.37824199  1
  Co  Co4  1  0.62175801  0.62175801  0.62175801  1
  Co  Co5  1  0.50000000  0.50000000  0.50000000  1
  F  F6  1  0.27330034  0.70289144  0.70289144  1
  F  F7  1  0.72669966  0.29710856  0.29710856  1
  F  F8  1  0.00000000  0.50000000  0.50000000  1
  F  F9  1  0.70289144  0.27330034  0.70289144  1
  F  F10  1  0.29710856  0.29710856  0.72669966  1
  F  F11  1  0.50000000  0.00000000  0.50000000  1
  F  F12  1  0.70289144  0.70289144  0.27330034  1
  F  F13  1  0.29710856  0.72669966  0.29710856  1
  F  F14  1  0.50000000  0.50000000  0.00000000  1
