# generated using pymatgen
data_CrAuO2
_symmetry_space_group_name_H-M   'P 1'
_cell_length_a   3.07436253
_cell_length_b   3.07436345
_cell_length_c   6.43162703
_cell_angle_alpha   76.17226605
_cell_angle_beta   76.17227201
_cell_angle_gamma   59.99999701
_symmetry_Int_Tables_number   1
_chemical_formula_structural   CrAuO2
_chemical_formula_sum   'Cr1 Au1 O2'
_cell_volume   50.60102432
_cell_formula_units_Z   1
loop_
 _symmetry_equiv_pos_site_id
 _symmetry_equiv_pos_as_xyz
  1  'x, y, z'
loop_
 _atom_site_type_symbol
 _atom_site_label
 _atom_site_symmetry_multiplicity
 _atom_site_fract_x
 _atom_site_fract_y
 _atom_site_fract_z
 _atom_site_occupancy
  Cr  Cr0  1  0.50000000  0.50000000  0.50000000  1
  Au  Au1  1  0.00000000  0.00000000  -0.00000000  1
  O  O2  1  0.88678470  0.88678470  0.33964590  1
  O  O3  1  0.11321530  0.11321530  0.66035410  1
