# generated using pymatgen
data_Na2MnN2
_symmetry_space_group_name_H-M   'P 1'
_cell_length_a   6.06695004
_cell_length_b   4.89633709
_cell_length_c   10.60565833
_cell_angle_alpha   90.00000000
_cell_angle_beta   90.00000000
_cell_angle_gamma   90.00000000
_symmetry_Int_Tables_number   1
_chemical_formula_structural   Na2MnN2
_chemical_formula_sum   'Na8 Mn4 N8'
_cell_volume   315.04990995
_cell_formula_units_Z   4
loop_
 _symmetry_equiv_pos_site_id
 _symmetry_equiv_pos_as_xyz
  1  'x, y, z'
loop_
 _atom_site_type_symbol
 _atom_site_label
 _atom_site_symmetry_multiplicity
 _atom_site_fract_x
 _atom_site_fract_y
 _atom_site_fract_z
 _atom_site_occupancy
  Na  Na0  1  0.57621781  0.25000000  0.81867741  1
  Na  Na1  1  0.07621781  0.25000000  0.68132259  1
  Na  Na2  1  0.42378219  0.75000000  0.18132259  1
  Na  Na3  1  0.92378219  0.75000000  0.31867741  1
  Na  Na4  1  0.18038710  0.25000000  0.03620970  1
  Na  Na5  1  0.68038710  0.25000000  0.46379030  1
  Na  Na6  1  0.81961290  0.75000000  0.96379030  1
  Na  Na7  1  0.31961290  0.75000000  0.53620970  1
  Mn  Mn8  1  0.72712650  0.25000000  0.16970985  1
  Mn  Mn9  1  0.22712650  0.25000000  0.33029015  1
  Mn  Mn10  1  0.27287350  0.75000000  0.83029015  1
  Mn  Mn11  1  0.77287350  0.75000000  0.66970985  1
  N  N12  1  0.45769566  0.25000000  0.23129507  1
  N  N13  1  0.95769566  0.25000000  0.26870493  1
  N  N14  1  0.54230434  0.75000000  0.76870493  1
  N  N15  1  0.04230434  0.75000000  0.73129507  1
  N  N16  1  0.76493158  0.25000000  0.01840950  1
  N  N17  1  0.26493158  0.25000000  0.48159050  1
  N  N18  1  0.23506842  0.75000000  0.98159050  1
  N  N19  1  0.73506842  0.75000000  0.51840950  1
