# generated using pymatgen
data_Mo2HO6
_symmetry_space_group_name_H-M   'P 1'
_cell_length_a   8.03681879
_cell_length_b   8.04357993
_cell_length_c   3.81233865
_cell_angle_alpha   90.00000000
_cell_angle_beta   90.00000000
_cell_angle_gamma   27.65418380
_symmetry_Int_Tables_number   1
_chemical_formula_structural   Mo2HO6
_chemical_formula_sum   'Mo2 H1 O6'
_cell_volume   114.38480030
_cell_formula_units_Z   1
loop_
 _symmetry_equiv_pos_site_id
 _symmetry_equiv_pos_as_xyz
  1  'x, y, z'
loop_
 _atom_site_type_symbol
 _atom_site_label
 _atom_site_symmetry_multiplicity
 _atom_site_fract_x
 _atom_site_fract_y
 _atom_site_fract_z
 _atom_site_occupancy
  Mo  Mo0  1  0.09292182  0.09176318  0.25000000  1
  Mo  Mo1  1  0.89619207  0.91706422  0.75000000  1
  H  H2  1  0.01879373  0.46144006  0.25000000  1
  O  O3  1  0.93818335  0.94408276  0.25000000  1
  O  O4  1  0.06220228  0.06094618  0.75000000  1
  O  O5  1  0.59385668  0.59092756  0.25000000  1
  O  O6  1  0.41766446  0.42223181  0.75000000  1
  O  O7  1  0.22548057  0.20319015  0.25000000  1
  O  O8  1  0.79850705  0.79623406  0.75000000  1
