# generated using pymatgen
data_Mg2MnN3
_symmetry_space_group_name_H-M   'P 1'
_cell_length_a   5.77178850
_cell_length_b   5.81363468
_cell_length_c   4.96584287
_cell_angle_alpha   90.00000000
_cell_angle_beta   90.00000000
_cell_angle_gamma   120.24012172
_symmetry_Int_Tables_number   1
_chemical_formula_structural   Mg2MnN3
_chemical_formula_sum   'Mg4 Mn2 N6'
_cell_volume   143.95469299
_cell_formula_units_Z   2
loop_
 _symmetry_equiv_pos_site_id
 _symmetry_equiv_pos_as_xyz
  1  'x, y, z'
loop_
 _atom_site_type_symbol
 _atom_site_label
 _atom_site_symmetry_multiplicity
 _atom_site_fract_x
 _atom_site_fract_y
 _atom_site_fract_z
 _atom_site_occupancy
  Mg  Mg0  1  0.32656844  0.33579962  0.47068321  1
  Mg  Mg1  1  0.67343156  0.00923118  0.47068321  1
  Mg  Mg2  1  0.67343156  0.66420038  0.97068321  1
  Mg  Mg3  1  0.32656844  0.99076882  0.97068321  1
  Mn  Mn4  1  1.00000000  0.66802145  0.48028114  1
  Mn  Mn5  1  0.00000000  0.33197855  0.98028114  1
  N  N6  1  0.29602733  0.32996741  0.90181463  1
  N  N7  1  0.70397267  0.03394007  0.90181463  1
  N  N8  1  0.70397267  0.67003259  0.40181463  1
  N  N9  1  0.29602733  0.96605993  0.40181463  1
  N  N10  1  0.00000000  0.62447918  0.84672218  1
  N  N11  1  1.00000000  0.37552082  0.34672218  1
