# generated using pymatgen
data_KSi2N3
_symmetry_space_group_name_H-M   'P 1'
_cell_length_a   5.56904356
_cell_length_b   5.70292130
_cell_length_c   5.04230000
_cell_angle_alpha   90.00000000
_cell_angle_beta   90.00000000
_cell_angle_gamma   120.79845932
_symmetry_Int_Tables_number   1
_chemical_formula_structural   KSi2N3
_chemical_formula_sum   'K2 Si4 N6'
_cell_volume   137.55821235
_cell_formula_units_Z   2
loop_
 _symmetry_equiv_pos_site_id
 _symmetry_equiv_pos_as_xyz
  1  'x, y, z'
loop_
 _atom_site_type_symbol
 _atom_site_label
 _atom_site_symmetry_multiplicity
 _atom_site_fract_x
 _atom_site_fract_y
 _atom_site_fract_z
 _atom_site_occupancy
  K  K0  1  0.00000000  0.64945000  0.48228400  1
  K  K1  1  0.00000000  0.35055000  0.98228400  1
  Si  Si2  1  0.34848600  0.31520600  0.48966800  1
  Si  Si3  1  0.65151400  0.96672100  0.48966800  1
  Si  Si4  1  0.65151400  0.68479400  0.98966800  1
  Si  Si5  1  0.34848600  0.03327900  0.98966800  1
  N  N6  1  0.47635400  0.35713100  0.82494000  1
  N  N7  1  0.52364600  0.88077800  0.82494000  1
  N  N8  1  0.52364600  0.64286900  0.32494000  1
  N  N9  1  0.47635400  0.11922200  0.32494000  1
  N  N10  1  0.00000000  0.82758400  0.97650100  1
  N  N11  1  0.00000000  0.17241600  0.47650100  1
