# generated using pymatgen
data_MgTiN2
_symmetry_space_group_name_H-M   'P 1'
_cell_length_a   6.12445282
_cell_length_b   7.12061694
_cell_length_c   4.28325243
_cell_angle_alpha   90.00000000
_cell_angle_beta   90.00000000
_cell_angle_gamma   90.00000000
_symmetry_Int_Tables_number   1
_chemical_formula_structural   MgTiN2
_chemical_formula_sum   'Mg4 Ti4 N8'
_cell_volume   186.79213518
_cell_formula_units_Z   4
loop_
 _symmetry_equiv_pos_site_id
 _symmetry_equiv_pos_as_xyz
  1  'x, y, z'
loop_
 _atom_site_type_symbol
 _atom_site_label
 _atom_site_symmetry_multiplicity
 _atom_site_fract_x
 _atom_site_fract_y
 _atom_site_fract_z
 _atom_site_occupancy
  Mg  Mg0  1  0.58395205  0.88010059  0.94249900  1
  Mg  Mg1  1  0.41604795  0.11989941  0.44249900  1
  Mg  Mg2  1  0.91604795  0.38010059  0.44249900  1
  Mg  Mg3  1  0.08395205  0.61989941  0.94249900  1
  Ti  Ti4  1  0.57695633  0.37192116  0.94250100  1
  Ti  Ti5  1  0.42304367  0.62807884  0.44250100  1
  Ti  Ti6  1  0.92304367  0.87192116  0.44250100  1
  Ti  Ti7  1  0.07695633  0.12807884  0.94250100  1
  N  N8  1  0.57134397  0.38816789  0.44250100  1
  N  N9  1  0.42865603  0.61183211  0.94250100  1
  N  N10  1  0.92865603  0.88816789  0.94250100  1
  N  N11  1  0.07134397  0.11183211  0.44250100  1
  N  N12  1  0.59695023  0.85998586  0.44250000  1
  N  N13  1  0.40304977  0.14001414  0.94250000  1
  N  N14  1  0.90304977  0.35998586  0.94250000  1
  N  N15  1  0.09695023  0.64001414  0.44250000  1
