# generated using pymatgen
data_CaSnN2
_symmetry_space_group_name_H-M   'P 1'
_cell_length_a   6.19344576
_cell_length_b   7.70403407
_cell_length_c   5.69174695
_cell_angle_alpha   90.00000000
_cell_angle_beta   90.00000000
_cell_angle_gamma   90.00000000
_symmetry_Int_Tables_number   1
_chemical_formula_structural   CaSnN2
_chemical_formula_sum   'Ca4 Sn4 N8'
_cell_volume   271.57895743
_cell_formula_units_Z   4
loop_
 _symmetry_equiv_pos_site_id
 _symmetry_equiv_pos_as_xyz
  1  'x, y, z'
loop_
 _atom_site_type_symbol
 _atom_site_label
 _atom_site_symmetry_multiplicity
 _atom_site_fract_x
 _atom_site_fract_y
 _atom_site_fract_z
 _atom_site_occupancy
  Ca  Ca0  1  0.58486534  0.87712604  0.98009723  1
  Ca  Ca1  1  0.41513466  0.12287396  0.48009723  1
  Ca  Ca2  1  0.91513466  0.37712604  0.48009723  1
  Ca  Ca3  1  0.08486534  0.62287396  0.98009723  1
  Sn  Sn4  1  0.56994780  0.37293482  0.99461471  1
  Sn  Sn5  1  0.43005220  0.62706518  0.49461471  1
  Sn  Sn6  1  0.93005220  0.87293482  0.49461471  1
  Sn  Sn7  1  0.06994780  0.12706518  0.99461471  1
  N  N8  1  0.55073108  0.39552386  0.36142607  1
  N  N9  1  0.44926892  0.60447614  0.86142607  1
  N  N10  1  0.94926892  0.89552386  0.86142607  1
  N  N11  1  0.05073108  0.10447614  0.36142607  1
  N  N12  1  0.60048045  0.85440326  0.40486199  1
  N  N13  1  0.39951955  0.14559674  0.90486199  1
  N  N14  1  0.89951955  0.35440326  0.90486199  1
  N  N15  1  0.10048045  0.64559674  0.40486199  1
