# generated using pymatgen
data_TmB2Ir3
_symmetry_space_group_name_H-M   'P 1'
_cell_length_a   3.13785395
_cell_length_b   5.46100414
_cell_length_c   5.45971376
_cell_angle_alpha   59.99218147
_cell_angle_beta   90.00120605
_cell_angle_gamma   90.00241154
_symmetry_Int_Tables_number   1
_chemical_formula_structural   TmB2Ir3
_chemical_formula_sum   'Tm1 B2 Ir3'
_cell_volume   81.01613404
_cell_formula_units_Z   1
loop_
 _symmetry_equiv_pos_site_id
 _symmetry_equiv_pos_as_xyz
  1  'x, y, z'
loop_
 _atom_site_type_symbol
 _atom_site_label
 _atom_site_symmetry_multiplicity
 _atom_site_fract_x
 _atom_site_fract_y
 _atom_site_fract_z
 _atom_site_occupancy
  Tm  Tm0  1  0.50000000  0.50000000  -0.00000000  1
  B  B1  1  0.50000000  0.16674016  0.66651969  1
  B  B2  1  0.50000000  0.83325984  0.33348031  1
  Ir  Ir3  1  -0.00000000  -0.00000000  0.00000000  1
  Ir  Ir4  1  -0.00000000  0.50000000  0.50000000  1
  Ir  Ir5  1  -0.00000000  -0.00000000  0.50000000  1
