# generated using pymatgen
data_Ca3MoN3
_symmetry_space_group_name_H-M   'P 1'
_cell_length_a   7.50737741
_cell_length_b   7.50888434
_cell_length_c   5.09638223
_cell_angle_alpha   90.00000000
_cell_angle_beta   90.00000000
_cell_angle_gamma   119.99590086
_symmetry_Int_Tables_number   1
_chemical_formula_structural   Ca3MoN3
_chemical_formula_sum   'Ca6 Mo2 N6'
_cell_volume   248.81366357
_cell_formula_units_Z   2
loop_
 _symmetry_equiv_pos_site_id
 _symmetry_equiv_pos_as_xyz
  1  'x, y, z'
loop_
 _atom_site_type_symbol
 _atom_site_label
 _atom_site_symmetry_multiplicity
 _atom_site_fract_x
 _atom_site_fract_y
 _atom_site_fract_z
 _atom_site_occupancy
  Ca  Ca0  1  0.89731658  0.64928291  0.25000000  1
  Ca  Ca1  1  0.75200093  0.10269001  0.25000000  1
  Ca  Ca2  1  0.35064542  0.24798816  0.25000000  1
  Ca  Ca3  1  0.10268342  0.35071709  0.75000000  1
  Ca  Ca4  1  0.24799907  0.89730999  0.75000000  1
  Ca  Ca5  1  0.64935458  0.75201184  0.75000000  1
  Mo  Mo6  1  0.66666436  0.33334730  0.75000000  1
  Mo  Mo7  1  0.33333564  0.66665270  0.25000000  1
  N  N8  1  0.88565677  0.60573664  0.75000000  1
  N  N9  1  0.72008837  0.11438737  0.75000000  1
  N  N10  1  0.39425710  0.27989141  0.75000000  1
  N  N11  1  0.11434323  0.39426336  0.25000000  1
  N  N12  1  0.27991163  0.88561263  0.25000000  1
  N  N13  1  0.60574290  0.72010859  0.25000000  1
