# generated using pymatgen
data_As3HO6
_symmetry_space_group_name_H-M   'P 1'
_cell_length_a   12.85853854
_cell_length_b   5.15323310
_cell_length_c   9.96951310
_cell_angle_alpha   90.00000000
_cell_angle_beta   120.51180998
_cell_angle_gamma   90.00000000
_symmetry_Int_Tables_number   1
_chemical_formula_structural   As3HO6
_chemical_formula_sum   'As12 H4 O24'
_cell_volume   569.13198382
_cell_formula_units_Z   4
loop_
 _symmetry_equiv_pos_site_id
 _symmetry_equiv_pos_as_xyz
  1  'x, y, z'
loop_
 _atom_site_type_symbol
 _atom_site_label
 _atom_site_symmetry_multiplicity
 _atom_site_fract_x
 _atom_site_fract_y
 _atom_site_fract_z
 _atom_site_occupancy
  As  As0  1  0.91775599  0.19836486  0.61994341  1
  As  As1  1  0.04782361  0.67003268  0.87622063  1
  As  As2  1  0.04782361  0.82996732  0.37622063  1
  As  As3  1  0.91775599  0.30163514  0.11994341  1
  As  As4  1  0.40230789  0.49255580  0.56947024  1
  As  As5  1  0.57167021  0.10777851  0.86141853  1
  As  As6  1  0.57167021  0.39222149  0.36141853  1
  As  As7  1  0.40230789  0.00744420  0.06947024  1
  As  As8  1  0.22327126  0.37980525  0.73314277  1
  As  As9  1  0.76453498  0.89540096  0.75964465  1
  As  As10  1  0.76453498  0.60459904  0.25964465  1
  As  As11  1  0.22327126  0.12019475  0.23314277  1
  H  H12  1  0.06361275  0.12669125  0.92499368  1
  H  H13  1  0.06361275  0.37330875  0.42499368  1
  H  H14  1  0.57434109  0.71181668  0.94681195  1
  H  H15  1  0.57434109  0.78818332  0.44681195  1
  O  O16  1  0.04357932  0.03478034  0.81775680  1
  O  O17  1  0.94979491  0.53115344  0.68686239  1
  O  O18  1  0.94979491  0.96884656  0.18686239  1
  O  O19  1  0.04357932  0.46521966  0.31775680  1
  O  O20  1  0.09478368  0.25311587  0.57706289  1
  O  O21  1  0.89653459  0.73684403  0.88989735  1
  O  O22  1  0.89653459  0.76315597  0.38989735  1
  O  O23  1  0.09478368  0.24688413  0.07706289  1
  O  O24  1  0.29254587  0.52453113  0.63710631  1
  O  O25  1  0.72385570  0.08153222  0.87574881  1
  O  O26  1  0.72385570  0.41846778  0.37574881  1
  O  O27  1  0.29254587  0.97546887  0.13710631  1
  O  O28  1  0.47431907  0.18547844  0.65496098  1
  O  O29  1  0.53234203  0.76835135  0.83351797  1
  O  O30  1  0.53234203  0.73164865  0.33351797  1
  O  O31  1  0.47431907  0.31452156  0.15496098  1
  O  O32  1  0.19615747  0.60982759  0.83534369  1
  O  O33  1  0.80012202  0.15325549  0.67382119  1
  O  O34  1  0.80012202  0.34674451  0.17382119  1
  O  O35  1  0.19615747  0.89017241  0.33534369  1
  O  O36  1  0.32187754  0.14572826  0.86124995  1
  O  O37  1  0.64852003  0.72066708  0.62709780  1
  O  O38  1  0.64852003  0.77933292  0.12709780  1
  O  O39  1  0.32187754  0.35427174  0.36124995  1
