# generated using pymatgen
data_EuNbO3
_symmetry_space_group_name_H-M   'P 1'
_cell_length_a   5.74297170
_cell_length_b   5.73537777
_cell_length_c   5.73537777
_cell_angle_alpha   60.55258048
_cell_angle_beta   59.95618554
_cell_angle_gamma   59.95618554
_symmetry_Int_Tables_number   1
_chemical_formula_structural   EuNbO3
_chemical_formula_sum   'Eu2 Nb2 O6'
_cell_volume   134.04057232
_cell_formula_units_Z   2
loop_
 _symmetry_equiv_pos_site_id
 _symmetry_equiv_pos_as_xyz
  1  'x, y, z'
loop_
 _atom_site_type_symbol
 _atom_site_label
 _atom_site_symmetry_multiplicity
 _atom_site_fract_x
 _atom_site_fract_y
 _atom_site_fract_z
 _atom_site_occupancy
  Eu  Eu0  1  0.75000000  0.25947379  0.24052621  1
  Eu  Eu1  1  0.25000000  0.74052621  0.75947379  1
  Nb  Nb2  1  0.50000000  -0.00000000  -0.00000000  1
  Nb  Nb3  1  0.00000000  0.50000000  0.50000000  1
  O  O4  1  0.75000000  0.81996565  0.68003435  1
  O  O5  1  0.25000000  0.18003435  0.31996565  1
  O  O6  1  0.21195321  0.28804679  0.78804679  1
  O  O7  1  0.28804679  0.71195321  0.21195321  1
  O  O8  1  0.71195321  0.28804679  0.78804679  1
  O  O9  1  0.78804679  0.71195321  0.21195321  1
