# generated using pymatgen
data_Ti3H2O7
_symmetry_space_group_name_H-M   'P 1'
_cell_length_a   16.06678535
_cell_length_b   16.08961830
_cell_length_c   9.49472782
_cell_angle_alpha   83.11399685
_cell_angle_beta   96.90595497
_cell_angle_gamma   166.50031624
_symmetry_Int_Tables_number   1
_chemical_formula_structural   Ti3H2O7
_chemical_formula_sum   'Ti6 H4 O14'
_cell_volume   568.76693750
_cell_formula_units_Z   2
loop_
 _symmetry_equiv_pos_site_id
 _symmetry_equiv_pos_as_xyz
  1  'x, y, z'
loop_
 _atom_site_type_symbol
 _atom_site_label
 _atom_site_symmetry_multiplicity
 _atom_site_fract_x
 _atom_site_fract_y
 _atom_site_fract_z
 _atom_site_occupancy
  Ti  Ti0  1  0.77154533  0.22758441  0.79130908  1
  Ti  Ti1  1  0.22694690  0.77168480  0.20819844  1
  Ti  Ti2  1  0.79002719  0.21318454  0.47918426  1
  Ti  Ti3  1  0.21089258  0.78731880  0.52030304  1
  Ti  Ti4  1  0.80892798  0.20616258  0.16565977  1
  Ti  Ti5  1  0.19746790  0.80043158  0.83442287  1
  H  H6  1  0.92700034  0.15511394  0.22543598  1
  H  H7  1  0.76022370  0.00025774  0.07024102  1
  H  H8  1  0.11413772  0.88619760  0.76505199  1
  H  H9  1  0.11664280  0.88345187  0.93874110  1
  O  O10  1  0.79486491  0.19216937  0.95943419  1
  O  O11  1  0.19592775  0.80062595  0.04103356  1
  O  O12  1  0.81421140  0.18970529  0.66051333  1
  O  O13  1  0.18541702  0.81032071  0.33864381  1
  O  O14  1  0.83092453  0.17377943  0.35046515  1
  O  O15  1  0.16983984  0.82600479  0.64730968  1
  O  O16  1  0.94748387  0.20309330  0.12848549  1
  O  O17  1  0.13028099  0.86691571  0.85592425  1
  O  O18  1  0.71026211  0.28728328  0.84564150  1
  O  O19  1  0.29075602  0.71351801  0.15509117  1
  O  O20  1  0.72894232  0.27005328  0.54728199  1
  O  O21  1  0.27181225  0.73035071  0.45195530  1
  O  O22  1  0.74611931  0.25440835  0.23572868  1
  O  O23  1  0.25366822  0.74561393  0.76318034  1
