# generated using pymatgen
data_EuInPt4
_symmetry_space_group_name_H-M   'P 1'
_cell_length_a   5.44203423
_cell_length_b   5.44203423
_cell_length_c   5.44203423
_cell_angle_alpha   60.00000000
_cell_angle_beta   60.00000000
_cell_angle_gamma   60.00000000
_symmetry_Int_Tables_number   1
_chemical_formula_structural   EuInPt4
_chemical_formula_sum   'Eu1 In1 Pt4'
_cell_volume   113.96429557
_cell_formula_units_Z   1
loop_
 _symmetry_equiv_pos_site_id
 _symmetry_equiv_pos_as_xyz
  1  'x, y, z'
loop_
 _atom_site_type_symbol
 _atom_site_label
 _atom_site_symmetry_multiplicity
 _atom_site_fract_x
 _atom_site_fract_y
 _atom_site_fract_z
 _atom_site_occupancy
  Eu  Eu0  1  0.00000000  0.00000000  0.00000000  1
  In  In1  1  0.75000000  0.75000000  0.75000000  1
  Pt  Pt2  1  0.87388742  0.37537086  0.37537086  1
  Pt  Pt3  1  0.37537086  0.87388742  0.37537086  1
  Pt  Pt4  1  0.37537086  0.37537086  0.87388742  1
  Pt  Pt5  1  0.37537086  0.37537086  0.37537086  1
