# generated using pymatgen
data_NbPt3
_symmetry_space_group_name_H-M   'P 1'
_cell_length_a   4.63036130
_cell_length_b   4.94905448
_cell_length_c   5.60751233
_cell_angle_alpha   90.00000000
_cell_angle_beta   90.00000000
_cell_angle_gamma   90.00000000
_symmetry_Int_Tables_number   1
_chemical_formula_structural   NbPt3
_chemical_formula_sum   'Nb2 Pt6'
_cell_volume   128.50124976
_cell_formula_units_Z   2
loop_
 _symmetry_equiv_pos_site_id
 _symmetry_equiv_pos_as_xyz
  1  'x, y, z'
loop_
 _atom_site_type_symbol
 _atom_site_label
 _atom_site_symmetry_multiplicity
 _atom_site_fract_x
 _atom_site_fract_y
 _atom_site_fract_z
 _atom_site_occupancy
  Nb  Nb0  1  0.75000000  0.34358750  0.75000000  1
  Nb  Nb1  1  0.25000000  0.65641250  0.25000000  1
  Pt  Pt2  1  0.75000000  0.83512950  0.00047840  1
  Pt  Pt3  1  0.75000000  0.83512950  0.49952160  1
  Pt  Pt4  1  0.25000000  0.16487050  0.99952160  1
  Pt  Pt5  1  0.25000000  0.16487050  0.50047840  1
  Pt  Pt6  1  0.25000000  0.65875625  0.75000000  1
  Pt  Pt7  1  0.75000000  0.34124375  0.25000000  1
