# generated using pymatgen
data_CsNdTe2
_symmetry_space_group_name_H-M   'P 1'
_cell_length_a   9.35228169
_cell_length_b   9.35228169
_cell_length_c   9.35228170
_cell_angle_alpha   29.00030192
_cell_angle_beta   29.00030192
_cell_angle_gamma   29.00030193
_symmetry_Int_Tables_number   1
_chemical_formula_structural   CsNdTe2
_chemical_formula_sum   'Cs1 Nd1 Te2'
_cell_volume   170.05787367
_cell_formula_units_Z   1
loop_
 _symmetry_equiv_pos_site_id
 _symmetry_equiv_pos_as_xyz
  1  'x, y, z'
loop_
 _atom_site_type_symbol
 _atom_site_label
 _atom_site_symmetry_multiplicity
 _atom_site_fract_x
 _atom_site_fract_y
 _atom_site_fract_z
 _atom_site_occupancy
  Te  Te0  1  0.73159560  0.73159560  0.73159560  1
  Te  Te1  1  0.26840440  0.26840440  0.26840440  1
  Cs  Cs2  1  0.50000000  0.50000000  0.50000000  1
  Nd  Nd3  1  0.00000000  0.00000000  0.00000000  1
