# generated using pymatgen
data_CsNiBr3
_symmetry_space_group_name_H-M   'P 1'
_cell_length_a   6.33636350
_cell_length_b   7.69587620
_cell_length_c   7.69587620
_cell_angle_alpha   119.99944229
_cell_angle_beta   90.00000000
_cell_angle_gamma   90.00000000
_symmetry_Int_Tables_number   1
_chemical_formula_structural   CsNiBr3
_chemical_formula_sum   'Cs2 Ni2 Br6'
_cell_volume   325.00444601
_cell_formula_units_Z   2
loop_
 _symmetry_equiv_pos_site_id
 _symmetry_equiv_pos_as_xyz
  1  'x, y, z'
loop_
 _atom_site_type_symbol
 _atom_site_label
 _atom_site_symmetry_multiplicity
 _atom_site_fract_x
 _atom_site_fract_y
 _atom_site_fract_z
 _atom_site_occupancy
  Cs  Cs0  1  0.25000000  0.66668384  0.33331616  1
  Cs  Cs1  1  0.75000000  0.33331616  0.66668384  1
  Ni  Ni2  1  0.50000000  0.00000000  0.00000000  1
  Ni  Ni3  1  0.00000000  0.00000000  0.00000000  1
  Br  Br4  1  0.75000000  0.84773093  0.69550425  1
  Br  Br5  1  0.75000000  0.84775812  0.15224188  1
  Br  Br6  1  0.75000000  0.30449575  0.15226907  1
  Br  Br7  1  0.25000000  0.15226907  0.30449575  1
  Br  Br8  1  0.25000000  0.15224188  0.84775812  1
  Br  Br9  1  0.25000000  0.69550425  0.84773093  1
