# generated using pymatgen
data_ZnH8(N2Cl)2
_symmetry_space_group_name_H-M   'P 1'
_cell_length_a   6.00165612
_cell_length_b   6.00165612
_cell_length_c   4.20228737
_cell_angle_alpha   78.86897692
_cell_angle_beta   101.13102308
_cell_angle_gamma   98.14395996
_symmetry_Int_Tables_number   1
_chemical_formula_structural   ZnH8(N2Cl)2
_chemical_formula_sum   'Zn1 H8 N4 Cl2'
_cell_volume   144.86531295
_cell_formula_units_Z   1
loop_
 _symmetry_equiv_pos_site_id
 _symmetry_equiv_pos_as_xyz
  1  'x, y, z'
loop_
 _atom_site_type_symbol
 _atom_site_label
 _atom_site_symmetry_multiplicity
 _atom_site_fract_x
 _atom_site_fract_y
 _atom_site_fract_z
 _atom_site_occupancy
  Zn  Zn0  1  0.00000000  0.00000000  0.00000000  1
  H  H1  1  0.00589243  0.31984224  0.45702471  1
  H  H2  1  0.68015776  0.99410757  0.45702471  1
  H  H3  1  0.99410757  0.68015776  0.54297529  1
  H  H4  1  0.31984224  0.00589243  0.54297529  1
  H  H5  1  0.25398653  0.36944259  0.70232126  1
  H  H6  1  0.63055741  0.74601347  0.70232126  1
  H  H7  1  0.74601347  0.63055741  0.29767874  1
  H  H8  1  0.36944259  0.25398653  0.29767874  1
  N  N9  1  0.14113853  0.24380460  0.60573203  1
  N  N10  1  0.75619540  0.85886147  0.60573203  1
  N  N11  1  0.85886147  0.75619540  0.39426797  1
  N  N12  1  0.24380460  0.14113853  0.39426797  1
  Cl  Cl13  1  0.71586798  0.28413202  0.99589153  1
  Cl  Cl14  1  0.28413202  0.71586798  0.00410847  1
