# generated using pymatgen
data_U6P13Rh20
_symmetry_space_group_name_H-M   'P 1'
_cell_length_a   3.87596833
_cell_length_b   13.40365391
_cell_length_c   13.40301615
_cell_angle_alpha   60.03560043
_cell_angle_beta   89.98188008
_cell_angle_gamma   89.96587224
_symmetry_Int_Tables_number   1
_chemical_formula_structural   U6P13Rh20
_chemical_formula_sum   'U6 P13 Rh20'
_cell_volume   603.24288112
_cell_formula_units_Z   1
loop_
 _symmetry_equiv_pos_site_id
 _symmetry_equiv_pos_as_xyz
  1  'x, y, z'
loop_
 _atom_site_type_symbol
 _atom_site_label
 _atom_site_symmetry_multiplicity
 _atom_site_fract_x
 _atom_site_fract_y
 _atom_site_fract_z
 _atom_site_occupancy
  U  U0  1  0.49958798  0.28261217  0.52708998  1
  U  U1  1  0.49928414  0.19010838  0.28297866  1
  U  U2  1  0.49947463  0.52707335  0.19038569  1
  U  U3  1  0.00064456  0.71814757  0.47175994  1
  U  U4  1  0.00090983  0.80991977  0.71795140  1
  U  U5  1  0.00079657  0.47183694  0.81025003  1
  P  P6  1  0.50004624  0.86097165  0.52604851  1
  P  P7  1  0.50000501  0.61229568  0.86131673  1
  P  P8  1  0.49973017  0.52674110  0.61274769  1
  P  P9  1  0.50350419  0.28530263  0.94371210  1
  P  P10  1  0.50318884  0.77124232  0.28529858  1
  P  P11  1  0.50360327  0.94370180  0.77085812  1
  P  P12  1  0.00059359  0.47327225  0.38857028  1
  P  P13  1  0.00015015  0.13828942  0.47303504  1
  P  P14  1  0.99985840  0.38880686  0.13803283  1
  P  P15  1  0.99676219  0.23011875  0.71357561  1
  P  P16  1  0.99686426  0.05582905  0.23028925  1
  P  P17  1  0.99653387  0.71382041  0.05601211  1
  P  P18  1  0.25203886  0.00030202  0.99982590  1
  Rh  Rh19  1  -0.00032174  0.33350273  0.33314575  1
  Rh  Rh20  1  0.50183548  0.74848049  0.92247907  1
  Rh  Rh21  1  0.50184275  0.32891006  0.74785080  1
  Rh  Rh22  1  0.50262868  0.92372510  0.32848410  1
  Rh  Rh23  1  0.00078136  0.97917036  0.43921883  1
  Rh  Rh24  1  0.00050255  0.58229417  0.97945503  1
  Rh  Rh25  1  0.00059970  0.43924813  0.58191022  1
  Rh  Rh26  1  0.50071473  0.66718524  0.66690796  1
  Rh  Rh27  1  0.50069198  0.81429050  0.09412848  1
  Rh  Rh28  1  0.50130105  0.09070307  0.81495494  1
  Rh  Rh29  1  0.50167860  0.09419332  0.09087243  1
  Rh  Rh30  1  0.49898631  0.41799163  0.01881563  1
  Rh  Rh31  1  0.49930651  0.56344049  0.41750356  1
  Rh  Rh32  1  0.49905940  0.01726707  0.56456975  1
  Rh  Rh33  1  0.99755639  0.07900217  0.66982116  1
  Rh  Rh34  1  0.99759641  0.25066536  0.07981527  1
  Rh  Rh35  1  0.99781810  0.67000578  0.25059343  1
  Rh  Rh36  1  0.99754235  0.18674730  0.90492986  1
  Rh  Rh37  1  0.99807047  0.90791388  0.18639272  1
  Rh  Rh38  1  0.99823217  0.90487104  0.90841257  1
