# generated using pymatgen
data_Ho6Al43W4
_symmetry_space_group_name_H-M   'P 1'
_cell_length_a   11.05896503
_cell_length_b   11.05877284
_cell_length_c   17.59348610
_cell_angle_alpha   90.00000000
_cell_angle_beta   90.00000000
_cell_angle_gamma   120.00057895
_symmetry_Int_Tables_number   1
_chemical_formula_structural   Ho6Al43W4
_chemical_formula_sum   'Ho12 Al86 W8'
_cell_volume   1863.37996726
_cell_formula_units_Z   2
loop_
 _symmetry_equiv_pos_site_id
 _symmetry_equiv_pos_as_xyz
  1  'x, y, z'
loop_
 _atom_site_type_symbol
 _atom_site_label
 _atom_site_symmetry_multiplicity
 _atom_site_fract_x
 _atom_site_fract_y
 _atom_site_fract_z
 _atom_site_occupancy
  Ho  Ho0  1  0.53149765  0.00000000  0.59573140  1
  Ho  Ho1  1  0.46849698  0.46850303  0.59573428  1
  Ho  Ho2  1  0.99999395  0.53149697  0.59573428  1
  Ho  Ho3  1  0.46850235  1.00000000  0.40426860  1
  Ho  Ho4  1  0.53150302  0.53149697  0.40426572  1
  Ho  Ho5  1  0.00000605  0.46850303  0.40426572  1
  Ho  Ho6  1  0.46850235  1.00000000  0.09573140  1
  Ho  Ho7  1  0.53150302  0.53149697  0.09573428  1
  Ho  Ho8  1  0.00000605  0.46850303  0.09573428  1
  Ho  Ho9  1  0.53149765  0.00000000  0.90426860  1
  Ho  Ho10  1  0.46849698  0.46850303  0.90426572  1
  Ho  Ho11  1  0.99999395  0.53149697  0.90426572  1
  Al  Al12  1  0.15822507  0.39482840  0.66363889  1
  Al  Al13  1  0.23659513  0.84178341  0.66364018  1
  Al  Al14  1  0.60516993  0.76339747  0.66363918  1
  Al  Al15  1  0.76339667  0.60517160  0.66363889  1
  Al  Al16  1  0.39481172  0.15821659  0.66364018  1
  Al  Al17  1  0.84177247  0.23660253  0.66363918  1
  Al  Al18  1  0.84177493  0.60517160  0.33636111  1
  Al  Al19  1  0.76340487  0.15821659  0.33635982  1
  Al  Al20  1  0.39483007  0.23660253  0.33636082  1
  Al  Al21  1  0.23660333  0.39482840  0.33636111  1
  Al  Al22  1  0.60518828  0.84178341  0.33635982  1
  Al  Al23  1  0.15822753  0.76339747  0.33636082  1
  Al  Al24  1  0.84177493  0.60517160  0.16363889  1
  Al  Al25  1  0.76340487  0.15821659  0.16364018  1
  Al  Al26  1  0.39483007  0.23660253  0.16363918  1
  Al  Al27  1  0.23660333  0.39482840  0.16363889  1
  Al  Al28  1  0.60518828  0.84178341  0.16364018  1
  Al  Al29  1  0.15822753  0.76339747  0.16363918  1
  Al  Al30  1  0.15822507  0.39482840  0.83636111  1
  Al  Al31  1  0.23659513  0.84178341  0.83635982  1
  Al  Al32  1  0.60516993  0.76339747  0.83636082  1
  Al  Al33  1  0.76339667  0.60517160  0.83636111  1
  Al  Al34  1  0.39481172  0.15821659  0.83635982  1
  Al  Al35  1  0.84177247  0.23660253  0.83636082  1
  Al  Al36  1  0.15919822  1.00000000  0.11496285  1
  Al  Al37  1  0.84080098  0.84080010  0.11496222  1
  Al  Al38  1  0.00000088  0.15919990  0.11496222  1
  Al  Al39  1  0.84080178  0.00000000  0.88503715  1
  Al  Al40  1  0.15919902  0.15919990  0.88503778  1
  Al  Al41  1  -0.00000088  0.84080010  0.88503778  1
  Al  Al42  1  0.84080178  0.00000000  0.61496285  1
  Al  Al43  1  0.15919902  0.15919990  0.61496222  1
  Al  Al44  1  -0.00000088  0.84080010  0.61496222  1
  Al  Al45  1  0.15919822  1.00000000  0.38503715  1
  Al  Al46  1  0.84080098  0.84080010  0.38503778  1
  Al  Al47  1  0.00000088  0.15919990  0.38503778  1
  Al  Al48  1  0.25427615  1.00000000  0.53083777  1
  Al  Al49  1  0.74572172  0.74572107  0.53083845  1
  Al  Al50  1  0.00000066  0.25427893  0.53083845  1
  Al  Al51  1  0.74572385  0.00000000  0.46916223  1
  Al  Al52  1  0.25427828  0.25427893  0.46916155  1
  Al  Al53  1  0.99999934  0.74572107  0.46916155  1
  Al  Al54  1  0.74572385  0.00000000  0.03083777  1
  Al  Al55  1  0.25427828  0.25427893  0.03083845  1
  Al  Al56  1  0.99999934  0.74572107  0.03083845  1
  Al  Al57  1  0.25427615  1.00000000  0.96916223  1
  Al  Al58  1  0.74572172  0.74572107  0.96916155  1
  Al  Al59  1  0.00000066  0.25427893  0.96916155  1
  Al  Al60  1  0.14728276  0.59509139  0.75000000  1
  Al  Al61  1  0.44780198  0.85271185  0.75000000  1
  Al  Al62  1  0.40490596  0.55220298  0.75000000  1
  Al  Al63  1  0.55219137  0.40490861  0.75000000  1
  Al  Al64  1  0.59509013  0.14728815  0.75000000  1
  Al  Al65  1  0.85270298  0.44779702  0.75000000  1
  Al  Al66  1  0.85271724  0.40490861  0.25000000  1
  Al  Al67  1  0.55219802  0.14728815  0.25000000  1
  Al  Al68  1  0.59509404  0.44779702  0.25000000  1
  Al  Al69  1  0.44780863  0.59509139  0.25000000  1
  Al  Al70  1  0.40490987  0.85271185  0.25000000  1
  Al  Al71  1  0.14729702  0.55220298  0.25000000  1
  Al  Al72  1  0.24680361  0.49360722  0.50000000  1
  Al  Al73  1  0.24679882  0.75319651  0.49999541  1
  Al  Al74  1  0.50639769  0.75319651  0.50000459  1
  Al  Al75  1  0.75319639  0.50639278  0.50000000  1
  Al  Al76  1  0.49360231  0.24680349  0.49999541  1
  Al  Al77  1  0.75320118  0.24680349  0.50000459  1
  Al  Al78  1  0.75319639  0.50639278  0.00000000  1
  Al  Al79  1  0.75320118  0.24680349  0.99999541  1
  Al  Al80  1  0.49360231  0.24680349  0.00000459  1
  Al  Al81  1  0.24680361  0.49360722  0.00000000  1
  Al  Al82  1  0.50639769  0.75319651  0.99999541  1
  Al  Al83  1  0.24679882  0.75319651  0.00000459  1
  Al  Al84  1  0.33332637  0.66667415  0.62613736  1
  Al  Al85  1  0.66665222  0.33332585  0.62613736  1
  Al  Al86  1  0.66667363  0.33332585  0.37386264  1
  Al  Al87  1  0.33334778  0.66667415  0.37386264  1
  Al  Al88  1  0.66667363  0.33332585  0.12613736  1
  Al  Al89  1  0.33334778  0.66667415  0.12613736  1
  Al  Al90  1  0.33332637  0.66667415  0.87386264  1
  Al  Al91  1  0.66665222  0.33332585  0.87386264  1
  Al  Al92  1  0.14740617  1.00000000  0.75000000  1
  Al  Al93  1  0.85258601  0.85258381  0.75000000  1
  Al  Al94  1  0.00000221  0.14741619  0.75000000  1
  Al  Al95  1  0.85259383  0.00000000  0.25000000  1
  Al  Al96  1  0.14741399  0.14741619  0.25000000  1
  Al  Al97  1  -0.00000221  0.85258381  0.25000000  1
  W  W98  1  0.72861948  0.00000000  0.75000000  1
  W  W99  1  0.27137912  0.27138433  0.75000000  1
  W  W100  1  0.99999478  0.72861567  0.75000000  1
  W  W101  1  0.27138052  1.00000000  0.25000000  1
  W  W102  1  0.72862088  0.72861567  0.25000000  1
  W  W103  1  0.00000522  0.27138433  0.25000000  1
  W  W104  1  0.00000000  0.00000000  0.50000000  1
  W  W105  1  0.00000000  0.00000000  0.00000000  1
