# generated using pymatgen
data_CsS2(O3F)2
_symmetry_space_group_name_H-M   'P 1'
_cell_length_a   7.99554435
_cell_length_b   7.99554435
_cell_length_c   8.67381383
_cell_angle_alpha   98.95656204
_cell_angle_beta   107.17242224
_cell_angle_gamma   120.71800010
_symmetry_Int_Tables_number   1
_chemical_formula_structural   CsS2(O3F)2
_chemical_formula_sum   'Cs2 S4 O12 F4'
_cell_volume   422.55407598
_cell_formula_units_Z   2
loop_
 _symmetry_equiv_pos_site_id
 _symmetry_equiv_pos_as_xyz
  1  'x, y, z'
loop_
 _atom_site_type_symbol
 _atom_site_label
 _atom_site_symmetry_multiplicity
 _atom_site_fract_x
 _atom_site_fract_y
 _atom_site_fract_z
 _atom_site_occupancy
  Cs  Cs0  1  0.85544629  0.60544629  0.75000000  1
  Cs  Cs1  1  0.14455371  0.39455371  0.25000000  1
  S  S2  1  0.20726712  0.32846111  0.72446555  1
  S  S3  1  0.60399556  0.98280157  0.77553445  1
  S  S4  1  0.79273288  0.67153889  0.27553445  1
  S  S5  1  0.39600444  0.01719843  0.22446555  1
  O  O6  1  0.35851044  0.36815696  0.65097225  1
  O  O7  1  0.71718472  0.20753819  0.84902775  1
  O  O8  1  0.64148956  0.63184304  0.34902775  1
  O  O9  1  0.28281528  0.79246181  0.15097225  1
  O  O10  1  0.03160904  0.33932110  0.63081264  1
  O  O11  1  0.70850846  0.90079640  0.86918736  1
  O  O12  1  0.96839096  0.66067890  0.36918736  1
  O  O13  1  0.29149154  0.09920360  0.13081264  1
  O  O14  1  0.30305736  0.43511803  0.91271764  1
  O  O15  1  0.52240039  0.89033972  0.58728236  1
  O  O16  1  0.69694264  0.56488197  0.08728236  1
  O  O17  1  0.47759961  0.10966028  0.41271764  1
  F  F18  1  0.08739571  0.08415386  0.69828935  1
  F  F19  1  0.38586451  0.88910636  0.80171065  1
  F  F20  1  0.91260429  0.91584614  0.30171065  1
  F  F21  1  0.61413549  0.11089364  0.19828935  1
