# generated using pymatgen
data_Hf3AgHg3F20
_symmetry_space_group_name_H-M   'P 1'
_cell_length_a   8.63257436
_cell_length_b   10.77755465
_cell_length_c   10.77755465
_cell_angle_alpha   120.00000163
_cell_angle_beta   90.00000000
_cell_angle_gamma   90.00000000
_symmetry_Int_Tables_number   1
_chemical_formula_structural   Hf3AgHg3F20
_chemical_formula_sum   'Hf6 Ag2 Hg6 F40'
_cell_volume   868.38321350
_cell_formula_units_Z   2
loop_
 _symmetry_equiv_pos_site_id
 _symmetry_equiv_pos_as_xyz
  1  'x, y, z'
loop_
 _atom_site_type_symbol
 _atom_site_label
 _atom_site_symmetry_multiplicity
 _atom_site_fract_x
 _atom_site_fract_y
 _atom_site_fract_z
 _atom_site_occupancy
  Hf  Hf0  1  0.75000000  0.58173662  0.72179771  1
  Hf  Hf1  1  0.25000000  0.41826338  0.27820229  1
  Hf  Hf2  1  0.75000000  0.14006109  0.41826338  1
  Hf  Hf3  1  0.25000000  0.85993891  0.58173662  1
  Hf  Hf4  1  0.75000000  0.27820229  0.85993891  1
  Hf  Hf5  1  0.25000000  0.72179771  0.14006109  1
  Ag  Ag6  1  0.75000000  0.00000000  0.00000000  1
  Ag  Ag7  1  0.25000000  0.00000000  0.00000000  1
  Hg  Hg8  1  0.75000000  0.72928056  0.15981917  1
  Hg  Hg9  1  0.25000000  0.27071944  0.84018083  1
  Hg  Hg10  1  0.75000000  0.43053861  0.27071944  1
  Hg  Hg11  1  0.25000000  0.56946139  0.72928056  1
  Hg  Hg12  1  0.75000000  0.84018083  0.56946139  1
  Hg  Hg13  1  0.25000000  0.15981917  0.43053861  1
  F  F14  1  0.97997427  0.57493230  0.72009409  1
  F  F15  1  0.02002573  0.42506770  0.27990591  1
  F  F16  1  0.97997427  0.14516179  0.42506770  1
  F  F17  1  0.47997427  0.42506770  0.27990591  1
  F  F18  1  0.02002573  0.85483821  0.57493230  1
  F  F19  1  0.52002573  0.57493230  0.72009409  1
  F  F20  1  0.97997427  0.27990591  0.85483821  1
  F  F21  1  0.47997427  0.85483821  0.57493230  1
  F  F22  1  0.02002573  0.72009409  0.14516179  1
  F  F23  1  0.52002573  0.14516179  0.42506770  1
  F  F24  1  0.47997427  0.72009409  0.14516179  1
  F  F25  1  0.52002573  0.27990591  0.85483821  1
  F  F26  1  0.75000000  0.71726854  0.93935319  1
  F  F27  1  0.25000000  0.28273146  0.06064681  1
  F  F28  1  0.75000000  0.22208466  0.28273146  1
  F  F29  1  0.25000000  0.77791534  0.71726854  1
  F  F30  1  0.75000000  0.06064681  0.77791534  1
  F  F31  1  0.25000000  0.93935319  0.22208466  1
  F  F32  1  0.75000000  0.97030760  0.20342246  1
  F  F33  1  0.25000000  0.02969240  0.79657754  1
  F  F34  1  0.75000000  0.23311486  0.02969240  1
  F  F35  1  0.25000000  0.76688514  0.97030760  1
  F  F36  1  0.75000000  0.79657754  0.76688514  1
  F  F37  1  0.25000000  0.20342246  0.23311486  1
  F  F38  1  0.75000000  0.66666700  0.33333300  1
  F  F39  1  0.25000000  0.33333300  0.66666700  1
  F  F40  1  0.75000000  0.36579024  0.55126584  1
  F  F41  1  0.25000000  0.63420976  0.44873416  1
  F  F42  1  0.75000000  0.18547560  0.63420976  1
  F  F43  1  0.25000000  0.81452440  0.36579024  1
  F  F44  1  0.75000000  0.44873416  0.81452440  1
  F  F45  1  0.25000000  0.55126584  0.18547560  1
  F  F46  1  0.75000000  0.94669735  0.41424898  1
  F  F47  1  0.25000000  0.05330265  0.58575102  1
  F  F48  1  0.75000000  0.46755163  0.05330265  1
  F  F49  1  0.25000000  0.53244837  0.94669735  1
  F  F50  1  0.75000000  0.58575102  0.53244837  1
  F  F51  1  0.25000000  0.41424898  0.46755163  1
  F  F52  1  -0.00000000  0.00000000  0.00000000  1
  F  F53  1  0.50000000  0.00000000  0.00000000  1
