# generated using pymatgen
data_TiZnO3
_symmetry_space_group_name_H-M   'P 1'
_cell_length_a   15.19237796
_cell_length_b   10.99927259
_cell_length_c   10.39749272
_cell_angle_alpha   150.11812027
_cell_angle_beta   161.31764112
_cell_angle_gamma   17.01116939
_symmetry_Int_Tables_number   1
_chemical_formula_structural   TiZnO3
_chemical_formula_sum   'Ti2 Zn2 O6'
_cell_volume   148.20579394
_cell_formula_units_Z   2
loop_
 _symmetry_equiv_pos_site_id
 _symmetry_equiv_pos_as_xyz
  1  'x, y, z'
loop_
 _atom_site_type_symbol
 _atom_site_label
 _atom_site_symmetry_multiplicity
 _atom_site_fract_x
 _atom_site_fract_y
 _atom_site_fract_z
 _atom_site_occupancy
  Ti  Ti0  1  0.91872509  0.82902728  0.66333565  1
  Ti  Ti1  1  0.08129314  0.17099299  0.33669409  1
  Zn  Zn2  1  0.93689111  0.49245045  0.68655209  1
  Zn  Zn3  1  0.06315898  0.50730573  0.31330562  1
  O  O4  1  0.56200245  0.13553044  0.30544373  1
  O  O5  1  0.55269919  0.34082832  0.74210303  1
  O  O6  1  0.70604060  0.74398606  0.41617792  1
  O  O7  1  0.43798369  0.86456572  0.69462924  1
  O  O8  1  0.44729731  0.65926671  0.25796022  1
  O  O9  1  0.29390944  0.25604831  0.58379741  1
