# generated using pymatgen
data_Er(AlFe)6
_symmetry_space_group_name_H-M   'P 1'
_cell_length_a   4.98437093
_cell_length_b   6.53799074
_cell_length_c   6.53799074
_cell_angle_alpha   99.17862270
_cell_angle_beta   112.40712228
_cell_angle_gamma   67.59287772
_symmetry_Int_Tables_number   1
_chemical_formula_structural   Er(AlFe)6
_chemical_formula_sum   'Er1 Al6 Fe6'
_cell_volume   182.07549085
_cell_formula_units_Z   1
loop_
 _symmetry_equiv_pos_site_id
 _symmetry_equiv_pos_as_xyz
  1  'x, y, z'
loop_
 _atom_site_type_symbol
 _atom_site_label
 _atom_site_symmetry_multiplicity
 _atom_site_fract_x
 _atom_site_fract_y
 _atom_site_fract_z
 _atom_site_occupancy
  Er  Er0  1  -0.00000000  0.00000000  -0.00000000  1
  Al  Al1  1  0.65426204  0.34573796  0.65426204  1
  Al  Al2  1  0.34573796  0.65426204  0.34573796  1
  Al  Al3  1  -0.00000000  0.33605968  0.33605968  1
  Al  Al4  1  -0.00000000  0.66394032  0.66394032  1
  Al  Al5  1  0.69209797  0.80790203  0.19209797  1
  Al  Al6  1  0.30790203  0.19209797  0.80790203  1
  Fe  Fe7  1  0.50000000  0.00000000  0.50000000  1
  Fe  Fe8  1  -0.00000000  0.00000000  0.50000000  1
  Fe  Fe9  1  0.50000000  0.50000000  -0.00000000  1
  Fe  Fe10  1  -0.00000000  0.50000000  -0.00000000  1
  Fe  Fe11  1  0.50000000  0.76032507  0.76032507  1
  Fe  Fe12  1  0.50000000  0.23967493  0.23967493  1
