# generated using pymatgen
data_Tb2Ge2O7
_symmetry_space_group_name_H-M   'P 1'
_cell_length_a   6.89934500
_cell_length_b   6.89934500
_cell_length_c   12.57230109
_cell_angle_alpha   90.00000000
_cell_angle_beta   90.00000000
_cell_angle_gamma   90.00000000
_symmetry_Int_Tables_number   1
_chemical_formula_structural   Tb2Ge2O7
_chemical_formula_sum   'Tb8 Ge8 O28'
_cell_volume   598.45361926
_cell_formula_units_Z   4
loop_
 _symmetry_equiv_pos_site_id
 _symmetry_equiv_pos_as_xyz
  1  'x, y, z'
loop_
 _atom_site_type_symbol
 _atom_site_label
 _atom_site_symmetry_multiplicity
 _atom_site_fract_x
 _atom_site_fract_y
 _atom_site_fract_z
 _atom_site_occupancy
  O  O0  1  0.30351768  0.30351768  0.50000000  1
  O  O1  1  0.19648232  0.80351768  0.75000000  1
  O  O2  1  0.80351768  0.19648232  0.25000000  1
  O  O3  1  0.69648232  0.69648232  0.00000000  1
  O  O4  1  0.52992356  0.57820095  0.37397455  1
  O  O5  1  0.47007644  0.42179905  0.87397455  1
  O  O6  1  0.57820095  0.52992356  0.62602545  1
  O  O7  1  0.07820095  0.97007644  0.12397455  1
  O  O8  1  0.92179905  0.02992356  0.62397455  1
  O  O9  1  0.97007644  0.07820095  0.87602545  1
  O  O10  1  0.02992356  0.92179905  0.37602545  1
  O  O11  1  0.42179905  0.47007644  0.12602545  1
  O  O12  1  0.81423847  0.64295386  0.20458044  1
  O  O13  1  0.18576153  0.35704614  0.70458044  1
  O  O14  1  0.64295386  0.81423847  0.79541956  1
  O  O15  1  0.14295386  0.68576153  0.95458044  1
  O  O16  1  0.06389679  0.33839934  0.07138670  1
  O  O17  1  0.16160066  0.56389679  0.32138670  1
  O  O18  1  0.83839934  0.43610321  0.82138670  1
  O  O19  1  0.56389679  0.16160066  0.67861330  1
  O  O20  1  0.43610321  0.83839934  0.17861330  1
  O  O21  1  0.93610321  0.66160066  0.57138670  1
  O  O22  1  0.33839934  0.06389679  0.92861330  1
  O  O23  1  0.66160066  0.93610321  0.42861330  1
  O  O24  1  0.35704614  0.18576153  0.29541956  1
  O  O25  1  0.31423847  0.85704614  0.54541956  1
  O  O26  1  0.68576153  0.14295386  0.04541956  1
  O  O27  1  0.85704614  0.31423847  0.45458044  1
  Ge  Ge28  1  0.65308817  0.59849666  0.86987036  1
  Ge  Ge29  1  0.34691183  0.40150334  0.36987036  1
  Ge  Ge30  1  0.59849666  0.65308817  0.13012964  1
  Ge  Ge31  1  0.09849666  0.84691183  0.61987036  1
  Ge  Ge32  1  0.90150334  0.15308817  0.11987036  1
  Ge  Ge33  1  0.84691183  0.09849666  0.38012964  1
  Ge  Ge34  1  0.15308817  0.90150334  0.88012964  1
  Ge  Ge35  1  0.40150334  0.34691183  0.63012964  1
  Tb  Tb36  1  0.64840226  0.12398815  0.86540599  1
  Tb  Tb37  1  0.35159774  0.87601185  0.36540599  1
  Tb  Tb38  1  0.12398815  0.64840226  0.13459401  1
  Tb  Tb39  1  0.62398815  0.85159774  0.61540599  1
  Tb  Tb40  1  0.37601185  0.14840226  0.11540599  1
  Tb  Tb41  1  0.85159774  0.62398815  0.38459401  1
  Tb  Tb42  1  0.14840226  0.37601185  0.88459401  1
  Tb  Tb43  1  0.87601185  0.35159774  0.63459401  1
