# generated using pymatgen
data_EuAgSn
_symmetry_space_group_name_H-M   'P 1'
_cell_length_a   4.91049027
_cell_length_b   6.29035614
_cell_length_c   6.23729334
_cell_angle_alpha   94.88269675
_cell_angle_beta   113.18115594
_cell_angle_gamma   67.02564912
_symmetry_Int_Tables_number   1
_chemical_formula_structural   EuAgSn
_chemical_formula_sum   'Eu2 Ag2 Sn2'
_cell_volume   162.52386044
_cell_formula_units_Z   2
loop_
 _symmetry_equiv_pos_site_id
 _symmetry_equiv_pos_as_xyz
  1  'x, y, z'
loop_
 _atom_site_type_symbol
 _atom_site_label
 _atom_site_symmetry_multiplicity
 _atom_site_fract_x
 _atom_site_fract_y
 _atom_site_fract_z
 _atom_site_occupancy
  Eu  Eu0  1  0.75315841  0.71134739  0.21766420  1
  Eu  Eu1  1  0.24684159  0.28865261  0.78233580  1
  Ag  Ag2  1  0.54641333  0.28892199  0.38174865  1
  Ag  Ag3  1  0.45358667  0.71107801  0.61825135  1
  Sn  Sn4  1  0.04810314  0.11874926  0.21495555  1
  Sn  Sn5  1  0.95189686  0.88125074  0.78504445  1
