# generated using pymatgen
data_Ca5Co3(SiO4)4
_symmetry_space_group_name_H-M   'P 1'
_cell_length_a   4.94164674
_cell_length_b   6.53799282
_cell_length_c   11.26970979
_cell_angle_alpha   88.43114935
_cell_angle_beta   90.73803121
_cell_angle_gamma   91.02038344
_symmetry_Int_Tables_number   1
_chemical_formula_structural   Ca5Co3(SiO4)4
_chemical_formula_sum   'Ca5 Co3 Si4 O16'
_cell_volume   363.88468415
_cell_formula_units_Z   1
loop_
 _symmetry_equiv_pos_site_id
 _symmetry_equiv_pos_as_xyz
  1  'x, y, z'
loop_
 _atom_site_type_symbol
 _atom_site_label
 _atom_site_symmetry_multiplicity
 _atom_site_fract_x
 _atom_site_fract_y
 _atom_site_fract_z
 _atom_site_occupancy
  Ca  Ca0  1  0.50000000  -0.00000000  0.50000000  1
  Ca  Ca1  1  0.48094368  0.74650781  0.22005415  1
  Ca  Ca2  1  0.02060111  0.74669276  0.72601979  1
  Ca  Ca3  1  0.51905632  0.25349219  0.77994585  1
  Ca  Ca4  1  0.97939889  0.25330724  0.27398021  1
  Co  Co5  1  0.00000000  0.50000000  0.00000000  1
  Co  Co6  1  0.50000000  0.50000000  0.50000000  1
  Co  Co7  1  0.00000000  -0.00000000  0.00000000  1
  Si  Si8  1  0.91877202  0.73393654  0.41227322  1
  Si  Si9  1  0.58906344  0.74886043  0.91781881  1
  Si  Si10  1  0.08122798  0.26606346  0.58772678  1
  Si  Si11  1  0.41093656  0.25113957  0.08218119  1
  O  O12  1  0.24931481  0.73298864  0.41347123  1
  O  O13  1  0.25581928  0.74663001  0.92105399  1
  O  O14  1  0.75068519  0.26701136  0.58652877  1
  O  O15  1  0.74418072  0.25336999  0.07894601  1
  O  O16  1  0.79842858  0.94177607  0.34338348  1
  O  O17  1  0.71926558  0.54928998  0.85299554  1
  O  O18  1  0.23323344  0.46191558  0.65246457  1
  O  O19  1  0.27757303  0.04571710  0.15010411  1
  O  O20  1  0.20157142  0.05822393  0.65661652  1
  O  O21  1  0.28073442  0.45071002  0.14700446  1
  O  O22  1  0.76676656  0.53808442  0.34753543  1
  O  O23  1  0.72242697  0.95428290  0.84989589  1
  O  O24  1  0.74641341  0.74832137  0.05030683  1
  O  O25  1  0.78243378  0.73075694  0.54752265  1
  O  O26  1  0.25358659  0.25167863  0.94969317  1
  O  O27  1  0.21756622  0.26924306  0.45247735  1
