# generated using pymatgen
data_MnBiO3
_symmetry_space_group_name_H-M   'P 1'
_cell_length_a   5.48692262
_cell_length_b   10.50010024
_cell_length_c   11.04739470
_cell_angle_alpha   119.34950114
_cell_angle_beta   90.00000000
_cell_angle_gamma   90.00000000
_symmetry_Int_Tables_number   1
_chemical_formula_structural   MnBiO3
_chemical_formula_sum   'Mn8 Bi8 O24'
_cell_volume   554.78200141
_cell_formula_units_Z   8
loop_
 _symmetry_equiv_pos_site_id
 _symmetry_equiv_pos_as_xyz
  1  'x, y, z'
loop_
 _atom_site_type_symbol
 _atom_site_label
 _atom_site_symmetry_multiplicity
 _atom_site_fract_x
 _atom_site_fract_y
 _atom_site_fract_z
 _atom_site_occupancy
  Mn  Mn0  1  0.28121157  0.30222468  0.97037110  1
  Mn  Mn1  1  0.78121157  0.69777532  0.02962890  1
  Mn  Mn2  1  0.74979937  0.49992875  0.24996977  1
  Mn  Mn3  1  0.74988674  0.00017871  0.25012760  1
  Mn  Mn4  1  0.21840975  0.69740009  0.52947661  1
  Mn  Mn5  1  0.24988674  0.99982129  0.74987240  1
  Mn  Mn6  1  0.71840975  0.30259991  0.47052339  1
  Mn  Mn7  1  0.24979937  0.50007125  0.75003023  1
  Bi  Bi8  1  0.22837197  0.69958985  0.22550854  1
  Bi  Bi9  1  0.72837197  0.30041015  0.77449146  1
  Bi  Bi10  1  0.77122470  0.69953954  0.72543455  1
  Bi  Bi11  1  0.25043929  0.85016842  0.98522339  1
  Bi  Bi12  1  0.27122470  0.30046046  0.27456545  1
  Bi  Bi13  1  0.75043929  0.14983158  0.01477661  1
  Bi  Bi14  1  0.24929021  0.15003760  0.51493227  1
  Bi  Bi15  1  0.74929021  0.84996240  0.48506773  1
  O  O16  1  0.58380133  0.62212540  0.86509434  1
  O  O17  1  0.34522013  0.10827000  0.07597882  1
  O  O18  1  0.67131738  0.34754035  0.29677762  1
  O  O19  1  0.91544128  0.61959329  0.43329292  1
  O  O20  1  0.03235081  0.16177287  0.85481073  1
  O  O21  1  0.15443557  0.89169176  0.42413653  1
  O  O22  1  0.65443557  0.10830824  0.57586347  1
  O  O23  1  0.41555873  0.62184348  0.36492835  1
  O  O24  1  0.01357447  0.87009956  0.15710065  1
  O  O25  1  0.08397522  0.61978148  0.93332839  1
  O  O26  1  0.32831541  0.34748959  0.79664493  1
  O  O27  1  0.08380133  0.37787460  0.13490566  1
  O  O28  1  0.82831541  0.65251041  0.20335507  1
  O  O29  1  0.48605691  0.13028731  0.34309749  1
  O  O30  1  0.41544128  0.38040671  0.56670708  1
  O  O31  1  0.17131738  0.65245965  0.70322238  1
  O  O32  1  0.91555873  0.37815652  0.63507165  1
  O  O33  1  0.53235081  0.83822713  0.14518927  1
  O  O34  1  0.58397522  0.38021852  0.06667161  1
  O  O35  1  0.46731916  0.83781611  0.64491228  1
  O  O36  1  0.98605691  0.86971269  0.65690251  1
  O  O37  1  0.96731916  0.16218389  0.35508772  1
  O  O38  1  0.84522013  0.89173000  0.92402118  1
  O  O39  1  0.51357447  0.12990044  0.84289935  1
