# generated using pymatgen
data_Ca3AlAs3
_symmetry_space_group_name_H-M   'P 1'
_cell_length_a   4.21916946
_cell_length_b   12.30558642
_cell_length_c   13.48547552
_cell_angle_alpha   90.00000000
_cell_angle_beta   90.00000000
_cell_angle_gamma   90.00000000
_symmetry_Int_Tables_number   1
_chemical_formula_structural   Ca3AlAs3
_chemical_formula_sum   'Ca12 Al4 As12'
_cell_volume   700.15718292
_cell_formula_units_Z   4
loop_
 _symmetry_equiv_pos_site_id
 _symmetry_equiv_pos_as_xyz
  1  'x, y, z'
loop_
 _atom_site_type_symbol
 _atom_site_label
 _atom_site_symmetry_multiplicity
 _atom_site_fract_x
 _atom_site_fract_y
 _atom_site_fract_z
 _atom_site_occupancy
  Al  Al0  1  0.75000000  0.43915889  0.20244971  1
  Al  Al1  1  0.25000000  0.56084111  0.79755029  1
  Al  Al2  1  0.25000000  0.06084111  0.70244971  1
  Al  Al3  1  0.75000000  0.93915889  0.29755029  1
  Ca  Ca4  1  0.25000000  0.35251785  0.00074964  1
  Ca  Ca5  1  0.25000000  0.85251785  0.49925036  1
  Ca  Ca6  1  0.75000000  0.64748215  0.99925036  1
  Ca  Ca7  1  0.75000000  0.72791236  0.71264084  1
  Ca  Ca8  1  0.75000000  0.93404768  0.89273027  1
  Ca  Ca9  1  0.25000000  0.06595232  0.10726973  1
  Ca  Ca10  1  0.75000000  0.43404768  0.60726973  1
  Ca  Ca11  1  0.25000000  0.56595232  0.39273027  1
  Ca  Ca12  1  0.25000000  0.77208764  0.21264084  1
  Ca  Ca13  1  0.75000000  0.22791236  0.78735916  1
  Ca  Ca14  1  0.25000000  0.27208764  0.28735916  1
  Ca  Ca15  1  0.75000000  0.14748215  0.50074964  1
  As  As16  1  0.75000000  0.95864868  0.64869330  1
  As  As17  1  0.25000000  0.04135132  0.35130670  1
  As  As18  1  0.75000000  0.45864868  0.85130670  1
  As  As19  1  0.25000000  0.54135132  0.14869330  1
  As  As20  1  0.75000000  0.89620977  0.11448284  1
  As  As21  1  0.25000000  0.10379023  0.88551716  1
  As  As22  1  0.75000000  0.39620977  0.38551716  1
  As  As23  1  0.25000000  0.60379023  0.61448284  1
  As  As24  1  0.75000000  0.75274442  0.37548335  1
  As  As25  1  0.25000000  0.24725558  0.62451665  1
  As  As26  1  0.75000000  0.25274442  0.12451665  1
  As  As27  1  0.25000000  0.74725558  0.87548335  1
