# generated using pymatgen
data_Sr3(AlN2)2
_symmetry_space_group_name_H-M   'P 1'
_cell_length_a   5.94601852
_cell_length_b   9.63888553
_cell_length_c   10.07321544
_cell_angle_alpha   90.00000000
_cell_angle_beta   90.00000000
_cell_angle_gamma   90.00000000
_symmetry_Int_Tables_number   1
_chemical_formula_structural   Sr3(AlN2)2
_chemical_formula_sum   'Sr12 Al8 N16'
_cell_volume   577.32611465
_cell_formula_units_Z   4
loop_
 _symmetry_equiv_pos_site_id
 _symmetry_equiv_pos_as_xyz
  1  'x, y, z'
loop_
 _atom_site_type_symbol
 _atom_site_label
 _atom_site_symmetry_multiplicity
 _atom_site_fract_x
 _atom_site_fract_y
 _atom_site_fract_z
 _atom_site_occupancy
  N  N0  1  0.47957615  0.16951439  0.59792670  1
  N  N1  1  0.47957615  0.33048561  0.90207330  1
  N  N2  1  0.02042385  0.16951439  0.40207330  1
  N  N3  1  0.02042385  0.33048561  0.09792670  1
  N  N4  1  0.52042385  0.83048561  0.40207330  1
  N  N5  1  0.52042385  0.66951439  0.09792670  1
  N  N6  1  0.97957615  0.83048561  0.59792670  1
  N  N7  1  0.97957615  0.66951439  0.90207330  1
  N  N8  1  0.12975633  0.37066970  0.64538429  1
  N  N9  1  0.12975633  0.12933030  0.85461571  1
  N  N10  1  0.37024367  0.37066970  0.35461571  1
  N  N11  1  0.37024367  0.12933030  0.14538429  1
  N  N12  1  0.87024367  0.87066970  0.14538429  1
  N  N13  1  0.62975633  0.62933030  0.64538429  1
  N  N14  1  0.62975633  0.87066970  0.85461571  1
  N  N15  1  0.87024367  0.62933030  0.35461571  1
  Al  Al16  1  0.83001409  0.75000000  0.75000000  1
  Al  Al17  1  0.66998591  0.75000000  0.25000000  1
  Al  Al18  1  0.16998591  0.25000000  0.25000000  1
  Al  Al19  1  0.33001409  0.25000000  0.75000000  1
  Al  Al20  1  0.25000000  0.23097707  0.00000000  1
  Al  Al21  1  0.75000000  0.73097707  0.50000000  1
  Al  Al22  1  0.75000000  0.76902293  0.00000000  1
  Al  Al23  1  0.25000000  0.26902293  0.50000000  1
  Sr  Sr24  1  0.25000000  0.59377869  0.50000000  1
  Sr  Sr25  1  0.25000000  0.90622131  0.00000000  1
  Sr  Sr26  1  0.75000000  0.40622131  0.50000000  1
  Sr  Sr27  1  0.75000000  0.09377869  0.00000000  1
  Sr  Sr28  1  0.38486192  0.58588314  0.84535897  1
  Sr  Sr29  1  0.38486192  0.91411686  0.65464103  1
  Sr  Sr30  1  0.11513808  0.58588314  0.15464103  1
  Sr  Sr31  1  0.11513808  0.91411686  0.34535897  1
  Sr  Sr32  1  0.61513808  0.41411686  0.15464103  1
  Sr  Sr33  1  0.61513808  0.08588314  0.34535897  1
  Sr  Sr34  1  0.88486192  0.41411686  0.84535897  1
  Sr  Sr35  1  0.88486192  0.08588314  0.65464103  1
