# generated using pymatgen
data_Si4P4Ru
_symmetry_space_group_name_H-M   'P 1'
_cell_length_a   4.97029015
_cell_length_b   5.66587703
_cell_length_c   6.20829324
_cell_angle_alpha   85.59443632
_cell_angle_beta   68.27006419
_cell_angle_gamma   70.75441996
_symmetry_Int_Tables_number   1
_chemical_formula_structural   Si4P4Ru
_chemical_formula_sum   'Si4 P4 Ru1'
_cell_volume   153.12814967
_cell_formula_units_Z   1
loop_
 _symmetry_equiv_pos_site_id
 _symmetry_equiv_pos_as_xyz
  1  'x, y, z'
loop_
 _atom_site_type_symbol
 _atom_site_label
 _atom_site_symmetry_multiplicity
 _atom_site_fract_x
 _atom_site_fract_y
 _atom_site_fract_z
 _atom_site_occupancy
  Si  Si0  1  0.67021963  0.77561574  0.22638143  1
  Si  Si1  1  0.23746343  0.34375341  0.43228757  1
  Si  Si2  1  0.35884026  0.59448252  0.88089653  1
  Si  Si3  1  0.84426220  0.97282612  0.68936143  1
  P  P4  1  0.15994176  0.01516931  0.31871353  1
  P  P5  1  0.62157255  0.41102215  0.12206067  1
  P  P6  1  0.76643456  0.64220330  0.56357620  1
  P  P7  1  0.34135537  0.22699874  0.75871154  1
  Ru  Ru8  1  0.99981025  0.99972871  0.99951109  1
