# generated using pymatgen
data_PrGaCo2
_symmetry_space_group_name_H-M   'P 1'
_cell_length_a   3.73405263
_cell_length_b   5.28219960
_cell_length_c   6.94404067
_cell_angle_alpha   90.00000000
_cell_angle_beta   90.00000000
_cell_angle_gamma   90.00000000
_symmetry_Int_Tables_number   1
_chemical_formula_structural   PrGaCo2
_chemical_formula_sum   'Pr2 Ga2 Co4'
_cell_volume   136.96433670
_cell_formula_units_Z   2
loop_
 _symmetry_equiv_pos_site_id
 _symmetry_equiv_pos_as_xyz
  1  'x, y, z'
loop_
 _atom_site_type_symbol
 _atom_site_label
 _atom_site_symmetry_multiplicity
 _atom_site_fract_x
 _atom_site_fract_y
 _atom_site_fract_z
 _atom_site_occupancy
  Co  Co0  1  0.50000000  0.00000000  0.00000000  1
  Co  Co1  1  0.50000000  0.50000000  0.00000000  1
  Co  Co2  1  0.50000000  0.75000000  0.33232502  1
  Co  Co3  1  0.50000000  0.25000000  0.66767498  1
  Ga  Ga4  1  0.00000000  0.75000000  0.11515348  1
  Ga  Ga5  1  0.00000000  0.25000000  0.88484652  1
  Pr  Pr6  1  0.00000000  0.75000000  0.67221398  1
  Pr  Pr7  1  0.00000000  0.25000000  0.32778602  1
