# generated using pymatgen
data_CsPr(PO3)4
_symmetry_space_group_name_H-M   'P 1'
_cell_length_a   7.26237382
_cell_length_b   8.93772240
_cell_length_c   9.35403386
_cell_angle_alpha   90.00000000
_cell_angle_beta   90.00000000
_cell_angle_gamma   99.49414532
_symmetry_Int_Tables_number   1
_chemical_formula_structural   CsPr(PO3)4
_chemical_formula_sum   'Cs2 Pr2 P8 O24'
_cell_volume   598.84512197
_cell_formula_units_Z   2
loop_
 _symmetry_equiv_pos_site_id
 _symmetry_equiv_pos_as_xyz
  1  'x, y, z'
loop_
 _atom_site_type_symbol
 _atom_site_label
 _atom_site_symmetry_multiplicity
 _atom_site_fract_x
 _atom_site_fract_y
 _atom_site_fract_z
 _atom_site_occupancy
  O  O0  1  0.84785566  0.59434353  0.24858575  1
  O  O1  1  0.15214434  0.40565647  0.74858575  1
  O  O2  1  0.21286571  0.36221722  0.48234275  1
  O  O3  1  0.78713429  0.63778278  0.98234275  1
  O  O4  1  0.27476372  0.61208516  0.33894968  1
  O  O5  1  0.72523628  0.38791484  0.83894968  1
  O  O6  1  0.54200929  0.49146873  0.44102887  1
  O  O7  1  0.45799071  0.50853127  0.94102887  1
  O  O8  1  0.50885446  0.81658161  0.46574743  1
  O  O9  1  0.49114554  0.18341839  0.96574743  1
  O  O10  1  0.04626148  0.79964890  0.09706414  1
  O  O11  1  0.95373852  0.20035110  0.59706414  1
  O  O12  1  0.07378145  0.09162344  0.82655258  1
  O  O13  1  0.92621855  0.90837656  0.32655258  1
  O  O14  1  0.14167264  0.07579325  0.14805465  1
  O  O15  1  0.85832736  0.92420675  0.64805465  1
  O  O16  1  0.92677080  0.47210238  0.55127090  1
  O  O17  1  0.07322920  0.52789762  0.05127090  1
  O  O18  1  0.72483562  0.11275575  0.79398642  1
  O  O19  1  0.27516438  0.88724425  0.29398642  1
  O  O20  1  0.33777312  0.36682778  0.23448156  1
  O  O21  1  0.66222688  0.63317222  0.73448156  1
  O  O22  1  0.84307569  0.23039815  0.03286905  1
  O  O23  1  0.15692431  0.76960185  0.53286905  1
  P  P24  1  0.64502758  0.54306219  0.86990676  1
  P  P25  1  0.35497242  0.45693781  0.36990676  1
  P  P26  1  0.06150121  0.37553909  0.60542911  1
  P  P27  1  0.93849879  0.62446091  0.10542911  1
  P  P28  1  0.30767969  0.77326547  0.42248560  1
  P  P29  1  0.69232031  0.22673453  0.92248560  1
  P  P30  1  0.08417750  0.92776078  0.22094996  1
  P  P31  1  0.91582250  0.07223922  0.72094996  1
  Cs  Cs32  1  0.66987620  0.17266259  0.33091998  1
  Cs  Cs33  1  0.33012380  0.82733741  0.83091998  1
  Pr  Pr34  1  0.79965733  0.69776215  0.49613481  1
  Pr  Pr35  1  0.20034267  0.30223785  0.99613481  1
