# generated using pymatgen
data_CrWO4
_symmetry_space_group_name_H-M   'P 1'
_cell_length_a   6.31938059
_cell_length_b   7.21470622
_cell_length_c   7.32701635
_cell_angle_alpha   79.11365598
_cell_angle_beta   64.45382753
_cell_angle_gamma   64.02676253
_symmetry_Int_Tables_number   1
_chemical_formula_structural   CrWO4
_chemical_formula_sum   'Cr4 W4 O16'
_cell_volume   270.95709965
_cell_formula_units_Z   4
loop_
 _symmetry_equiv_pos_site_id
 _symmetry_equiv_pos_as_xyz
  1  'x, y, z'
loop_
 _atom_site_type_symbol
 _atom_site_label
 _atom_site_symmetry_multiplicity
 _atom_site_fract_x
 _atom_site_fract_y
 _atom_site_fract_z
 _atom_site_occupancy
  O  O0  1  0.65265563  0.50000100  0.69468873  1
  O  O1  1  0.84734337  0.50000100  0.30531027  1
  O  O2  1  0.34764369  0.50000100  0.30471163  1
  O  O3  1  0.15235531  0.50000100  0.69528937  1
  O  O4  1  0.65046715  0.69906369  0.00000000  1
  O  O5  1  0.34953085  0.30093631  1.00000000  1
  O  O6  1  0.84953102  0.30093597  1.00000000  1
  O  O7  1  0.15046698  0.69906403  0.00000000  1
  O  O8  1  0.84655758  0.00187441  0.80500994  1
  O  O9  1  0.65344093  0.99812559  0.19498906  1
  O  O10  1  0.15157001  0.00187441  0.19498906  1
  O  O11  1  0.34843348  0.99812559  0.80500994  1
  O  O12  1  0.15165301  0.19907161  0.50000841  1
  O  O13  1  0.64927438  0.19907161  0.49999159  1
  O  O14  1  0.85073303  0.80092839  0.49999259  1
  O  O15  1  0.34833858  0.80092839  0.50000841  1
  Cr  Cr16  1  0.50066817  0.99866366  0.50000000  1
  Cr  Cr17  1  0.99933183  0.00133634  0.50000000  1
  Cr  Cr18  1  0.50021147  0.50000100  0.99957606  1
  Cr  Cr19  1  0.99978853  0.50000100  0.00042394  1
  W  W20  1  0.00033778  0.50000100  0.49999900  1
  W  W21  1  0.49966222  0.50000100  0.49999900  1
  W  W22  1  0.50000000  0.00000000  0.00000000  1
  W  W23  1  0.00000000  0.00000000  0.00000000  1
