# generated using pymatgen
data_Ge2RuC4(Cl3O2)2
_symmetry_space_group_name_H-M   'P 1'
_cell_length_a   9.87149492
_cell_length_b   12.84463182
_cell_length_c   13.11312441
_cell_angle_alpha   90.00000000
_cell_angle_beta   91.50596158
_cell_angle_gamma   90.00000000
_symmetry_Int_Tables_number   1
_chemical_formula_structural   Ge2RuC4(Cl3O2)2
_chemical_formula_sum   'Ge8 Ru4 C16 Cl24 O16'
_cell_volume   1662.11372196
_cell_formula_units_Z   4
loop_
 _symmetry_equiv_pos_site_id
 _symmetry_equiv_pos_as_xyz
  1  'x, y, z'
loop_
 _atom_site_type_symbol
 _atom_site_label
 _atom_site_symmetry_multiplicity
 _atom_site_fract_x
 _atom_site_fract_y
 _atom_site_fract_z
 _atom_site_occupancy
  Ge  Ge0  1  0.56281771  0.47384949  0.64292682  1
  Ge  Ge1  1  0.99766914  0.18191987  0.64828234  1
  Ge  Ge2  1  0.51892136  0.69592854  0.81151307  1
  Ge  Ge3  1  0.43718229  0.97384949  0.35707318  1
  Ge  Ge4  1  0.99713586  0.01848876  0.87267615  1
  Ge  Ge5  1  0.00286414  0.51848876  0.12732385  1
  Ge  Ge6  1  0.00233086  0.68191987  0.35171766  1
  Ge  Ge7  1  0.48107864  0.19592854  0.18848693  1
  Ru  Ru8  1  0.96098778  0.98715441  0.68120067  1
  Ru  Ru9  1  0.45173632  0.99878662  0.16395842  1
  Ru  Ru10  1  0.54826368  0.49878662  0.83604158  1
  Ru  Ru11  1  0.03901222  0.48715441  0.31879933  1
  C  C12  1  0.23080834  0.52244364  0.30011917  1
  C  C13  1  0.25525375  0.02905114  0.16324707  1
  C  C14  1  0.06311469  0.47226240  0.46783242  1
  C  C15  1  0.15948028  0.97052775  0.67763197  1
  C  C16  1  0.74474625  0.52905114  0.83675293  1
  C  C17  1  0.42559006  0.84756871  0.14976191  1
  C  C18  1  0.06419259  0.33901125  0.28821301  1
  C  C19  1  0.35017809  0.48263531  0.81339771  1
  C  C20  1  0.53121243  0.52437658  0.98430107  1
  C  C21  1  0.93580741  0.83901125  0.71178699  1
  C  C22  1  0.46878757  0.02437658  0.01569893  1
  C  C23  1  0.64982191  0.98263531  0.18660229  1
  C  C24  1  0.57440994  0.34756871  0.85023809  1
  C  C25  1  0.84051972  0.47052775  0.32236803  1
  C  C26  1  0.76919166  0.02244364  0.69988083  1
  C  C27  1  0.93688531  0.97226240  0.53216758  1
  Cl  Cl28  1  0.04836059  0.87766083  0.95896791  1
  Cl  Cl29  1  0.43084019  0.27249110  0.33068515  1
  Cl  Cl30  1  0.79319390  0.73175295  0.36625900  1
  Cl  Cl31  1  0.55266148  0.31151904  0.59585996  1
  Cl  Cl32  1  0.59901367  0.04757423  0.44753426  1
  Cl  Cl33  1  0.68523769  0.25011728  0.15796978  1
  Cl  Cl34  1  0.83922498  0.62712052  0.08977593  1
  Cl  Cl35  1  0.16077502  0.12712052  0.91022407  1
  Cl  Cl36  1  0.74698731  0.53453877  0.57709063  1
  Cl  Cl37  1  0.17114631  0.58332485  0.04406039  1
  Cl  Cl38  1  0.31476231  0.75011728  0.84203022  1
  Cl  Cl39  1  0.95163941  0.37766083  0.04103209  1
  Cl  Cl40  1  0.35583286  0.28605263  0.07863741  1
  Cl  Cl41  1  0.56915981  0.77249110  0.66931485  1
  Cl  Cl42  1  0.09916713  0.72925373  0.49751045  1
  Cl  Cl43  1  0.64416714  0.78605263  0.92136259  1
  Cl  Cl44  1  0.08570196  0.79252236  0.24387148  1
  Cl  Cl45  1  0.90083287  0.22925373  0.50248955  1
  Cl  Cl46  1  0.44733852  0.81151904  0.40414004  1
  Cl  Cl47  1  0.40098633  0.54757423  0.55246574  1
  Cl  Cl48  1  0.25301269  0.03453877  0.42290937  1
  Cl  Cl49  1  0.20680610  0.23175295  0.63374100  1
  Cl  Cl50  1  0.82885369  0.08332485  0.95593961  1
  Cl  Cl51  1  0.91429804  0.29252236  0.75612852  1
  O  O52  1  0.72489620  0.46169905  0.32225377  1
  O  O53  1  0.76429463  0.97410566  0.20174813  1
  O  O54  1  0.07661934  0.46225341  0.55442467  1
  O  O55  1  0.27510380  0.96169905  0.67774623  1
  O  O56  1  0.92309678  0.75184591  0.72828672  1
  O  O57  1  0.65767712  0.04440683  0.71010926  1
  O  O58  1  0.92338066  0.96225341  0.44557533  1
  O  O59  1  0.47992410  0.03735138  0.92962292  1
  O  O60  1  0.14113838  0.04576242  0.16358289  1
  O  O61  1  0.58538160  0.25933258  0.86191987  1
  O  O62  1  0.07690322  0.25184591  0.27171328  1
  O  O63  1  0.85886162  0.54576242  0.83641711  1
  O  O64  1  0.52007590  0.53735138  0.07037708  1
  O  O65  1  0.23570537  0.47410566  0.79825187  1
  O  O66  1  0.41461840  0.75933258  0.13808013  1
  O  O67  1  0.34232288  0.54440683  0.28989074  1
