# generated using pymatgen
data_Co2Te3O8
_symmetry_space_group_name_H-M   'P 1'
_cell_length_a   5.29451602
_cell_length_b   6.95571948
_cell_length_c   11.73899381
_cell_angle_alpha   98.27561855
_cell_angle_beta   90.00000000
_cell_angle_gamma   112.37006178
_symmetry_Int_Tables_number   1
_chemical_formula_structural   Co2Te3O8
_chemical_formula_sum   'Co4 Te6 O16'
_cell_volume   394.90781387
_cell_formula_units_Z   2
loop_
 _symmetry_equiv_pos_site_id
 _symmetry_equiv_pos_as_xyz
  1  'x, y, z'
loop_
 _atom_site_type_symbol
 _atom_site_label
 _atom_site_symmetry_multiplicity
 _atom_site_fract_x
 _atom_site_fract_y
 _atom_site_fract_z
 _atom_site_occupancy
  O  O0  1  0.72699586  0.47310866  0.97004277  1
  O  O1  1  0.25388645  0.52689138  0.52995700  1
  O  O2  1  0.27300419  0.52688989  0.02995759  1
  O  O3  1  0.74611439  0.47310874  0.47004264  1
  O  O4  1  0.43483449  0.60701649  0.80842054  1
  O  O5  1  0.82781688  0.39298356  0.69157924  1
  O  O6  1  0.56516634  0.39298364  0.19157910  1
  O  O7  1  0.17218203  0.60701657  0.30842040  1
  O  O8  1  0.00975105  0.77217655  0.86160279  1
  O  O9  1  0.23757529  0.22782349  0.63839698  1
  O  O10  1  0.99121977  0.83850823  0.14289366  1
  O  O11  1  0.15271010  0.16149041  0.35710656  1
  O  O12  1  0.00878027  0.16149032  0.85710584  1
  O  O13  1  0.99024787  0.22782357  0.13839684  1
  O  O14  1  0.76242554  0.77217663  0.36160266  1
  O  O15  1  0.84728995  0.83850815  0.64289380  1
  Co  Co16  1  0.96758567  0.53972876  0.14914788  1
  Co  Co17  1  0.42785816  0.46027144  0.35085248  1
  Co  Co18  1  0.03241325  0.46027136  0.85085262  1
  Co  Co19  1  0.57214268  0.53972868  0.64914801  1
  Te  Te20  1  0.84981438  0.00000074  0.24999971  1
  Te  Te21  1  0.15018595  0.00000066  0.74999984  1
  Te  Te22  1  0.05480481  0.72700569  0.44516139  1
  Te  Te23  1  0.32779999  0.27299451  0.05483811  1
  Te  Te24  1  0.94519411  0.27299443  0.55483824  1
  Te  Te25  1  0.67220084  0.72700561  0.94516153  1
