# generated using pymatgen
data_W18O49
_symmetry_space_group_name_H-M   'P 1'
_cell_length_a   3.85861981
_cell_length_b   14.19921789
_cell_length_c   18.28656550
_cell_angle_alpha   109.70941078
_cell_angle_beta   90.00000000
_cell_angle_gamma   90.00000000
_symmetry_Int_Tables_number   1
_chemical_formula_structural   W18O49
_chemical_formula_sum   'W18 O49'
_cell_volume   943.21293663
_cell_formula_units_Z   1
loop_
 _symmetry_equiv_pos_site_id
 _symmetry_equiv_pos_as_xyz
  1  'x, y, z'
loop_
 _atom_site_type_symbol
 _atom_site_label
 _atom_site_symmetry_multiplicity
 _atom_site_fract_x
 _atom_site_fract_y
 _atom_site_fract_z
 _atom_site_occupancy
  W  W0  1  0.50000000  0.71349081  0.54944628  1
  W  W1  1  0.50000000  0.25370915  0.26046151  1
  W  W2  1  0.50000000  0.97461522  0.72339487  1
  W  W3  1  0.50000000  0.87475246  0.41514847  1
  W  W4  1  0.50000000  0.28650919  0.45055372  1
  W  W5  1  0.50000000  0.80792973  0.08236187  1
  W  W6  1  0.50000000  0.37249439  0.12768319  1
  W  W7  1  0.50000000  0.74629085  0.73953849  1
  W  W8  1  0.50000000  0.02538478  0.27660513  1
  W  W9  1  0.50000000  0.34487513  0.77974327  1
  W  W10  1  0.50000000  0.62750561  0.87231681  1
  W  W11  1  0.50000000  0.50016245  0.64315277  1
  W  W12  1  0.50000000  0.65512487  0.22025673  1
  W  W13  1  0.50000000  0.19207027  0.91763813  1
  W  W14  1  0.50000000  0.49983755  0.35684723  1
  W  W15  1  0.50000000  0.08303097  0.08341959  1
  W  W16  1  0.50000000  0.91696903  0.91658041  1
  W  W17  1  0.50000000  0.12524754  0.58485153  1
  O  O18  1  0.00000000  0.96619587  0.72279517  1
  O  O19  1  0.50000000  0.92621500  0.03134378  1
  O  O20  1  0.50000000  0.63806152  0.62892537  1
  O  O21  1  0.00000000  0.71465513  0.55051569  1
  O  O22  1  0.00000000  0.34983176  0.77929556  1
  O  O23  1  0.00000000  0.87486736  0.41222270  1
  O  O24  1  0.50000000  0.41147465  0.69607713  1
  O  O25  1  0.00000000  0.37208762  0.13216164  1
  O  O26  1  0.50000000  0.79326322  0.47693055  1
  O  O27  1  0.50000000  0.20673678  0.52306945  1
  O  O28  1  0.50000000  0.77334059  0.31022625  1
  O  O29  1  0.50000000  0.91379802  0.18803417  1
  O  O30  1  0.50000000  0.41454199  0.54139961  1
  O  O31  1  0.50000000  0.97111713  0.35396534  1
  O  O32  1  0.50000000  0.22665941  0.68977375  1
  O  O33  1  0.50000000  0.58852535  0.30392287  1
  O  O34  1  0.50000000  0.51183077  0.14877957  1
  O  O35  1  0.50000000  0.71041038  0.14108825  1
  O  O36  1  0.00000000  0.81006902  0.07920700  1
  O  O37  1  0.00000000  0.12513264  0.58777730  1
  O  O38  1  0.00000000  0.49057240  0.35634666  1
  O  O39  1  0.50000000  0.48816923  0.85122143  1
  O  O40  1  0.50000000  0.38906596  0.24550389  1
  O  O41  1  0.00000000  0.50942760  0.64365334  1
  O  O42  1  0.50000000  0.02888287  0.64603466  1
  O  O43  1  0.00000000  0.18993098  0.92079300  1
  O  O44  1  0.00000000  0.03380413  0.27720483  1
  O  O45  1  0.00000000  0.28534487  0.44948431  1
  O  O46  1  0.50000000  0.82441543  0.65873717  1
  O  O47  1  0.50000000  0.58545801  0.45860039  1
  O  O48  1  0.50000000  0.69190968  0.97846027  1
  O  O49  1  0.50000000  0.28958962  0.85891175  1
  O  O50  1  0.50000000  0.07378500  0.96865622  1
  O  O51  1  0.50000000  0.30809032  0.02153973  1
  O  O52  1  0.00000000  0.62791238  0.86783836  1
  O  O53  1  0.00000000  0.74726059  0.73939510  1
  O  O54  1  0.00000000  0.08118516  0.08354499  1
  O  O55  1  0.50000000  0.61093404  0.75449611  1
  O  O56  1  0.00000000  0.91881484  0.91645501  1
  O  O57  1  0.50000000  0.10496903  0.19977030  1
  O  O58  1  0.50000000  0.76641006  0.86016723  1
  O  O59  1  0.50000000  0.36193848  0.37107463  1
  O  O60  1  0.50000000  0.00000000  0.50000000  1
  O  O61  1  0.50000000  0.17558457  0.34126283  1
  O  O62  1  0.00000000  0.65016824  0.22070444  1
  O  O63  1  0.00000000  0.25273941  0.26060490  1
  O  O64  1  0.50000000  0.89503097  0.80022970  1
  O  O65  1  0.50000000  0.23358994  0.13983277  1
  O  O66  1  0.50000000  0.08620198  0.81196583  1
