# generated using pymatgen
data_Mn3Cd2O8
_symmetry_space_group_name_H-M   'P 1'
_cell_length_a   5.04582377
_cell_length_b   5.94350015
_cell_length_c   6.21475111
_cell_angle_alpha   118.56639645
_cell_angle_beta   106.62583429
_cell_angle_gamma   90.00000007
_symmetry_Int_Tables_number   1
_chemical_formula_structural   Mn3Cd2O8
_chemical_formula_sum   'Mn3 Cd2 O8'
_cell_volume   154.76029957
_cell_formula_units_Z   1
loop_
 _symmetry_equiv_pos_site_id
 _symmetry_equiv_pos_as_xyz
  1  'x, y, z'
loop_
 _atom_site_type_symbol
 _atom_site_label
 _atom_site_symmetry_multiplicity
 _atom_site_fract_x
 _atom_site_fract_y
 _atom_site_fract_z
 _atom_site_occupancy
  O  O0  1  0.04699413  0.39593786  0.79187459  1
  O  O1  1  0.95300682  0.60406244  0.20812620  1
  O  O2  1  0.09850198  0.90309133  0.80618322  1
  O  O3  1  0.90149687  0.09690897  0.19381709  1
  O  O4  1  0.38841931  0.32517561  0.20723332  1
  O  O5  1  0.38841874  0.88205610  0.20723310  1
  O  O6  1  0.61158186  0.11794224  0.79276673  1
  O  O7  1  0.61158163  0.67482468  0.79276747  1
  Mn  Mn8  1  0.50000085  0.99999917  0.99999991  1
  Mn  Mn9  1  0.99999980  0.74235973  0.99999938  1
  Mn  Mn10  1  0.00000059  0.25764154  0.00000075  1
  Cd  Cd11  1  0.65832176  0.71954996  0.43909913  1
  Cd  Cd12  1  0.34167918  0.28045033  0.56090166  1
