# generated using pymatgen
data_Ca2Mn3O8
_symmetry_space_group_name_H-M   'P 1'
_cell_length_a   5.03621718
_cell_length_b   5.95362562
_cell_length_c   6.30766151
_cell_angle_alpha   118.16004278
_cell_angle_beta   107.32902303
_cell_angle_gamma   89.99999998
_symmetry_Int_Tables_number   1
_chemical_formula_structural   Ca2Mn3O8
_chemical_formula_sum   'Ca2 Mn3 O8'
_cell_volume   156.93658846
_cell_formula_units_Z   1
loop_
 _symmetry_equiv_pos_site_id
 _symmetry_equiv_pos_as_xyz
  1  'x, y, z'
loop_
 _atom_site_type_symbol
 _atom_site_label
 _atom_site_symmetry_multiplicity
 _atom_site_fract_x
 _atom_site_fract_y
 _atom_site_fract_z
 _atom_site_occupancy
  O  O0  1  0.04179628  0.39652891  0.79305919  1
  O  O1  1  0.95820434  0.60347009  0.20694069  1
  O  O2  1  0.09670236  0.90307174  0.80614439  1
  O  O3  1  0.90329826  0.09692726  0.19385549  1
  O  O4  1  0.39162053  0.32347747  0.20350747  1
  O  O5  1  0.39162099  0.88002970  0.20350664  1
  O  O6  1  0.60837963  0.11996930  0.79649324  1
  O  O7  1  0.60838044  0.67652347  0.79649336  1
  Ca  Ca8  1  0.66322281  0.72285898  0.44571706  1
  Ca  Ca9  1  0.33677606  0.27714196  0.55428326  1
  Mn  Mn10  1  0.50000015  0.99999942  0.99999959  1
  Mn  Mn11  1  0.99999906  0.74197777  0.00000032  1
  Mn  Mn12  1  0.99999908  0.25802169  0.99999990  1
