# generated using pymatgen
data_K2RbTbV2O8
_symmetry_space_group_name_H-M   'P 1'
_cell_length_a   6.04626410
_cell_length_b   6.04626410
_cell_length_c   7.81289909
_cell_angle_alpha   90.00000000
_cell_angle_beta   90.00000000
_cell_angle_gamma   119.99999999
_symmetry_Int_Tables_number   1
_chemical_formula_structural   K2RbTbV2O8
_chemical_formula_sum   'K2 Rb1 Tb1 V2 O8'
_cell_volume   247.35293804
_cell_formula_units_Z   1
loop_
 _symmetry_equiv_pos_site_id
 _symmetry_equiv_pos_as_xyz
  1  'x, y, z'
loop_
 _atom_site_type_symbol
 _atom_site_label
 _atom_site_symmetry_multiplicity
 _atom_site_fract_x
 _atom_site_fract_y
 _atom_site_fract_z
 _atom_site_occupancy
  O  O0  1  0.82496616  0.17503384  0.17277258  1
  O  O1  1  0.82496616  0.64993231  0.17277258  1
  O  O2  1  0.35006769  0.17503384  0.17277258  1
  O  O3  1  0.64993231  0.82496616  0.82722742  1
  O  O4  1  0.17503384  0.35006769  0.82722742  1
  O  O5  1  0.17503384  0.82496616  0.82722742  1
  O  O6  1  0.33333333  0.66666667  0.53328307  1
  O  O7  1  0.66666667  0.33333333  0.46671693  1
  K  K8  1  0.66666667  0.33333333  0.80223265  1
  K  K9  1  0.33333333  0.66666667  0.19776735  1
  V  V10  1  0.66666667  0.33333333  0.25113850  1
  V  V11  1  0.33333333  0.66666667  0.74886150  1
  Rb  Rb12  1  0.00000000  0.00000000  0.50000000  1
  Tb  Tb13  1  0.00000000  0.00000000  0.00000000  1
