# generated using pymatgen
data_UMoO6
_symmetry_space_group_name_H-M   'P 1'
_cell_length_a   5.83731569
_cell_length_b   7.32943665
_cell_length_c   13.84900885
_cell_angle_alpha   105.02823658
_cell_angle_beta   90.00000000
_cell_angle_gamma   90.00000000
_symmetry_Int_Tables_number   1
_chemical_formula_structural   UMoO6
_chemical_formula_sum   'U4 Mo4 O24'
_cell_volume   572.25400636
_cell_formula_units_Z   4
loop_
 _symmetry_equiv_pos_site_id
 _symmetry_equiv_pos_as_xyz
  1  'x, y, z'
loop_
 _atom_site_type_symbol
 _atom_site_label
 _atom_site_symmetry_multiplicity
 _atom_site_fract_x
 _atom_site_fract_y
 _atom_site_fract_z
 _atom_site_occupancy
  O  O0  1  0.67993035  0.52495183  0.11761018  1
  O  O1  1  0.17993151  0.47504822  0.38238951  1
  O  O2  1  0.32006902  0.47504817  0.88238990  1
  O  O3  1  0.82006955  0.52495177  0.61760984  1
  O  O4  1  0.80631620  0.12693247  0.10886213  1
  O  O5  1  0.30631567  0.87306758  0.39113757  1
  O  O6  1  0.19368485  0.87306753  0.89113795  1
  O  O7  1  0.69368370  0.12693242  0.60886251  1
  O  O8  1  0.95604068  0.93121568  0.72528595  1
  O  O9  1  0.45604184  0.06878567  0.77471399  1
  O  O10  1  0.04395869  0.06878432  0.27471414  1
  O  O11  1  0.54395922  0.93121432  0.22528609  1
  O  O12  1  0.43507600  0.75327582  0.58609866  1
  O  O13  1  0.93507484  0.24672412  0.91390108  1
  O  O14  1  0.56492506  0.24672418  0.41390142  1
  O  O15  1  0.06492453  0.75327587  0.08609900  1
  O  O16  1  0.40183377  0.28829664  0.21024352  1
  O  O17  1  0.59245002  0.79091376  0.00681314  1
  O  O18  1  0.90754988  0.79091370  0.50681280  1
  O  O19  1  0.40754936  0.20908623  0.99318694  1
  O  O20  1  0.09816676  0.28829659  0.71024390  1
  O  O21  1  0.59816560  0.71170335  0.78975656  1
  O  O22  1  0.90183430  0.71170340  0.28975618  1
  O  O23  1  0.09244949  0.20908629  0.49318728  1
  Mo  Mo24  1  0.57764893  0.28849998  0.10484246  1
  Mo  Mo25  1  0.07765009  0.71150007  0.39515796  1
  Mo  Mo26  1  0.42235044  0.71150002  0.89515762  1
  Mo  Mo27  1  0.92235097  0.28849992  0.60484212  1
  U  U28  1  0.80289071  0.83429075  0.15240904  1
  U  U29  1  0.30289186  0.16570930  0.34759138  1
  U  U30  1  0.19710866  0.16570924  0.84759104  1
  U  U31  1  0.69710919  0.83429070  0.65240870  1
