# generated using pymatgen
data_Rb2WO4
_symmetry_space_group_name_H-M   'P 1'
_cell_length_a   6.45690256
_cell_length_b   7.30793861
_cell_length_c   8.04008166
_cell_angle_alpha   113.23286384
_cell_angle_beta   90.00000000
_cell_angle_gamma   116.21707185
_symmetry_Int_Tables_number   1
_chemical_formula_structural   Rb2WO4
_chemical_formula_sum   'Rb4 W2 O8'
_cell_volume   305.68848747
_cell_formula_units_Z   2
loop_
 _symmetry_equiv_pos_site_id
 _symmetry_equiv_pos_as_xyz
  1  'x, y, z'
loop_
 _atom_site_type_symbol
 _atom_site_label
 _atom_site_symmetry_multiplicity
 _atom_site_fract_x
 _atom_site_fract_y
 _atom_site_fract_z
 _atom_site_occupancy
  O  O0  1  0.37352401  0.28581319  0.08113597  1
  O  O1  1  0.08770989  0.71418605  0.91886404  1
  O  O2  1  0.62647616  0.71418605  0.91886404  1
  O  O3  1  0.91229028  0.28581319  0.08113597  1
  O  O4  1  0.67191001  0.34381893  0.62424934  1
  O  O5  1  0.32809101  0.65618202  0.37575128  1
  O  O6  1  0.09293399  0.18586798  0.35778966  1
  O  O7  1  0.90706618  0.81413126  0.64221035  1
  Rb  Rb8  1  0.84422913  0.68845716  0.25322463  1
  Rb  Rb9  1  0.15577104  0.31154208  0.74677538  1
  Rb  Rb10  1  0.48891375  0.97782750  0.76305641  1
  Rb  Rb11  1  0.51108642  0.02217175  0.23694360  1
  W  W12  1  0.17577207  0.35154413  0.22562770  1
  W  W13  1  0.82422810  0.64845511  0.77437231  1
