# generated using pymatgen
data_NaMnO2
_symmetry_space_group_name_H-M   'P 1'
_cell_length_a   2.92417285
_cell_length_b   3.23190557
_cell_length_c   5.61999752
_cell_angle_alpha   77.84704227
_cell_angle_beta   74.91699431
_cell_angle_gamma   63.10695686
_symmetry_Int_Tables_number   1
_chemical_formula_structural   NaMnO2
_chemical_formula_sum   'Na1 Mn1 O2'
_cell_volume   45.47031207
_cell_formula_units_Z   1
loop_
 _symmetry_equiv_pos_site_id
 _symmetry_equiv_pos_as_xyz
  1  'x, y, z'
loop_
 _atom_site_type_symbol
 _atom_site_label
 _atom_site_symmetry_multiplicity
 _atom_site_fract_x
 _atom_site_fract_y
 _atom_site_fract_z
 _atom_site_occupancy
  O  O0  1  0.29442371  0.20511215  0.20595383  1
  O  O1  1  0.70555511  0.79495070  0.79404818  1
  Na  Na2  1  0.49997965  0.50003923  0.50000605  1
  Mn  Mn3  1  0.00004127  0.99990186  -0.00000798  1
