# generated using pymatgen
data_Cu3Se2
_symmetry_space_group_name_H-M   'P 1'
_cell_length_a   4.34932022
_cell_length_b   6.39491904
_cell_length_c   6.39491904
_cell_angle_alpha   90.00000000
_cell_angle_beta   90.00000000
_cell_angle_gamma   90.00000000
_symmetry_Int_Tables_number   1
_chemical_formula_structural   Cu3Se2
_chemical_formula_sum   'Cu6 Se4'
_cell_volume   177.86540485
_cell_formula_units_Z   2
loop_
 _symmetry_equiv_pos_site_id
 _symmetry_equiv_pos_as_xyz
  1  'x, y, z'
loop_
 _atom_site_type_symbol
 _atom_site_label
 _atom_site_symmetry_multiplicity
 _atom_site_fract_x
 _atom_site_fract_y
 _atom_site_fract_z
 _atom_site_occupancy
  Cu  Cu0  1  0.00000000  0.00000000  0.00000000  1
  Cu  Cu1  1  0.00000000  0.50000000  0.50000000  1
  Cu  Cu2  1  0.75495055  0.14580929  0.35419071  1
  Cu  Cu3  1  0.24504945  0.35419071  0.85419071  1
  Cu  Cu4  1  0.24504945  0.64580929  0.14580929  1
  Cu  Cu5  1  0.75495055  0.85419071  0.64580929  1
  Se  Se6  1  0.26168557  0.27092159  0.22907841  1
  Se  Se7  1  0.73831443  0.22907841  0.72907841  1
  Se  Se8  1  0.73831443  0.77092159  0.27092159  1
  Se  Se9  1  0.26168557  0.72907841  0.77092159  1
