# generated using pymatgen
data_Sb2Se3
_symmetry_space_group_name_H-M   'P 1'
_cell_length_a   3.80835542
_cell_length_b   15.05569916
_cell_length_c   12.82302905
_cell_angle_alpha   90.00000000
_cell_angle_beta   90.00000000
_cell_angle_gamma   90.00000000
_symmetry_Int_Tables_number   1
_chemical_formula_structural   Sb2Se3
_chemical_formula_sum   'Sb8 Se12'
_cell_volume   735.23983186
_cell_formula_units_Z   4
loop_
 _symmetry_equiv_pos_site_id
 _symmetry_equiv_pos_as_xyz
  1  'x, y, z'
loop_
 _atom_site_type_symbol
 _atom_site_label
 _atom_site_symmetry_multiplicity
 _atom_site_fract_x
 _atom_site_fract_y
 _atom_site_fract_z
 _atom_site_occupancy
  Sb  Sb0  1  0.75000000  0.73858887  0.98511469  1
  Sb  Sb1  1  0.75000000  0.76141113  0.48511469  1
  Sb  Sb2  1  0.25000000  0.26141113  0.01488531  1
  Sb  Sb3  1  0.25000000  0.23858887  0.51488531  1
  Sb  Sb4  1  0.75000000  0.55727414  0.31286644  1
  Sb  Sb5  1  0.25000000  0.44272586  0.68713356  1
  Sb  Sb6  1  0.25000000  0.05727414  0.18713356  1
  Sb  Sb7  1  0.75000000  0.94272586  0.81286644  1
  Se  Se8  1  0.75000000  0.48263397  0.82106164  1
  Se  Se9  1  0.75000000  0.76996683  0.78784721  1
  Se  Se10  1  0.25000000  0.23003317  0.21215279  1
  Se  Se11  1  0.25000000  0.51736603  0.17893836  1
  Se  Se12  1  0.75000000  0.73003317  0.28784721  1
  Se  Se13  1  0.25000000  0.26996683  0.71215279  1
  Se  Se14  1  0.75000000  0.14827581  0.96029735  1
  Se  Se15  1  0.25000000  0.98263397  0.67893836  1
  Se  Se16  1  0.75000000  0.35172419  0.46029735  1
  Se  Se17  1  0.75000000  0.01736603  0.32106164  1
  Se  Se18  1  0.25000000  0.64827581  0.53970265  1
  Se  Se19  1  0.25000000  0.85172419  0.03970265  1
