# generated using pymatgen
data_Mg6Cu16Si7
_symmetry_space_group_name_H-M   'P 1'
_cell_length_a   8.25237641
_cell_length_b   8.25237640
_cell_length_c   8.25237641
_cell_angle_alpha   60.00000002
_cell_angle_beta   60.00000002
_cell_angle_gamma   60.00000001
_symmetry_Int_Tables_number   1
_chemical_formula_structural   Mg6Cu16Si7
_chemical_formula_sum   'Mg6 Si7 Cu16'
_cell_volume   397.39471638
_cell_formula_units_Z   1
loop_
 _symmetry_equiv_pos_site_id
 _symmetry_equiv_pos_as_xyz
  1  'x, y, z'
loop_
 _atom_site_type_symbol
 _atom_site_label
 _atom_site_symmetry_multiplicity
 _atom_site_fract_x
 _atom_site_fract_y
 _atom_site_fract_z
 _atom_site_occupancy
  Mg  Mg0  1  0.70213799  0.29786201  0.29786201  1
  Mg  Mg1  1  0.70213799  0.70213799  0.29786201  1
  Mg  Mg2  1  0.29786201  0.29786201  0.70213799  1
  Mg  Mg3  1  0.70213799  0.29786201  0.70213799  1
  Mg  Mg4  1  0.29786201  0.70213799  0.29786201  1
  Mg  Mg5  1  0.29786201  0.70213799  0.70213799  1
  Si  Si6  1  0.00000000  0.00000000  0.00000000  1
  Si  Si7  1  0.50000000  0.00000000  0.00000000  1
  Si  Si8  1  0.00000000  0.00000000  0.50000000  1
  Si  Si9  1  0.50000000  0.50000000  0.00000000  1
  Si  Si10  1  0.00000000  0.50000000  0.50000000  1
  Si  Si11  1  0.00000000  0.50000000  0.00000000  1
  Si  Si12  1  0.50000000  0.00000000  0.50000000  1
  Cu  Cu13  1  0.11986459  0.11986459  0.11986459  1
  Cu  Cu14  1  0.88013541  0.88013541  0.35959376  1
  Cu  Cu15  1  0.35959376  0.88013541  0.88013541  1
  Cu  Cu16  1  0.88013541  0.35959376  0.88013541  1
  Cu  Cu17  1  0.64040624  0.11986459  0.11986459  1
  Cu  Cu18  1  0.11986459  0.64040624  0.11986459  1
  Cu  Cu19  1  0.11986459  0.11986459  0.64040624  1
  Cu  Cu20  1  0.88013541  0.88013541  0.88013541  1
  Cu  Cu21  1  0.33288094  0.33288094  0.33288094  1
  Cu  Cu22  1  0.66711906  0.66711906  0.99864282  1
  Cu  Cu23  1  0.99864282  0.66711906  0.66711906  1
  Cu  Cu24  1  0.66711906  0.99864282  0.66711906  1
  Cu  Cu25  1  0.00135718  0.33288094  0.33288094  1
  Cu  Cu26  1  0.33288094  0.00135718  0.33288094  1
  Cu  Cu27  1  0.33288094  0.33288094  0.00135718  1
  Cu  Cu28  1  0.66711906  0.66711906  0.66711906  1
