# generated using pymatgen
data_Mg6Ni16Ge7
_symmetry_space_group_name_H-M   'P 1'
_cell_length_a   8.16033233
_cell_length_b   8.16033233
_cell_length_c   8.16033233
_cell_angle_alpha   60.00000004
_cell_angle_beta   60.00000003
_cell_angle_gamma   60.00000005
_symmetry_Int_Tables_number   1
_chemical_formula_structural   Mg6Ni16Ge7
_chemical_formula_sum   'Mg6 Ni16 Ge7'
_cell_volume   384.24527845
_cell_formula_units_Z   1
loop_
 _symmetry_equiv_pos_site_id
 _symmetry_equiv_pos_as_xyz
  1  'x, y, z'
loop_
 _atom_site_type_symbol
 _atom_site_label
 _atom_site_symmetry_multiplicity
 _atom_site_fract_x
 _atom_site_fract_y
 _atom_site_fract_z
 _atom_site_occupancy
  Mg  Mg0  1  0.79528264  0.20471736  0.20471736  1
  Mg  Mg1  1  0.79528264  0.79528264  0.20471736  1
  Mg  Mg2  1  0.20471736  0.20471736  0.79528264  1
  Mg  Mg3  1  0.79528264  0.20471736  0.79528264  1
  Mg  Mg4  1  0.20471736  0.79528264  0.20471736  1
  Mg  Mg5  1  0.20471736  0.79528264  0.79528264  1
  Ni  Ni6  1  0.16857210  0.16857210  0.16857210  1
  Ni  Ni7  1  0.83142790  0.83142790  0.50571631  1
  Ni  Ni8  1  0.50571631  0.83142790  0.83142790  1
  Ni  Ni9  1  0.83142790  0.50571631  0.83142790  1
  Ni  Ni10  1  0.49428369  0.16857210  0.16857210  1
  Ni  Ni11  1  0.16857210  0.49428369  0.16857210  1
  Ni  Ni12  1  0.16857210  0.16857210  0.49428369  1
  Ni  Ni13  1  0.83142790  0.83142790  0.83142790  1
  Ni  Ni14  1  0.38155299  0.38155299  0.38155299  1
  Ni  Ni15  1  0.61844701  0.61844701  0.14465898  1
  Ni  Ni16  1  0.14465898  0.61844701  0.61844701  1
  Ni  Ni17  1  0.61844701  0.14465898  0.61844701  1
  Ni  Ni18  1  0.85534102  0.38155299  0.38155299  1
  Ni  Ni19  1  0.38155299  0.85534102  0.38155299  1
  Ni  Ni20  1  0.38155299  0.38155299  0.85534102  1
  Ni  Ni21  1  0.61844701  0.61844701  0.61844701  1
  Ge  Ge22  1  0.50000000  0.50000000  0.50000000  1
  Ge  Ge23  1  0.50000000  0.00000000  0.00000000  1
  Ge  Ge24  1  0.00000000  0.00000000  0.50000000  1
  Ge  Ge25  1  0.50000000  0.50000000  0.00000000  1
  Ge  Ge26  1  0.00000000  0.50000000  0.50000000  1
  Ge  Ge27  1  0.00000000  0.50000000  0.00000000  1
  Ge  Ge28  1  0.50000000  0.00000000  0.50000000  1
