# generated using pymatgen
data_Y2Co3Si5
_symmetry_space_group_name_H-M   'P 1'
_cell_length_a   5.54427758
_cell_length_b   7.88600415
_cell_length_c   7.88600415
_cell_angle_alpha   74.36624957
_cell_angle_beta   69.41929395
_cell_angle_gamma   69.41929390
_symmetry_Int_Tables_number   1
_chemical_formula_structural   Y2Co3Si5
_chemical_formula_sum   'Y4 Co6 Si10'
_cell_volume   297.96945423
_cell_formula_units_Z   2
loop_
 _symmetry_equiv_pos_site_id
 _symmetry_equiv_pos_as_xyz
  1  'x, y, z'
loop_
 _atom_site_type_symbol
 _atom_site_label
 _atom_site_symmetry_multiplicity
 _atom_site_fract_x
 _atom_site_fract_y
 _atom_site_fract_z
 _atom_site_occupancy
  Si  Si0  1  0.10064549  0.74123953  0.05746949  1
  Si  Si1  1  0.89935451  0.25876047  0.94253051  1
  Si  Si2  1  0.39935451  0.94253051  0.25876047  1
  Si  Si3  1  0.60064549  0.05746949  0.74123953  1
  Si  Si4  1  0.02354056  0.22645944  0.22645944  1
  Si  Si5  1  0.47645944  0.77354056  0.77354056  1
  Si  Si6  1  0.97645944  0.77354056  0.77354056  1
  Si  Si7  1  0.75000000  0.50000000  0.50000000  1
  Si  Si8  1  0.25000000  0.50000000  0.50000000  1
  Si  Si9  1  0.52354056  0.22645944  0.22645944  1
  Co  Co10  1  0.75000000  0.00000000  0.00000000  1
  Co  Co11  1  0.86214051  0.52980950  0.74590948  1
  Co  Co12  1  0.36214051  0.74590948  0.52980950  1
  Co  Co13  1  0.63785949  0.25409052  0.47019050  1
  Co  Co14  1  0.25000000  0.00000000  0.00000000  1
  Co  Co15  1  0.13785949  0.47019050  0.25409052  1
  Y  Y16  1  0.36622288  0.40001625  0.86753799  1
  Y  Y17  1  0.63377712  0.59998375  0.13246201  1
  Y  Y18  1  0.13377712  0.13246201  0.59998375  1
  Y  Y19  1  0.86622288  0.86753799  0.40001625  1
