# generated using pymatgen
data_Sc2Fe3Si5
_symmetry_space_group_name_H-M   'P 1'
_cell_length_a   5.26992810
_cell_length_b   10.15012370
_cell_length_c   10.15012370
_cell_angle_alpha   90.00000000
_cell_angle_beta   90.00000000
_cell_angle_gamma   90.00000000
_symmetry_Int_Tables_number   1
_chemical_formula_structural   Sc2Fe3Si5
_chemical_formula_sum   'Sc8 Fe12 Si20'
_cell_volume   542.93440113
_cell_formula_units_Z   4
loop_
 _symmetry_equiv_pos_site_id
 _symmetry_equiv_pos_as_xyz
  1  'x, y, z'
loop_
 _atom_site_type_symbol
 _atom_site_label
 _atom_site_symmetry_multiplicity
 _atom_site_fract_x
 _atom_site_fract_y
 _atom_site_fract_z
 _atom_site_occupancy
  Sc  Sc0  1  0.50000000  0.73663048  0.56803071  1
  Sc  Sc1  1  0.50000000  0.26336952  0.43196929  1
  Sc  Sc2  1  0.00000000  0.76336952  0.06803071  1
  Sc  Sc3  1  -0.00000000  0.23663048  0.93196929  1
  Sc  Sc4  1  0.50000000  0.56803071  0.26336952  1
  Sc  Sc5  1  0.50000000  0.43196929  0.73663048  1
  Sc  Sc6  1  0.00000000  0.06803071  0.23663048  1
  Sc  Sc7  1  -0.00000000  0.93196929  0.76336952  1
  Fe  Fe8  1  0.50000000  0.85721190  0.87685398  1
  Fe  Fe9  1  0.50000000  0.14278810  0.12314602  1
  Fe  Fe10  1  -0.00000000  0.64278810  0.37685398  1
  Fe  Fe11  1  0.00000000  0.35721190  0.62314602  1
  Fe  Fe12  1  0.50000000  0.87685398  0.14278810  1
  Fe  Fe13  1  0.50000000  0.12314602  0.85721190  1
  Fe  Fe14  1  0.00000000  0.37685398  0.35721190  1
  Fe  Fe15  1  -0.00000000  0.62314602  0.64278810  1
  Fe  Fe16  1  0.25000000  -0.00000000  0.50000000  1
  Fe  Fe17  1  0.75000000  0.50000000  -0.00000000  1
  Fe  Fe18  1  0.25000000  0.50000000  -0.00000000  1
  Fe  Fe19  1  0.75000000  -0.00000000  0.50000000  1
  Si  Si20  1  0.25000000  0.17944045  0.67944045  1
  Si  Si21  1  0.25000000  0.82055955  0.32055955  1
  Si  Si22  1  0.75000000  0.32055955  0.17944045  1
  Si  Si23  1  0.75000000  0.67944045  0.82055955  1
  Si  Si24  1  0.25000000  0.67944045  0.82055955  1
  Si  Si25  1  0.25000000  0.32055955  0.17944045  1
  Si  Si26  1  0.75000000  0.17944045  0.67944045  1
  Si  Si27  1  0.75000000  0.82055955  0.32055955  1
  Si  Si28  1  0.25382515  0.50000000  0.50000000  1
  Si  Si29  1  0.75382515  -0.00000000  -0.00000000  1
  Si  Si30  1  0.74617485  0.50000000  0.50000000  1
  Si  Si31  1  0.24617485  -0.00000000  -0.00000000  1
  Si  Si32  1  0.50000000  0.97327632  0.68119249  1
  Si  Si33  1  0.50000000  0.02672368  0.31880751  1
  Si  Si34  1  -0.00000000  0.52672368  0.18119249  1
  Si  Si35  1  0.00000000  0.47327632  0.81880751  1
  Si  Si36  1  0.50000000  0.68119249  0.02672368  1
  Si  Si37  1  0.50000000  0.31880751  0.97327632  1
  Si  Si38  1  -0.00000000  0.18119249  0.47327632  1
  Si  Si39  1  0.00000000  0.81880751  0.52672368  1
