# generated using pymatgen
data_HfGaPd
_symmetry_space_group_name_H-M   'P 1'
_cell_length_a   7.20419801
_cell_length_b   7.20419754
_cell_length_c   6.94632026
_cell_angle_alpha   90.00000000
_cell_angle_beta   90.00000000
_cell_angle_gamma   119.99999763
_symmetry_Int_Tables_number   1
_chemical_formula_structural   HfGaPd
_chemical_formula_sum   'Hf6 Ga6 Pd6'
_cell_volume   312.21710916
_cell_formula_units_Z   6
loop_
 _symmetry_equiv_pos_site_id
 _symmetry_equiv_pos_as_xyz
  1  'x, y, z'
loop_
 _atom_site_type_symbol
 _atom_site_label
 _atom_site_symmetry_multiplicity
 _atom_site_fract_x
 _atom_site_fract_y
 _atom_site_fract_z
 _atom_site_occupancy
  Hf  Hf0  1  0.61200962  0.59144557  0.25000000  1
  Hf  Hf1  1  0.02056405  0.40855443  0.75000000  1
  Hf  Hf2  1  0.40855443  0.02056405  0.25000000  1
  Hf  Hf3  1  0.97943595  0.38799038  0.25000000  1
  Hf  Hf4  1  0.38799038  0.97943595  0.75000000  1
  Hf  Hf5  1  0.59144557  0.61200962  0.75000000  1
  Ga  Ga6  1  0.26837259  0.26837259  0.50000000  1
  Ga  Ga7  1  0.73162741  0.00000000  0.50000000  1
  Ga  Ga8  1  0.00000000  0.73162741  0.50000000  1
  Ga  Ga9  1  0.73162741  0.00000000  -0.00000000  1
  Ga  Ga10  1  0.26837259  0.26837259  -0.00000000  1
  Ga  Ga11  1  0.00000000  0.73162741  -0.00000000  1
  Pd  Pd12  1  0.33333300  0.66666700  0.46936212  1
  Pd  Pd13  1  -0.00000000  -0.00000000  0.75000000  1
  Pd  Pd14  1  -0.00000000  -0.00000000  0.25000000  1
  Pd  Pd15  1  0.33333300  0.66666700  0.03063788  1
  Pd  Pd16  1  0.66666700  0.33333300  0.53063788  1
  Pd  Pd17  1  0.66666700  0.33333300  0.96936212  1
