# generated using pymatgen
data_Ni8Ge2B3
_symmetry_space_group_name_H-M   'P 1'
_cell_length_a   2.93299331
_cell_length_b   6.08446372
_cell_length_c   14.67955565
_cell_angle_alpha   90.00000000
_cell_angle_beta   90.00000000
_cell_angle_gamma   90.00000000
_symmetry_Int_Tables_number   1
_chemical_formula_structural   Ni8Ge2B3
_chemical_formula_sum   'Ni16 Ge4 B6'
_cell_volume   261.96681981
_cell_formula_units_Z   2
loop_
 _symmetry_equiv_pos_site_id
 _symmetry_equiv_pos_as_xyz
  1  'x, y, z'
loop_
 _atom_site_type_symbol
 _atom_site_label
 _atom_site_symmetry_multiplicity
 _atom_site_fract_x
 _atom_site_fract_y
 _atom_site_fract_z
 _atom_site_occupancy
  B  B0  1  0.25000000  0.45707992  0.25000000  1
  B  B1  1  0.75000000  0.54292008  0.75000000  1
  B  B2  1  0.25000000  0.53941840  0.53240650  1
  B  B3  1  0.75000000  0.46058160  0.46759350  1
  B  B4  1  0.25000000  0.53941840  0.96759350  1
  B  B5  1  0.75000000  0.46058160  0.03240650  1
  Ni  Ni6  1  0.25000000  0.07567660  0.25000000  1
  Ni  Ni7  1  0.75000000  0.36648090  0.89535055  1
  Ni  Ni8  1  0.25000000  0.63351910  0.10464945  1
  Ni  Ni9  1  0.75000000  0.36648090  0.60464945  1
  Ni  Ni10  1  0.25000000  0.29742549  0.75000000  1
  Ni  Ni11  1  0.75000000  0.92432340  0.75000000  1
  Ni  Ni12  1  0.75000000  0.70257451  0.25000000  1
  Ni  Ni13  1  0.25000000  0.20024834  0.47642425  1
  Ni  Ni14  1  0.25000000  0.20024834  0.02357575  1
  Ni  Ni15  1  0.75000000  0.79975166  0.97642425  1
  Ni  Ni16  1  0.75000000  0.34089019  0.33673255  1
  Ni  Ni17  1  0.75000000  0.79975166  0.52357575  1
  Ni  Ni18  1  0.25000000  0.65910981  0.83673255  1
  Ni  Ni19  1  0.75000000  0.34089019  0.16326745  1
  Ni  Ni20  1  0.25000000  0.65910981  0.66326745  1
  Ni  Ni21  1  0.25000000  0.63351910  0.39535055  1
  Ge  Ge22  1  0.25000000  0.03750968  0.87453020  1
  Ge  Ge23  1  0.75000000  0.96249032  0.37453020  1
  Ge  Ge24  1  0.25000000  0.03750968  0.62546980  1
  Ge  Ge25  1  0.75000000  0.96249032  0.12546980  1
