# generated using pymatgen
data_NdZr9O20
_symmetry_space_group_name_H-M   'P 1'
_cell_length_a   18.41642495
_cell_length_b   8.23491953
_cell_length_c   6.51705360
_cell_angle_alpha   59.41141605
_cell_angle_beta   55.39137132
_cell_angle_gamma   26.52672490
_symmetry_Int_Tables_number   1
_chemical_formula_structural   NdZr9O20
_chemical_formula_sum   'Nd1 Zr9 O20'
_cell_volume   363.30833742
_cell_formula_units_Z   1
loop_
 _symmetry_equiv_pos_site_id
 _symmetry_equiv_pos_as_xyz
  1  'x, y, z'
loop_
 _atom_site_type_symbol
 _atom_site_label
 _atom_site_symmetry_multiplicity
 _atom_site_fract_x
 _atom_site_fract_y
 _atom_site_fract_z
 _atom_site_occupancy
  Nd  Nd0  1  0.70045805  0.25033676  0.74719881  1
  Zr  Zr1  1  0.10324598  0.24288746  0.74237469  1
  Zr  Zr2  1  0.09941719  0.75586188  0.24816094  1
  Zr  Zr3  1  0.29909796  0.25435540  0.74299672  1
  Zr  Zr4  1  0.29934837  0.75112212  0.25433882  1
  Zr  Zr5  1  0.49475652  0.25290700  0.76086070  1
  Zr  Zr6  1  0.49637458  0.75255621  0.25226093  1
  Zr  Zr7  1  0.70631016  0.73681783  0.24733422  1
  Zr  Zr8  1  0.89904426  0.25244203  0.75426317  1
  Zr  Zr9  1  0.89759311  0.75318351  0.24941105  1
  O  O10  1  0.13957213  0.24879148  0.05797117  1
  O  O11  1  0.03630248  0.25448073  0.55165229  1
  O  O12  1  0.34032952  0.25720433  0.06485978  1
  O  O13  1  0.24006404  0.24295970  0.56034885  1
  O  O14  1  0.06578726  0.74149308  0.93688294  1
  O  O15  1  0.17429127  0.72241450  0.43950839  1
  O  O16  1  0.53472186  0.25188245  0.06408745  1
  O  O17  1  0.44000422  0.24636224  0.56368005  1
  O  O18  1  0.25534025  0.76246861  0.94720446  1
  O  O19  1  0.35010140  0.76858703  0.45249188  1
  O  O20  1  0.74373041  0.24963621  0.05187530  1
  O  O21  1  0.63057758  0.25836023  0.53423536  1
  O  O22  1  0.44224513  0.79218951  0.96986960  1
  O  O23  1  0.55776036  0.76143553  0.43845965  1
  O  O24  1  0.93755065  0.24283603  0.04673225  1
  O  O25  1  0.85519507  0.24691845  0.52525782  1
  O  O26  1  0.66251911  0.74997233  0.94152001  1
  O  O27  1  0.75729436  0.75698041  0.44876714  1
  O  O28  1  0.87368767  0.70447626  0.96877006  1
  O  O29  1  0.96727806  0.73808169  0.43662749  1
