# generated using pymatgen
data_Si3(BiO3)4
_symmetry_space_group_name_H-M   'P 1'
_cell_length_a   9.03156784
_cell_length_b   9.03156822
_cell_length_c   9.03156770
_cell_angle_alpha   109.47121948
_cell_angle_beta   109.47122035
_cell_angle_gamma   109.47122331
_symmetry_Int_Tables_number   1
_chemical_formula_structural   Si3(BiO3)4
_chemical_formula_sum   'Si6 Bi8 O24'
_cell_volume   567.11033183
_cell_formula_units_Z   2
loop_
 _symmetry_equiv_pos_site_id
 _symmetry_equiv_pos_as_xyz
  1  'x, y, z'
loop_
 _atom_site_type_symbol
 _atom_site_label
 _atom_site_symmetry_multiplicity
 _atom_site_fract_x
 _atom_site_fract_y
 _atom_site_fract_z
 _atom_site_occupancy
  Si  Si0  1  0.25000000  0.62500000  0.37500000  1
  Si  Si1  1  0.62500000  0.37500000  0.25000000  1
  Si  Si2  1  0.37500000  0.25000000  0.62500000  1
  Si  Si3  1  0.75000000  0.87500000  0.12500000  1
  Si  Si4  1  0.12500000  0.75000000  0.87500000  1
  Si  Si5  1  0.87500000  0.12500000  0.75000000  1
  Bi  Bi6  1  0.33184339  0.50000000  1.00000000  1
  Bi  Bi7  1  1.00000000  0.33184339  0.50000000  1
  Bi  Bi8  1  1.00000000  0.83184339  0.50000000  1
  Bi  Bi9  1  0.66815661  0.66815661  0.66815661  1
  Bi  Bi10  1  0.50000000  0.00000000  0.83184339  1
  Bi  Bi11  1  0.50000000  0.00000000  0.33184339  1
  Bi  Bi12  1  0.83184339  0.50000000  1.00000000  1
  Bi  Bi13  1  0.16815661  0.16815661  0.16815661  1
  O  O14  1  0.42042735  0.34852946  0.19007791  1
  O  O15  1  0.84852946  0.92042735  0.69007791  1
  O  O16  1  0.92810211  0.07957265  0.26965056  1
  O  O17  1  0.69007791  0.84852946  0.92042735  1
  O  O18  1  0.26965056  0.92810211  0.07957265  1
  O  O19  1  0.92042735  0.69007791  0.84852946  1
  O  O20  1  0.76965056  0.57957265  0.42810211  1
  O  O21  1  0.15845155  0.80992209  0.73034944  1
  O  O22  1  0.84154845  0.15147054  0.57189789  1
  O  O23  1  0.65147054  0.34154845  0.07189789  1
  O  O24  1  0.07957265  0.26965056  0.92810211  1
  O  O25  1  0.23034944  0.30992209  0.65845155  1
  O  O26  1  0.42810211  0.76965056  0.57957265  1
  O  O27  1  0.73034944  0.15845155  0.80992209  1
  O  O28  1  0.57957265  0.42810211  0.76965056  1
  O  O29  1  0.07189789  0.65147054  0.34154845  1
  O  O30  1  0.34154845  0.07189789  0.65147054  1
  O  O31  1  0.15147054  0.57189789  0.84154845  1
  O  O32  1  0.34852946  0.19007791  0.42042735  1
  O  O33  1  0.80992209  0.73034944  0.15845155  1
  O  O34  1  0.65845155  0.23034944  0.30992209  1
  O  O35  1  0.30992209  0.65845155  0.23034944  1
  O  O36  1  0.19007791  0.42042735  0.34852946  1
  O  O37  1  0.57189789  0.84154845  0.15147054  1
