# generated using pymatgen
data_UCl4
_symmetry_space_group_name_H-M   'P 1'
_cell_length_a   7.08209586
_cell_length_b   7.08209586
_cell_length_c   7.08209587
_cell_angle_alpha   107.58358755
_cell_angle_beta   107.58358753
_cell_angle_gamma   113.31627226
_symmetry_Int_Tables_number   1
_chemical_formula_structural   UCl4
_chemical_formula_sum   'U2 Cl8'
_cell_volume   272.51075942
_cell_formula_units_Z   2
loop_
 _symmetry_equiv_pos_site_id
 _symmetry_equiv_pos_as_xyz
  1  'x, y, z'
loop_
 _atom_site_type_symbol
 _atom_site_label
 _atom_site_symmetry_multiplicity
 _atom_site_fract_x
 _atom_site_fract_y
 _atom_site_fract_z
 _atom_site_occupancy
  Cl  Cl0  1  0.19117864  0.25189641  0.56071777  1
  Cl  Cl1  1  0.63046087  0.19117864  0.43928223  1
  Cl  Cl2  1  0.36953913  0.80882136  0.56071777  1
  Cl  Cl3  1  0.80882136  0.74810359  0.43928223  1
  Cl  Cl4  1  0.80882136  0.36953913  0.06071777  1
  Cl  Cl5  1  0.74810359  0.80882136  0.93928223  1
  Cl  Cl6  1  0.19117864  0.63046087  0.93928223  1
  Cl  Cl7  1  0.25189641  0.19117864  0.06071777  1
  U  U8  1  0.87500000  0.12500000  0.75000000  1
  U  U9  1  0.12500000  0.87500000  0.25000000  1
