# generated using pymatgen
data_Na3Nd5Cl15
_symmetry_space_group_name_H-M   'P 1'
_cell_length_a   40.01622469
_cell_length_b   13.85623730
_cell_length_c   8.89800525
_cell_angle_alpha   38.95069933
_cell_angle_beta   26.03584462
_cell_angle_gamma   30.04969863
_symmetry_Int_Tables_number   1
_chemical_formula_structural   Na3Nd5Cl15
_chemical_formula_sum   'Na6 Nd10 Cl30'
_cell_volume   1084.41240662
_cell_formula_units_Z   2
loop_
 _symmetry_equiv_pos_site_id
 _symmetry_equiv_pos_as_xyz
  1  'x, y, z'
loop_
 _atom_site_type_symbol
 _atom_site_label
 _atom_site_symmetry_multiplicity
 _atom_site_fract_x
 _atom_site_fract_y
 _atom_site_fract_z
 _atom_site_occupancy
  Na  Na0  1  0.11388257  0.00001941  0.42937414  1
  Na  Na1  1  0.28611743  -0.00001941  0.57062586  1
  Na  Na2  1  0.44944192  0.00004998  0.75092117  1
  Na  Na3  1  0.78592377  0.99928809  0.07077896  1
  Na  Na4  1  0.61407623  0.00071191  0.92922104  1
  Na  Na5  1  0.95055808  -0.00004998  0.24907883  1
  Nd  Nd6  1  0.05287277  0.33012677  0.74069893  1
  Nd  Nd7  1  0.14656337  0.66890773  0.26382453  1
  Nd  Nd8  1  0.25343663  0.33109227  0.73617547  1
  Nd  Nd9  1  0.34712723  0.66987323  0.25930107  1
  Nd  Nd10  1  0.44921972  0.33389759  0.75208582  1
  Nd  Nd11  1  0.55085853  0.66645400  0.24503827  1
  Nd  Nd12  1  0.64682232  0.33574280  0.76272111  1
  Nd  Nd13  1  0.75317768  0.66425720  0.23727889  1
  Nd  Nd14  1  0.84914147  0.33354600  0.75496173  1
  Nd  Nd15  1  0.95078028  0.66610241  0.24791418  1
  Cl  Cl16  1  0.05687847  0.07930463  0.24685843  1
  Cl  Cl17  1  0.10651178  0.30625915  0.23892886  1
  Cl  Cl18  1  0.08932978  0.61002573  0.24982841  1
  Cl  Cl19  1  0.26033161  0.07700807  0.25017260  1
  Cl  Cl20  1  0.11187979  0.37997106  0.75707361  1
  Cl  Cl21  1  0.30639455  0.29244376  0.25255871  1
  Cl  Cl22  1  0.09360545  0.70755624  0.74744129  1
  Cl  Cl23  1  0.28812021  0.62002894  0.24292639  1
  Cl  Cl24  1  0.46023676  0.07867279  0.25196876  1
  Cl  Cl25  1  0.13966839  0.92299193  0.74982740  1
  Cl  Cl26  1  0.31067022  0.38997427  0.75017159  1
  Cl  Cl27  1  0.50606802  0.29385818  0.25574215  1
  Cl  Cl28  1  0.29348822  0.69374085  0.76107114  1
  Cl  Cl29  1  0.48298437  0.63152950  0.24779830  1
  Cl  Cl30  1  0.65656259  0.08164504  0.25378129  1
  Cl  Cl31  1  0.34312153  0.92069537  0.75314157  1
  Cl  Cl32  1  0.51358093  0.38693451  0.74416878  1
  Cl  Cl33  1  0.70593883  0.30224604  0.25271182  1
  Cl  Cl34  1  0.49488587  0.69118652  0.75408673  1
  Cl  Cl35  1  0.68437110  0.62385322  0.25180229  1
  Cl  Cl36  1  0.85545108  0.08154072  0.25128196  1
  Cl  Cl37  1  0.54454892  0.91845928  0.74871804  1
  Cl  Cl38  1  0.71562890  0.37614678  0.74819771  1
  Cl  Cl39  1  0.90511413  0.30881348  0.24591327  1
  Cl  Cl40  1  0.69406117  0.69775396  0.74728818  1
  Cl  Cl41  1  0.88641907  0.61306549  0.25583122  1
  Cl  Cl42  1  0.74343741  0.91835496  0.74621871  1
  Cl  Cl43  1  0.91701563  0.36847050  0.75220170  1
  Cl  Cl44  1  0.89393198  0.70614182  0.74425785  1
  Cl  Cl45  1  0.93976324  0.92132721  0.74803124  1
