# generated using pymatgen
data_Mn4Be3Si3TeO12
_symmetry_space_group_name_H-M   'P 1'
_cell_length_a   8.52584220
_cell_length_b   8.52584220
_cell_length_c   8.52584220
_cell_angle_alpha   90.00000000
_cell_angle_beta   90.00000000
_cell_angle_gamma   90.00000000
_symmetry_Int_Tables_number   1
_chemical_formula_structural   Mn4Be3Si3TeO12
_chemical_formula_sum   'Mn8 Be6 Si6 Te2 O24'
_cell_volume   619.74334350
_cell_formula_units_Z   2
loop_
 _symmetry_equiv_pos_site_id
 _symmetry_equiv_pos_as_xyz
  1  'x, y, z'
loop_
 _atom_site_type_symbol
 _atom_site_label
 _atom_site_symmetry_multiplicity
 _atom_site_fract_x
 _atom_site_fract_y
 _atom_site_fract_z
 _atom_site_occupancy
  Be  Be0  1  0.25000000  0.50000000  0.00000000  1
  Be  Be1  1  0.50000000  0.00000000  0.75000000  1
  Be  Be2  1  0.50000000  0.00000000  0.25000000  1
  Be  Be3  1  0.00000000  0.25000000  0.50000000  1
  Be  Be4  1  0.00000000  0.75000000  0.50000000  1
  Be  Be5  1  0.75000000  0.50000000  0.00000000  1
  O  O6  1  0.64460174  0.92727572  0.64455517  1
  O  O7  1  0.64460174  0.07272428  0.35544483  1
  O  O8  1  0.92727572  0.64455517  0.64460174  1
  O  O9  1  0.07272428  0.64455517  0.35539826  1
  O  O10  1  0.64455517  0.64460174  0.92727572  1
  O  O11  1  0.35544483  0.35539826  0.92727572  1
  O  O12  1  0.85539826  0.85544483  0.42727572  1
  O  O13  1  0.85539826  0.14455517  0.57272428  1
  O  O14  1  0.14460174  0.85544483  0.57272428  1
  O  O15  1  0.14455517  0.57272428  0.85539826  1
  O  O16  1  0.57272428  0.14460174  0.85544483  1
  O  O17  1  0.57272428  0.85539826  0.14455517  1
  O  O18  1  0.85544483  0.42727572  0.85539826  1
  O  O19  1  0.42727572  0.85539826  0.85544483  1
  O  O20  1  0.14460174  0.14455517  0.42727572  1
  O  O21  1  0.35539826  0.92727572  0.35544483  1
  O  O22  1  0.35539826  0.07272428  0.64455517  1
  O  O23  1  0.07272428  0.35544483  0.64460174  1
  O  O24  1  0.92727572  0.35544483  0.35539826  1
  O  O25  1  0.64455517  0.35539826  0.07272428  1
  O  O26  1  0.35544483  0.64460174  0.07272428  1
  O  O27  1  0.42727572  0.14460174  0.14455517  1
  O  O28  1  0.14455517  0.42727572  0.14460174  1
  O  O29  1  0.85544483  0.57272428  0.14460174  1
  Si  Si30  1  0.75000000  0.00000000  0.50000000  1
  Si  Si31  1  0.25000000  0.00000000  0.50000000  1
  Si  Si32  1  0.00000000  0.50000000  0.75000000  1
  Si  Si33  1  0.00000000  0.50000000  0.25000000  1
  Si  Si34  1  0.50000000  0.25000000  0.00000000  1
  Si  Si35  1  0.50000000  0.75000000  0.00000000  1
  Mn  Mn36  1  0.68797382  0.68797382  0.68797382  1
  Mn  Mn37  1  0.18797382  0.18797382  0.18797382  1
  Mn  Mn38  1  0.81202618  0.81202618  0.18797382  1
  Mn  Mn39  1  0.31202618  0.31202618  0.68797382  1
  Mn  Mn40  1  0.68797382  0.31202618  0.31202618  1
  Mn  Mn41  1  0.81202618  0.18797382  0.81202618  1
  Mn  Mn42  1  0.18797382  0.81202618  0.81202618  1
  Mn  Mn43  1  0.31202618  0.68797382  0.31202618  1
  Te  Te44  1  0.00000000  0.00000000  0.00000000  1
  Te  Te45  1  0.50000000  0.50000000  0.50000000  1
