# generated using pymatgen
data_Sn2IF3
_symmetry_space_group_name_H-M   'P 1'
_cell_length_a   4.36745698
_cell_length_b   7.39768638
_cell_length_c   9.35353447
_cell_angle_alpha   90.00000000
_cell_angle_beta   90.00000000
_cell_angle_gamma   107.16897512
_symmetry_Int_Tables_number   1
_chemical_formula_structural   Sn2IF3
_chemical_formula_sum   'Sn4 I2 F6'
_cell_volume   288.73735178
_cell_formula_units_Z   2
loop_
 _symmetry_equiv_pos_site_id
 _symmetry_equiv_pos_as_xyz
  1  'x, y, z'
loop_
 _atom_site_type_symbol
 _atom_site_label
 _atom_site_symmetry_multiplicity
 _atom_site_fract_x
 _atom_site_fract_y
 _atom_site_fract_z
 _atom_site_occupancy
  F  F0  1  0.70738152  0.41476304  0.50000000  1
  F  F1  1  0.29261848  0.58523696  0.00000000  1
  F  F2  1  0.20565131  0.41757244  0.70966208  1
  F  F3  1  0.78807888  0.58242756  0.79033792  1
  F  F4  1  0.21192112  0.41757244  0.29033792  1
  F  F5  1  0.79434869  0.58242756  0.20966208  1
  Sn  Sn6  1  0.62232646  0.27968223  0.70785536  1
  Sn  Sn7  1  0.65735577  0.27968223  0.29214464  1
  Sn  Sn8  1  0.34264423  0.72031777  0.79214464  1
  Sn  Sn9  1  0.37767354  0.72031777  0.20785536  1
  I  I10  1  0.00654807  0.01309614  0.00000000  1
  I  I11  1  0.99345193  0.98690386  0.50000000  1
