# generated using pymatgen
data_LiNiPO4
_symmetry_space_group_name_H-M   'P 1'
_cell_length_a   4.71658046
_cell_length_b   5.92917206
_cell_length_c   10.17100873
_cell_angle_alpha   90.00000000
_cell_angle_beta   90.00000000
_cell_angle_gamma   90.00000000
_symmetry_Int_Tables_number   1
_chemical_formula_structural   LiNiPO4
_chemical_formula_sum   'Li4 Ni4 P4 O16'
_cell_volume   284.43650128
_cell_formula_units_Z   4
loop_
 _symmetry_equiv_pos_site_id
 _symmetry_equiv_pos_as_xyz
  1  'x, y, z'
loop_
 _atom_site_type_symbol
 _atom_site_label
 _atom_site_symmetry_multiplicity
 _atom_site_fract_x
 _atom_site_fract_y
 _atom_site_fract_z
 _atom_site_occupancy
  Li  Li0  1  0.50000000  0.00000000  0.50000000  1
  Li  Li1  1  0.00000000  0.50000000  0.00000000  1
  Li  Li2  1  0.50000000  0.50000000  0.50000000  1
  Li  Li3  1  0.00000000  0.00000000  0.00000000  1
  Ni  Ni4  1  0.48371467  0.75000000  0.22407418  1
  Ni  Ni5  1  0.01628533  0.75000000  0.72407418  1
  Ni  Ni6  1  0.51628533  0.25000000  0.77592582  1
  Ni  Ni7  1  0.98371467  0.25000000  0.27592582  1
  P  P8  1  0.91880093  0.75000000  0.40544968  1
  P  P9  1  0.58119907  0.75000000  0.90544968  1
  P  P10  1  0.08119907  0.25000000  0.59455032  1
  P  P11  1  0.41880093  0.25000000  0.09455032  1
  O  O12  1  0.24380574  0.75000000  0.40025520  1
  O  O13  1  0.25619426  0.75000000  0.90025520  1
  O  O14  1  0.75619426  0.25000000  0.59974480  1
  O  O15  1  0.74380574  0.25000000  0.09974480  1
  O  O16  1  0.70058611  0.75000000  0.04797326  1
  O  O17  1  0.79941389  0.75000000  0.54797326  1
  O  O18  1  0.29941389  0.25000000  0.95202674  1
  O  O19  1  0.20058611  0.25000000  0.45202674  1
  O  O20  1  0.77710341  0.95732282  0.33423757  1
  O  O21  1  0.72289659  0.54267718  0.83423757  1
  O  O22  1  0.22289659  0.45732282  0.66576243  1
  O  O23  1  0.27710341  0.04267718  0.16576243  1
  O  O24  1  0.22289659  0.04267718  0.66576243  1
  O  O25  1  0.27710341  0.45732282  0.16576243  1
  O  O26  1  0.77710341  0.54267718  0.33423757  1
  O  O27  1  0.72289659  0.95732282  0.83423757  1
