# generated using pymatgen
data_P3BrCl14
_symmetry_space_group_name_H-M   'P 1'
_cell_length_a   9.01997730
_cell_length_b   9.01997730
_cell_length_c   9.01997730
_cell_angle_alpha   90.43804675
_cell_angle_beta   119.74741669
_cell_angle_gamma   119.74741668
_symmetry_Int_Tables_number   1
_chemical_formula_structural   P3BrCl14
_chemical_formula_sum   'P3 Br1 Cl14'
_cell_volume   520.88575604
_cell_formula_units_Z   1
loop_
 _symmetry_equiv_pos_site_id
 _symmetry_equiv_pos_as_xyz
  1  'x, y, z'
loop_
 _atom_site_type_symbol
 _atom_site_label
 _atom_site_symmetry_multiplicity
 _atom_site_fract_x
 _atom_site_fract_y
 _atom_site_fract_z
 _atom_site_occupancy
  P  P0  1  0.50000000  0.24894387  0.74894387  1
  P  P1  1  0.00000000  0.49640386  0.49640386  1
  P  P2  1  0.50000000  0.74894387  0.24894387  1
  Cl  Cl3  1  0.00000000  0.32633292  0.32633292  1
  Cl  Cl4  1  0.70991836  0.51265084  0.87402383  1
  Cl  Cl5  1  0.36137300  0.87402383  0.16410547  1
  Cl  Cl6  1  0.63862700  0.80273248  0.51265084  1
  Cl  Cl7  1  0.29008164  0.16410547  0.80273248  1
  Cl  Cl8  1  0.36170939  0.19554762  0.48527902  1
  Cl  Cl9  1  0.28973140  0.48527902  0.12356964  1
  Cl  Cl10  1  0.71026860  0.83383824  0.19554762  1
  Cl  Cl11  1  0.63829061  0.12356964  0.83383824  1
  Cl  Cl12  1  0.67557054  0.38375695  0.28471309  1
  Cl  Cl13  1  0.90095613  0.28471309  0.60914255  1
  Cl  Cl14  1  0.09904387  0.70818641  0.38375695  1
  Cl  Cl15  1  0.32442946  0.60914255  0.70818641  1
  Cl  Cl16  1  0.00000000  0.66658668  0.66658668  1
  Br  Br17  1  0.00000000  0.00054267  0.00054267  1
