# generated using pymatgen
data_Zr9ScO20
_symmetry_space_group_name_H-M   'P 1'
_cell_length_a   18.16280174
_cell_length_b   8.13650324
_cell_length_c   6.38604340
_cell_angle_alpha   59.45341953
_cell_angle_beta   55.36327697
_cell_angle_gamma   26.57652361
_symmetry_Int_Tables_number   1
_chemical_formula_structural   Zr9ScO20
_chemical_formula_sum   'Zr9 Sc1 O20'
_cell_volume   347.39295521
_cell_formula_units_Z   1
loop_
 _symmetry_equiv_pos_site_id
 _symmetry_equiv_pos_as_xyz
  1  'x, y, z'
loop_
 _atom_site_type_symbol
 _atom_site_label
 _atom_site_symmetry_multiplicity
 _atom_site_fract_x
 _atom_site_fract_y
 _atom_site_fract_z
 _atom_site_occupancy
  Zr  Zr0  1  0.99865347  0.00097145  0.00114857  1
  Zr  Zr1  1  0.20174053  0.99763049  0.99874255  1
  Zr  Zr2  1  0.99492591  0.51162881  0.49861648  1
  Zr  Zr3  1  0.40250065  0.99481787  0.00047090  1
  Zr  Zr4  1  0.20561036  0.48810984  0.49871001  1
  Zr  Zr5  1  0.59933048  0.00110002  0.00091447  1
  Zr  Zr6  1  0.40025898  0.50343705  0.50219737  1
  Zr  Zr7  1  0.79770503  0.00534654  0.00027219  1
  Zr  Zr8  1  0.79930608  0.49707286  0.49854999  1
  Sc  Sc9  1  0.59964733  0.50070761  0.50054991  1
  O  O10  1  0.04360571  0.99537522  0.29274925  1
  O  O11  1  0.23949711  0.00328249  0.29344637  1
  O  O12  1  0.05974970  0.49810357  0.70518131  1
  O  O13  1  0.15865840  0.49960203  0.20669250  1
  O  O14  1  0.44365784  0.99747221  0.28759398  1
  O  O15  1  0.35854205  0.49983853  0.20953802  1
  O  O16  1  0.25806090  0.50224539  0.70786626  1
  O  O17  1  0.64060323  0.00148295  0.29356967  1
  O  O18  1  0.14084389  0.00113240  0.79342151  1
  O  O19  1  0.55542864  0.50069123  0.21066070  1
  O  O20  1  0.45728344  0.50125116  0.71370835  1
  O  O21  1  0.33808718  0.00944185  0.79252877  1
  O  O22  1  0.84130591  0.00275751  0.28805365  1
  O  O23  1  0.76121738  0.49928089  0.20686931  1
  O  O24  1  0.65739109  0.49978588  0.71286177  1
  O  O25  1  0.54187644  0.00047296  0.79019047  1
  O  O26  1  0.95806593  0.50098550  0.20569507  1
  O  O27  1  0.85872958  0.49781026  0.70627236  1
  O  O28  1  0.74584946  0.98885888  0.79227104  1
  O  O29  1  0.94186534  0.99930557  0.79065518  1
