# generated using pymatgen
data_Gd3CCl3
_symmetry_space_group_name_H-M   'P 1'
_cell_length_a   9.38614514
_cell_length_b   9.38614514
_cell_length_c   9.38614514
_cell_angle_alpha   109.47122066
_cell_angle_beta   109.47122066
_cell_angle_gamma   109.47122061
_symmetry_Int_Tables_number   1
_chemical_formula_structural   Gd3CCl3
_chemical_formula_sum   'Gd12 C4 Cl12'
_cell_volume   636.56082125
_cell_formula_units_Z   4
loop_
 _symmetry_equiv_pos_site_id
 _symmetry_equiv_pos_as_xyz
  1  'x, y, z'
loop_
 _atom_site_type_symbol
 _atom_site_label
 _atom_site_symmetry_multiplicity
 _atom_site_fract_x
 _atom_site_fract_y
 _atom_site_fract_z
 _atom_site_occupancy
  C  C0  1  0.50000000  0.00000000  0.25000000  1
  C  C1  1  0.00000000  0.25000000  0.50000000  1
  C  C2  1  0.25000000  0.50000000  0.00000000  1
  C  C3  1  0.25000000  0.25000000  0.25000000  1
  Cl  Cl4  1  0.25000000  0.75687159  0.74312841  1
  Cl  Cl5  1  0.99312841  0.50687159  0.25000000  1
  Cl  Cl6  1  0.50687159  0.25000000  0.99312841  1
  Cl  Cl7  1  0.75687159  0.51374317  0.50687159  1
  Cl  Cl8  1  0.74312841  0.99312841  0.98625683  1
  Cl  Cl9  1  0.98625683  0.74312841  0.99312841  1
  Cl  Cl10  1  0.51374317  0.50687159  0.75687159  1
  Cl  Cl11  1  0.50687159  0.75687159  0.51374317  1
  Cl  Cl12  1  0.25000000  0.99312841  0.50687159  1
  Cl  Cl13  1  0.99312841  0.98625683  0.74312841  1
  Cl  Cl14  1  0.74312841  0.25000000  0.75687159  1
  Cl  Cl15  1  0.75687159  0.74312841  0.25000000  1
  Gd  Gd16  1  0.03540908  0.26770454  0.01770454  1
  Gd  Gd17  1  0.01770454  0.03540908  0.26770454  1
  Gd  Gd18  1  0.01770454  0.48229546  0.75000000  1
  Gd  Gd19  1  0.26770454  0.75000000  0.23229546  1
  Gd  Gd20  1  0.26770454  0.01770454  0.03540908  1
  Gd  Gd21  1  0.75000000  0.01770454  0.48229546  1
  Gd  Gd22  1  0.75000000  0.23229546  0.26770454  1
  Gd  Gd23  1  0.23229546  0.26770454  0.75000000  1
  Gd  Gd24  1  0.48229546  0.23229546  0.46459092  1
  Gd  Gd25  1  0.23229546  0.46459092  0.48229546  1
  Gd  Gd26  1  0.48229546  0.75000000  0.01770454  1
  Gd  Gd27  1  0.46459092  0.48229546  0.23229546  1
