# generated using pymatgen
data_ZrNiH3
_symmetry_space_group_name_H-M   'P 1'
_cell_length_a   3.51597486
_cell_length_b   4.33167485
_cell_length_c   5.54585004
_cell_angle_alpha   90.00000000
_cell_angle_beta   108.48107637
_cell_angle_gamma   90.00000000
_symmetry_Int_Tables_number   1
_chemical_formula_structural   ZrNiH3
_chemical_formula_sum   'Zr2 Ni2 H6'
_cell_volume   80.10770402
_cell_formula_units_Z   2
loop_
 _symmetry_equiv_pos_site_id
 _symmetry_equiv_pos_as_xyz
  1  'x, y, z'
loop_
 _atom_site_type_symbol
 _atom_site_label
 _atom_site_symmetry_multiplicity
 _atom_site_fract_x
 _atom_site_fract_y
 _atom_site_fract_z
 _atom_site_occupancy
  Zr  Zr0  1  0.85979638  0.75000000  0.71959276  1
  Zr  Zr1  1  0.14020362  0.25000000  0.28040724  1
  Ni  Ni2  1  0.56880690  0.75000000  0.13761379  1
  Ni  Ni3  1  0.43119310  0.25000000  0.86238621  1
  H  H4  1  0.06824215  0.75000000  0.13648430  1
  H  H5  1  0.93175785  0.25000000  0.86351570  1
  H  H6  1  0.68667472  0.00318197  0.37334943  1
  H  H7  1  0.31332528  0.99681803  0.62665057  1
  H  H8  1  0.68667472  0.49681803  0.37334943  1
  H  H9  1  0.31332528  0.50318197  0.62665057  1
