# generated using pymatgen
data_U2SeN2
_symmetry_space_group_name_H-M   'P 1'
_cell_length_a   3.84083613
_cell_length_b   3.84083613
_cell_length_c   6.85611136
_cell_angle_alpha   90.00000000
_cell_angle_beta   90.00000000
_cell_angle_gamma   119.99999994
_symmetry_Int_Tables_number   1
_chemical_formula_structural   U2SeN2
_chemical_formula_sum   'U2 Se1 N2'
_cell_volume   87.59111429
_cell_formula_units_Z   1
loop_
 _symmetry_equiv_pos_site_id
 _symmetry_equiv_pos_as_xyz
  1  'x, y, z'
loop_
 _atom_site_type_symbol
 _atom_site_label
 _atom_site_symmetry_multiplicity
 _atom_site_fract_x
 _atom_site_fract_y
 _atom_site_fract_z
 _atom_site_occupancy
  N  N0  1  0.33333333  0.66666667  0.62623366  1
  N  N1  1  0.66666667  0.33333333  0.37376634  1
  Se  Se2  1  0.00000000  0.00000000  0.00000000  1
  U  U3  1  0.66666667  0.33333333  0.70461083  1
  U  U4  1  0.33333333  0.66666667  0.29538917  1
