# generated using pymatgen
data_Er2Pt
_symmetry_space_group_name_H-M   'P 1'
_cell_length_a   4.74469022
_cell_length_b   7.09391158
_cell_length_c   8.71767172
_cell_angle_alpha   90.00000000
_cell_angle_beta   90.00000000
_cell_angle_gamma   90.00000000
_symmetry_Int_Tables_number   1
_chemical_formula_structural   Er2Pt
_chemical_formula_sum   'Er8 Pt4'
_cell_volume   293.42299424
_cell_formula_units_Z   4
loop_
 _symmetry_equiv_pos_site_id
 _symmetry_equiv_pos_as_xyz
  1  'x, y, z'
loop_
 _atom_site_type_symbol
 _atom_site_label
 _atom_site_symmetry_multiplicity
 _atom_site_fract_x
 _atom_site_fract_y
 _atom_site_fract_z
 _atom_site_occupancy
  Er  Er0  1  0.75000000  0.14404474  0.92037445  1
  Er  Er1  1  0.25000000  0.85595526  0.07962555  1
  Er  Er2  1  0.75000000  0.64404474  0.57962555  1
  Er  Er3  1  0.25000000  0.35595526  0.42037445  1
  Er  Er4  1  0.75000000  0.01042799  0.33235509  1
  Er  Er5  1  0.25000000  0.98957201  0.66764491  1
  Er  Er6  1  0.75000000  0.51042799  0.16764491  1
  Er  Er7  1  0.25000000  0.48957201  0.83235509  1
  Pt  Pt8  1  0.75000000  0.74083771  0.90593946  1
  Pt  Pt9  1  0.25000000  0.25916229  0.09406054  1
  Pt  Pt10  1  0.75000000  0.24083771  0.59406054  1
  Pt  Pt11  1  0.25000000  0.75916229  0.40593946  1
