# generated using pymatgen
data_Tb3SiBr3
_symmetry_space_group_name_H-M   'P 1'
_cell_length_a   10.10300507
_cell_length_b   10.10300507
_cell_length_c   10.10300507
_cell_angle_alpha   109.47122065
_cell_angle_beta   109.47122065
_cell_angle_gamma   109.47122060
_symmetry_Int_Tables_number   1
_chemical_formula_structural   Tb3SiBr3
_chemical_formula_sum   'Tb12 Si4 Br12'
_cell_volume   793.83423121
_cell_formula_units_Z   4
loop_
 _symmetry_equiv_pos_site_id
 _symmetry_equiv_pos_as_xyz
  1  'x, y, z'
loop_
 _atom_site_type_symbol
 _atom_site_label
 _atom_site_symmetry_multiplicity
 _atom_site_fract_x
 _atom_site_fract_y
 _atom_site_fract_z
 _atom_site_occupancy
  Si  Si0  1  0.50000000  0.00000000  0.25000000  1
  Si  Si1  1  0.00000000  0.25000000  0.50000000  1
  Si  Si2  1  0.25000000  0.50000000  0.00000000  1
  Si  Si3  1  0.25000000  0.25000000  0.25000000  1
  Br  Br4  1  0.25000000  0.75462557  0.74537443  1
  Br  Br5  1  0.99537443  0.50462557  0.25000000  1
  Br  Br6  1  0.50462557  0.25000000  0.99537443  1
  Br  Br7  1  0.75462557  0.50925113  0.50462557  1
  Br  Br8  1  0.74537443  0.99537443  0.99074887  1
  Br  Br9  1  0.99074887  0.74537443  0.99537443  1
  Br  Br10  1  0.50925113  0.50462557  0.75462557  1
  Br  Br11  1  0.50462557  0.75462557  0.50925113  1
  Br  Br12  1  0.25000000  0.99537443  0.50462557  1
  Br  Br13  1  0.99537443  0.99074887  0.74537443  1
  Br  Br14  1  0.74537443  0.25000000  0.75462557  1
  Br  Br15  1  0.75462557  0.74537443  0.25000000  1
  Tb  Tb16  1  0.02516266  0.26258133  0.01258133  1
  Tb  Tb17  1  0.01258133  0.02516266  0.26258133  1
  Tb  Tb18  1  0.01258133  0.48741867  0.75000000  1
  Tb  Tb19  1  0.26258133  0.75000000  0.23741867  1
  Tb  Tb20  1  0.26258133  0.01258133  0.02516266  1
  Tb  Tb21  1  0.75000000  0.01258133  0.48741867  1
  Tb  Tb22  1  0.75000000  0.23741867  0.26258133  1
  Tb  Tb23  1  0.23741867  0.26258133  0.75000000  1
  Tb  Tb24  1  0.48741867  0.23741867  0.47483734  1
  Tb  Tb25  1  0.23741867  0.47483734  0.48741867  1
  Tb  Tb26  1  0.48741867  0.75000000  0.01258133  1
  Tb  Tb27  1  0.47483734  0.48741867  0.23741867  1
