# generated using pymatgen
data_Sr2SnS4
_symmetry_space_group_name_H-M   'P 1'
_cell_length_a   6.41002876
_cell_length_b   6.41002876
_cell_length_c   10.11599930
_cell_angle_alpha   90.00000000
_cell_angle_beta   90.00000000
_cell_angle_gamma   110.33262738
_symmetry_Int_Tables_number   1
_chemical_formula_structural   Sr2SnS4
_chemical_formula_sum   'Sr4 Sn2 S8'
_cell_volume   389.75221831
_cell_formula_units_Z   2
loop_
 _symmetry_equiv_pos_site_id
 _symmetry_equiv_pos_as_xyz
  1  'x, y, z'
loop_
 _atom_site_type_symbol
 _atom_site_label
 _atom_site_symmetry_multiplicity
 _atom_site_fract_x
 _atom_site_fract_y
 _atom_site_fract_z
 _atom_site_occupancy
  S  S0  1  0.64507386  0.10238126  0.44346642  1
  S  S1  1  0.10238126  0.64507386  0.55653358  1
  S  S2  1  0.64507386  0.10238126  0.05653358  1
  S  S3  1  0.10238126  0.64507386  0.94346642  1
  S  S4  1  0.38200187  0.50644149  0.25000000  1
  S  S5  1  0.50644149  0.38200187  0.75000000  1
  S  S6  1  0.95187587  0.09443746  0.75000000  1
  S  S7  1  0.09443746  0.95187587  0.25000000  1
  Sr  Sr8  1  0.20898555  0.20898555  0.50000000  1
  Sr  Sr9  1  0.20898555  0.20898555  0.00000000  1
  Sr  Sr10  1  0.85605812  0.47824662  0.25000000  1
  Sr  Sr11  1  0.47824662  0.85605812  0.75000000  1
  Sn  Sn12  1  0.45635592  0.90296129  0.25000000  1
  Sn  Sn13  1  0.90296129  0.45635592  0.75000000  1
