# generated using pymatgen
data_Er7Rh3
_symmetry_space_group_name_H-M   'P 1'
_cell_length_a   9.72945049
_cell_length_b   9.72945049
_cell_length_c   6.11311584
_cell_angle_alpha   90.00000000
_cell_angle_beta   90.00000000
_cell_angle_gamma   119.99999997
_symmetry_Int_Tables_number   1
_chemical_formula_structural   Er7Rh3
_chemical_formula_sum   'Er14 Rh6'
_cell_volume   501.15247797
_cell_formula_units_Z   2
loop_
 _symmetry_equiv_pos_site_id
 _symmetry_equiv_pos_as_xyz
  1  'x, y, z'
loop_
 _atom_site_type_symbol
 _atom_site_label
 _atom_site_symmetry_multiplicity
 _atom_site_fract_x
 _atom_site_fract_y
 _atom_site_fract_z
 _atom_site_occupancy
  Rh  Rh0  1  0.18957844  0.81042156  0.56093705  1
  Rh  Rh1  1  0.37915687  0.18957844  0.06093705  1
  Rh  Rh2  1  0.81042156  0.62084313  0.06093705  1
  Rh  Rh3  1  0.18957844  0.37915687  0.56093705  1
  Rh  Rh4  1  0.62084313  0.81042156  0.56093705  1
  Rh  Rh5  1  0.81042156  0.18957844  0.06093705  1
  Er  Er6  1  0.75233416  0.87616708  0.99464168  1
  Er  Er7  1  0.87616708  0.12383292  0.49464168  1
  Er  Er8  1  0.54153312  0.45846688  0.79672909  1
  Er  Er9  1  0.08306624  0.54153312  0.29672909  1
  Er  Er10  1  0.45846688  0.91693376  0.29672909  1
  Er  Er11  1  0.54153312  0.08306624  0.79672909  1
  Er  Er12  1  0.91693376  0.45846688  0.79672909  1
  Er  Er13  1  0.45846688  0.54153312  0.29672909  1
  Er  Er14  1  0.12383292  0.24766584  0.99464168  1
  Er  Er15  1  0.87616708  0.75233416  0.49464168  1
  Er  Er16  1  0.24766584  0.12383292  0.49464168  1
  Er  Er17  1  0.12383292  0.87616708  0.99464168  1
  Er  Er18  1  0.66666667  0.33333333  0.28507656  1
  Er  Er19  1  0.33333333  0.66666667  0.78507656  1
