# generated using pymatgen
data_Dy5Ru2
_symmetry_space_group_name_H-M   'P 1'
_cell_length_a   6.35778829
_cell_length_b   7.27546842
_cell_length_c   8.49644878
_cell_angle_alpha   96.79491957
_cell_angle_beta   111.97140815
_cell_angle_gamma   89.99999999
_symmetry_Int_Tables_number   1
_chemical_formula_structural   Dy5Ru2
_chemical_formula_sum   'Dy10 Ru4'
_cell_volume   361.48825728
_cell_formula_units_Z   2
loop_
 _symmetry_equiv_pos_site_id
 _symmetry_equiv_pos_as_xyz
  1  'x, y, z'
loop_
 _atom_site_type_symbol
 _atom_site_label
 _atom_site_symmetry_multiplicity
 _atom_site_fract_x
 _atom_site_fract_y
 _atom_site_fract_z
 _atom_site_occupancy
  Ru  Ru0  1  0.60315429  0.42397268  0.77839890  1
  Ru  Ru1  1  0.82475539  0.07602732  0.22160110  1
  Ru  Ru2  1  0.39684571  0.57602732  0.22160110  1
  Ru  Ru3  1  0.17524461  0.92397268  0.77839890  1
  Dy  Dy4  1  0.97949224  0.41476213  0.18619676  1
  Dy  Dy5  1  0.79329548  0.08523787  0.81380324  1
  Dy  Dy6  1  0.35963887  0.68587163  0.56586453  1
  Dy  Dy7  1  0.79377434  0.81412837  0.43413547  1
  Dy  Dy8  1  0.64036113  0.31412837  0.43413547  1
  Dy  Dy9  1  0.20622566  0.18587163  0.56586453  1
  Dy  Dy10  1  0.20670452  0.91476213  0.18619676  1
  Dy  Dy11  1  0.02050776  0.58523787  0.81380324  1
  Dy  Dy12  1  0.42076145  0.25000000  0.00000000  1
  Dy  Dy13  1  0.57923855  0.75000000  0.00000000  1
