# generated using pymatgen
data_Rb2Bi3F11
_symmetry_space_group_name_H-M   'P 1'
_cell_length_a   4.71087040
_cell_length_b   4.32401901
_cell_length_c   23.01216713
_cell_angle_alpha   54.91523243
_cell_angle_beta   58.83300146
_cell_angle_gamma   56.73319810
_symmetry_Int_Tables_number   1
_chemical_formula_structural   Rb2Bi3F11
_chemical_formula_sum   'Rb2 Bi3 F11'
_cell_volume   306.39286747
_cell_formula_units_Z   1
loop_
 _symmetry_equiv_pos_site_id
 _symmetry_equiv_pos_as_xyz
  1  'x, y, z'
loop_
 _atom_site_type_symbol
 _atom_site_label
 _atom_site_symmetry_multiplicity
 _atom_site_fract_x
 _atom_site_fract_y
 _atom_site_fract_z
 _atom_site_occupancy
  Rb  Rb0  1  0.06519872  0.90695410  0.19490200  1
  Rb  Rb1  1  0.93379526  0.08280964  0.40139724  1
  Bi  Bi2  1  0.93118096  0.02723467  0.99781419  1
  Bi  Bi3  1  0.90778375  0.92707030  0.60841287  1
  Bi  Bi4  1  0.91050748  0.96853477  0.80063456  1
  F  F5  1  0.35166368  0.24466274  0.03935811  1
  F  F6  1  0.82155296  0.76780222  0.12091010  1
  F  F7  1  0.31534991  0.26770428  0.63207120  1
  F  F8  1  0.69621031  0.96260592  0.32358913  1
  F  F9  1  0.13387671  0.19730444  0.48931417  1
  F  F10  1  0.37438315  0.25405183  0.86086116  1
  F  F11  1  0.74692553  0.69792027  0.57155419  1
  F  F12  1  0.62409684  0.44434986  0.71719118  1
  F  F13  1  0.89920296  0.66717684  0.75228453  1
  F  F14  1  0.70048138  0.48293905  0.89605610  1
  F  F15  1  0.79179040  0.66887808  0.98005127  1
