# generated using pymatgen
data_DySnPd
_symmetry_space_group_name_H-M   'P 1'
_cell_length_a   4.63434795
_cell_length_b   7.22946646
_cell_length_c   8.01071180
_cell_angle_alpha   90.00000000
_cell_angle_beta   90.00000000
_cell_angle_gamma   90.00000000
_symmetry_Int_Tables_number   1
_chemical_formula_structural   DySnPd
_chemical_formula_sum   'Dy4 Sn4 Pd4'
_cell_volume   268.38979123
_cell_formula_units_Z   4
loop_
 _symmetry_equiv_pos_site_id
 _symmetry_equiv_pos_as_xyz
  1  'x, y, z'
loop_
 _atom_site_type_symbol
 _atom_site_label
 _atom_site_symmetry_multiplicity
 _atom_site_fract_x
 _atom_site_fract_y
 _atom_site_fract_z
 _atom_site_occupancy
  Pd  Pd0  1  0.75000000  0.29527706  0.58552294  1
  Pd  Pd1  1  0.25000000  0.20472294  0.08552294  1
  Pd  Pd2  1  0.75000000  0.79527706  0.91447706  1
  Pd  Pd3  1  0.25000000  0.70472294  0.41447706  1
  Sn  Sn4  1  0.25000000  0.30518451  0.41305454  1
  Sn  Sn5  1  0.75000000  0.19481549  0.91305454  1
  Sn  Sn6  1  0.25000000  0.80518451  0.08694546  1
  Sn  Sn7  1  0.75000000  0.69481549  0.58694546  1
  Dy  Dy8  1  0.25000000  0.49118290  0.79374340  1
  Dy  Dy9  1  0.75000000  0.50881710  0.20625660  1
  Dy  Dy10  1  0.25000000  0.99118290  0.70625660  1
  Dy  Dy11  1  0.75000000  0.00881710  0.29374340  1
