# generated using pymatgen
data_DyZn3
_symmetry_space_group_name_H-M   'P 1'
_cell_length_a   4.38718388
_cell_length_b   6.69092809
_cell_length_c   10.09994698
_cell_angle_alpha   90.00000000
_cell_angle_beta   90.00000000
_cell_angle_gamma   90.00000000
_symmetry_Int_Tables_number   1
_chemical_formula_structural   DyZn3
_chemical_formula_sum   'Dy4 Zn12'
_cell_volume   296.47719541
_cell_formula_units_Z   4
loop_
 _symmetry_equiv_pos_site_id
 _symmetry_equiv_pos_as_xyz
  1  'x, y, z'
loop_
 _atom_site_type_symbol
 _atom_site_label
 _atom_site_symmetry_multiplicity
 _atom_site_fract_x
 _atom_site_fract_y
 _atom_site_fract_z
 _atom_site_occupancy
  Zn  Zn0  1  0.25000000  0.03848700  0.60676105  1
  Zn  Zn1  1  0.75000000  0.96151300  0.39323895  1
  Zn  Zn2  1  0.25000000  0.53848700  0.89323895  1
  Zn  Zn3  1  0.75000000  0.46151300  0.10676105  1
  Zn  Zn4  1  0.75000000  0.77932825  0.95671716  1
  Zn  Zn5  1  0.25000000  0.22067175  0.04328284  1
  Zn  Zn6  1  0.75000000  0.27932825  0.54328284  1
  Zn  Zn7  1  0.25000000  0.72067175  0.45671716  1
  Zn  Zn8  1  0.75000000  0.07936842  0.14578610  1
  Zn  Zn9  1  0.25000000  0.92063158  0.85421390  1
  Zn  Zn10  1  0.75000000  0.57936842  0.35421390  1
  Zn  Zn11  1  0.25000000  0.42063158  0.64578610  1
  Dy  Dy12  1  0.25000000  0.77673364  0.16175741  1
  Dy  Dy13  1  0.75000000  0.22326636  0.83824259  1
  Dy  Dy14  1  0.25000000  0.27673364  0.33824259  1
  Dy  Dy15  1  0.75000000  0.72326636  0.66175741  1
