# generated using pymatgen
data_HoFe3
_symmetry_space_group_name_H-M   'P 1'
_cell_length_a   8.61411265
_cell_length_b   8.61411275
_cell_length_c   8.61411217
_cell_angle_alpha   34.32425009
_cell_angle_beta   34.32424909
_cell_angle_gamma   34.32424946
_symmetry_Int_Tables_number   1
_chemical_formula_structural   HoFe3
_chemical_formula_sum   'Ho3 Fe9'
_cell_volume   181.25694409
_cell_formula_units_Z   3
loop_
 _symmetry_equiv_pos_site_id
 _symmetry_equiv_pos_as_xyz
  1  'x, y, z'
loop_
 _atom_site_type_symbol
 _atom_site_label
 _atom_site_symmetry_multiplicity
 _atom_site_fract_x
 _atom_site_fract_y
 _atom_site_fract_z
 _atom_site_occupancy
  Fe  Fe0  1  0.50000000  0.50000000  0.50000000  1
  Fe  Fe1  1  0.33276267  0.33276267  0.33276267  1
  Fe  Fe2  1  0.66723733  0.66723733  0.66723733  1
  Fe  Fe3  1  0.58102933  0.08197424  0.58102933  1
  Fe  Fe4  1  0.58102933  0.58102933  0.08197424  1
  Fe  Fe5  1  0.08197424  0.58102933  0.58102933  1
  Fe  Fe6  1  0.91802576  0.41897067  0.41897067  1
  Fe  Fe7  1  0.41897067  0.91802576  0.41897067  1
  Fe  Fe8  1  0.41897067  0.41897067  0.91802576  1
  Ho  Ho9  1  0.00000000  0.00000000  0.00000000  1
  Ho  Ho10  1  0.14189537  0.14189537  0.14189537  1
  Ho  Ho11  1  0.85810463  0.85810463  0.85810463  1
