# generated using pymatgen
data_Dy11Sn10
_symmetry_space_group_name_H-M   'P 1'
_cell_length_a   11.65825996
_cell_length_b   11.65825996
_cell_length_c   11.86928807
_cell_angle_alpha   119.41358650
_cell_angle_beta   119.41358650
_cell_angle_gamma   90.00000000
_symmetry_Int_Tables_number   1
_chemical_formula_structural   Dy11Sn10
_chemical_formula_sum   'Dy22 Sn20'
_cell_volume   1160.64179312
_cell_formula_units_Z   2
loop_
 _symmetry_equiv_pos_site_id
 _symmetry_equiv_pos_as_xyz
  1  'x, y, z'
loop_
 _atom_site_type_symbol
 _atom_site_label
 _atom_site_symmetry_multiplicity
 _atom_site_fract_x
 _atom_site_fract_y
 _atom_site_fract_z
 _atom_site_occupancy
  Dy  Dy0  1  0.93654498  0.18856239  0.37712477  1
  Dy  Dy1  1  0.44057980  0.18856239  0.37712477  1
  Dy  Dy2  1  0.18856239  0.44057980  0.37712477  1
  Dy  Dy3  1  0.18856239  0.93654498  0.37712477  1
  Dy  Dy4  1  0.06345502  0.81143761  0.62287523  1
  Dy  Dy5  1  0.55942020  0.81143761  0.62287523  1
  Dy  Dy6  1  0.81143761  0.55942020  0.62287523  1
  Dy  Dy7  1  0.81143761  0.06345502  0.62287523  1
  Dy  Dy8  1  0.82548917  0.17451083  -0.00000000  1
  Dy  Dy9  1  0.17451083  0.82548917  -0.00000000  1
  Dy  Dy10  1  0.17451083  0.17451083  -0.00000000  1
  Dy  Dy11  1  0.82548917  0.82548917  -0.00000000  1
  Dy  Dy12  1  0.33583904  0.33583904  0.67167808  1
  Dy  Dy13  1  0.66416096  0.66416096  0.32832192  1
  Dy  Dy14  1  0.06828618  0.39793953  0.79587905  1
  Dy  Dy15  1  0.72759288  0.39793953  0.79587905  1
  Dy  Dy16  1  0.39793953  0.72759288  0.79587905  1
  Dy  Dy17  1  0.39793953  0.06828618  0.79587905  1
  Dy  Dy18  1  0.93171382  0.60206047  0.20412095  1
  Dy  Dy19  1  0.27240712  0.60206047  0.20412095  1
  Dy  Dy20  1  0.60206047  0.27240712  0.20412095  1
  Dy  Dy21  1  0.60206047  0.93171382  0.20412095  1
  Sn  Sn22  1  -0.00000000  0.35597426  -0.00000000  1
  Sn  Sn23  1  -0.00000000  0.64402574  -0.00000000  1
  Sn  Sn24  1  0.35597426  -0.00000000  -0.00000000  1
  Sn  Sn25  1  0.64402574  -0.00000000  -0.00000000  1
  Sn  Sn26  1  0.11189201  0.11189201  0.22378402  1
  Sn  Sn27  1  0.88810799  0.88810799  0.77621598  1
  Sn  Sn28  1  0.62952907  0.37047093  -0.00000000  1
  Sn  Sn29  1  0.37047093  0.62952907  -0.00000000  1
  Sn  Sn30  1  0.37047093  0.37047093  -0.00000000  1
  Sn  Sn31  1  0.62952907  0.62952907  -0.00000000  1
  Sn  Sn32  1  0.75000000  0.25000000  0.50000000  1
  Sn  Sn33  1  0.25000000  0.75000000  0.50000000  1
  Sn  Sn34  1  0.11782259  0.53055920  0.64838179  1
  Sn  Sn35  1  0.53055920  0.11782259  0.64838179  1
  Sn  Sn36  1  0.53055920  0.53055920  0.64838179  1
  Sn  Sn37  1  0.11782259  0.11782259  0.64838179  1
  Sn  Sn38  1  0.88217741  0.46944080  0.35161821  1
  Sn  Sn39  1  0.46944080  0.88217741  0.35161821  1
  Sn  Sn40  1  0.46944080  0.46944080  0.35161821  1
  Sn  Sn41  1  0.88217741  0.88217741  0.35161821  1
