# generated using pymatgen
data_HoGa4Ni
_symmetry_space_group_name_H-M   'P 1'
_cell_length_a   4.08689524
_cell_length_b   6.61744323
_cell_length_c   7.88753130
_cell_angle_alpha   90.00000000
_cell_angle_beta   105.01507351
_cell_angle_gamma   90.00000000
_symmetry_Int_Tables_number   1
_chemical_formula_structural   HoGa4Ni
_chemical_formula_sum   'Ho2 Ga8 Ni2'
_cell_volume   206.03356271
_cell_formula_units_Z   2
loop_
 _symmetry_equiv_pos_site_id
 _symmetry_equiv_pos_as_xyz
  1  'x, y, z'
loop_
 _atom_site_type_symbol
 _atom_site_label
 _atom_site_symmetry_multiplicity
 _atom_site_fract_x
 _atom_site_fract_y
 _atom_site_fract_z
 _atom_site_occupancy
  Ni  Ni0  1  0.22455479  0.25000000  0.44910958  1
  Ni  Ni1  1  0.77544521  0.75000000  0.55089042  1
  Ga  Ga2  1  0.68520822  0.44877259  0.37041644  1
  Ga  Ga3  1  0.92979461  0.75000000  0.85958921  1
  Ga  Ga4  1  0.50000000  0.00000000  0.00000000  1
  Ga  Ga5  1  0.31479178  0.55122741  0.62958356  1
  Ga  Ga6  1  0.50000000  0.50000000  0.00000000  1
  Ga  Ga7  1  0.31479178  0.94877259  0.62958356  1
  Ga  Ga8  1  0.68520822  0.05122741  0.37041644  1
  Ga  Ga9  1  0.07020539  0.25000000  0.14041079  1
  Ho  Ho10  1  0.11993063  0.75000000  0.23986126  1
  Ho  Ho11  1  0.88006937  0.25000000  0.76013874  1
