# generated using pymatgen
data_Sc3Ga2
_symmetry_space_group_name_H-M   'P 1'
_cell_length_a   10.39042443
_cell_length_b   10.39042443
_cell_length_c   10.39042443
_cell_angle_alpha   95.18968920
_cell_angle_beta   117.05035013
_cell_angle_gamma   117.05035012
_symmetry_Int_Tables_number   1
_chemical_formula_structural   Sc3Ga2
_chemical_formula_sum   'Sc24 Ga16'
_cell_volume   824.90597422
_cell_formula_units_Z   8
loop_
 _symmetry_equiv_pos_site_id
 _symmetry_equiv_pos_as_xyz
  1  'x, y, z'
loop_
 _atom_site_type_symbol
 _atom_site_label
 _atom_site_symmetry_multiplicity
 _atom_site_fract_x
 _atom_site_fract_y
 _atom_site_fract_z
 _atom_site_occupancy
  Sc  Sc0  1  0.72985349  0.43186517  0.57001283  1
  Sc  Sc1  1  0.27014651  0.84015934  0.70201169  1
  Sc  Sc2  1  0.27014651  0.92998717  0.06813483  1
  Sc  Sc3  1  0.86185235  0.70201169  0.43186517  1
  Sc  Sc4  1  0.13814765  0.57001283  0.84015934  1
  Sc  Sc5  1  0.13814765  0.06813483  0.79798831  1
  Sc  Sc6  1  0.86185235  0.65984066  0.92998717  1
  Sc  Sc7  1  0.72985349  0.79798831  0.65984066  1
  Sc  Sc8  1  0.27014651  0.56813483  0.42998717  1
  Sc  Sc9  1  0.72985349  0.15984066  0.29798831  1
  Sc  Sc10  1  0.72985349  0.07001283  0.93186517  1
  Sc  Sc11  1  0.13814765  0.29798831  0.56813483  1
  Sc  Sc12  1  0.86185235  0.42998717  0.15984066  1
  Sc  Sc13  1  0.86185235  0.93186517  0.20201169  1
  Sc  Sc14  1  0.13814765  0.34015934  0.07001283  1
  Sc  Sc15  1  0.27014651  0.20201169  0.34015934  1
  Sc  Sc16  1  0.50000000  0.64662198  0.14662198  1
  Sc  Sc17  1  0.50000000  0.14662198  0.64662198  1
  Sc  Sc18  1  0.50000000  0.85337802  0.35337802  1
  Sc  Sc19  1  0.50000000  0.35337802  0.85337802  1
  Sc  Sc20  1  0.83984940  0.16992470  0.66992470  1
  Sc  Sc21  1  0.50000000  0.66992470  0.83007530  1
  Sc  Sc22  1  0.50000000  0.33007530  0.16992470  1
  Sc  Sc23  1  0.16015060  0.83007530  0.33007530  1
  Ga  Ga24  1  0.85263165  0.37608446  0.87608446  1
  Ga  Ga25  1  0.14736835  0.02345281  0.52345281  1
  Ga  Ga26  1  0.14736835  0.62391554  0.12391554  1
  Ga  Ga27  1  0.50000000  0.52345281  0.37608446  1
  Ga  Ga28  1  0.50000000  0.87608446  0.02345281  1
  Ga  Ga29  1  0.50000000  0.12391554  0.97654719  1
  Ga  Ga30  1  0.50000000  0.47654719  0.62391554  1
  Ga  Ga31  1  0.85263165  0.97654719  0.47654719  1
  Ga  Ga32  1  0.26312225  0.38156112  0.88156112  1
  Ga  Ga33  1  0.50000000  0.88156112  0.61843888  1
  Ga  Ga34  1  0.50000000  0.11843888  0.38156112  1
  Ga  Ga35  1  0.73687775  0.61843888  0.11843888  1
  Ga  Ga36  1  0.00000000  0.50000000  0.50000000  1
  Ga  Ga37  1  0.00000000  0.00000000  0.00000000  1
  Ga  Ga38  1  0.00000000  0.75000000  0.75000000  1
  Ga  Ga39  1  0.00000000  0.25000000  0.25000000  1
