# generated using pymatgen
data_Th2Fe7
_symmetry_space_group_name_H-M   'P 1'
_cell_length_a   5.12279562
_cell_length_b   5.12279562
_cell_length_c   24.77002869
_cell_angle_alpha   90.00000000
_cell_angle_beta   90.00000000
_cell_angle_gamma   119.99999997
_symmetry_Int_Tables_number   1
_chemical_formula_structural   Th2Fe7
_chemical_formula_sum   'Th8 Fe28'
_cell_volume   562.95178538
_cell_formula_units_Z   4
loop_
 _symmetry_equiv_pos_site_id
 _symmetry_equiv_pos_as_xyz
  1  'x, y, z'
loop_
 _atom_site_type_symbol
 _atom_site_label
 _atom_site_symmetry_multiplicity
 _atom_site_fract_x
 _atom_site_fract_y
 _atom_site_fract_z
 _atom_site_occupancy
  Fe  Fe0  1  0.00000000  0.00000000  0.00000000  1
  Fe  Fe1  1  0.00000000  0.00000000  0.50000000  1
  Fe  Fe2  1  0.00000000  0.00000000  0.16814840  1
  Fe  Fe3  1  0.00000000  0.00000000  0.66814840  1
  Fe  Fe4  1  0.00000000  0.00000000  0.83185160  1
  Fe  Fe5  1  0.00000000  0.00000000  0.33185160  1
  Fe  Fe6  1  0.33333333  0.66666667  0.83246225  1
  Fe  Fe7  1  0.66666667  0.33333333  0.33246225  1
  Fe  Fe8  1  0.66666667  0.33333333  0.16753775  1
  Fe  Fe9  1  0.33333333  0.66666667  0.66753775  1
  Fe  Fe10  1  0.83323575  0.66647151  0.25000000  1
  Fe  Fe11  1  0.16676425  0.83323575  0.75000000  1
  Fe  Fe12  1  0.66647151  0.83323575  0.75000000  1
  Fe  Fe13  1  0.33352849  0.16676425  0.25000000  1
  Fe  Fe14  1  0.83323575  0.16676425  0.25000000  1
  Fe  Fe15  1  0.16676425  0.33352849  0.75000000  1
  Fe  Fe16  1  0.83378761  0.66757523  0.08594519  1
  Fe  Fe17  1  0.16621239  0.83378761  0.58594519  1
  Fe  Fe18  1  0.66757523  0.83378761  0.58594519  1
  Fe  Fe19  1  0.33242477  0.16621239  0.08594519  1
  Fe  Fe20  1  0.83378761  0.16621239  0.08594519  1
  Fe  Fe21  1  0.16621239  0.33242477  0.91405481  1
  Fe  Fe22  1  0.16621239  0.83378761  0.91405481  1
  Fe  Fe23  1  0.16621239  0.33242477  0.58594519  1
  Fe  Fe24  1  0.66757523  0.83378761  0.91405481  1
  Fe  Fe25  1  0.33242477  0.16621239  0.41405481  1
  Fe  Fe26  1  0.83378761  0.66757523  0.41405481  1
  Fe  Fe27  1  0.83378761  0.16621239  0.41405481  1
  Th  Th28  1  0.33333333  0.66666667  0.02742647  1
  Th  Th29  1  0.66666667  0.33333333  0.52742647  1
  Th  Th30  1  0.66666667  0.33333333  0.97257353  1
  Th  Th31  1  0.33333333  0.66666667  0.47257353  1
  Th  Th32  1  0.33333333  0.66666667  0.17312809  1
  Th  Th33  1  0.66666667  0.33333333  0.67312809  1
  Th  Th34  1  0.66666667  0.33333333  0.82687191  1
  Th  Th35  1  0.33333333  0.66666667  0.32687191  1
