# generated using pymatgen
data_Tm3Ga5
_symmetry_space_group_name_H-M   'P 1'
_cell_length_a   6.04879583
_cell_length_b   9.62498503
_cell_length_c   11.26815676
_cell_angle_alpha   90.00000000
_cell_angle_beta   90.00000000
_cell_angle_gamma   90.00000000
_symmetry_Int_Tables_number   1
_chemical_formula_structural   Tm3Ga5
_chemical_formula_sum   'Tm12 Ga20'
_cell_volume   656.02723352
_cell_formula_units_Z   4
loop_
 _symmetry_equiv_pos_site_id
 _symmetry_equiv_pos_as_xyz
  1  'x, y, z'
loop_
 _atom_site_type_symbol
 _atom_site_label
 _atom_site_symmetry_multiplicity
 _atom_site_fract_x
 _atom_site_fract_y
 _atom_site_fract_z
 _atom_site_occupancy
  Tm  Tm0  1  0.65209619  0.75000000  0.42731962  1
  Tm  Tm1  1  0.84790381  0.75000000  0.92731962  1
  Tm  Tm2  1  0.34790381  0.25000000  0.57268038  1
  Tm  Tm3  1  0.15209619  0.25000000  0.07268038  1
  Tm  Tm4  1  0.61062574  0.99027965  0.14754235  1
  Tm  Tm5  1  0.88937426  0.50972035  0.64754235  1
  Tm  Tm6  1  0.38937426  0.49027965  0.85245765  1
  Tm  Tm7  1  0.11062574  0.00972035  0.35245765  1
  Tm  Tm8  1  0.38937426  0.00972035  0.85245765  1
  Tm  Tm9  1  0.11062574  0.49027965  0.35245765  1
  Tm  Tm10  1  0.61062574  0.50972035  0.14754235  1
  Tm  Tm11  1  0.88937426  0.99027965  0.64754235  1
  Ga  Ga12  1  0.62607920  0.44855637  0.40904967  1
  Ga  Ga13  1  0.87392080  0.05144363  0.90904967  1
  Ga  Ga14  1  0.37392080  0.94855637  0.59095033  1
  Ga  Ga15  1  0.12607920  0.55144363  0.09095033  1
  Ga  Ga16  1  0.37392080  0.55144363  0.59095033  1
  Ga  Ga17  1  0.12607920  0.94855637  0.09095033  1
  Ga  Ga18  1  0.62607920  0.05144363  0.40904967  1
  Ga  Ga19  1  0.87392080  0.44855637  0.90904967  1
  Ga  Ga20  1  0.32596406  0.75000000  0.24891502  1
  Ga  Ga21  1  0.17403594  0.75000000  0.74891502  1
  Ga  Ga22  1  0.67403594  0.25000000  0.75108498  1
  Ga  Ga23  1  0.82596406  0.25000000  0.25108498  1
  Ga  Ga24  1  0.12747507  0.75000000  0.49382737  1
  Ga  Ga25  1  0.37252493  0.75000000  0.99382737  1
  Ga  Ga26  1  0.87252493  0.25000000  0.50617263  1
  Ga  Ga27  1  0.62747507  0.25000000  0.00617263  1
  Ga  Ga28  1  0.89328902  0.75000000  0.20124293  1
  Ga  Ga29  1  0.60671098  0.75000000  0.70124293  1
  Ga  Ga30  1  0.10671098  0.25000000  0.79875707  1
  Ga  Ga31  1  0.39328902  0.25000000  0.29875707  1
