# generated using pymatgen
data_Ga17Rh10
_symmetry_space_group_name_H-M   'P 1'
_cell_length_a   5.87987570
_cell_length_b   5.87987570
_cell_length_c   48.23391224
_cell_angle_alpha   90.00000000
_cell_angle_beta   90.00000000
_cell_angle_gamma   90.00000000
_symmetry_Int_Tables_number   1
_chemical_formula_structural   Ga17Rh10
_chemical_formula_sum   'Ga68 Rh40'
_cell_volume   1667.58806931
_cell_formula_units_Z   4
loop_
 _symmetry_equiv_pos_site_id
 _symmetry_equiv_pos_as_xyz
  1  'x, y, z'
loop_
 _atom_site_type_symbol
 _atom_site_label
 _atom_site_symmetry_multiplicity
 _atom_site_fract_x
 _atom_site_fract_y
 _atom_site_fract_z
 _atom_site_occupancy
  Ga  Ga0  1  0.17166810  0.17166810  0.25000000  1
  Ga  Ga1  1  0.17166810  0.82833190  0.75000000  1
  Ga  Ga2  1  0.82833190  0.17166810  0.75000000  1
  Ga  Ga3  1  0.82833190  0.82833190  0.25000000  1
  Ga  Ga4  1  0.34709934  0.23306904  0.01515900  1
  Ga  Ga5  1  0.23306904  0.65290066  0.98484100  1
  Ga  Ga6  1  0.76693096  0.34709934  0.98484100  1
  Ga  Ga7  1  0.65290066  0.76693096  0.01515900  1
  Ga  Ga8  1  0.23306904  0.34709934  0.48484100  1
  Ga  Ga9  1  0.76693096  0.65290066  0.48484100  1
  Ga  Ga10  1  0.65290066  0.23306904  0.51515900  1
  Ga  Ga11  1  0.34709934  0.76693096  0.51515900  1
  Ga  Ga12  1  0.79890372  0.15627211  0.04498914  1
  Ga  Ga13  1  0.15627211  0.20109628  0.95501086  1
  Ga  Ga14  1  0.84372789  0.79890372  0.95501086  1
  Ga  Ga15  1  0.20109628  0.84372789  0.04498914  1
  Ga  Ga16  1  0.15627211  0.79890372  0.45501086  1
  Ga  Ga17  1  0.84372789  0.20109628  0.45501086  1
  Ga  Ga18  1  0.20109628  0.15627211  0.54498914  1
  Ga  Ga19  1  0.79890372  0.84372789  0.54498914  1
  Ga  Ga20  1  0.16693498  0.32271630  0.07378229  1
  Ga  Ga21  1  0.32271630  0.83306502  0.92621771  1
  Ga  Ga22  1  0.67728370  0.16693498  0.92621771  1
  Ga  Ga23  1  0.83306502  0.67728370  0.07378229  1
  Ga  Ga24  1  0.32271630  0.16693498  0.42621771  1
  Ga  Ga25  1  0.67728370  0.83306502  0.42621771  1
  Ga  Ga26  1  0.83306502  0.32271630  0.57378229  1
  Ga  Ga27  1  0.16693498  0.67728370  0.57378229  1
  Ga  Ga28  1  0.66256479  0.31547920  0.10252451  1
  Ga  Ga29  1  0.31547920  0.33743521  0.89747549  1
  Ga  Ga30  1  0.68452080  0.66256479  0.89747549  1
  Ga  Ga31  1  0.33743521  0.68452080  0.10252451  1
  Ga  Ga32  1  0.31547920  0.66256479  0.39747549  1
  Ga  Ga33  1  0.68452080  0.33743521  0.39747549  1
  Ga  Ga34  1  0.33743521  0.31547920  0.60252451  1
  Ga  Ga35  1  0.66256479  0.68452080  0.60252451  1
  Ga  Ga36  1  0.28867134  0.15441031  0.13154067  1
  Ga  Ga37  1  0.15441031  0.71132866  0.86845933  1
  Ga  Ga38  1  0.84558969  0.28867134  0.86845933  1
  Ga  Ga39  1  0.71132866  0.84558969  0.13154067  1
  Ga  Ga40  1  0.15441031  0.28867134  0.36845933  1
  Ga  Ga41  1  0.84558969  0.71132866  0.36845933  1
  Ga  Ga42  1  0.71132866  0.15441031  0.63154067  1
  Ga  Ga43  1  0.28867134  0.84558969  0.63154067  1
  Ga  Ga44  1  0.84772896  0.24466627  0.16163369  1
  Ga  Ga45  1  0.24466627  0.15227104  0.83836631  1
  Ga  Ga46  1  0.75533373  0.84772896  0.83836631  1
  Ga  Ga47  1  0.15227104  0.75533373  0.16163369  1
  Ga  Ga48  1  0.24466627  0.84772896  0.33836631  1
  Ga  Ga49  1  0.75533373  0.15227104  0.33836631  1
  Ga  Ga50  1  0.15227104  0.24466627  0.66163369  1
  Ga  Ga51  1  0.84772896  0.75533373  0.66163369  1
  Ga  Ga52  1  0.27861489  0.34648883  0.19197240  1
  Ga  Ga53  1  0.34648883  0.72138511  0.80802760  1
  Ga  Ga54  1  0.65351117  0.27861489  0.80802760  1
  Ga  Ga55  1  0.72138511  0.65351117  0.19197240  1
  Ga  Ga56  1  0.34648883  0.27861489  0.30802760  1
  Ga  Ga57  1  0.65351117  0.72138511  0.30802760  1
  Ga  Ga58  1  0.72138511  0.34648883  0.69197240  1
  Ga  Ga59  1  0.27861489  0.65351117  0.69197240  1
  Ga  Ga60  1  0.65924942  0.19203944  0.22130062  1
  Ga  Ga61  1  0.19203944  0.34075058  0.77869938  1
  Ga  Ga62  1  0.80796056  0.65924942  0.77869938  1
  Ga  Ga63  1  0.34075058  0.80796056  0.22130062  1
  Ga  Ga64  1  0.19203944  0.65924942  0.27869938  1
  Ga  Ga65  1  0.80796056  0.34075058  0.27869938  1
  Ga  Ga66  1  0.34075058  0.19203944  0.72130062  1
  Ga  Ga67  1  0.65924942  0.80796056  0.72130062  1
  Rh  Rh68  1  0.50000000  0.50000000  0.25000000  1
  Rh  Rh69  1  0.50000000  0.50000000  0.75000000  1
  Rh  Rh70  1  0.00000000  0.00000000  0.00000000  1
  Rh  Rh71  1  0.00000000  0.00000000  0.50000000  1
  Rh  Rh72  1  0.00000000  0.00000000  0.09874157  1
  Rh  Rh73  1  0.00000000  0.00000000  0.90125843  1
  Rh  Rh74  1  0.00000000  0.00000000  0.40125843  1
  Rh  Rh75  1  0.00000000  0.00000000  0.59874157  1
  Rh  Rh76  1  0.00000000  0.00000000  0.20125530  1
  Rh  Rh77  1  0.00000000  0.00000000  0.79874470  1
  Rh  Rh78  1  0.00000000  0.00000000  0.29874470  1
  Rh  Rh79  1  0.00000000  0.00000000  0.70125530  1
  Rh  Rh80  1  0.50000000  0.50000000  0.05158731  1
  Rh  Rh81  1  0.50000000  0.50000000  0.94841269  1
  Rh  Rh82  1  0.50000000  0.50000000  0.44841269  1
  Rh  Rh83  1  0.50000000  0.50000000  0.55158731  1
  Rh  Rh84  1  0.50000000  0.50000000  0.14940501  1
  Rh  Rh85  1  0.50000000  0.50000000  0.85059499  1
  Rh  Rh86  1  0.50000000  0.50000000  0.35059499  1
  Rh  Rh87  1  0.50000000  0.50000000  0.64940501  1
  Rh  Rh88  1  0.00000000  0.50000000  0.02597402  1
  Rh  Rh89  1  0.50000000  0.00000000  0.97402598  1
  Rh  Rh90  1  0.50000000  0.00000000  0.47402598  1
  Rh  Rh91  1  0.00000000  0.50000000  0.52597402  1
  Rh  Rh92  1  0.00000000  0.50000000  0.12350905  1
  Rh  Rh93  1  0.50000000  0.00000000  0.87649095  1
  Rh  Rh94  1  0.50000000  0.00000000  0.37649095  1
  Rh  Rh95  1  0.00000000  0.50000000  0.62350905  1
  Rh  Rh96  1  0.00000000  0.50000000  0.22655748  1
  Rh  Rh97  1  0.50000000  0.00000000  0.77344252  1
  Rh  Rh98  1  0.50000000  0.00000000  0.27344252  1
  Rh  Rh99  1  0.00000000  0.50000000  0.72655748  1
  Rh  Rh100  1  0.00000000  0.50000000  0.32469328  1
  Rh  Rh101  1  0.50000000  0.00000000  0.67530672  1
  Rh  Rh102  1  0.50000000  0.00000000  0.17530672  1
  Rh  Rh103  1  0.00000000  0.50000000  0.82469328  1
  Rh  Rh104  1  0.00000000  0.50000000  0.42427225  1
  Rh  Rh105  1  0.50000000  0.00000000  0.57572775  1
  Rh  Rh106  1  0.50000000  0.00000000  0.07572775  1
  Rh  Rh107  1  0.00000000  0.50000000  0.92427225  1
