# generated using pymatgen
data_Tl2CuF3
_symmetry_space_group_name_H-M   'P 1'
_cell_length_a   6.93560757
_cell_length_b   6.33570558
_cell_length_c   38.69857495
_cell_angle_alpha   38.29782617
_cell_angle_beta   56.94959615
_cell_angle_gamma   76.05899256
_symmetry_Int_Tables_number   1
_chemical_formula_structural   Tl2CuF3
_chemical_formula_sum   'Tl12 Cu6 F18'
_cell_volume   824.07217885
_cell_formula_units_Z   6
loop_
 _symmetry_equiv_pos_site_id
 _symmetry_equiv_pos_as_xyz
  1  'x, y, z'
loop_
 _atom_site_type_symbol
 _atom_site_label
 _atom_site_symmetry_multiplicity
 _atom_site_fract_x
 _atom_site_fract_y
 _atom_site_fract_z
 _atom_site_occupancy
  Tl  Tl0  1  0.33411401  0.30512881  0.99518412  1
  Tl  Tl1  1  0.30462667  0.42515942  0.81684346  1
  Tl  Tl2  1  0.69800126  0.60456236  0.84360852  1
  Tl  Tl3  1  0.31253980  0.43929116  0.64785540  1
  Tl  Tl4  1  0.69498924  0.56579167  0.68426562  1
  Tl  Tl5  1  0.30997983  0.43663253  0.48186355  1
  Tl  Tl6  1  0.69002017  0.56336747  0.51813645  1
  Tl  Tl7  1  0.30501076  0.43420833  0.31573438  1
  Tl  Tl8  1  0.68746020  0.56070884  0.35214460  1
  Tl  Tl9  1  0.30199874  0.39543764  0.15639148  1
  Tl  Tl10  1  0.69537333  0.57484058  0.18315654  1
  Tl  Tl11  1  0.66588599  0.69487119  0.00481588  1
  Cu  Cu12  1  0.98442851  0.02052051  0.83253189  1
  Cu  Cu13  1  0.99810606  0.00317088  0.66658467  1
  Cu  Cu14  1  -0.00000000  -0.00000000  0.00000000  1
  Cu  Cu15  1  -0.00000000  -0.00000000  0.50000000  1
  Cu  Cu16  1  0.00189394  0.99682912  0.33341533  1
  Cu  Cu17  1  0.01557149  0.97947949  0.16746811  1
  F  F18  1  0.75536332  0.71642666  0.08878079  1
  F  F19  1  0.73989572  0.83910435  0.91200905  1
  F  F20  1  0.55625177  0.09171629  0.81040568  1
  F  F21  1  0.75571096  0.81912806  0.74674071  1
  F  F22  1  0.22943672  0.19017208  0.75436174  1
  F  F23  1  0.48972394  0.97610691  0.67457813  1
  F  F24  1  0.75438102  0.81251726  0.57968082  1
  F  F25  1  0.23996679  0.18664000  0.58681036  1
  F  F26  1  0.50000000  -0.00000000  0.50000000  1
  F  F27  1  0.76003321  0.81336000  0.41318964  1
  F  F28  1  0.24561898  0.18748274  0.42031918  1
  F  F29  1  0.51027606  0.02389309  0.32542187  1
  F  F30  1  0.77056328  0.80982792  0.24563826  1
  F  F31  1  0.24428904  0.18087194  0.25325929  1
  F  F32  1  0.44374823  0.90828371  0.18959432  1
  F  F33  1  0.26010428  0.16089565  0.08799095  1
  F  F34  1  0.24463668  0.28357334  0.91121921  1
  F  F35  1  -0.00000000  0.50000000  0.00000000  1
