# generated using pymatgen
data_ThGa
_symmetry_space_group_name_H-M   'P 1'
_cell_length_a   4.13426469
_cell_length_b   6.07172020
_cell_length_c   16.46233044
_cell_angle_alpha   90.00000000
_cell_angle_beta   90.00000000
_cell_angle_gamma   90.00000000
_symmetry_Int_Tables_number   1
_chemical_formula_structural   ThGa
_chemical_formula_sum   'Th8 Ga8'
_cell_volume   413.23903910
_cell_formula_units_Z   8
loop_
 _symmetry_equiv_pos_site_id
 _symmetry_equiv_pos_as_xyz
  1  'x, y, z'
loop_
 _atom_site_type_symbol
 _atom_site_label
 _atom_site_symmetry_multiplicity
 _atom_site_fract_x
 _atom_site_fract_y
 _atom_site_fract_z
 _atom_site_occupancy
  Ga  Ga0  1  0.25000000  0.99548210  0.35661829  1
  Ga  Ga1  1  0.75000000  0.00451790  0.64338171  1
  Ga  Ga2  1  0.75000000  0.49548210  0.14338171  1
  Ga  Ga3  1  0.25000000  0.50451790  0.85661829  1
  Ga  Ga4  1  0.25000000  0.24240552  0.10645380  1
  Ga  Ga5  1  0.75000000  0.75759448  0.89354620  1
  Ga  Ga6  1  0.75000000  0.74240552  0.39354620  1
  Ga  Ga7  1  0.25000000  0.25759448  0.60645380  1
  Th  Th8  1  0.25000000  0.48711336  0.28619591  1
  Th  Th9  1  0.75000000  0.51288664  0.71380409  1
  Th  Th10  1  0.75000000  0.98711336  0.21380409  1
  Th  Th11  1  0.25000000  0.01288664  0.78619591  1
  Th  Th12  1  0.25000000  0.75002574  0.03642752  1
  Th  Th13  1  0.75000000  0.24997426  0.96357248  1
  Th  Th14  1  0.75000000  0.25002574  0.46357248  1
  Th  Th15  1  0.25000000  0.74997426  0.53642752  1
