# generated using pymatgen
data_Nd2Zn17
_symmetry_space_group_name_H-M   'P 1'
_cell_length_a   6.85813177
_cell_length_b   6.85813177
_cell_length_c   6.85813177
_cell_angle_alpha   82.65474486
_cell_angle_beta   82.65474485
_cell_angle_gamma   82.65474487
_symmetry_Int_Tables_number   1
_chemical_formula_structural   Nd2Zn17
_chemical_formula_sum   'Nd2 Zn17'
_cell_volume   315.24768768
_cell_formula_units_Z   1
loop_
 _symmetry_equiv_pos_site_id
 _symmetry_equiv_pos_as_xyz
  1  'x, y, z'
loop_
 _atom_site_type_symbol
 _atom_site_label
 _atom_site_symmetry_multiplicity
 _atom_site_fract_x
 _atom_site_fract_y
 _atom_site_fract_z
 _atom_site_occupancy
  Zn  Zn0  1  0.35006009  0.35006009  0.83884856  1
  Zn  Zn1  1  0.35006009  0.83884856  0.35006009  1
  Zn  Zn2  1  0.09879419  0.09879419  0.09879419  1
  Zn  Zn3  1  0.90120581  0.90120581  0.90120581  1
  Zn  Zn4  1  0.00000000  0.00000000  0.50000000  1
  Zn  Zn5  1  0.50000000  0.00000000  0.00000000  1
  Zn  Zn6  1  0.00000000  0.50000000  0.00000000  1
  Zn  Zn7  1  0.70679584  0.29320416  0.00000000  1
  Zn  Zn8  1  0.00000000  0.70679584  0.29320416  1
  Zn  Zn9  1  0.29320416  0.00000000  0.70679584  1
  Zn  Zn10  1  0.29320416  0.70679584  0.00000000  1
  Zn  Zn11  1  0.00000000  0.29320416  0.70679584  1
  Zn  Zn12  1  0.70679584  0.00000000  0.29320416  1
  Zn  Zn13  1  0.64993991  0.16115144  0.64993991  1
  Zn  Zn14  1  0.64993991  0.64993991  0.16115144  1
  Zn  Zn15  1  0.16115144  0.64993991  0.64993991  1
  Zn  Zn16  1  0.83884856  0.35006009  0.35006009  1
  Nd  Nd17  1  0.66436944  0.66436944  0.66436944  1
  Nd  Nd18  1  0.33563056  0.33563056  0.33563056  1
