# generated using pymatgen
data_Pr2Zn17
_symmetry_space_group_name_H-M   'P 1'
_cell_length_a   6.87275530
_cell_length_b   6.87275530
_cell_length_c   6.87275530
_cell_angle_alpha   82.68535391
_cell_angle_beta   82.68535386
_cell_angle_gamma   82.68535391
_symmetry_Int_Tables_number   1
_chemical_formula_structural   Pr2Zn17
_chemical_formula_sum   'Pr2 Zn17'
_cell_volume   317.32735465
_cell_formula_units_Z   1
loop_
 _symmetry_equiv_pos_site_id
 _symmetry_equiv_pos_as_xyz
  1  'x, y, z'
loop_
 _atom_site_type_symbol
 _atom_site_label
 _atom_site_symmetry_multiplicity
 _atom_site_fract_x
 _atom_site_fract_y
 _atom_site_fract_z
 _atom_site_occupancy
  Zn  Zn0  1  0.34975705  0.34975705  0.83899965  1
  Zn  Zn1  1  0.34975705  0.83899965  0.34975705  1
  Zn  Zn2  1  0.09855224  0.09855224  0.09855224  1
  Zn  Zn3  1  0.90144776  0.90144776  0.90144776  1
  Zn  Zn4  1  0.00000000  0.00000000  0.50000000  1
  Zn  Zn5  1  0.50000000  0.00000000  0.00000000  1
  Zn  Zn6  1  0.00000000  0.50000000  0.00000000  1
  Zn  Zn7  1  0.70737541  0.29262459  0.00000000  1
  Zn  Zn8  1  0.00000000  0.70737541  0.29262459  1
  Zn  Zn9  1  0.29262459  0.00000000  0.70737541  1
  Zn  Zn10  1  0.29262459  0.70737541  0.00000000  1
  Zn  Zn11  1  0.00000000  0.29262459  0.70737541  1
  Zn  Zn12  1  0.70737541  0.00000000  0.29262459  1
  Zn  Zn13  1  0.65024295  0.16100035  0.65024295  1
  Zn  Zn14  1  0.65024295  0.65024295  0.16100035  1
  Zn  Zn15  1  0.16100035  0.65024295  0.65024295  1
  Zn  Zn16  1  0.83899965  0.34975705  0.34975705  1
  Pr  Pr17  1  0.66417490  0.66417490  0.66417490  1
  Pr  Pr18  1  0.33582510  0.33582510  0.33582510  1
