# generated using pymatgen
data_Ho2Zn17
_symmetry_space_group_name_H-M   'P 1'
_cell_length_a   6.79114817
_cell_length_b   6.79114817
_cell_length_c   6.79114816
_cell_angle_alpha   82.49837666
_cell_angle_beta   82.49837661
_cell_angle_gamma   82.49837666
_symmetry_Int_Tables_number   1
_chemical_formula_structural   Ho2Zn17
_chemical_formula_sum   'Ho2 Zn17'
_cell_volume   305.80763768
_cell_formula_units_Z   1
loop_
 _symmetry_equiv_pos_site_id
 _symmetry_equiv_pos_as_xyz
  1  'x, y, z'
loop_
 _atom_site_type_symbol
 _atom_site_label
 _atom_site_symmetry_multiplicity
 _atom_site_fract_x
 _atom_site_fract_y
 _atom_site_fract_z
 _atom_site_occupancy
  Zn  Zn0  1  0.35203735  0.35203735  0.83803772  1
  Zn  Zn1  1  0.35203735  0.83803772  0.35203735  1
  Zn  Zn2  1  0.10008326  0.10008326  0.10008326  1
  Zn  Zn3  1  0.89991674  0.89991674  0.89991674  1
  Zn  Zn4  1  0.00000000  0.00000000  0.50000000  1
  Zn  Zn5  1  0.50000000  0.00000000  0.00000000  1
  Zn  Zn6  1  0.00000000  0.50000000  0.00000000  1
  Zn  Zn7  1  0.70178549  0.29821451  0.00000000  1
  Zn  Zn8  1  0.00000000  0.70178549  0.29821451  1
  Zn  Zn9  1  0.29821451  0.00000000  0.70178549  1
  Zn  Zn10  1  0.29821451  0.70178549  0.00000000  1
  Zn  Zn11  1  0.00000000  0.29821451  0.70178549  1
  Zn  Zn12  1  0.70178549  0.00000000  0.29821451  1
  Zn  Zn13  1  0.64796265  0.16196228  0.64796265  1
  Zn  Zn14  1  0.64796265  0.64796265  0.16196228  1
  Zn  Zn15  1  0.16196228  0.64796265  0.64796265  1
  Zn  Zn16  1  0.83803772  0.35203735  0.35203735  1
  Ho  Ho17  1  0.66499760  0.66499760  0.66499760  1
  Ho  Ho18  1  0.33500240  0.33500240  0.33500240  1
