# generated using pymatgen
data_CaZr4O9
_symmetry_space_group_name_H-M   'P 1'
_cell_length_a   3.50705073
_cell_length_b   7.38798955
_cell_length_c   18.78325384
_cell_angle_alpha   61.19370220
_cell_angle_beta   62.17458391
_cell_angle_gamma   61.66042402
_symmetry_Int_Tables_number   1
_chemical_formula_structural   CaZr4O9
_chemical_formula_sum   'Ca2 Zr8 O18'
_cell_volume   357.01405852
_cell_formula_units_Z   2
loop_
 _symmetry_equiv_pos_site_id
 _symmetry_equiv_pos_as_xyz
  1  'x, y, z'
loop_
 _atom_site_type_symbol
 _atom_site_label
 _atom_site_symmetry_multiplicity
 _atom_site_fract_x
 _atom_site_fract_y
 _atom_site_fract_z
 _atom_site_occupancy
  Ca  Ca0  1  0.00000000  0.00000000  0.20000000  1
  Ca  Ca1  1  0.00000000  0.50000000  0.20000000  1
  Zr  Zr2  1  0.95852499  0.00718903  0.01371439  1
  Zr  Zr3  1  0.01928877  0.50759217  0.98924763  1
  Zr  Zr4  1  0.04147501  0.99281097  0.38628561  1
  Zr  Zr5  1  0.00702871  0.00626829  0.79468120  1
  Zr  Zr6  1  0.98071123  0.49240783  0.41075237  1
  Zr  Zr7  1  0.99297129  0.99373171  0.60531880  1
  Zr  Zr8  1  0.99843288  0.49964742  0.80076788  1
  Zr  Zr9  1  0.00156712  0.50035258  0.59923212  1
  O  O10  1  0.18890086  0.17363855  0.05498423  1
  O  O11  1  0.21077308  0.14729958  0.25677094  1
  O  O12  1  0.32090099  0.53640349  0.05707821  1
  O  O13  1  0.31368727  0.12548519  0.42433101  1
  O  O14  1  0.67909901  0.46359651  0.34292179  1
  O  O15  1  0.78922692  0.85270042  0.14322906  1
  O  O16  1  0.18848133  0.64591754  0.46624045  1
  O  O17  1  0.18886774  0.15514990  0.66239294  1
  O  O18  1  0.80406453  0.33826159  0.54306955  1
  O  O19  1  0.30885705  0.09577197  0.83814839  1
  O  O20  1  0.81109914  0.82636145  0.34501577  1
  O  O21  1  0.30093913  0.59953506  0.63981033  1
  O  O22  1  0.69906087  0.40046494  0.76018967  1
  O  O23  1  0.69114295  0.90422803  0.56185161  1
  O  O24  1  0.19593547  0.66173841  0.85693045  1
  O  O25  1  0.81151867  0.35408246  0.93375955  1
  O  O26  1  0.81113226  0.84485010  0.73760706  1
  O  O27  1  0.68631273  0.87451481  0.97566899  1
