# generated using pymatgen
data_Sm2Zn17
_symmetry_space_group_name_H-M   'P 1'
_cell_length_a   6.83415750
_cell_length_b   6.83415750
_cell_length_c   6.83415750
_cell_angle_alpha   82.60411412
_cell_angle_beta   82.60411417
_cell_angle_gamma   82.60411410
_symmetry_Int_Tables_number   1
_chemical_formula_structural   Sm2Zn17
_chemical_formula_sum   'Sm2 Zn17'
_cell_volume   311.85711662
_cell_formula_units_Z   1
loop_
 _symmetry_equiv_pos_site_id
 _symmetry_equiv_pos_as_xyz
  1  'x, y, z'
loop_
 _atom_site_type_symbol
 _atom_site_label
 _atom_site_symmetry_multiplicity
 _atom_site_fract_x
 _atom_site_fract_y
 _atom_site_fract_z
 _atom_site_occupancy
  Zn  Zn0  1  0.35081669  0.35081669  0.83854152  1
  Zn  Zn1  1  0.35081669  0.83854152  0.35081669  1
  Zn  Zn2  1  0.09921629  0.09921629  0.09921629  1
  Zn  Zn3  1  0.90078371  0.90078371  0.90078371  1
  Zn  Zn4  1  0.00000000  0.00000000  0.50000000  1
  Zn  Zn5  1  0.50000000  0.00000000  0.00000000  1
  Zn  Zn6  1  0.00000000  0.50000000  0.00000000  1
  Zn  Zn7  1  0.70518265  0.29481735  0.00000000  1
  Zn  Zn8  1  0.00000000  0.70518265  0.29481735  1
  Zn  Zn9  1  0.29481735  0.00000000  0.70518265  1
  Zn  Zn10  1  0.29481735  0.70518265  0.00000000  1
  Zn  Zn11  1  0.00000000  0.29481735  0.70518265  1
  Zn  Zn12  1  0.70518265  0.00000000  0.29481735  1
  Zn  Zn13  1  0.64918331  0.16145848  0.64918331  1
  Zn  Zn14  1  0.64918331  0.64918331  0.16145848  1
  Zn  Zn15  1  0.16145848  0.64918331  0.64918331  1
  Zn  Zn16  1  0.83854152  0.35081669  0.35081669  1
  Sm  Sm17  1  0.66468090  0.66468090  0.66468090  1
  Sm  Sm18  1  0.33531910  0.33531910  0.33531910  1
