# generated using pymatgen
data_Tm2Zn17
_symmetry_space_group_name_H-M   'P 1'
_cell_length_a   6.77889987
_cell_length_b   6.77889987
_cell_length_c   6.77889987
_cell_angle_alpha   82.45922861
_cell_angle_beta   82.45922857
_cell_angle_gamma   82.45922866
_symmetry_Int_Tables_number   1
_chemical_formula_structural   Tm2Zn17
_chemical_formula_sum   'Tm2 Zn17'
_cell_volume   304.08221940
_cell_formula_units_Z   1
loop_
 _symmetry_equiv_pos_site_id
 _symmetry_equiv_pos_as_xyz
  1  'x, y, z'
loop_
 _atom_site_type_symbol
 _atom_site_label
 _atom_site_symmetry_multiplicity
 _atom_site_fract_x
 _atom_site_fract_y
 _atom_site_fract_z
 _atom_site_occupancy
  Zn  Zn0  1  0.35257247  0.35257247  0.83778696  1
  Zn  Zn1  1  0.35257247  0.83778696  0.35257247  1
  Zn  Zn2  1  0.10047227  0.10047227  0.10047227  1
  Zn  Zn3  1  0.89952773  0.89952773  0.89952773  1
  Zn  Zn4  1  0.00000000  0.00000000  0.50000000  1
  Zn  Zn5  1  0.50000000  0.00000000  0.00000000  1
  Zn  Zn6  1  0.00000000  0.50000000  0.00000000  1
  Zn  Zn7  1  0.70097125  0.29902875  0.00000000  1
  Zn  Zn8  1  0.00000000  0.70097125  0.29902875  1
  Zn  Zn9  1  0.29902875  0.00000000  0.70097125  1
  Zn  Zn10  1  0.29902875  0.70097125  0.00000000  1
  Zn  Zn11  1  0.00000000  0.29902875  0.70097125  1
  Zn  Zn12  1  0.70097125  0.00000000  0.29902875  1
  Zn  Zn13  1  0.64742753  0.16221304  0.64742753  1
  Zn  Zn14  1  0.64742753  0.64742753  0.16221304  1
  Zn  Zn15  1  0.16221304  0.64742753  0.64742753  1
  Zn  Zn16  1  0.83778696  0.35257247  0.35257247  1
  Tm  Tm17  1  0.66524117  0.66524117  0.66524117  1
  Tm  Tm18  1  0.33475883  0.33475883  0.33475883  1
