# generated using pymatgen
data_Lu2Zn17
_symmetry_space_group_name_H-M   'P 1'
_cell_length_a   6.76914459
_cell_length_b   6.76914459
_cell_length_c   6.76914459
_cell_angle_alpha   82.41173258
_cell_angle_beta   82.41173265
_cell_angle_gamma   82.41173257
_symmetry_Int_Tables_number   1
_chemical_formula_structural   Lu2Zn17
_chemical_formula_sum   'Lu2 Zn17'
_cell_volume   302.68176688
_cell_formula_units_Z   1
loop_
 _symmetry_equiv_pos_site_id
 _symmetry_equiv_pos_as_xyz
  1  'x, y, z'
loop_
 _atom_site_type_symbol
 _atom_site_label
 _atom_site_symmetry_multiplicity
 _atom_site_fract_x
 _atom_site_fract_y
 _atom_site_fract_z
 _atom_site_occupancy
  Zn  Zn0  1  0.35297357  0.35297357  0.83790589  1
  Zn  Zn1  1  0.35297357  0.83790589  0.35297357  1
  Zn  Zn2  1  0.10089187  0.10089187  0.10089187  1
  Zn  Zn3  1  0.89910813  0.89910813  0.89910813  1
  Zn  Zn4  1  0.00000000  0.00000000  0.50000000  1
  Zn  Zn5  1  0.50000000  0.00000000  0.00000000  1
  Zn  Zn6  1  0.00000000  0.50000000  0.00000000  1
  Zn  Zn7  1  0.70044462  0.29955538  0.00000000  1
  Zn  Zn8  1  0.00000000  0.70044462  0.29955538  1
  Zn  Zn9  1  0.29955538  0.00000000  0.70044462  1
  Zn  Zn10  1  0.29955538  0.70044462  0.00000000  1
  Zn  Zn11  1  0.00000000  0.29955538  0.70044462  1
  Zn  Zn12  1  0.70044462  0.00000000  0.29955538  1
  Zn  Zn13  1  0.64702643  0.16209411  0.64702643  1
  Zn  Zn14  1  0.64702643  0.64702643  0.16209411  1
  Zn  Zn15  1  0.16209411  0.64702643  0.64702643  1
  Zn  Zn16  1  0.83790589  0.35297357  0.35297357  1
  Lu  Lu17  1  0.66513105  0.66513105  0.66513105  1
  Lu  Lu18  1  0.33486895  0.33486895  0.33486895  1
