# generated using pymatgen
data_K5Hg7
_symmetry_space_group_name_H-M   'P 1'
_cell_length_a   8.52723125
_cell_length_b   10.31897818
_cell_length_c   19.81031328
_cell_angle_alpha   90.00000000
_cell_angle_beta   90.00000000
_cell_angle_gamma   90.00000000
_symmetry_Int_Tables_number   1
_chemical_formula_structural   K5Hg7
_chemical_formula_sum   'K20 Hg28'
_cell_volume   1743.15529081
_cell_formula_units_Z   4
loop_
 _symmetry_equiv_pos_site_id
 _symmetry_equiv_pos_as_xyz
  1  'x, y, z'
loop_
 _atom_site_type_symbol
 _atom_site_label
 _atom_site_symmetry_multiplicity
 _atom_site_fract_x
 _atom_site_fract_y
 _atom_site_fract_z
 _atom_site_occupancy
  K  K0  1  0.25000000  0.10583200  0.58828234  1
  K  K1  1  0.75000000  0.89416800  0.41171766  1
  K  K2  1  0.75000000  0.10583200  0.91171766  1
  K  K3  1  0.25000000  0.89416800  0.08828234  1
  K  K4  1  0.25000000  0.99445397  0.89054241  1
  K  K5  1  0.75000000  0.00554603  0.10945759  1
  K  K6  1  0.75000000  0.99445397  0.60945759  1
  K  K7  1  0.25000000  0.00554603  0.39054241  1
  K  K8  1  0.25000000  0.81520565  0.70938450  1
  K  K9  1  0.75000000  0.18479435  0.29061550  1
  K  K10  1  0.75000000  0.81520565  0.79061550  1
  K  K11  1  0.25000000  0.18479435  0.20938450  1
  K  K12  1  0.25000000  0.47916283  0.51651475  1
  K  K13  1  0.75000000  0.52083717  0.48348525  1
  K  K14  1  0.75000000  0.47916283  0.98348525  1
  K  K15  1  0.25000000  0.52083717  0.01651475  1
  K  K16  1  0.25000000  0.42708983  0.72786971  1
  K  K17  1  0.75000000  0.57291017  0.27213029  1
  K  K18  1  0.75000000  0.42708983  0.77213029  1
  K  K19  1  0.25000000  0.57291017  0.22786971  1
  Hg  Hg20  1  0.56718863  0.37004564  0.14302441  1
  Hg  Hg21  1  0.06718863  0.62995436  0.85697559  1
  Hg  Hg22  1  0.43281137  0.37004564  0.35697559  1
  Hg  Hg23  1  0.93281137  0.62995436  0.64302441  1
  Hg  Hg24  1  0.43281137  0.62995436  0.85697559  1
  Hg  Hg25  1  0.93281137  0.37004564  0.14302441  1
  Hg  Hg26  1  0.56718863  0.62995436  0.64302441  1
  Hg  Hg27  1  0.06718863  0.37004564  0.35697559  1
  Hg  Hg28  1  0.06885109  0.67964293  0.38091449  1
  Hg  Hg29  1  0.56885109  0.32035707  0.61908551  1
  Hg  Hg30  1  0.93114891  0.67964293  0.11908551  1
  Hg  Hg31  1  0.43114891  0.32035707  0.88091449  1
  Hg  Hg32  1  0.93114891  0.32035707  0.61908551  1
  Hg  Hg33  1  0.43114891  0.67964293  0.38091449  1
  Hg  Hg34  1  0.06885109  0.32035707  0.88091449  1
  Hg  Hg35  1  0.56885109  0.67964293  0.11908551  1
  Hg  Hg36  1  0.56496091  0.19642944  0.47158061  1
  Hg  Hg37  1  0.06496091  0.80357056  0.52841939  1
  Hg  Hg38  1  0.43503909  0.19642944  0.02841939  1
  Hg  Hg39  1  0.93503909  0.80357056  0.97158061  1
  Hg  Hg40  1  0.43503909  0.80357056  0.52841939  1
  Hg  Hg41  1  0.93503909  0.19642944  0.47158061  1
  Hg  Hg42  1  0.56496091  0.80357056  0.97158061  1
  Hg  Hg43  1  0.06496091  0.19642944  0.02841939  1
  Hg  Hg44  1  0.50000000  0.87442691  0.25000000  1
  Hg  Hg45  1  0.00000000  0.12557309  0.75000000  1
  Hg  Hg46  1  0.50000000  0.12557309  0.75000000  1
  Hg  Hg47  1  0.00000000  0.87442691  0.25000000  1
