# generated using pymatgen
data_Er2Zr8O19
_symmetry_space_group_name_H-M   'P 1'
_cell_length_a   3.65973256
_cell_length_b   36.83022016
_cell_length_c   35.14855346
_cell_angle_alpha   5.18722740
_cell_angle_beta   58.68440385
_cell_angle_gamma   60.26319630
_symmetry_Int_Tables_number   1
_chemical_formula_structural   Er2Zr8O19
_chemical_formula_sum   'Er2 Zr8 O19'
_cell_volume   351.32232297
_cell_formula_units_Z   1
loop_
 _symmetry_equiv_pos_site_id
 _symmetry_equiv_pos_as_xyz
  1  'x, y, z'
loop_
 _atom_site_type_symbol
 _atom_site_label
 _atom_site_symmetry_multiplicity
 _atom_site_fract_x
 _atom_site_fract_y
 _atom_site_fract_z
 _atom_site_occupancy
  Er  Er0  1  0.03667821  0.03288575  0.95973914  1
  Er  Er1  1  0.96595622  0.07535256  0.03125260  1
  Zr  Zr2  1  0.98760566  0.19064927  0.01200628  1
  Zr  Zr3  1  0.98903752  0.29219936  0.01017805  1
  Zr  Zr4  1  0.98974493  0.39314488  0.00865555  1
  Zr  Zr5  1  0.99459540  0.49755465  0.00306840  1
  Zr  Zr6  1  0.00204343  0.60323597  0.99582400  1
  Zr  Zr7  1  0.01099871  0.70890630  0.98872797  1
  Zr  Zr8  1  0.01438912  0.81485366  0.98209161  1
  Zr  Zr9  1  0.01585623  0.91545358  0.98118543  1
  O  O10  1  0.27994877  0.02589584  0.21820826  1
  O  O11  1  0.20438980  0.06446097  0.29470405  1
  O  O12  1  0.26748585  0.21581547  0.23038455  1
  O  O13  1  0.24259014  0.29650023  0.25443815  1
  O  O14  1  0.24053345  0.39439713  0.25698295  1
  O  O15  1  0.29144804  0.53484394  0.20668567  1
  O  O16  1  0.73329233  0.98732127  0.76601776  1
  O  O17  1  0.22727101  0.58426458  0.27029706  1
  O  O18  1  0.80333745  0.14460954  0.69471380  1
  O  O19  1  0.30697872  0.75060554  0.18775486  1
  O  O20  1  0.72613803  0.18585629  0.76858808  1
  O  O21  1  0.19152850  0.85643671  0.30501325  1
  O  O22  1  0.75075227  0.30469703  0.74504554  1
  O  O23  1  0.77644555  0.42487844  0.71959873  1
  O  O24  1  0.69778529  0.45917303  0.80151992  1
  O  O25  1  0.77669116  0.62259236  0.72210101  1
  O  O26  1  0.72005356  0.67746821  0.77823703  1
  O  O27  1  0.75428557  0.80522965  0.74339563  1
  O  O28  1  0.76991608  0.91685078  0.72876770  1
