# generated using pymatgen
data_Ho10In20Ni9
_symmetry_space_group_name_H-M   'P 1'
_cell_length_a   9.17852261
_cell_length_b   13.38459180
_cell_length_c   13.38459180
_cell_angle_alpha   90.00000000
_cell_angle_beta   90.00000000
_cell_angle_gamma   90.00000000
_symmetry_Int_Tables_number   1
_chemical_formula_structural   Ho10In20Ni9
_chemical_formula_sum   'Ho20 In40 Ni18'
_cell_volume   1644.30752203
_cell_formula_units_Z   2
loop_
 _symmetry_equiv_pos_site_id
 _symmetry_equiv_pos_as_xyz
  1  'x, y, z'
loop_
 _atom_site_type_symbol
 _atom_site_label
 _atom_site_symmetry_multiplicity
 _atom_site_fract_x
 _atom_site_fract_y
 _atom_site_fract_z
 _atom_site_occupancy
  Ni  Ni0  1  0.00000000  0.25000000  0.75000000  1
  Ni  Ni1  1  0.00000000  0.75000000  0.25000000  1
  Ni  Ni2  1  0.40883703  0.25000000  0.02727805  1
  Ni  Ni3  1  0.40883703  0.47272195  0.25000000  1
  Ni  Ni4  1  0.40883703  0.02727805  0.25000000  1
  Ni  Ni5  1  0.40883703  0.25000000  0.47272195  1
  Ni  Ni6  1  0.59116297  0.75000000  0.97272195  1
  Ni  Ni7  1  0.59116297  0.75000000  0.52727805  1
  Ni  Ni8  1  0.59116297  0.52727805  0.75000000  1
  Ni  Ni9  1  0.59116297  0.97272195  0.75000000  1
  Ni  Ni10  1  0.10452950  0.59478244  0.59478244  1
  Ni  Ni11  1  0.10452950  0.90521756  0.59478244  1
  Ni  Ni12  1  0.10452950  0.59478244  0.90521756  1
  Ni  Ni13  1  0.10452950  0.90521756  0.90521756  1
  Ni  Ni14  1  0.89547050  0.09478244  0.40521756  1
  Ni  Ni15  1  0.89547050  0.40521756  0.09478244  1
  Ni  Ni16  1  0.89547050  0.09478244  0.09478244  1
  Ni  Ni17  1  0.89547050  0.40521756  0.40521756  1
  In  In18  1  0.00000000  0.59490760  0.09490760  1
  In  In19  1  0.00000000  0.40509240  0.59490760  1
  In  In20  1  0.00000000  0.09490760  0.90509240  1
  In  In21  1  0.00000000  0.90509240  0.40509240  1
  In  In22  1  0.00000000  0.40509240  0.90509240  1
  In  In23  1  0.00000000  0.59490760  0.40509240  1
  In  In24  1  0.00000000  0.90509240  0.09490760  1
  In  In25  1  0.00000000  0.09490760  0.59490760  1
  In  In26  1  0.50000000  0.11976571  0.61976571  1
  In  In27  1  0.50000000  0.88023429  0.11976571  1
  In  In28  1  0.50000000  0.61976571  0.38023429  1
  In  In29  1  0.50000000  0.38023429  0.88023429  1
  In  In30  1  0.50000000  0.88023429  0.38023429  1
  In  In31  1  0.50000000  0.11976571  0.88023429  1
  In  In32  1  0.50000000  0.38023429  0.61976571  1
  In  In33  1  0.50000000  0.61976571  0.11976571  1
  In  In34  1  0.09299683  0.25000000  0.08343860  1
  In  In35  1  0.09299683  0.41656140  0.25000000  1
  In  In36  1  0.09299683  0.08343860  0.25000000  1
  In  In37  1  0.09299683  0.25000000  0.41656140  1
  In  In38  1  0.90700317  0.75000000  0.91656140  1
  In  In39  1  0.90700317  0.75000000  0.58343860  1
  In  In40  1  0.90700317  0.58343860  0.75000000  1
  In  In41  1  0.90700317  0.91656140  0.75000000  1
  In  In42  1  0.23461653  0.25000000  0.86598073  1
  In  In43  1  0.23461653  0.63401927  0.25000000  1
  In  In44  1  0.23461653  0.86598073  0.25000000  1
  In  In45  1  0.23461653  0.25000000  0.63401927  1
  In  In46  1  0.76538347  0.75000000  0.13401927  1
  In  In47  1  0.76538347  0.75000000  0.36598073  1
  In  In48  1  0.76538347  0.36598073  0.75000000  1
  In  In49  1  0.76538347  0.13401927  0.75000000  1
  In  In50  1  0.59021470  0.38193174  0.38193174  1
  In  In51  1  0.59021470  0.11806826  0.38193174  1
  In  In52  1  0.59021470  0.38193174  0.11806826  1
  In  In53  1  0.59021470  0.11806826  0.11806826  1
  In  In54  1  0.40978530  0.88193174  0.61806826  1
  In  In55  1  0.40978530  0.61806826  0.88193174  1
  In  In56  1  0.40978530  0.88193174  0.88193174  1
  In  In57  1  0.40978530  0.61806826  0.61806826  1
  Ho  Ho58  1  0.36326740  0.25000000  0.25000000  1
  Ho  Ho59  1  0.63673260  0.75000000  0.75000000  1
  Ho  Ho60  1  0.83523747  0.25000000  0.25000000  1
  Ho  Ho61  1  0.16476253  0.75000000  0.75000000  1
  Ho  Ho62  1  0.76812807  0.25000000  0.52671042  1
  Ho  Ho63  1  0.76812807  0.97328958  0.25000000  1
  Ho  Ho64  1  0.76812807  0.52671042  0.25000000  1
  Ho  Ho65  1  0.76812807  0.25000000  0.97328958  1
  Ho  Ho66  1  0.23187193  0.75000000  0.47328958  1
  Ho  Ho67  1  0.23187193  0.75000000  0.02671042  1
  Ho  Ho68  1  0.23187193  0.02671042  0.75000000  1
  Ho  Ho69  1  0.23187193  0.47328958  0.75000000  1
  Ho  Ho70  1  0.26839421  0.45339517  0.45339517  1
  Ho  Ho71  1  0.26839421  0.04660483  0.45339517  1
  Ho  Ho72  1  0.26839421  0.45339517  0.04660483  1
  Ho  Ho73  1  0.26839421  0.04660483  0.04660483  1
  Ho  Ho74  1  0.73160579  0.95339517  0.54660483  1
  Ho  Ho75  1  0.73160579  0.54660483  0.95339517  1
  Ho  Ho76  1  0.73160579  0.95339517  0.95339517  1
  Ho  Ho77  1  0.73160579  0.54660483  0.54660483  1
