# generated using pymatgen
data_HoSnPt
_symmetry_space_group_name_H-M   'P 1'
_cell_length_a   7.50919029
_cell_length_b   7.50919028
_cell_length_c   4.01569536
_cell_angle_alpha   90.00000000
_cell_angle_beta   90.00000000
_cell_angle_gamma   119.99999998
_symmetry_Int_Tables_number   1
_chemical_formula_structural   HoSnPt
_chemical_formula_sum   'Ho3 Sn3 Pt3'
_cell_volume   196.10000742
_cell_formula_units_Z   3
loop_
 _symmetry_equiv_pos_site_id
 _symmetry_equiv_pos_as_xyz
  1  'x, y, z'
loop_
 _atom_site_type_symbol
 _atom_site_label
 _atom_site_symmetry_multiplicity
 _atom_site_fract_x
 _atom_site_fract_y
 _atom_site_fract_z
 _atom_site_occupancy
  Sn  Sn0  1  0.00000000  0.25977918  0.00000000  1
  Sn  Sn1  1  0.74022082  0.74022082  0.00000000  1
  Sn  Sn2  1  0.25977918  0.00000000  0.00000000  1
  Ho  Ho3  1  0.40480246  0.40480246  0.50000000  1
  Ho  Ho4  1  0.59519754  0.00000000  0.50000000  1
  Ho  Ho5  1  0.00000000  0.59519754  0.50000000  1
  Pt  Pt6  1  0.66666667  0.33333333  0.00000000  1
  Pt  Pt7  1  0.00000000  0.00000000  0.50000000  1
  Pt  Pt8  1  0.33333333  0.66666667  0.00000000  1
