# generated using pymatgen
data_HoZn3
_symmetry_space_group_name_H-M   'P 1'
_cell_length_a   4.36730958
_cell_length_b   6.70660174
_cell_length_c   10.05352764
_cell_angle_alpha   90.00000000
_cell_angle_beta   90.00000000
_cell_angle_gamma   90.00000000
_symmetry_Int_Tables_number   1
_chemical_formula_structural   HoZn3
_chemical_formula_sum   'Ho4 Zn12'
_cell_volume   294.46587448
_cell_formula_units_Z   4
loop_
 _symmetry_equiv_pos_site_id
 _symmetry_equiv_pos_as_xyz
  1  'x, y, z'
loop_
 _atom_site_type_symbol
 _atom_site_label
 _atom_site_symmetry_multiplicity
 _atom_site_fract_x
 _atom_site_fract_y
 _atom_site_fract_z
 _atom_site_occupancy
  Zn  Zn0  1  0.25000000  0.03666580  0.60383770  1
  Zn  Zn1  1  0.75000000  0.96333420  0.39616230  1
  Zn  Zn2  1  0.25000000  0.53666580  0.89616230  1
  Zn  Zn3  1  0.75000000  0.46333420  0.10383770  1
  Zn  Zn4  1  0.75000000  0.78296699  0.95706628  1
  Zn  Zn5  1  0.25000000  0.21703301  0.04293372  1
  Zn  Zn6  1  0.75000000  0.28296699  0.54293372  1
  Zn  Zn7  1  0.25000000  0.71703301  0.45706628  1
  Zn  Zn8  1  0.75000000  0.08189331  0.14769306  1
  Zn  Zn9  1  0.25000000  0.91810669  0.85230694  1
  Zn  Zn10  1  0.75000000  0.58189331  0.35230694  1
  Zn  Zn11  1  0.25000000  0.41810669  0.64769306  1
  Ho  Ho12  1  0.25000000  0.78007999  0.16244920  1
  Ho  Ho13  1  0.75000000  0.21992001  0.83755080  1
  Ho  Ho14  1  0.25000000  0.28007999  0.33755080  1
  Ho  Ho15  1  0.75000000  0.71992001  0.66244920  1
