# generated using pymatgen
data_Ho5Sn3
_symmetry_space_group_name_H-M   'P 1'
_cell_length_a   8.92513582
_cell_length_b   8.92513583
_cell_length_c   6.53047965
_cell_angle_alpha   90.00000000
_cell_angle_beta   90.00000000
_cell_angle_gamma   119.99999998
_symmetry_Int_Tables_number   1
_chemical_formula_structural   Ho5Sn3
_chemical_formula_sum   'Ho10 Sn6'
_cell_volume   450.51097997
_cell_formula_units_Z   2
loop_
 _symmetry_equiv_pos_site_id
 _symmetry_equiv_pos_as_xyz
  1  'x, y, z'
loop_
 _atom_site_type_symbol
 _atom_site_label
 _atom_site_symmetry_multiplicity
 _atom_site_fract_x
 _atom_site_fract_y
 _atom_site_fract_z
 _atom_site_occupancy
  Sn  Sn0  1  0.39540669  0.00000000  0.75000000  1
  Sn  Sn1  1  0.39540669  0.39540669  0.25000000  1
  Sn  Sn2  1  0.00000000  0.60459331  0.25000000  1
  Sn  Sn3  1  0.00000000  0.39540669  0.75000000  1
  Sn  Sn4  1  0.60459331  0.60459331  0.75000000  1
  Sn  Sn5  1  0.60459331  0.00000000  0.25000000  1
  Ho  Ho6  1  0.00000000  0.76257873  0.75000000  1
  Ho  Ho7  1  0.00000000  0.23742127  0.25000000  1
  Ho  Ho8  1  0.76257873  0.76257873  0.25000000  1
  Ho  Ho9  1  0.76257873  0.00000000  0.75000000  1
  Ho  Ho10  1  0.23742127  0.23742127  0.75000000  1
  Ho  Ho11  1  0.23742127  0.00000000  0.25000000  1
  Ho  Ho12  1  0.33333333  0.66666667  0.50000000  1
  Ho  Ho13  1  0.66666667  0.33333333  0.00000000  1
  Ho  Ho14  1  0.66666667  0.33333333  0.50000000  1
  Ho  Ho15  1  0.33333333  0.66666667  0.00000000  1
