# generated using pymatgen
data_Ho5Rh3
_symmetry_space_group_name_H-M   'P 1'
_cell_length_a   8.21597016
_cell_length_b   8.21597016
_cell_length_c   6.29173921
_cell_angle_alpha   90.00000000
_cell_angle_beta   90.00000000
_cell_angle_gamma   119.99999998
_symmetry_Int_Tables_number   1
_chemical_formula_structural   Ho5Rh3
_chemical_formula_sum   'Ho10 Rh6'
_cell_volume   367.80620487
_cell_formula_units_Z   2
loop_
 _symmetry_equiv_pos_site_id
 _symmetry_equiv_pos_as_xyz
  1  'x, y, z'
loop_
 _atom_site_type_symbol
 _atom_site_label
 _atom_site_symmetry_multiplicity
 _atom_site_fract_x
 _atom_site_fract_y
 _atom_site_fract_z
 _atom_site_occupancy
  Rh  Rh0  1  0.39852973  0.00000000  0.75000000  1
  Rh  Rh1  1  0.39852973  0.39852973  0.25000000  1
  Rh  Rh2  1  0.00000000  0.60147027  0.25000000  1
  Rh  Rh3  1  0.00000000  0.39852973  0.75000000  1
  Rh  Rh4  1  0.60147027  0.60147027  0.75000000  1
  Rh  Rh5  1  0.60147027  0.00000000  0.25000000  1
  Ho  Ho6  1  0.00000000  0.75142055  0.75000000  1
  Ho  Ho7  1  0.00000000  0.24857945  0.25000000  1
  Ho  Ho8  1  0.75142055  0.75142055  0.25000000  1
  Ho  Ho9  1  0.75142055  0.00000000  0.75000000  1
  Ho  Ho10  1  0.24857945  0.24857945  0.75000000  1
  Ho  Ho11  1  0.24857945  0.00000000  0.25000000  1
  Ho  Ho12  1  0.33333333  0.66666667  0.50000000  1
  Ho  Ho13  1  0.66666667  0.33333333  0.00000000  1
  Ho  Ho14  1  0.66666667  0.33333333  0.50000000  1
  Ho  Ho15  1  0.33333333  0.66666667  0.00000000  1
