# generated using pymatgen
data_Zr5Ir3
_symmetry_space_group_name_H-M   'P 1'
_cell_length_a   7.99020260
_cell_length_b   7.99020260
_cell_length_c   17.22553754
_cell_angle_alpha   90.00000000
_cell_angle_beta   90.00000000
_cell_angle_gamma   120.00000001
_symmetry_Int_Tables_number   1
_chemical_formula_structural   Zr5Ir3
_chemical_formula_sum   'Zr30 Ir18'
_cell_volume   952.39914704
_cell_formula_units_Z   6
loop_
 _symmetry_equiv_pos_site_id
 _symmetry_equiv_pos_as_xyz
  1  'x, y, z'
loop_
 _atom_site_type_symbol
 _atom_site_label
 _atom_site_symmetry_multiplicity
 _atom_site_fract_x
 _atom_site_fract_y
 _atom_site_fract_z
 _atom_site_occupancy
  Zr  Zr0  1  0.23771924  0.23100283  0.82637033  1
  Zr  Zr1  1  0.76899717  0.00671641  0.15970366  1
  Zr  Zr2  1  0.99328359  0.76228076  0.49303700  1
  Zr  Zr3  1  0.00671641  0.23771924  0.99303700  1
  Zr  Zr4  1  0.76228076  0.99328359  0.84029634  1
  Zr  Zr5  1  0.76228076  0.76899717  0.32637033  1
  Zr  Zr6  1  0.23100283  0.99328359  0.65970366  1
  Zr  Zr7  1  0.76899717  0.76228076  0.00696300  1
  Zr  Zr8  1  0.99328359  0.23100283  0.67362967  1
  Zr  Zr9  1  0.00671641  0.76899717  0.17362967  1
  Zr  Zr10  1  0.23100283  0.23771924  0.50696300  1
  Zr  Zr11  1  0.23771924  0.00671641  0.34029634  1
  Zr  Zr12  1  0.34613676  0.69227352  0.75000000  1
  Zr  Zr13  1  0.65386324  0.34613676  0.91666667  1
  Zr  Zr14  1  0.69227352  0.34613676  0.58333333  1
  Zr  Zr15  1  0.30772648  0.65386324  0.08333333  1
  Zr  Zr16  1  0.34613676  0.65386324  0.41666667  1
  Zr  Zr17  1  0.65386324  0.30772648  0.25000000  1
  Zr  Zr18  1  0.24817712  0.00000000  0.00000000  1
  Zr  Zr19  1  0.24817712  0.24817712  0.16666667  1
  Zr  Zr20  1  0.00000000  0.75182288  0.83333333  1
  Zr  Zr21  1  0.00000000  0.24817712  0.33333333  1
  Zr  Zr22  1  0.75182288  0.75182288  0.66666667  1
  Zr  Zr23  1  0.75182288  0.00000000  0.50000000  1
  Zr  Zr24  1  0.37416920  0.74833839  0.25000000  1
  Zr  Zr25  1  0.62583080  0.37416920  0.41666667  1
  Zr  Zr26  1  0.74833839  0.37416920  0.08333333  1
  Zr  Zr27  1  0.25166161  0.62583080  0.58333333  1
  Zr  Zr28  1  0.37416920  0.62583080  0.91666667  1
  Zr  Zr29  1  0.62583080  0.25166161  0.75000000  1
  Ir  Ir30  1  0.41314497  0.39393064  0.02322565  1
  Ir  Ir31  1  0.60606936  0.01921433  0.35655898  1
  Ir  Ir32  1  0.98078567  0.58685503  0.68989232  1
  Ir  Ir33  1  0.01921433  0.41314497  0.18989232  1
  Ir  Ir34  1  0.58685503  0.98078567  0.64344102  1
  Ir  Ir35  1  0.58685503  0.60606936  0.52322565  1
  Ir  Ir36  1  0.39393064  0.98078567  0.85655898  1
  Ir  Ir37  1  0.60606936  0.58685503  0.81010768  1
  Ir  Ir38  1  0.98078567  0.39393064  0.47677435  1
  Ir  Ir39  1  0.01921433  0.60606936  0.97677435  1
  Ir  Ir40  1  0.39393064  0.41314497  0.31010768  1
  Ir  Ir41  1  0.41314497  0.01921433  0.14344102  1
  Ir  Ir42  1  0.38544349  0.00000000  0.50000000  1
  Ir  Ir43  1  0.38544349  0.38544349  0.66666667  1
  Ir  Ir44  1  0.00000000  0.61455651  0.33333333  1
  Ir  Ir45  1  0.00000000  0.38544349  0.83333333  1
  Ir  Ir46  1  0.61455651  0.61455651  0.16666667  1
  Ir  Ir47  1  0.61455651  0.00000000  0.00000000  1
