# generated using pymatgen
data_Zr3Ir
_symmetry_space_group_name_H-M   'P 1'
_cell_length_a   5.72767566
_cell_length_b   8.17484425
_cell_length_c   8.17484425
_cell_angle_alpha   82.95052491
_cell_angle_beta   69.49291358
_cell_angle_gamma   69.49291348
_symmetry_Int_Tables_number   1
_chemical_formula_structural   Zr3Ir
_chemical_formula_sum   'Zr12 Ir4'
_cell_volume   335.79364197
_cell_formula_units_Z   4
loop_
 _symmetry_equiv_pos_site_id
 _symmetry_equiv_pos_as_xyz
  1  'x, y, z'
loop_
 _atom_site_type_symbol
 _atom_site_label
 _atom_site_symmetry_multiplicity
 _atom_site_fract_x
 _atom_site_fract_y
 _atom_site_fract_z
 _atom_site_occupancy
  Zr  Zr0  1  0.95826100  0.00000000  0.58802752  1
  Zr  Zr1  1  0.45371149  0.58802752  0.00000000  1
  Zr  Zr2  1  0.04173900  0.41197248  0.00000000  1
  Zr  Zr3  1  0.54628851  0.00000000  0.41197248  1
  Zr  Zr4  1  0.85426386  0.64573614  0.64573614  1
  Zr  Zr5  1  0.50000000  0.64573614  0.35426386  1
  Zr  Zr6  1  0.50000000  0.35426386  0.64573614  1
  Zr  Zr7  1  0.14573614  0.35426386  0.35426386  1
  Zr  Zr8  1  0.35833381  0.00000000  0.80863586  1
  Zr  Zr9  1  0.83303033  0.80863586  0.00000000  1
  Zr  Zr10  1  0.64166619  0.19136414  0.00000000  1
  Zr  Zr11  1  0.16696967  0.00000000  0.19136414  1
  Ir  Ir12  1  0.70791631  0.29208369  0.29208369  1
  Ir  Ir13  1  0.00000000  0.29208369  0.70791631  1
  Ir  Ir14  1  0.00000000  0.70791631  0.29208369  1
  Ir  Ir15  1  0.29208369  0.70791631  0.70791631  1
