# generated using pymatgen
data_La5Sn4
_symmetry_space_group_name_H-M   'P 1'
_cell_length_a   8.55408765
_cell_length_b   8.64158241
_cell_length_c   16.34543453
_cell_angle_alpha   90.00000000
_cell_angle_beta   90.00000000
_cell_angle_gamma   90.00000000
_symmetry_Int_Tables_number   1
_chemical_formula_structural   La5Sn4
_chemical_formula_sum   'La20 Sn16'
_cell_volume   1208.26846916
_cell_formula_units_Z   4
loop_
 _symmetry_equiv_pos_site_id
 _symmetry_equiv_pos_as_xyz
  1  'x, y, z'
loop_
 _atom_site_type_symbol
 _atom_site_label
 _atom_site_symmetry_multiplicity
 _atom_site_fract_x
 _atom_site_fract_y
 _atom_site_fract_z
 _atom_site_occupancy
  Sn  Sn0  1  0.78038805  0.46880211  0.45608784  1
  Sn  Sn1  1  0.28038805  0.03119789  0.04391216  1
  Sn  Sn2  1  0.71961195  0.96880211  0.54391216  1
  Sn  Sn3  1  0.21961195  0.53119789  0.95608784  1
  Sn  Sn4  1  0.21961195  0.53119789  0.54391216  1
  Sn  Sn5  1  0.71961195  0.96880211  0.95608784  1
  Sn  Sn6  1  0.28038805  0.03119789  0.45608784  1
  Sn  Sn7  1  0.78038805  0.46880211  0.04391216  1
  Sn  Sn8  1  0.17162133  0.63816083  0.25000000  1
  Sn  Sn9  1  0.67162133  0.86183917  0.25000000  1
  Sn  Sn10  1  0.32837867  0.13816083  0.75000000  1
  Sn  Sn11  1  0.82837867  0.36183917  0.75000000  1
  Sn  Sn12  1  0.91841922  0.11406662  0.25000000  1
  Sn  Sn13  1  0.41841922  0.38593338  0.25000000  1
  Sn  Sn14  1  0.58158078  0.61406662  0.75000000  1
  Sn  Sn15  1  0.08158078  0.88593338  0.75000000  1
  La  La16  1  0.97382315  0.81962014  0.10105748  1
  La  La17  1  0.47382315  0.68037986  0.39894252  1
  La  La18  1  0.52617685  0.31962014  0.89894252  1
  La  La19  1  0.02617685  0.18037986  0.60105748  1
  La  La20  1  0.97382315  0.81962014  0.39894252  1
  La  La21  1  0.47382315  0.68037986  0.10105748  1
  La  La22  1  0.52617685  0.31962014  0.60105748  1
  La  La23  1  0.02617685  0.18037986  0.89894252  1
  La  La24  1  0.88066493  0.66148300  0.61696143  1
  La  La25  1  0.38066493  0.83851700  0.88303857  1
  La  La26  1  0.61933507  0.16148300  0.38303857  1
  La  La27  1  0.11933507  0.33851700  0.11696143  1
  La  La28  1  0.11933507  0.33851700  0.38303857  1
  La  La29  1  0.61933507  0.16148300  0.11696143  1
  La  La30  1  0.38066493  0.83851700  0.61696143  1
  La  La31  1  0.88066493  0.66148300  0.88303857  1
  La  La32  1  0.28948702  0.00334818  0.25000000  1
  La  La33  1  0.78948702  0.49665182  0.25000000  1
  La  La34  1  0.21051298  0.50334818  0.75000000  1
  La  La35  1  0.71051298  0.99665182  0.75000000  1
