# generated using pymatgen
data_La2Mg17
_symmetry_space_group_name_H-M   'P 1'
_cell_length_a   10.35945043
_cell_length_b   10.35945043
_cell_length_c   10.17587044
_cell_angle_alpha   90.00000000
_cell_angle_beta   90.00000000
_cell_angle_gamma   120.00000003
_symmetry_Int_Tables_number   1
_chemical_formula_structural   La2Mg17
_chemical_formula_sum   'La4 Mg34'
_cell_volume   945.74844040
_cell_formula_units_Z   2
loop_
 _symmetry_equiv_pos_site_id
 _symmetry_equiv_pos_as_xyz
  1  'x, y, z'
loop_
 _atom_site_type_symbol
 _atom_site_label
 _atom_site_symmetry_multiplicity
 _atom_site_fract_x
 _atom_site_fract_y
 _atom_site_fract_z
 _atom_site_occupancy
  Mg  Mg0  1  0.16234861  0.83765139  0.52134327  1
  Mg  Mg1  1  0.16234861  0.32469721  0.52134327  1
  Mg  Mg2  1  0.67530279  0.83765139  0.52134327  1
  Mg  Mg3  1  0.32469721  0.16234861  0.02134327  1
  Mg  Mg4  1  0.33333333  0.66666667  0.10094657  1
  Mg  Mg5  1  0.66666667  0.33333333  0.60094657  1
  Mg  Mg6  1  0.66666667  0.33333333  0.89905343  1
  Mg  Mg7  1  0.33333333  0.66666667  0.39905343  1
  Mg  Mg8  1  0.50000000  0.00000000  0.00000000  1
  Mg  Mg9  1  0.50000000  0.50000000  0.50000000  1
  Mg  Mg10  1  0.00000000  0.50000000  0.50000000  1
  Mg  Mg11  1  0.00000000  0.50000000  0.00000000  1
  Mg  Mg12  1  0.50000000  0.50000000  0.00000000  1
  Mg  Mg13  1  0.50000000  0.00000000  0.50000000  1
  Mg  Mg14  1  0.32840300  0.96434911  0.25000000  1
  Mg  Mg15  1  0.36405389  0.32840300  0.75000000  1
  Mg  Mg16  1  0.96434911  0.63594611  0.75000000  1
  Mg  Mg17  1  0.03565089  0.36405389  0.25000000  1
  Mg  Mg18  1  0.63594611  0.67159700  0.25000000  1
  Mg  Mg19  1  0.36405389  0.03565089  0.75000000  1
  Mg  Mg20  1  0.67159700  0.63594611  0.75000000  1
  Mg  Mg21  1  0.67159700  0.03565089  0.75000000  1
  Mg  Mg22  1  0.96434911  0.32840300  0.75000000  1
  Mg  Mg23  1  0.03565089  0.67159700  0.25000000  1
  Mg  Mg24  1  0.63594611  0.96434911  0.25000000  1
  Mg  Mg25  1  0.32840300  0.36405389  0.25000000  1
  Mg  Mg26  1  0.16234861  0.32469721  0.97865673  1
  Mg  Mg27  1  0.83765139  0.16234861  0.47865673  1
  Mg  Mg28  1  0.32469721  0.16234861  0.47865673  1
  Mg  Mg29  1  0.67530279  0.83765139  0.97865673  1
  Mg  Mg30  1  0.16234861  0.83765139  0.97865673  1
  Mg  Mg31  1  0.83765139  0.67530279  0.02134327  1
  Mg  Mg32  1  0.83765139  0.16234861  0.02134327  1
  Mg  Mg33  1  0.83765139  0.67530279  0.47865673  1
  La  La34  1  0.66666667  0.33333333  0.25000000  1
  La  La35  1  0.33333333  0.66666667  0.75000000  1
  La  La36  1  0.00000000  0.00000000  0.75000000  1
  La  La37  1  0.00000000  0.00000000  0.25000000  1
