# generated using pymatgen
data_Gd2CdS4
_symmetry_space_group_name_H-M   'P 1'
_cell_length_a   7.33415600
_cell_length_b   7.33415525
_cell_length_c   7.33415523
_cell_angle_alpha   110.40187481
_cell_angle_beta   110.40187305
_cell_angle_gamma   107.62552889
_symmetry_Int_Tables_number   1
_chemical_formula_structural   Gd2CdS4
_chemical_formula_sum   'Gd4 Cd2 S8'
_cell_volume   303.45316502
_cell_formula_units_Z   2
loop_
 _symmetry_equiv_pos_site_id
 _symmetry_equiv_pos_as_xyz
  1  'x, y, z'
loop_
 _atom_site_type_symbol
 _atom_site_label
 _atom_site_symmetry_multiplicity
 _atom_site_fract_x
 _atom_site_fract_y
 _atom_site_fract_z
 _atom_site_occupancy
  Gd  Gd0  1  0.11071862  0.75000000  0.86071862  1
  Gd  Gd1  1  0.25000000  0.61071862  0.36071862  1
  Gd  Gd2  1  0.38928138  0.25000000  0.63928138  1
  Gd  Gd3  1  0.75000000  0.88928138  0.13928138  1
  Cd  Cd4  1  0.62500000  0.37500000  0.25000000  1
  Cd  Cd5  1  0.87500000  0.12500000  0.75000000  1
  S  S6  1  0.00979674  0.88549190  0.51136168  1
  S  S7  1  0.99843506  0.37413022  0.48863832  1
  S  S8  1  0.50156494  0.99020326  0.37569516  1
  S  S9  1  0.11450810  0.12586978  0.12430484  1
  S  S10  1  0.38549190  0.50979674  0.01136168  1
  S  S11  1  0.49020326  0.00156494  0.87569516  1
  S  S12  1  0.62586978  0.61450810  0.62430484  1
  S  S13  1  0.87413022  0.49843506  0.98863832  1
