# generated using pymatgen
data_LaTlPd
_symmetry_space_group_name_H-M   'P 1'
_cell_length_a   8.04197687
_cell_length_b   8.04197686
_cell_length_c   4.03666120
_cell_angle_alpha   90.00000000
_cell_angle_beta   90.00000000
_cell_angle_gamma   119.99999999
_symmetry_Int_Tables_number   1
_chemical_formula_structural   LaTlPd
_chemical_formula_sum   'La3 Tl3 Pd3'
_cell_volume   226.08855124
_cell_formula_units_Z   3
loop_
 _symmetry_equiv_pos_site_id
 _symmetry_equiv_pos_as_xyz
  1  'x, y, z'
loop_
 _atom_site_type_symbol
 _atom_site_label
 _atom_site_symmetry_multiplicity
 _atom_site_fract_x
 _atom_site_fract_y
 _atom_site_fract_z
 _atom_site_occupancy
  Pd  Pd0  1  0.33333333  0.66666667  0.00000000  1
  Pd  Pd1  1  0.66666667  0.33333333  0.00000000  1
  Pd  Pd2  1  0.00000000  0.00000000  0.50000000  1
  La  La3  1  0.59097018  0.00000000  0.50000000  1
  La  La4  1  0.40902982  0.40902982  0.50000000  1
  La  La5  1  0.00000000  0.59097018  0.50000000  1
  Tl  Tl6  1  0.25768471  0.00000000  0.00000000  1
  Tl  Tl7  1  0.74231529  0.74231529  0.00000000  1
  Tl  Tl8  1  0.00000000  0.25768471  0.00000000  1
