# generated using pymatgen
data_La2Sn5Rh3
_symmetry_space_group_name_H-M   'P 1'
_cell_length_a   6.47363546
_cell_length_b   9.12301860
_cell_length_c   9.12301860
_cell_angle_alpha   73.89346546
_cell_angle_beta   69.21900926
_cell_angle_gamma   69.21900929
_symmetry_Int_Tables_number   1
_chemical_formula_structural   La2Sn5Rh3
_chemical_formula_sum   'La4 Sn10 Rh6'
_cell_volume   463.84121916
_cell_formula_units_Z   2
loop_
 _symmetry_equiv_pos_site_id
 _symmetry_equiv_pos_as_xyz
  1  'x, y, z'
loop_
 _atom_site_type_symbol
 _atom_site_label
 _atom_site_symmetry_multiplicity
 _atom_site_fract_x
 _atom_site_fract_y
 _atom_site_fract_z
 _atom_site_occupancy
  Rh  Rh0  1  0.14123722  0.96353385  0.75399172  1
  Rh  Rh1  1  0.35876278  0.24600828  0.03646615  1
  Rh  Rh2  1  0.64123722  0.75399172  0.96353385  1
  Rh  Rh3  1  0.85876278  0.03646615  0.24600828  1
  Rh  Rh4  1  0.75000000  0.50000000  0.50000000  1
  Rh  Rh5  1  0.25000000  0.50000000  0.50000000  1
  Sn  Sn6  1  0.91282210  0.75460347  0.41975232  1
  Sn  Sn7  1  0.41282210  0.41975232  0.75460347  1
  Sn  Sn8  1  0.08717790  0.24539653  0.58024768  1
  Sn  Sn9  1  0.58717790  0.58024768  0.24539653  1
  Sn  Sn10  1  0.75000000  0.00000000  0.00000000  1
  Sn  Sn11  1  0.25000000  0.00000000  0.00000000  1
  Sn  Sn12  1  0.47144584  0.27855416  0.27855416  1
  Sn  Sn13  1  0.02855416  0.72144584  0.72144584  1
  Sn  Sn14  1  0.52855416  0.72144584  0.72144584  1
  Sn  Sn15  1  0.97144584  0.27855416  0.27855416  1
  La  La16  1  0.14386483  0.62737286  0.08489748  1
  La  La17  1  0.85613517  0.37262714  0.91510252  1
  La  La18  1  0.35613517  0.91510252  0.37262714  1
  La  La19  1  0.64386483  0.08489748  0.62737286  1
