# generated using pymatgen
data_CeAl4Ni
_symmetry_space_group_name_H-M   'P 1'
_cell_length_a   4.12011510
_cell_length_b   6.59465248
_cell_length_c   8.06557428
_cell_angle_alpha   90.00000000
_cell_angle_beta   104.79809560
_cell_angle_gamma   90.00000000
_symmetry_Int_Tables_number   1
_chemical_formula_structural   CeAl4Ni
_chemical_formula_sum   'Ce2 Al8 Ni2'
_cell_volume   211.87880737
_cell_formula_units_Z   2
loop_
 _symmetry_equiv_pos_site_id
 _symmetry_equiv_pos_as_xyz
  1  'x, y, z'
loop_
 _atom_site_type_symbol
 _atom_site_label
 _atom_site_symmetry_multiplicity
 _atom_site_fract_x
 _atom_site_fract_y
 _atom_site_fract_z
 _atom_site_occupancy
  Al  Al0  1  0.50000000  0.00000000  0.00000000  1
  Al  Al1  1  0.50000000  0.50000000  0.00000000  1
  Al  Al2  1  0.07738293  0.25000000  0.15476586  1
  Al  Al3  1  0.92261707  0.75000000  0.84523414  1
  Al  Al4  1  0.68919322  0.05246434  0.37838644  1
  Al  Al5  1  0.31080678  0.94753566  0.62161356  1
  Al  Al6  1  0.31080678  0.55246434  0.62161356  1
  Al  Al7  1  0.68919322  0.44753566  0.37838644  1
  Ni  Ni8  1  0.77399293  0.75000000  0.54798586  1
  Ni  Ni9  1  0.22600707  0.25000000  0.45201414  1
  Ce  Ce10  1  0.11448192  0.75000000  0.22896383  1
  Ce  Ce11  1  0.88551808  0.25000000  0.77103617  1
