# generated using pymatgen
data_Ti3P
_symmetry_space_group_name_H-M   'P 1'
_cell_length_a   4.98601020
_cell_length_b   9.95735959
_cell_length_c   9.95735959
_cell_angle_alpha   90.00000000
_cell_angle_beta   90.00000000
_cell_angle_gamma   90.00000000
_symmetry_Int_Tables_number   1
_chemical_formula_structural   Ti3P
_chemical_formula_sum   'Ti24 P8'
_cell_volume   494.35797520
_cell_formula_units_Z   8
loop_
 _symmetry_equiv_pos_site_id
 _symmetry_equiv_pos_as_xyz
  1  'x, y, z'
loop_
 _atom_site_type_symbol
 _atom_site_label
 _atom_site_symmetry_multiplicity
 _atom_site_fract_x
 _atom_site_fract_y
 _atom_site_fract_z
 _atom_site_occupancy
  Ti  Ti0  1  0.28478349  0.83330477  0.14292904  1
  Ti  Ti1  1  0.28478349  0.66669523  0.35707096  1
  Ti  Ti2  1  0.78478349  0.64292904  0.16669523  1
  Ti  Ti3  1  0.78478349  0.85707096  0.33330477  1
  Ti  Ti4  1  0.71521651  0.16669523  0.85707096  1
  Ti  Ti5  1  0.71521651  0.33330477  0.64292904  1
  Ti  Ti6  1  0.21521651  0.35707096  0.83330477  1
  Ti  Ti7  1  0.21521651  0.14292904  0.66669523  1
  Ti  Ti8  1  0.96910030  0.27827324  0.11066963  1
  Ti  Ti9  1  0.96910030  0.22172676  0.38933037  1
  Ti  Ti10  1  0.46910030  0.61066963  0.72172676  1
  Ti  Ti11  1  0.46910030  0.88933037  0.77827324  1
  Ti  Ti12  1  0.03089970  0.72172676  0.88933037  1
  Ti  Ti13  1  0.03089970  0.77827324  0.61066963  1
  Ti  Ti14  1  0.53089970  0.38933037  0.27827324  1
  Ti  Ti15  1  0.53089970  0.11066963  0.22172676  1
  Ti  Ti16  1  0.24002487  0.43066449  0.53344244  1
  Ti  Ti17  1  0.24002487  0.06933551  0.96655756  1
  Ti  Ti18  1  0.74002487  0.03344244  0.56933551  1
  Ti  Ti19  1  0.74002487  0.46655756  0.93066449  1
  Ti  Ti20  1  0.75997513  0.56933551  0.46655756  1
  Ti  Ti21  1  0.75997513  0.93066449  0.03344244  1
  Ti  Ti22  1  0.25997513  0.96655756  0.43066449  1
  Ti  Ti23  1  0.25997513  0.53344244  0.06933551  1
  P  P24  1  0.46464352  0.29176152  0.04318746  1
  P  P25  1  0.46464352  0.20823848  0.45681254  1
  P  P26  1  0.96464352  0.54318746  0.70823848  1
  P  P27  1  0.96464352  0.95681254  0.79176152  1
  P  P28  1  0.53535648  0.70823848  0.95681254  1
  P  P29  1  0.53535648  0.79176152  0.54318746  1
  P  P30  1  0.03535648  0.45681254  0.29176152  1
  P  P31  1  0.03535648  0.04318746  0.20823848  1
