# generated using pymatgen
data_Mg29Ir4
_symmetry_space_group_name_H-M   'P 1'
_cell_length_a   14.20899833
_cell_length_b   14.20899813
_cell_length_c   14.20899779
_cell_angle_alpha   59.99999850
_cell_angle_beta   59.99999896
_cell_angle_gamma   60.00000019
_symmetry_Int_Tables_number   1
_chemical_formula_structural   Mg29Ir4
_chemical_formula_sum   'Mg87 Ir12'
_cell_volume   2028.50163313
_cell_formula_units_Z   3
loop_
 _symmetry_equiv_pos_site_id
 _symmetry_equiv_pos_as_xyz
  1  'x, y, z'
loop_
 _atom_site_type_symbol
 _atom_site_label
 _atom_site_symmetry_multiplicity
 _atom_site_fract_x
 _atom_site_fract_y
 _atom_site_fract_z
 _atom_site_occupancy
  Mg  Mg0  1  0.15951522  0.15951522  0.94317776  1
  Mg  Mg1  1  0.15951522  0.94317776  0.73779179  1
  Mg  Mg2  1  0.73779179  0.15951522  0.15951522  1
  Mg  Mg3  1  0.15951522  0.73779179  0.15951522  1
  Mg  Mg4  1  0.94317776  0.15951522  0.73779179  1
  Mg  Mg5  1  0.94317776  0.73779179  0.15951522  1
  Mg  Mg6  1  0.73779179  0.94317776  0.15951522  1
  Mg  Mg7  1  0.94317776  0.15951522  0.15951522  1
  Mg  Mg8  1  0.15951522  0.94317776  0.15951522  1
  Mg  Mg9  1  0.73779179  0.15951522  0.94317776  1
  Mg  Mg10  1  0.15951522  0.73779179  0.94317776  1
  Mg  Mg11  1  0.15951522  0.15951522  0.73779179  1
  Mg  Mg12  1  0.76886739  0.76886739  0.43117096  1
  Mg  Mg13  1  0.76886739  0.43117096  0.03109426  1
  Mg  Mg14  1  0.03109426  0.76886739  0.76886739  1
  Mg  Mg15  1  0.76886739  0.03109426  0.76886739  1
  Mg  Mg16  1  0.43117096  0.76886739  0.03109426  1
  Mg  Mg17  1  0.43117096  0.03109426  0.76886739  1
  Mg  Mg18  1  0.03109426  0.43117096  0.76886739  1
  Mg  Mg19  1  0.43117096  0.76886739  0.76886739  1
  Mg  Mg20  1  0.76886739  0.43117096  0.76886739  1
  Mg  Mg21  1  0.03109426  0.76886739  0.43117096  1
  Mg  Mg22  1  0.76886739  0.03109426  0.43117096  1
  Mg  Mg23  1  0.76886739  0.76886739  0.03109426  1
  Mg  Mg24  1  0.28395669  0.28395669  0.93060484  1
  Mg  Mg25  1  0.28395669  0.93060484  0.50148178  1
  Mg  Mg26  1  0.50148178  0.28395669  0.28395669  1
  Mg  Mg27  1  0.28395669  0.50148178  0.28395669  1
  Mg  Mg28  1  0.93060484  0.28395669  0.50148178  1
  Mg  Mg29  1  0.93060484  0.50148178  0.28395669  1
  Mg  Mg30  1  0.50148178  0.93060484  0.28395669  1
  Mg  Mg31  1  0.93060484  0.28395669  0.28395669  1
  Mg  Mg32  1  0.28395669  0.93060484  0.28395669  1
  Mg  Mg33  1  0.50148178  0.28395669  0.93060484  1
  Mg  Mg34  1  0.28395669  0.50148178  0.93060484  1
  Mg  Mg35  1  0.28395669  0.28395669  0.50148178  1
  Mg  Mg36  1  0.52094643  0.52094643  0.78546633  1
  Mg  Mg37  1  0.52094643  0.78546633  0.17264080  1
  Mg  Mg38  1  0.17264080  0.52094643  0.52094643  1
  Mg  Mg39  1  0.52094643  0.17264080  0.52094643  1
  Mg  Mg40  1  0.78546633  0.52094643  0.17264080  1
  Mg  Mg41  1  0.78546633  0.17264080  0.52094643  1
  Mg  Mg42  1  0.17264080  0.78546633  0.52094643  1
  Mg  Mg43  1  0.78546633  0.52094643  0.52094643  1
  Mg  Mg44  1  0.52094643  0.78546633  0.52094643  1
  Mg  Mg45  1  0.17264080  0.52094643  0.78546633  1
  Mg  Mg46  1  0.52094643  0.17264080  0.78546633  1
  Mg  Mg47  1  0.52094643  0.52094643  0.17264080  1
  Mg  Mg48  1  0.01971199  0.01971199  0.36623066  1
  Mg  Mg49  1  0.01971199  0.36623066  0.59434536  1
  Mg  Mg50  1  0.59434536  0.01971199  0.01971199  1
  Mg  Mg51  1  0.01971199  0.59434536  0.01971199  1
  Mg  Mg52  1  0.36623066  0.01971199  0.59434536  1
  Mg  Mg53  1  0.36623066  0.59434536  0.01971199  1
  Mg  Mg54  1  0.59434536  0.36623066  0.01971199  1
  Mg  Mg55  1  0.36623066  0.01971199  0.01971199  1
  Mg  Mg56  1  0.01971199  0.36623066  0.01971199  1
  Mg  Mg57  1  0.59434536  0.01971199  0.36623066  1
  Mg  Mg58  1  0.01971199  0.59434536  0.36623066  1
  Mg  Mg59  1  0.01971199  0.01971199  0.59434536  1
  Mg  Mg60  1  0.35662346  0.14337654  0.14337654  1
  Mg  Mg61  1  0.14337654  0.14337654  0.35662346  1
  Mg  Mg62  1  0.35662346  0.35662346  0.14337654  1
  Mg  Mg63  1  0.14337654  0.35662346  0.35662346  1
  Mg  Mg64  1  0.14337654  0.35662346  0.14337654  1
  Mg  Mg65  1  0.35662346  0.14337654  0.35662346  1
  Mg  Mg66  1  0.86646459  0.63353541  0.63353541  1
  Mg  Mg67  1  0.63353541  0.63353541  0.86646459  1
  Mg  Mg68  1  0.86646459  0.86646459  0.63353541  1
  Mg  Mg69  1  0.63353541  0.86646459  0.86646459  1
  Mg  Mg70  1  0.63353541  0.86646459  0.63353541  1
  Mg  Mg71  1  0.86646459  0.63353541  0.86646459  1
  Mg  Mg72  1  0.68004555  0.31995445  0.31995445  1
  Mg  Mg73  1  0.31995445  0.31995445  0.68004555  1
  Mg  Mg74  1  0.68004555  0.68004555  0.31995445  1
  Mg  Mg75  1  0.31995445  0.68004555  0.68004555  1
  Mg  Mg76  1  0.31995445  0.68004555  0.31995445  1
  Mg  Mg77  1  0.68004555  0.31995445  0.68004555  1
  Mg  Mg78  1  0.55156233  0.55156233  0.55156233  1
  Mg  Mg79  1  0.55156233  0.55156233  0.34531302  1
  Mg  Mg80  1  0.34531302  0.55156233  0.55156233  1
  Mg  Mg81  1  0.55156233  0.34531302  0.55156233  1
  Mg  Mg82  1  0.91502937  0.91502937  0.91502937  1
  Mg  Mg83  1  0.91502937  0.91502937  0.25491189  1
  Mg  Mg84  1  0.25491189  0.91502937  0.91502937  1
  Mg  Mg85  1  0.91502937  0.25491189  0.91502937  1
  Mg  Mg86  1  0.00000000  0.00000000  0.00000000  1
  Ir  Ir87  1  0.15041723  0.15041723  0.15041723  1
  Ir  Ir88  1  0.15041723  0.15041723  0.54874832  1
  Ir  Ir89  1  0.54874832  0.15041723  0.15041723  1
  Ir  Ir90  1  0.15041723  0.54874832  0.15041723  1
  Ir  Ir91  1  0.41768348  0.41768348  0.41768348  1
  Ir  Ir92  1  0.41768348  0.41768348  0.74694956  1
  Ir  Ir93  1  0.74694956  0.41768348  0.41768348  1
  Ir  Ir94  1  0.41768348  0.74694956  0.41768348  1
  Ir  Ir95  1  0.65500789  0.65500789  0.65500789  1
  Ir  Ir96  1  0.65500789  0.65500789  0.03497634  1
  Ir  Ir97  1  0.03497634  0.65500789  0.65500789  1
  Ir  Ir98  1  0.65500789  0.03497634  0.65500789  1
