# generated using pymatgen
data_KPb2Br5
_symmetry_space_group_name_H-M   'P 1'
_cell_length_a   8.63404657
_cell_length_b   9.38485960
_cell_length_c   13.33691492
_cell_angle_alpha   89.76387297
_cell_angle_beta   90.00000000
_cell_angle_gamma   90.00000000
_symmetry_Int_Tables_number   1
_chemical_formula_structural   KPb2Br5
_chemical_formula_sum   'K4 Pb8 Br20'
_cell_volume   1080.67190109
_cell_formula_units_Z   4
loop_
 _symmetry_equiv_pos_site_id
 _symmetry_equiv_pos_as_xyz
  1  'x, y, z'
loop_
 _atom_site_type_symbol
 _atom_site_label
 _atom_site_symmetry_multiplicity
 _atom_site_fract_x
 _atom_site_fract_y
 _atom_site_fract_z
 _atom_site_occupancy
  K  K0  1  0.94908240  0.49032495  0.82728025  1
  K  K1  1  0.44908240  0.50967505  0.67271975  1
  K  K2  1  0.05091760  0.50967505  0.17271975  1
  K  K3  1  0.55091760  0.49032495  0.32728025  1
  Br  Br4  1  0.18502181  0.23524601  0.71654013  1
  Br  Br5  1  0.85205828  0.23690567  0.31165762  1
  Br  Br6  1  0.35205828  0.76309433  0.18834238  1
  Br  Br7  1  0.14794172  0.76309433  0.68834238  1
  Br  Br8  1  0.64794172  0.23690567  0.81165762  1
  Br  Br9  1  0.81497819  0.76475399  0.28345987  1
  Br  Br10  1  0.31497819  0.23524601  0.21654013  1
  Br  Br11  1  0.95774041  0.78045752  0.00290867  1
  Br  Br12  1  0.83793380  0.03986218  0.60210466  1
  Br  Br13  1  0.33793380  0.96013782  0.89789534  1
  Br  Br14  1  0.16206620  0.96013782  0.39789534  1
  Br  Br15  1  0.66206620  0.03986218  0.10210466  1
  Br  Br16  1  0.04225959  0.21954248  0.99709133  1
  Br  Br17  1  0.45774041  0.21954248  0.49709133  1
  Br  Br18  1  0.67922845  0.46068731  0.07927512  1
  Br  Br19  1  0.54225959  0.78045752  0.50290867  1
  Br  Br20  1  0.82077155  0.46068731  0.57927512  1
  Br  Br21  1  0.32077155  0.53931269  0.92072488  1
  Br  Br22  1  0.17922845  0.53931269  0.42072488  1
  Br  Br23  1  0.68502181  0.76475399  0.78345987  1
  Pb  Pb24  1  1.00903025  0.98632899  0.82470609  1
  Pb  Pb25  1  0.93463073  0.74407520  0.50411849  1
  Pb  Pb26  1  0.43463073  0.25592480  0.99588151  1
  Pb  Pb27  1  0.06536927  0.25592480  0.49588151  1
  Pb  Pb28  1  0.56536927  0.74407520  0.00411849  1
  Pb  Pb29  1  0.49096975  0.98632899  0.32470609  1
  Pb  Pb30  1  -0.00903025  0.01367101  0.17529391  1
  Pb  Pb31  1  0.50903025  0.01367101  0.67529391  1
