# generated using pymatgen
data_Na4Ge9O20
_symmetry_space_group_name_H-M   'P 1'
_cell_length_a   7.51088248
_cell_length_b   11.41774551
_cell_length_c   11.41774551
_cell_angle_alpha   83.78938429
_cell_angle_beta   70.79720725
_cell_angle_gamma   70.79720731
_symmetry_Int_Tables_number   1
_chemical_formula_structural   Na4Ge9O20
_chemical_formula_sum   'Na8 Ge18 O40'
_cell_volume   873.22701609
_cell_formula_units_Z   2
loop_
 _symmetry_equiv_pos_site_id
 _symmetry_equiv_pos_as_xyz
  1  'x, y, z'
loop_
 _atom_site_type_symbol
 _atom_site_label
 _atom_site_symmetry_multiplicity
 _atom_site_fract_x
 _atom_site_fract_y
 _atom_site_fract_z
 _atom_site_occupancy
  O  O0  1  0.65097678  0.45377715  0.23603149  1
  O  O1  1  0.88700827  0.26396851  0.45377715  1
  O  O2  1  0.60475394  0.23603149  0.04622285  1
  O  O3  1  0.34078543  0.04622285  0.26396851  1
  O  O4  1  0.34902322  0.54622285  0.76396851  1
  O  O5  1  0.11299173  0.73603149  0.54622285  1
  O  O6  1  0.39524606  0.76396851  0.95377715  1
  O  O7  1  0.65921457  0.95377715  0.73603149  1
  O  O8  1  0.26630756  0.51964686  0.42892278  1
  O  O9  1  0.69523034  0.07107722  0.51964686  1
  O  O10  1  0.28595442  0.42892278  0.98035314  1
  O  O11  1  0.21487720  0.98035314  0.07107722  1
  O  O12  1  0.73369244  0.48035314  0.57107722  1
  O  O13  1  0.30476966  0.92892278  0.48035314  1
  O  O14  1  0.71404558  0.57107722  0.01964686  1
  O  O15  1  0.78512280  0.01964686  0.92892278  1
  O  O16  1  0.28051577  0.38313130  0.23833561  1
  O  O17  1  0.51885138  0.26166439  0.38313130  1
  O  O18  1  0.16364707  0.23833561  0.11686870  1
  O  O19  1  0.90198268  0.11686870  0.26166439  1
  O  O20  1  0.71948423  0.61686870  0.76166439  1
  O  O21  1  0.48114862  0.73833561  0.61686870  1
  O  O22  1  0.83635293  0.76166439  0.88313130  1
  O  O23  1  0.09801732  0.88313130  0.73833561  1
  O  O24  1  0.33341085  0.64201897  0.19717045  1
  O  O25  1  0.53058130  0.30282955  0.64201897  1
  O  O26  1  0.33639315  0.11868060  0.69606141  1
  O  O27  1  0.03245456  0.80393859  0.11868060  1
  O  O28  1  0.95507375  0.69606141  0.38131940  1
  O  O29  1  0.15113515  0.38131940  0.80393859  1
  O  O30  1  0.66360685  0.88131940  0.30393859  1
  O  O31  1  0.96754544  0.19606141  0.88131940  1
  O  O32  1  0.04492625  0.30393859  0.61868060  1
  O  O33  1  0.84886485  0.61868060  0.19606141  1
  O  O34  1  0.82739973  0.14201897  0.69717045  1
  O  O35  1  0.52457018  0.80282955  0.14201897  1
  O  O36  1  0.46941870  0.69717045  0.35798103  1
  O  O37  1  0.66658915  0.35798103  0.80282955  1
  O  O38  1  0.17260027  0.85798103  0.30282955  1
  O  O39  1  0.47542982  0.19717045  0.85798103  1
  Na  Na40  1  0.25634390  0.96897160  0.85786778  1
  Na  Na41  1  0.11421168  0.64213222  0.96897160  1
  Na  Na42  1  0.72531550  0.85786778  0.53102840  1
  Na  Na43  1  0.08318328  0.53102840  0.64213222  1
  Na  Na44  1  0.74365610  0.03102840  0.14213222  1
  Na  Na45  1  0.88578832  0.35786778  0.03102840  1
  Na  Na46  1  0.27468450  0.14213222  0.46897160  1
  Na  Na47  1  0.91681672  0.46897160  0.35786778  1
  Ge  Ge48  1  0.43695001  0.40977715  0.31580850  1
  Ge  Ge49  1  0.75275851  0.18419150  0.40977715  1
  Ge  Ge50  1  0.34672716  0.31580850  0.09022285  1
  Ge  Ge51  1  0.16253566  0.09022285  0.18419150  1
  Ge  Ge52  1  0.56304999  0.59022285  0.68419150  1
  Ge  Ge53  1  0.24724149  0.81580850  0.59022285  1
  Ge  Ge54  1  0.65327284  0.68419150  0.90977715  1
  Ge  Ge55  1  0.83746434  0.90977715  0.81580850  1
  Ge  Ge56  1  0.87500000  0.75000000  0.25000000  1
  Ge  Ge57  1  0.12500000  0.25000000  0.75000000  1
  Ge  Ge58  1  0.58608682  0.12301565  0.68625333  1
  Ge  Ge59  1  0.27234015  0.81374667  0.12301565  1
  Ge  Ge60  1  0.20910247  0.68625333  0.37698435  1
  Ge  Ge61  1  0.39535580  0.37698435  0.81374667  1
  Ge  Ge62  1  0.41391318  0.87698435  0.31374667  1
  Ge  Ge63  1  0.72765985  0.18625333  0.87698435  1
  Ge  Ge64  1  0.79089753  0.31374667  0.62301565  1
  Ge  Ge65  1  0.60464420  0.62301565  0.18625333  1
