# generated using pymatgen
data_NaCaAl3(SiO4)3
_symmetry_space_group_name_H-M   'P 1'
_cell_length_a   12.68345609
_cell_length_b   12.43055082
_cell_length_c   12.29239926
_cell_angle_alpha   90.70469649
_cell_angle_beta   90.36075791
_cell_angle_gamma   89.41038665
_symmetry_Int_Tables_number   1
_chemical_formula_structural   NaCaAl3(SiO4)3
_chemical_formula_sum   'Na4 Ca4 Al12 Si12 O48'
_cell_volume   1937.76241130
_cell_formula_units_Z   4
loop_
 _symmetry_equiv_pos_site_id
 _symmetry_equiv_pos_as_xyz
  1  'x, y, z'
loop_
 _atom_site_type_symbol
 _atom_site_label
 _atom_site_symmetry_multiplicity
 _atom_site_fract_x
 _atom_site_fract_y
 _atom_site_fract_z
 _atom_site_occupancy
  Na  Na0  1  0.19316581  0.78280398  0.79765644  1
  Na  Na1  1  0.19333586  0.21086326  0.78601290  1
  Na  Na2  1  0.20821563  0.79013299  0.19703501  1
  Na  Na3  1  0.19544064  0.21555986  0.21159041  1
  Ca  Ca4  1  0.78457378  0.18467073  0.80765659  1
  Ca  Ca5  1  0.78628236  0.20083188  0.18647412  1
  Ca  Ca6  1  0.77888347  0.81650146  0.18253239  1
  Ca  Ca7  1  0.79698857  0.80800260  0.81079072  1
  Al  Al8  1  0.18632236  0.62218051  0.00069066  1
  Al  Al9  1  0.61293546  0.19015788  0.01139809  1
  Al  Al10  1  0.61489100  0.81420724  0.98870873  1
  Al  Al11  1  0.61188289  0.99898813  0.19294708  1
  Al  Al12  1  0.61692807  0.00571042  0.81066588  1
  Al  Al13  1  0.83154313  -0.00016955  0.35928861  1
  Al  Al14  1  0.82476883  0.36737143  0.00009997  1
  Al  Al15  1  0.83086788  0.63421761  0.00167277  1
  Al  Al16  1  0.82847080  0.00298582  0.63178540  1
  Al  Al17  1  0.00196288  0.18429632  0.36548740  1
  Al  Al18  1  0.00057455  0.36638869  0.81728428  1
  Al  Al19  1  0.00411649  0.81574196  0.63061491  1
  Si  Si20  1  0.00585697  0.37557343  0.18653505  1
  Si  Si21  1  0.18121858  0.99457467  0.36965072  1
  Si  Si22  1  0.18449549  0.37329122  0.00260298  1
  Si  Si23  1  0.18375961  0.99472374  0.62564758  1
  Si  Si24  1  0.35924390  0.17931326  0.00682965  1
  Si  Si25  1  0.36426668  0.82010488  0.99187783  1
  Si  Si26  1  0.36511034  0.99820301  0.18629573  1
  Si  Si27  1  0.36117723  0.00426629  0.81651399  1
  Si  Si28  1  0.00598903  0.18204241  0.62855103  1
  Si  Si29  1  0.00665575  0.63096620  0.18733798  1
  Si  Si30  1  0.00318896  0.62611155  0.81371251  1
  Si  Si31  1  0.00679845  0.81521820  0.36559418  1
  O  O32  1  0.99395673  0.50374259  0.21763934  1
  O  O33  1  0.03202085  0.28571183  0.70390780  1
  O  O34  1  0.02181938  0.70019231  0.30060905  1
  O  O35  1  0.99828172  0.79225392  0.49204823  1
  O  O36  1  0.01586021  0.69894349  0.70583023  1
  O  O37  1  0.11600446  0.10232090  0.33919126  1
  O  O38  1  0.11337804  0.35577836  0.11341446  1
  O  O39  1  0.11613074  0.34068816  0.89657970  1
  O  O40  1  0.11727420  0.88302171  0.33840462  1
  O  O41  1  0.11254678  0.10267617  0.64869276  1
  O  O42  1  0.11354630  0.65171270  0.11942623  1
  O  O43  1  0.10915071  0.64895831  0.88676758  1
  O  O44  1  0.12385072  0.88630962  0.66015480  1
  O  O45  1  0.23497109  0.49114869  0.00276500  1
  O  O46  1  0.22027534  0.99136470  0.49715067  1
  O  O47  1  0.27739344  0.28022614  0.01545285  1
  O  O48  1  0.28626218  0.01019848  0.70697660  1
  O  O49  1  0.28063954  0.72412311  0.99923860  1
  O  O50  1  0.28228827  0.98781619  0.28739745  1
  O  O51  1  0.32937219  0.10686525  0.11632812  1
  O  O52  1  0.32563722  0.11048658  0.89411330  1
  O  O53  1  0.34218212  0.89361323  0.10498617  1
  O  O54  1  0.32672383  0.89564955  0.88530825  1
  O  O55  1  0.47755851  0.22030660  0.00734660  1
  O  O56  1  0.48124407  0.00669974  0.78127155  1
  O  O57  1  0.48238767  0.77721529  0.97810376  1
  O  O58  1  0.48056326  0.00309733  0.23670769  1
  O  O59  1  0.63951581  0.12192291  0.13279817  1
  O  O60  1  0.64571748  0.11757748  0.89387661  1
  O  O61  1  0.63046527  0.88568237  0.10983307  1
  O  O62  1  0.64916466  0.88177914  0.86969396  1
  O  O63  1  0.71894574  0.02284027  0.71642700  1
  O  O64  1  0.71691788  0.28293269  0.02077808  1
  O  O65  1  0.72846854  0.73017363  0.00144561  1
  O  O66  1  0.72163336  0.97643823  0.27689261  1
  O  O67  1  0.80271795  0.50203570  0.00192693  1
  O  O68  1  0.81168174  0.00337159  0.49506041  1
  O  O69  1  0.89146826  0.11904816  0.30901174  1
  O  O70  1  0.90185591  0.33115603  0.12124488  1
  O  O71  1  0.88838980  0.31381558  0.88232669  1
  O  O72  1  0.90711516  0.88076284  0.31197457  1
  O  O73  1  0.90333845  0.11970067  0.67809473  1
  O  O74  1  0.90056234  0.67712840  0.12497827  1
  O  O75  1  0.90073801  0.67653345  0.88298422  1
  O  O76  1  0.89307864  0.88543161  0.68200197  1
  O  O77  1  0.99398529  0.21154863  0.50284195  1
  O  O78  1  0.02732385  0.30190060  0.29201172  1
  O  O79  1  0.98568482  0.50126699  0.78644254  1
