# generated using pymatgen
data_BaIn
_symmetry_space_group_name_H-M   'P 1'
_cell_length_a   5.70094672
_cell_length_b   7.59213420
_cell_length_c   7.59213420
_cell_angle_alpha   113.67796179
_cell_angle_beta   90.00000000
_cell_angle_gamma   90.00000000
_symmetry_Int_Tables_number   1
_chemical_formula_structural   BaIn
_chemical_formula_sum   'Ba4 In4'
_cell_volume   300.94248139
_cell_formula_units_Z   4
loop_
 _symmetry_equiv_pos_site_id
 _symmetry_equiv_pos_as_xyz
  1  'x, y, z'
loop_
 _atom_site_type_symbol
 _atom_site_label
 _atom_site_symmetry_multiplicity
 _atom_site_fract_x
 _atom_site_fract_y
 _atom_site_fract_z
 _atom_site_occupancy
  In  In0  1  0.75000000  0.21989071  0.37876504  1
  In  In1  1  0.25000000  0.78010929  0.62123496  1
  In  In2  1  0.25000000  0.37876504  0.21989071  1
  In  In3  1  0.75000000  0.62123496  0.78010929  1
  Ba  Ba4  1  0.25000000  0.32399739  0.67600261  1
  Ba  Ba5  1  0.75000000  0.67600261  0.32399739  1
  Ba  Ba6  1  0.25000000  0.87475703  0.12524297  1
  Ba  Ba7  1  0.75000000  0.12524297  0.87475703  1
