# generated using pymatgen
data_CoB4O7
_symmetry_space_group_name_H-M   'P 1'
_cell_length_a   8.31080698
_cell_length_b   8.77091183
_cell_length_c   13.87953497
_cell_angle_alpha   90.00000000
_cell_angle_beta   90.00000000
_cell_angle_gamma   90.00000000
_symmetry_Int_Tables_number   1
_chemical_formula_structural   CoB4O7
_chemical_formula_sum   'Co8 B32 O56'
_cell_volume   1011.72587338
_cell_formula_units_Z   8
loop_
 _symmetry_equiv_pos_site_id
 _symmetry_equiv_pos_as_xyz
  1  'x, y, z'
loop_
 _atom_site_type_symbol
 _atom_site_label
 _atom_site_symmetry_multiplicity
 _atom_site_fract_x
 _atom_site_fract_y
 _atom_site_fract_z
 _atom_site_occupancy
  B  B0  1  0.16311293  0.14315799  0.46184345  1
  B  B1  1  0.66311292  0.35684253  0.53815700  1
  B  B2  1  0.83688706  0.64315737  0.03815678  1
  B  B3  1  0.33688707  0.85684192  0.96184368  1
  B  B4  1  0.83688706  0.85684192  0.53815700  1
  B  B5  1  0.33688707  0.64315737  0.46184345  1
  B  B6  1  0.16311293  0.35684253  0.96184368  1
  B  B7  1  0.66311292  0.14315799  0.03815678  1
  B  B8  1  0.97023506  0.08503216  0.33224995  1
  B  B9  1  0.47023507  0.41496723  0.66774978  1
  B  B10  1  0.02976493  0.58503268  0.16775027  1
  B  B11  1  0.52976492  0.91496775  0.83225018  1
  B  B12  1  0.02976493  0.91496775  0.66774978  1
  B  B13  1  0.52976492  0.58503268  0.33224995  1
  B  B14  1  0.97023506  0.41496723  0.83225018  1
  B  B15  1  0.47023507  0.08503216  0.16775027  1
  B  B16  1  0.02574101  0.35237681  0.27004152  1
  B  B17  1  0.52574100  0.14762372  0.72995893  1
  B  B18  1  0.97425898  0.85237733  0.22995870  1
  B  B19  1  0.47425899  0.64762310  0.77004103  1
  B  B20  1  0.97425898  0.64762310  0.72995893  1
  B  B21  1  0.47425899  0.85237733  0.27004152  1
  B  B22  1  0.02574101  0.14762372  0.77004103  1
  B  B23  1  0.52574100  0.35237681  0.22995870  1
  B  B24  1  0.91355801  0.30055674  0.43690214  1
  B  B25  1  0.41355801  0.19944264  0.56309831  1
  B  B26  1  0.08644198  0.80055727  0.06309809  1
  B  B27  1  0.58644198  0.69944317  0.93690165  1
  B  B28  1  0.08644198  0.69944317  0.56309831  1
  B  B29  1  0.58644198  0.80055727  0.43690214  1
  B  B30  1  0.91355801  0.19944264  0.93690165  1
  B  B31  1  0.41355801  0.30055674  0.06309809  1
  O  O32  1  0.11706362  0.05721141  0.38576628  1
  O  O33  1  0.61706362  0.44278798  0.61423345  1
  O  O34  1  0.88293637  0.55721193  0.11423322  1
  O  O35  1  0.38293637  0.94278850  0.88576651  1
  O  O36  1  0.88293637  0.94278850  0.61423345  1
  O  O37  1  0.38293637  0.55721193  0.38576628  1
  O  O38  1  0.11706362  0.44278798  0.88576651  1
  O  O39  1  0.61706362  0.05721141  0.11423322  1
  O  O40  1  0.06181300  0.26026197  0.49589220  1
  O  O41  1  0.56181300  0.23973741  0.50410825  1
  O  O42  1  0.93818699  0.76026250  0.00410802  1
  O  O43  1  0.43818699  0.73973794  0.99589171  1
  O  O44  1  0.93818699  0.73973794  0.50410825  1
  O  O45  1  0.43818699  0.76026250  0.49589220  1
  O  O46  1  0.06181300  0.23973741  0.99589171  1
  O  O47  1  0.56181300  0.26026197  0.00410802  1
  O  O48  1  0.01712094  0.19727182  0.24932700  1
  O  O49  1  0.51712094  0.30272870  0.75067273  1
  O  O50  1  0.98287905  0.69727235  0.25067251  1
  O  O51  1  0.48287905  0.80272809  0.74932723  1
  O  O52  1  0.98287905  0.80272809  0.75067273  1
  O  O53  1  0.48287905  0.69727235  0.24932700  1
  O  O54  1  0.01712094  0.30272870  0.74932723  1
  O  O55  1  0.51712094  0.19727182  0.25067251  1
  O  O56  1  0.96722182  0.40812515  0.35718863  1
  O  O57  1  0.46722183  0.09187538  0.64281182  1
  O  O58  1  0.03277817  0.90812567  0.14281159  1
  O  O59  1  0.53277816  0.59187476  0.85718814  1
  O  O60  1  0.03277817  0.59187476  0.64281182  1
  O  O61  1  0.53277816  0.90812567  0.35718863  1
  O  O62  1  0.96722182  0.09187538  0.85718814  1
  O  O63  1  0.46722183  0.40812515  0.14281159  1
  O  O64  1  0.80885211  0.38582742  0.49689452  1
  O  O65  1  0.30885212  0.11417311  0.50310521  1
  O  O66  1  0.19114788  0.88582680  0.00310498  1
  O  O67  1  0.69114787  0.61417249  0.99689475  1
  O  O68  1  0.19114788  0.61417249  0.50310521  1
  O  O69  1  0.69114787  0.88582680  0.49689452  1
  O  O70  1  0.80885211  0.11417311  0.99689475  1
  O  O71  1  0.30885212  0.38582742  0.00310498  1
  O  O72  1  0.84795968  0.16338655  0.39160264  1
  O  O73  1  0.34795968  0.33661284  0.60839709  1
  O  O74  1  0.15204031  0.66338707  0.10839759  1
  O  O75  1  0.65204031  0.83661336  0.89160286  1
  O  O76  1  0.15204031  0.83661336  0.60839709  1
  O  O77  1  0.65204031  0.66338707  0.39160264  1
  O  O78  1  0.84795968  0.33661284  0.89160286  1
  O  O79  1  0.34795968  0.16338655  0.10839759  1
  O  O80  1  0.59469455  0.44532500  0.29589329  1
  O  O81  1  0.09469455  0.05467553  0.70410645  1
  O  O82  1  0.40530544  0.94532438  0.20410694  1
  O  O83  1  0.90530544  0.55467491  0.79589351  1
  O  O84  1  0.40530544  0.55467491  0.70410645  1
  O  O85  1  0.90530544  0.94532438  0.29589329  1
  O  O86  1  0.59469455  0.05467553  0.79589351  1
  O  O87  1  0.09469455  0.44532500  0.20410694  1
  Co  Co88  1  0.61102026  0.12647335  0.37935689  1
  Co  Co89  1  0.11102027  0.37352717  0.62064284  1
  Co  Co90  1  0.38897973  0.62647274  0.12064261  1
  Co  Co91  1  0.88897972  0.87352656  0.87935712  1
  Co  Co92  1  0.38897973  0.87352656  0.62064284  1
  Co  Co93  1  0.88897972  0.62647274  0.37935689  1
  Co  Co94  1  0.61102026  0.37352717  0.87935712  1
  Co  Co95  1  0.11102027  0.12647335  0.12064261  1
