# generated using pymatgen
data_Na4CoO4
_symmetry_space_group_name_H-M   'P 1'
_cell_length_a   5.73259015
_cell_length_b   5.75253706
_cell_length_c   8.70929464
_cell_angle_alpha   71.50389845
_cell_angle_beta   80.95966801
_cell_angle_gamma   68.35264234
_symmetry_Int_Tables_number   1
_chemical_formula_structural   Na4CoO4
_chemical_formula_sum   'Na8 Co2 O8'
_cell_volume   252.89842120
_cell_formula_units_Z   2
loop_
 _symmetry_equiv_pos_site_id
 _symmetry_equiv_pos_as_xyz
  1  'x, y, z'
loop_
 _atom_site_type_symbol
 _atom_site_label
 _atom_site_symmetry_multiplicity
 _atom_site_fract_x
 _atom_site_fract_y
 _atom_site_fract_z
 _atom_site_occupancy
  O  O0  1  0.74906943  0.13328852  0.12973758  1
  O  O1  1  0.69629983  0.54812127  0.36576918  1
  O  O2  1  0.24647181  0.00625286  0.38854118  1
  O  O3  1  0.24976464  0.47691259  0.55160494  1
  O  O4  1  0.57641089  0.68579884  0.67466936  1
  O  O5  1  0.19490531  0.20526398  0.94292721  1
  O  O6  1  0.86728454  0.99666393  0.82072172  1
  O  O7  1  0.19869997  0.67548913  0.10615631  1
  Na  Na8  1  0.96499516  0.78940454  0.34958367  1
  Na  Na9  1  0.47049433  0.43794675  0.92711424  1
  Na  Na10  1  0.45379356  0.32097046  0.31755844  1
  Na  Na11  1  0.46975332  0.07813426  0.73298561  1
  Na  Na12  1  0.97591698  0.24249338  0.56815312  1
  Na  Na13  1  0.47965965  0.89280969  0.14552229  1
  Na  Na14  1  0.98978566  0.36211227  0.17696319  1
  Na  Na15  1  0.97578081  0.60478266  0.76133411  1
  Co  Co16  1  0.00243141  0.99758936  0.99299540  1
  Co  Co17  1  0.44258270  0.68426551  0.50206246  1
