# generated using pymatgen
data_BrO2F
_symmetry_space_group_name_H-M   'P 1'
_cell_length_a   6.64244837
_cell_length_b   6.69900305
_cell_length_c   6.64244831
_cell_angle_alpha   47.75616200
_cell_angle_beta   47.74633045
_cell_angle_gamma   47.75616011
_symmetry_Int_Tables_number   1
_chemical_formula_structural   BrO2F
_chemical_formula_sum   'Br2 O4 F2'
_cell_volume   148.30086049
_cell_formula_units_Z   2
loop_
 _symmetry_equiv_pos_site_id
 _symmetry_equiv_pos_as_xyz
  1  'x, y, z'
loop_
 _atom_site_type_symbol
 _atom_site_label
 _atom_site_symmetry_multiplicity
 _atom_site_fract_x
 _atom_site_fract_y
 _atom_site_fract_z
 _atom_site_occupancy
  Br  Br0  1  0.27707278  0.22778752  0.24653131  1
  Br  Br1  1  0.74653131  0.72778752  0.77707278  1
  F  F2  1  0.79167318  0.08918789  0.49347856  1
  F  F3  1  0.99347856  0.58918789  0.29167318  1
  O  O4  1  0.07399561  0.50698822  0.78693073  1
  O  O5  1  0.49880937  0.79723637  0.07390846  1
  O  O6  1  0.28693073  0.00698822  0.57399561  1
  O  O7  1  0.57390846  0.29723637  0.99880937  1
