# generated using pymatgen
data_Na3CeF7
_symmetry_space_group_name_H-M   'P 1'
_cell_length_a   5.60284350
_cell_length_b   5.60284350
_cell_length_c   6.59856618
_cell_angle_alpha   114.38632814
_cell_angle_beta   114.38632814
_cell_angle_gamma   88.79949810
_symmetry_Int_Tables_number   1
_chemical_formula_structural   Na3CeF7
_chemical_formula_sum   'Na3 Ce1 F7'
_cell_volume   169.01415474
_cell_formula_units_Z   1
loop_
 _symmetry_equiv_pos_site_id
 _symmetry_equiv_pos_as_xyz
  1  'x, y, z'
loop_
 _atom_site_type_symbol
 _atom_site_label
 _atom_site_symmetry_multiplicity
 _atom_site_fract_x
 _atom_site_fract_y
 _atom_site_fract_z
 _atom_site_occupancy
  Ce  Ce0  1  0.95838907  0.95838907  0.97632571  1
  F  F1  1  0.16606920  0.16606920  0.85389253  1
  F  F2  1  0.10644282  0.63256816  0.74894694  1
  F  F3  1  0.34621767  0.93472444  0.24384556  1
  F  F4  1  0.63256816  0.10644282  0.74894694  1
  F  F5  1  0.61201511  0.61201511  0.70905427  1
  F  F6  1  0.93472444  0.34621767  0.24384556  1
  F  F7  1  0.85521915  0.85521915  0.23114051  1
  Na  Na8  1  0.23783021  0.77704746  0.51374230  1
  Na  Na9  1  0.49847671  0.49847671  0.96651738  1
  Na  Na10  1  0.77704746  0.23783021  0.51374230  1
