# generated using pymatgen
data_Na3CoO3
_symmetry_space_group_name_H-M   'P 1'
_cell_length_a   5.78777886
_cell_length_b   5.94727017
_cell_length_c   6.40212135
_cell_angle_alpha   64.46750980
_cell_angle_beta   89.22055523
_cell_angle_gamma   85.37792162
_symmetry_Int_Tables_number   1
_chemical_formula_structural   Na3CoO3
_chemical_formula_sum   'Na6 Co2 O6'
_cell_volume   198.14797822
_cell_formula_units_Z   2
loop_
 _symmetry_equiv_pos_site_id
 _symmetry_equiv_pos_as_xyz
  1  'x, y, z'
loop_
 _atom_site_type_symbol
 _atom_site_label
 _atom_site_symmetry_multiplicity
 _atom_site_fract_x
 _atom_site_fract_y
 _atom_site_fract_z
 _atom_site_occupancy
  O  O0  1  0.74261367  0.53059393  0.65563587  1
  O  O1  1  0.25738633  0.46940607  0.34436413  1
  O  O2  1  0.75411465  0.90355146  0.89855885  1
  O  O3  1  0.24588535  0.09644854  0.10144115  1
  O  O4  1  0.69138327  0.07785750  0.37356533  1
  O  O5  1  0.30861673  0.92214250  0.62643467  1
  Na  Na6  1  0.43728362  0.25539847  0.74488556  1
  Na  Na7  1  0.56271638  0.74460153  0.25511444  1
  Na  Na8  1  0.93654510  0.23227446  0.55325361  1
  Na  Na9  1  0.06345490  0.76772554  0.44674639  1
  Na  Na10  1  0.14290435  0.76734639  0.97861591  1
  Na  Na11  1  0.85709565  0.23265361  0.02138409  1
  Co  Co12  1  0.64091402  0.80994028  0.68822661  1
  Co  Co13  1  0.35908598  0.19005972  0.31177339  1
