# generated using pymatgen
data_Li5ReN4
_symmetry_space_group_name_H-M   'P 1'
_cell_length_a   4.92413095
_cell_length_b   6.67056271
_cell_length_c   6.75608236
_cell_angle_alpha   90.00000000
_cell_angle_beta   90.00000000
_cell_angle_gamma   90.00000000
_symmetry_Int_Tables_number   1
_chemical_formula_structural   Li5ReN4
_chemical_formula_sum   'Li10 Re2 N8'
_cell_volume   221.91517459
_cell_formula_units_Z   2
loop_
 _symmetry_equiv_pos_site_id
 _symmetry_equiv_pos_as_xyz
  1  'x, y, z'
loop_
 _atom_site_type_symbol
 _atom_site_label
 _atom_site_symmetry_multiplicity
 _atom_site_fract_x
 _atom_site_fract_y
 _atom_site_fract_z
 _atom_site_occupancy
  Li  Li0  1  0.30350067  0.25000000  0.25000000  1
  Li  Li1  1  0.69649933  0.75000000  0.75000000  1
  Li  Li2  1  0.24467461  0.01234020  0.55130435  1
  Li  Li3  1  0.24467461  0.48765980  0.94869565  1
  Li  Li4  1  0.75532539  0.51234020  0.44869565  1
  Li  Li5  1  0.75532539  0.98765980  0.05130435  1
  Li  Li6  1  0.75532539  0.98765980  0.44869565  1
  Li  Li7  1  0.75532539  0.51234020  0.05130435  1
  Li  Li8  1  0.24467461  0.01234020  0.94869565  1
  Li  Li9  1  0.24467461  0.48765980  0.55130435  1
  N  N10  1  0.07317984  0.97980704  0.25000000  1
  N  N11  1  0.51825660  0.25000000  0.97873112  1
  N  N12  1  0.48174340  0.75000000  0.47873112  1
  N  N13  1  0.48174340  0.75000000  0.02126888  1
  N  N14  1  0.07317984  0.52019296  0.25000000  1
  N  N15  1  0.92682016  0.47980704  0.75000000  1
  N  N16  1  0.92682016  0.02019296  0.75000000  1
  N  N17  1  0.51825660  0.25000000  0.52126888  1
  Re  Re18  1  0.27823468  0.75000000  0.25000000  1
  Re  Re19  1  0.72176532  0.25000000  0.75000000  1
