# generated using pymatgen
data_Li17Ti20O40
_symmetry_space_group_name_H-M   'P 1'
_cell_length_a   2.94905817
_cell_length_b   25.49598241
_cell_length_c   9.59547450
_cell_angle_alpha   79.77004446
_cell_angle_beta   89.99999596
_cell_angle_gamma   89.99998111
_symmetry_Int_Tables_number   1
_chemical_formula_structural   Li17Ti20O40
_chemical_formula_sum   'Li17 Ti20 O40'
_cell_volume   710.00605517
_cell_formula_units_Z   1
loop_
 _symmetry_equiv_pos_site_id
 _symmetry_equiv_pos_as_xyz
  1  'x, y, z'
loop_
 _atom_site_type_symbol
 _atom_site_label
 _atom_site_symmetry_multiplicity
 _atom_site_fract_x
 _atom_site_fract_y
 _atom_site_fract_z
 _atom_site_occupancy
  Li  Li0  1  0.00000075  0.00168100  0.99981403  1
  Li  Li1  1  -0.00000025  0.70270543  0.49957084  1
  Li  Li2  1  0.49999996  0.04951711  0.75048907  1
  Li  Li3  1  0.50000064  0.15024810  0.24780464  1
  Li  Li4  1  0.50000023  0.34879300  0.24549497  1
  Li  Li5  1  0.49999995  0.24914191  0.75115262  1
  Li  Li6  1  0.49999976  0.55100691  0.24890822  1
  Li  Li7  1  0.50000007  0.45114397  0.75428252  1
  Li  Li8  1  0.49999913  0.75047205  0.24946383  1
  Li  Li9  1  0.50000002  0.65003896  0.75259263  1
  Li  Li10  1  0.49999975  0.85102275  0.74732671  1
  Li  Li11  1  0.49999989  0.94870601  0.25232815  1
  Li  Li12  1  0.99999976  0.09747887  0.50052214  1
  Li  Li13  1  0.00000023  0.39990302  -0.00004521  1
  Li  Li14  1  0.00000005  0.30015996  0.49795119  1
  Li  Li15  1  0.99999975  0.49980736  0.50204626  1
  Li  Li16  1  -0.00000088  0.79814111  0.00016129  1
  Ti  Ti17  1  0.00000117  0.04957479  0.25034909  1
  Ti  Ti18  1  -0.00000170  0.85072748  0.25406632  1
  Ti  Ti19  1  0.50000154  0.10576304  -0.00642513  1
  Ti  Ti20  1  0.50000081  0.29514963  0.99849049  1
  Ti  Ti21  1  0.50000029  0.19897300  0.49982492  1
  Ti  Ti22  1  0.49999898  0.50470445  0.00178852  1
  Ti  Ti23  1  0.50000006  0.40006347  0.49970442  1
  Ti  Ti24  1  0.49999882  0.60118151  0.49969855  1
  Ti  Ti25  1  0.50000005  0.69431721  0.00659995  1
  Ti  Ti26  1  0.49999888  0.80626565  0.49452063  1
  Ti  Ti27  1  0.49999991  0.89994535  0.00010709  1
  Ti  Ti28  1  0.50000017  0.99358969  0.50567292  1
  Ti  Ti29  1  0.00000108  0.15012260  0.75240614  1
  Ti  Ti30  1  0.00000047  0.24891811  0.24363328  1
  Ti  Ti31  1  0.00000049  0.44850754  0.25633037  1
  Ti  Ti32  1  -0.00000088  0.65010090  0.24650392  1
  Ti  Ti33  1  -0.00000051  0.35144113  0.74382058  1
  Ti  Ti34  1  -0.00000019  0.55111080  0.75595113  1
  Ti  Ti35  1  0.99999987  0.75040609  0.74946605  1
  Ti  Ti36  1  -0.00000014  0.94912356  0.74734231  1
  O  O37  1  0.00000008  0.37449866  0.37600744  1
  O  O38  1  0.00000001  0.92405291  0.12123958  1
  O  O39  1  0.99999951  0.57650312  0.37921023  1
  O  O40  1  0.00000045  0.42541179  0.62407541  1
  O  O41  1  0.00000198  0.07685409  0.87817171  1
  O  O42  1  -0.00000003  0.62451525  0.62371125  1
  O  O43  1  -0.00000071  0.97827084  0.37089772  1
  O  O44  1  -0.00000076  0.82184880  0.62925606  1
  O  O45  1  0.49999874  0.87555631  0.36178604  1
  O  O46  1  0.50000103  0.07055300  0.37476925  1
  O  O47  1  0.49999917  0.97291177  0.87540869  1
  O  O48  1  0.49999944  0.17465441  0.86158110  1
  O  O49  1  0.50000029  0.27174740  0.37178514  1
  O  O50  1  0.49999953  0.67390464  0.37586157  1
  O  O51  1  0.50000015  0.22554606  0.13344943  1
  O  O52  1  0.50000062  0.37210733  0.87446013  1
  O  O53  1  0.50000013  0.47444120  0.37346769  1
  O  O54  1  0.49999987  0.42799120  0.12554303  1
  O  O55  1  0.50000057  0.57430029  0.86666917  1
  O  O56  1  0.49999995  0.32561497  0.62658343  1
  O  O57  1  0.49999941  0.62518704  0.13841596  1
  O  O58  1  0.49999978  0.77139213  0.87452564  1
  O  O59  1  0.50000027  0.52825892  0.62812624  1
  O  O60  1  0.49999935  0.72928070  0.62503071  1
  O  O61  1  0.49999869  0.82716561  0.12483974  1
  O  O62  1  0.49999921  0.92464299  0.63825244  1
  O  O63  1  0.50000107  0.02868430  0.12564191  1
  O  O64  1  0.50000022  0.12604165  0.62408242  1
  O  O65  1  0.00000145  0.27879950  0.86873946  1
  O  O66  1  0.00000119  0.02240997  0.62234369  1
  O  O67  1  0.00000061  0.17547642  0.37634312  1
  O  O68  1  -0.00000013  0.47786836  0.87994939  1
  O  O69  1  0.00000006  0.22352070  0.62062684  1
  O  O70  1  -0.00000076  0.67890702  0.87095328  1
  O  O71  1  -0.00000072  0.87584829  0.87878283  1
  O  O72  1  0.00000391  0.12099203  0.12891923  1
  O  O73  1  0.00000004  0.32230607  0.11999085  1
  O  O74  1  -0.00000180  0.77733693  0.37784010  1
  O  O75  1  -0.00000032  0.52124284  0.13129181  1
  O  O76  1  0.00000048  0.72340096  0.12165485  1
