# generated using pymatgen
data_K2TaF7
_symmetry_space_group_name_H-M   'P 1'
_cell_length_a   5.95223726
_cell_length_b   8.71027729
_cell_length_c   12.90102114
_cell_angle_alpha   90.00000000
_cell_angle_beta   90.00000000
_cell_angle_gamma   90.30044150
_symmetry_Int_Tables_number   1
_chemical_formula_structural   K2TaF7
_chemical_formula_sum   'K8 Ta4 F28'
_cell_volume   668.85246362
_cell_formula_units_Z   4
loop_
 _symmetry_equiv_pos_site_id
 _symmetry_equiv_pos_as_xyz
  1  'x, y, z'
loop_
 _atom_site_type_symbol
 _atom_site_label
 _atom_site_symmetry_multiplicity
 _atom_site_fract_x
 _atom_site_fract_y
 _atom_site_fract_z
 _atom_site_occupancy
  F  F0  1  0.44286068  0.36663749  0.42088518  1
  F  F1  1  0.55713932  0.13336251  0.92088518  1
  F  F2  1  0.55713932  0.63336251  0.57911482  1
  F  F3  1  0.44286068  0.86663749  0.07911482  1
  F  F4  1  0.81524334  0.49355875  0.37710178  1
  F  F5  1  0.18475666  0.00644125  0.87710178  1
  F  F6  1  0.18475666  0.50644125  0.62289822  1
  F  F7  1  0.81524334  0.99355875  0.12289822  1
  F  F8  1  0.79085599  0.28562744  0.52059707  1
  F  F9  1  0.20914401  0.21437256  0.02059707  1
  F  F10  1  0.20914401  0.71437256  0.47940293  1
  F  F11  1  0.79085599  0.78562744  0.97940293  1
  F  F12  1  0.95534471  0.79893033  0.24363412  1
  F  F13  1  0.04465529  0.70106967  0.74363412  1
  F  F14  1  0.04465529  0.20106967  0.75636588  1
  F  F15  1  0.95534471  0.29893033  0.25636588  1
  F  F16  1  0.54432111  0.78699334  0.25789467  1
  F  F17  1  0.45567889  0.71300666  0.75789467  1
  F  F18  1  0.45567889  0.21300666  0.74210533  1
  F  F19  1  0.54432111  0.28699334  0.24210533  1
  F  F20  1  0.95570209  0.61108786  0.10818073  1
  F  F21  1  0.04429791  0.88891214  0.60818073  1
  F  F22  1  0.04429791  0.38891214  0.89181927  1
  F  F23  1  0.95570209  0.11108786  0.39181927  1
  F  F24  1  0.53952765  0.58975884  0.11035048  1
  F  F25  1  0.46047235  0.91024116  0.61035048  1
  F  F26  1  0.46047235  0.41024116  0.88964952  1
  F  F27  1  0.53952765  0.08975884  0.38964952  1
  K  K28  1  0.23636480  0.05428126  0.21518266  1
  K  K29  1  0.76363520  0.44571874  0.71518266  1
  K  K30  1  0.76363520  0.94571874  0.78481734  1
  K  K31  1  0.23636480  0.55428126  0.28481734  1
  K  K32  1  0.76334491  0.31924068  0.05863311  1
  K  K33  1  0.23665509  0.18075932  0.55863311  1
  K  K34  1  0.23665509  0.68075932  0.94136689  1
  K  K35  1  0.76334491  0.81924068  0.44136689  1
  Ta  Ta36  1  0.72872229  0.27641441  0.37061111  1
  Ta  Ta37  1  0.27127771  0.22358559  0.87061111  1
  Ta  Ta38  1  0.27127771  0.72358559  0.62938889  1
  Ta  Ta39  1  0.72872229  0.77641441  0.12938889  1
