# generated using pymatgen
data_Tm(MnGe)2
_symmetry_space_group_name_H-M   'P 1'
_cell_length_a   3.90926194
_cell_length_b   3.90926194
_cell_length_c   6.07740747
_cell_angle_alpha   108.76107514
_cell_angle_beta   108.76107516
_cell_angle_gamma   89.99999991
_symmetry_Int_Tables_number   1
_chemical_formula_structural   Tm(MnGe)2
_chemical_formula_sum   'Tm1 Mn2 Ge2'
_cell_volume   82.71357363
_cell_formula_units_Z   1
loop_
 _symmetry_equiv_pos_site_id
 _symmetry_equiv_pos_as_xyz
  1  'x, y, z'
loop_
 _atom_site_type_symbol
 _atom_site_label
 _atom_site_symmetry_multiplicity
 _atom_site_fract_x
 _atom_site_fract_y
 _atom_site_fract_z
 _atom_site_occupancy
  Mn  Mn0  1  0.25000000  0.75000000  0.50000000  1
  Mn  Mn1  1  0.75000000  0.25000000  0.50000000  1
  Ge  Ge2  1  0.61763426  0.61763426  0.23526852  1
  Ge  Ge3  1  0.38236574  0.38236574  0.76473148  1
  Tm  Tm4  1  0.00000000  0.00000000  0.00000000  1
