# generated using pymatgen
data_Zr2P3H4NO12
_symmetry_space_group_name_H-M   'P 1'
_cell_length_a   9.68110330
_cell_length_b   9.68110381
_cell_length_c   9.68110321
_cell_angle_alpha   54.13774768
_cell_angle_beta   54.13774706
_cell_angle_gamma   54.13774960
_symmetry_Int_Tables_number   1
_chemical_formula_structural   Zr2P3H4NO12
_chemical_formula_sum   'Zr4 P6 H8 N2 O24'
_cell_volume   553.78588099
_cell_formula_units_Z   2
loop_
 _symmetry_equiv_pos_site_id
 _symmetry_equiv_pos_as_xyz
  1  'x, y, z'
loop_
 _atom_site_type_symbol
 _atom_site_label
 _atom_site_symmetry_multiplicity
 _atom_site_fract_x
 _atom_site_fract_y
 _atom_site_fract_z
 _atom_site_occupancy
  H  H0  1  0.46395248  0.46395248  0.46395248  1
  H  H1  1  0.45482381  0.64627397  0.46068893  1
  H  H2  1  0.46068893  0.45482381  0.64627397  1
  H  H3  1  0.64627397  0.46068893  0.45482381  1
  H  H4  1  0.14627397  0.95482381  0.96068893  1
  H  H5  1  0.95482381  0.96068893  0.14627397  1
  H  H6  1  0.96068893  0.14627397  0.95482381  1
  H  H7  1  0.96395248  0.96395248  0.96395248  1
  N  N8  1  0.00547469  0.00547469  0.00547469  1
  N  N9  1  0.50547469  0.50547469  0.50547469  1
  O  O10  1  0.13984204  0.24664858  0.51346743  1
  O  O11  1  0.24664858  0.51346743  0.13984204  1
  O  O12  1  0.51346743  0.13984204  0.24664858  1
  O  O13  1  0.07283827  0.92353617  0.30271272  1
  O  O14  1  0.20187109  0.57609315  0.42838627  1
  O  O15  1  0.01346743  0.74664858  0.63984204  1
  O  O16  1  0.30271272  0.07283827  0.92353617  1
  O  O17  1  0.42838627  0.20187109  0.57609315  1
  O  O18  1  0.57609315  0.42838627  0.20187109  1
  O  O19  1  0.07609315  0.70187109  0.92838627  1
  O  O20  1  0.25139218  0.36441187  0.98786658  1
  O  O21  1  0.63984204  0.01346743  0.74664858  1
  O  O22  1  0.36441187  0.98786658  0.25139218  1
  O  O23  1  0.74664858  0.63984204  0.01346743  1
  O  O24  1  0.92353617  0.30271272  0.07283827  1
  O  O25  1  0.42353617  0.57283827  0.80271272  1
  O  O26  1  0.57283827  0.80271272  0.42353617  1
  O  O27  1  0.70187109  0.92838627  0.07609315  1
  O  O28  1  0.98786658  0.25139218  0.36441187  1
  O  O29  1  0.80271272  0.42353617  0.57283827  1
  O  O30  1  0.92838627  0.07609315  0.70187109  1
  O  O31  1  0.48786658  0.86441187  0.75139218  1
  O  O32  1  0.75139218  0.48786658  0.86441187  1
  O  O33  1  0.86441187  0.75139218  0.48786658  1
  P  P34  1  0.03720951  0.74861300  0.46685119  1
  P  P35  1  0.46685119  0.03720951  0.74861300  1
  P  P36  1  0.74861300  0.46685119  0.03720951  1
  P  P37  1  0.24861300  0.53720951  0.96685119  1
  P  P38  1  0.53720951  0.96685119  0.24861300  1
  P  P39  1  0.96685119  0.24861300  0.53720951  1
  Zr  Zr40  1  0.15140890  0.15140890  0.15140890  1
  Zr  Zr41  1  0.34953718  0.34953718  0.34953718  1
  Zr  Zr42  1  0.65140890  0.65140890  0.65140890  1
  Zr  Zr43  1  0.84953718  0.84953718  0.84953718  1
