# generated using pymatgen
data_CsB3O5
_symmetry_space_group_name_H-M   'P 1'
_cell_length_a   6.10433600
_cell_length_b   8.56220002
_cell_length_c   9.93936748
_cell_angle_alpha   90.00000000
_cell_angle_beta   90.00000000
_cell_angle_gamma   90.00000000
_symmetry_Int_Tables_number   1
_chemical_formula_structural   CsB3O5
_chemical_formula_sum   'Cs4 B12 O20'
_cell_volume   519.49640583
_cell_formula_units_Z   4
loop_
 _symmetry_equiv_pos_site_id
 _symmetry_equiv_pos_as_xyz
  1  'x, y, z'
loop_
 _atom_site_type_symbol
 _atom_site_label
 _atom_site_symmetry_multiplicity
 _atom_site_fract_x
 _atom_site_fract_y
 _atom_site_fract_z
 _atom_site_occupancy
  B  B0  1  0.93744370  0.35000373  0.64261347  1
  B  B1  1  0.43744370  0.14999627  0.35738653  1
  B  B2  1  0.06255630  0.85000373  0.85738653  1
  B  B3  1  0.56255630  0.64999627  0.14261347  1
  B  B4  1  0.97119075  0.57066684  0.80439961  1
  B  B5  1  0.47119075  0.92933316  0.19560039  1
  B  B6  1  0.74050837  0.12762342  0.53366379  1
  B  B7  1  0.24050837  0.37237658  0.46633621  1
  B  B8  1  0.25949163  0.62762342  0.96633621  1
  B  B9  1  0.75949163  0.87237658  0.03366379  1
  B  B10  1  0.02880925  0.07066684  0.69560039  1
  B  B11  1  0.52880925  0.42933316  0.30439961  1
  O  O12  1  0.84184690  0.46561121  0.73609939  1
  O  O13  1  0.24357923  0.78315079  0.93779208  1
  O  O14  1  0.25642077  0.21684921  0.43779208  1
  O  O15  1  0.74357923  0.71684921  0.06220792  1
  O  O16  1  0.44658911  0.77360923  0.21967841  1
  O  O17  1  0.94658911  0.72639077  0.78032159  1
  O  O18  1  0.55341089  0.27360923  0.28032159  1
  O  O19  1  0.05341089  0.22639077  0.71967841  1
  O  O20  1  0.62834477  0.98237024  0.10289080  1
  O  O21  1  0.12834477  0.51762976  0.89710920  1
  O  O22  1  0.37165523  0.48237024  0.39710920  1
  O  O23  1  0.87165523  0.01762976  0.60289080  1
  O  O24  1  0.15815310  0.96561121  0.76390061  1
  O  O25  1  0.65815310  0.53438879  0.23609939  1
  O  O26  1  0.09569169  0.43563108  0.55552317  1
  O  O27  1  0.59569169  0.06436892  0.44447683  1
  O  O28  1  0.90430831  0.93563108  0.94447683  1
  O  O29  1  0.40430831  0.56436892  0.05552317  1
  O  O30  1  0.75642077  0.28315079  0.56220792  1
  O  O31  1  0.34184690  0.03438879  0.26390061  1
  Cs  Cs32  1  0.50978098  0.73700996  0.63675125  1
  Cs  Cs33  1  0.00978098  0.76299004  0.36324875  1
  Cs  Cs34  1  0.49021902  0.23700996  0.86324875  1
  Cs  Cs35  1  0.99021902  0.26299004  0.13675125  1
