# generated using pymatgen
data_UMoC2
_symmetry_space_group_name_H-M   'P 1'
_cell_length_a   3.22289862
_cell_length_b   5.63487515
_cell_length_c   11.08585087
_cell_angle_alpha   90.00000000
_cell_angle_beta   90.00000000
_cell_angle_gamma   90.00000000
_symmetry_Int_Tables_number   1
_chemical_formula_structural   UMoC2
_chemical_formula_sum   'U4 Mo4 C8'
_cell_volume   201.32605079
_cell_formula_units_Z   4
loop_
 _symmetry_equiv_pos_site_id
 _symmetry_equiv_pos_as_xyz
  1  'x, y, z'
loop_
 _atom_site_type_symbol
 _atom_site_label
 _atom_site_symmetry_multiplicity
 _atom_site_fract_x
 _atom_site_fract_y
 _atom_site_fract_z
 _atom_site_occupancy
  C  C0  1  0.25000000  0.25063281  0.49303235  1
  C  C1  1  0.75000000  0.74936719  0.50696765  1
  C  C2  1  0.25000000  0.75063281  0.00696765  1
  C  C3  1  0.75000000  0.24936719  0.99303235  1
  C  C4  1  0.25000000  0.66183036  0.74414163  1
  C  C5  1  0.75000000  0.83816964  0.24414163  1
  C  C6  1  0.25000000  0.16183036  0.75585837  1
  C  C7  1  0.75000000  0.33816964  0.25585837  1
  Mo  Mo8  1  0.75000000  0.57899819  0.10120424  1
  Mo  Mo9  1  0.75000000  0.07899819  0.39879576  1
  Mo  Mo10  1  0.25000000  0.42100181  0.89879576  1
  Mo  Mo11  1  0.25000000  0.92100181  0.60120424  1
  U  U12  1  0.25000000  0.57980768  0.35794978  1
  U  U13  1  0.75000000  0.42019232  0.64205022  1
  U  U14  1  0.25000000  0.07980768  0.14205022  1
  U  U15  1  0.75000000  0.92019232  0.85794978  1
