# generated using pymatgen
data_Li3Bi3P8O29
_symmetry_space_group_name_H-M   'P 1'
_cell_length_a   10.19790326
_cell_length_b   10.15831714
_cell_length_c   14.60248218
_cell_angle_alpha   90.06107826
_cell_angle_beta   91.14190117
_cell_angle_gamma   60.14903713
_symmetry_Int_Tables_number   1
_chemical_formula_structural   Li3Bi3P8O29
_chemical_formula_sum   'Li6 Bi6 P16 O58'
_cell_volume   1311.69041089
_cell_formula_units_Z   2
loop_
 _symmetry_equiv_pos_site_id
 _symmetry_equiv_pos_as_xyz
  1  'x, y, z'
loop_
 _atom_site_type_symbol
 _atom_site_label
 _atom_site_symmetry_multiplicity
 _atom_site_fract_x
 _atom_site_fract_y
 _atom_site_fract_z
 _atom_site_occupancy
  Li  Li0  1  0.71708639  0.07114866  0.94043583  1
  Li  Li1  1  0.28660950  0.92671283  0.05154617  1
  Li  Li2  1  0.77774354  0.30375720  0.05072793  1
  Li  Li3  1  0.93030851  0.04284472  0.50402644  1
  Li  Li4  1  0.30358777  0.77894786  0.55795213  1
  Li  Li5  1  0.68527673  0.66016398  0.39852316  1
  Bi  Bi6  1  0.56799300  0.99952063  0.74453574  1
  Bi  Bi7  1  0.42887963  0.00554797  0.25108923  1
  Bi  Bi8  1  0.43228317  0.56585307  0.74968595  1
  Bi  Bi9  1  0.00532017  0.56820636  0.24705190  1
  Bi  Bi10  1  0.56842744  0.42716814  0.25238604  1
  Bi  Bi11  1  0.00047328  0.43287863  0.74607915  1
  P  P12  1  0.07612931  0.23336252  0.15767075  1
  P  P13  1  0.07306767  0.70361428  0.65385773  1
  P  P14  1  0.69749284  0.22303429  0.65706807  1
  P  P15  1  0.66075275  0.66812116  0.12263088  1
  P  P16  1  0.33442341  0.33352306  0.37679709  1
  P  P17  1  0.32022453  0.91394949  0.84396510  1
  P  P18  1  0.21983616  0.08098534  0.66025085  1
  P  P19  1  0.23054579  0.68829880  0.16262642  1
  P  P20  1  0.33770797  0.32747211  0.87534932  1
  P  P21  1  0.68267011  0.08335071  0.15294603  1
  P  P22  1  0.92070839  0.30746734  0.34559874  1
  P  P23  1  0.66185946  0.66537553  0.62425144  1
  P  P24  1  0.92481825  0.76904255  0.84350452  1
  P  P25  1  0.32172900  0.76951563  0.34683319  1
  P  P26  1  0.77291263  0.31475524  0.84161556  1
  P  P27  1  0.78089027  0.91541869  0.33959653  1
  O  O28  1  0.51731767  0.12078092  0.16806940  1
  O  O29  1  0.63930076  0.89238258  0.34025620  1
  O  O30  1  0.50655187  0.80961700  0.15391400  1
  O  O31  1  0.00796250  0.77589186  0.92591930  1
  O  O32  1  0.22246064  0.76852026  0.26083892  1
  O  O33  1  0.31879538  0.47950767  0.83409745  1
  O  O34  1  0.75114769  0.00594739  0.06582235  1
  O  O35  1  0.66350790  0.66549874  0.01994617  1
  O  O36  1  0.48974844  0.64006764  0.33305720  1
  O  O37  1  0.00480491  0.21092557  0.42620761  1
  O  O38  1  0.97693055  0.24560134  0.07863333  1
  O  O39  1  0.76374291  0.91677275  0.84116604  1
  O  O40  1  0.08226745  0.54642591  0.65139478  1
  O  O41  1  0.20858932  0.98604195  0.58594015  1
  O  O42  1  0.79039897  0.51033898  0.66413334  1
  O  O43  1  0.23075369  0.08194598  0.15383730  1
  O  O44  1  0.20153856  0.48782533  0.33837872  1
  O  O45  1  0.63985779  0.47976595  0.82846948  1
  O  O46  1  0.21371802  0.01306519  0.75902679  1
  O  O47  1  0.89335120  0.47392514  0.33897092  1
  O  O48  1  0.07970940  0.68520121  0.15497054  1
  O  O49  1  0.33527968  0.33417836  0.47960759  1
  O  O50  1  0.78196207  0.98611881  0.24040150  1
  O  O51  1  0.31296442  0.19886365  0.34105282  1
  O  O52  1  0.66002205  0.66857302  0.52133440  1
  O  O53  1  0.25307297  0.99412152  0.93076276  1
  O  O54  1  0.67284473  0.51322508  0.15518626  1
  O  O55  1  0.67696211  0.08046563  0.65346866  1
  O  O56  1  0.68397543  0.23739133  0.15569442  1
  O  O57  1  0.68739740  0.79345052  0.66530250  1
  O  O58  1  0.36099531  0.52042724  0.17158510  1
  O  O59  1  0.48937670  0.31058645  0.34117317  1
  O  O60  1  0.76116094  0.32050281  0.34513034  1
  O  O61  1  0.49458456  0.18858775  0.84432273  1
  O  O62  1  0.11461819  0.36298416  0.16685506  1
  O  O63  1  0.23841993  0.68011760  0.65526483  1
  O  O64  1  0.90358762  0.62752835  0.83668761  1
  O  O65  1  0.00246281  0.77939786  0.75034661  1
  O  O66  1  0.92167248  0.32012446  0.84195269  1
  O  O67  1  0.54192907  0.37099386  0.65552294  1
  O  O68  1  0.36369114  0.09718075  0.65858218  1
  O  O69  1  0.20584493  0.30690342  0.83343699  1
  O  O70  1  0.00082082  0.22457017  0.25197904  1
  O  O71  1  0.99359952  0.81093383  0.57614785  1
  O  O72  1  0.78943375  0.68678562  0.17045715  1
  O  O73  1  0.32179973  0.92256395  0.34413523  1
  O  O74  1  0.24414163  0.77737288  0.08714198  1
  O  O75  1  0.33859570  0.32981220  0.97800148  1
  O  O76  1  0.92323995  0.75373707  0.34259027  1
  O  O77  1  0.75897013  0.24027826  0.92738399  1
  O  O78  1  0.32484763  0.75814960  0.84206370  1
  O  O79  1  0.07620407  0.24151231  0.65463368  1
  O  O80  1  0.50283485  0.68823386  0.65376013  1
  O  O81  1  0.48328037  0.88257859  0.82675660  1
  O  O82  1  0.79556070  0.00637975  0.41463562  1
  O  O83  1  0.77595601  0.21287008  0.75663705  1
  O  O84  1  0.80242169  0.20516002  0.58238658  1
  O  O85  1  0.25235664  0.76065302  0.43373561  1
