# generated using pymatgen
data_Cu29Se19
_symmetry_space_group_name_H-M   'P 1'
_cell_length_a   4.03782502
_cell_length_b   4.03782532
_cell_length_c   76.70165792
_cell_angle_alpha   60.00478518
_cell_angle_beta   60.00478278
_cell_angle_gamma   59.97669312
_symmetry_Int_Tables_number   1
_chemical_formula_structural   Cu29Se19
_chemical_formula_sum   'Cu29 Se19'
_cell_volume   884.17780406
_cell_formula_units_Z   1
loop_
 _symmetry_equiv_pos_site_id
 _symmetry_equiv_pos_as_xyz
  1  'x, y, z'
loop_
 _atom_site_type_symbol
 _atom_site_label
 _atom_site_symmetry_multiplicity
 _atom_site_fract_x
 _atom_site_fract_y
 _atom_site_fract_z
 _atom_site_occupancy
  Cu  Cu0  1  0.24356907  0.24356907  0.06681081  1
  Cu  Cu1  1  0.75706914  0.75706914  0.03835836  1
  Cu  Cu2  1  0.74187101  0.74187101  0.09338453  1
  Cu  Cu3  1  0.73920204  0.73920204  0.14644093  1
  Cu  Cu4  1  0.74981696  0.74981696  0.19741202  1
  Cu  Cu5  1  0.74936778  0.74936778  0.25010084  1
  Cu  Cu6  1  0.74947559  0.74947559  0.30270461  1
  Cu  Cu7  1  0.74943913  0.74943913  0.35535456  1
  Cu  Cu8  1  0.74943150  0.74943150  0.40798997  1
  Cu  Cu9  1  0.24415370  0.24415370  0.48776714  1
  Cu  Cu10  1  0.76738722  0.76738722  0.45777269  1
  Cu  Cu11  1  0.25612324  0.25612324  0.59113355  1
  Cu  Cu12  1  0.74076654  0.74076654  0.51462748  1
  Cu  Cu13  1  0.25340063  0.25340063  0.64417947  1
  Cu  Cu14  1  0.75618733  0.75618733  0.56481701  1
  Cu  Cu15  1  0.25214100  0.25214100  0.69701876  1
  Cu  Cu16  1  0.76096490  0.76096490  0.61668735  1
  Cu  Cu17  1  0.25162731  0.25162731  0.74974680  1
  Cu  Cu18  1  0.75001098  0.75001098  0.67105445  1
  Cu  Cu19  1  0.74938139  0.74938139  0.72379416  1
  Cu  Cu20  1  0.25127011  0.25127011  0.80241461  1
  Cu  Cu21  1  0.74892280  0.74892280  0.77647484  1
  Cu  Cu22  1  0.25065530  0.25065530  0.85515240  1
  Cu  Cu23  1  0.74857387  0.74857387  0.82918086  1
  Cu  Cu24  1  0.24847063  0.24847063  0.90814883  1
  Cu  Cu25  1  0.74800926  0.74800926  0.88190168  1
  Cu  Cu26  1  0.24135027  0.24135027  0.96188891  1
  Cu  Cu27  1  0.74709802  0.74709802  0.93465553  1
  Cu  Cu28  1  0.72867978  0.72867978  0.99021073  1
  Se  Se29  1  0.99866271  0.99866271  0.00021950  1
  Se  Se30  1  0.00916326  0.00916326  0.05122964  1
  Se  Se31  1  0.99356443  0.99356443  0.10624178  1
  Se  Se32  1  -0.00001037  -0.00001037  0.15788933  1
  Se  Se33  1  0.99938388  0.99938388  0.21066307  1
  Se  Se34  1  0.00035434  0.00035434  0.26307890  1
  Se  Se35  1  0.00093570  0.00093570  0.31562206  1
  Se  Se36  1  0.00548710  0.00548710  0.42018160  1
  Se  Se37  1  0.00139049  0.00139049  0.36822934  1
  Se  Se38  1  0.99758383  0.99758383  0.52671546  1
  Se  Se39  1  0.00941756  0.00941756  0.47218144  1
  Se  Se40  1  0.01066942  0.01066942  0.57727251  1
  Se  Se41  1  0.99706209  0.99706209  0.63199948  1
  Se  Se42  1  0.99780957  0.99780957  0.68456270  1
  Se  Se43  1  0.99970168  0.99970168  0.78948357  1
  Se  Se44  1  0.99891893  0.99891893  0.73703689  1
  Se  Se45  1  0.00142498  0.00142498  0.84190120  1
  Se  Se46  1  0.00288620  0.00288620  0.89431998  1
  Se  Se47  1  0.00117767  0.00117767  0.94714469  1
