# generated using pymatgen
data_La(CuSi)2
_symmetry_space_group_name_H-M   'P 1'
_cell_length_a   4.14392471
_cell_length_b   4.14392471
_cell_length_c   5.78868150
_cell_angle_alpha   110.97333218
_cell_angle_beta   110.97333210
_cell_angle_gamma   90.00000005
_symmetry_Int_Tables_number   1
_chemical_formula_structural   La(CuSi)2
_chemical_formula_sum   'La1 Si2 Cu2'
_cell_volume   85.72785015
_cell_formula_units_Z   1
loop_
 _symmetry_equiv_pos_site_id
 _symmetry_equiv_pos_as_xyz
  1  'x, y, z'
loop_
 _atom_site_type_symbol
 _atom_site_label
 _atom_site_symmetry_multiplicity
 _atom_site_fract_x
 _atom_site_fract_y
 _atom_site_fract_z
 _atom_site_occupancy
  Si  Si0  1  0.62185868  0.62185868  0.24371736  1
  Si  Si1  1  0.37814132  0.37814132  0.75628264  1
  Cu  Cu2  1  0.75000000  0.25000000  0.50000000  1
  Cu  Cu3  1  0.25000000  0.75000000  0.50000000  1
  La  La4  1  0.00000000  0.00000000  0.00000000  1
