# generated using pymatgen
data_K2Re3CS5N
_symmetry_space_group_name_H-M   'P 1'
_cell_length_a   9.34913771
_cell_length_b   10.33102483
_cell_length_c   11.47753026
_cell_angle_alpha   90.00000000
_cell_angle_beta   90.00000000
_cell_angle_gamma   90.00000000
_symmetry_Int_Tables_number   1
_chemical_formula_structural   K2Re3CS5N
_chemical_formula_sum   'K8 Re12 C4 S20 N4'
_cell_volume   1108.57073273
_cell_formula_units_Z   4
loop_
 _symmetry_equiv_pos_site_id
 _symmetry_equiv_pos_as_xyz
  1  'x, y, z'
loop_
 _atom_site_type_symbol
 _atom_site_label
 _atom_site_symmetry_multiplicity
 _atom_site_fract_x
 _atom_site_fract_y
 _atom_site_fract_z
 _atom_site_occupancy
  C  C0  1  0.16939821  0.76119579  0.50000000  1
  C  C1  1  0.16939821  0.73880421  0.00000000  1
  C  C2  1  0.83060179  0.23880421  0.50000000  1
  C  C3  1  0.83060179  0.26119579  0.00000000  1
  K  K4  1  0.04750771  0.75000000  0.25000000  1
  K  K5  1  0.04750771  0.75000000  0.75000000  1
  K  K6  1  0.22130066  0.07423022  0.00000000  1
  K  K7  1  0.22130066  0.42576978  0.50000000  1
  K  K8  1  0.77869934  0.57423022  0.50000000  1
  K  K9  1  0.77869934  0.92576978  0.00000000  1
  K  K10  1  0.95249229  0.25000000  0.25000000  1
  K  K11  1  0.95249229  0.25000000  0.75000000  1
  N  N12  1  0.08247151  0.82229081  0.00000000  1
  N  N13  1  0.08247151  0.67770919  0.50000000  1
  N  N14  1  0.91752849  0.17770919  0.00000000  1
  N  N15  1  0.91752849  0.32229081  0.50000000  1
  Re  Re16  1  0.33792850  0.60468443  0.00000000  1
  Re  Re17  1  0.33792850  0.89531557  0.50000000  1
  Re  Re18  1  0.41770223  0.10585590  0.38527970  1
  Re  Re19  1  0.41770223  0.10585590  0.61472030  1
  Re  Re20  1  0.41770223  0.39414410  0.11472030  1
  Re  Re21  1  0.41770223  0.39414410  0.88527970  1
  Re  Re22  1  0.58229777  0.60585590  0.11472030  1
  Re  Re23  1  0.58229777  0.60585590  0.88527970  1
  Re  Re24  1  0.58229777  0.89414410  0.38527970  1
  Re  Re25  1  0.58229777  0.89414410  0.61472030  1
  Re  Re26  1  0.66207150  0.10468443  0.50000000  1
  Re  Re27  1  0.66207150  0.39531557  0.00000000  1
  S  S28  1  0.19853566  0.09154756  0.50000000  1
  S  S29  1  0.19853566  0.40845244  0.00000000  1
  S  S30  1  0.28781821  0.25000000  0.25000000  1
  S  S31  1  0.28781821  0.25000000  0.75000000  1
  S  S32  1  0.35189943  0.59322879  0.78829673  1
  S  S33  1  0.35189943  0.90677121  0.71170327  1
  S  S34  1  0.35189943  0.59322879  0.21170327  1
  S  S35  1  0.35189943  0.90677121  0.28829673  1
  S  S36  1  0.49473787  0.71225595  0.50000000  1
  S  S37  1  0.49473787  0.78774405  0.00000000  1
  S  S38  1  0.50526213  0.21225595  0.00000000  1
  S  S39  1  0.50526213  0.28774405  0.50000000  1
  S  S40  1  0.64810057  0.09322879  0.28829673  1
  S  S41  1  0.64810057  0.09322879  0.71170327  1
  S  S42  1  0.64810057  0.40677121  0.78829673  1
  S  S43  1  0.64810057  0.40677121  0.21170327  1
  S  S44  1  0.71218179  0.75000000  0.25000000  1
  S  S45  1  0.71218179  0.75000000  0.75000000  1
  S  S46  1  0.80146434  0.59154756  0.00000000  1
  S  S47  1  0.80146434  0.90845244  0.50000000  1
