# generated using pymatgen
data_BaPdS2
_symmetry_space_group_name_H-M   'P 1'
_cell_length_a   5.73698366
_cell_length_b   6.38890245
_cell_length_c   6.38890244
_cell_angle_alpha   115.02886197
_cell_angle_beta   90.00000000
_cell_angle_gamma   90.00000000
_symmetry_Int_Tables_number   1
_chemical_formula_structural   BaPdS2
_chemical_formula_sum   'Ba2 Pd2 S4'
_cell_volume   212.18259502
_cell_formula_units_Z   2
loop_
 _symmetry_equiv_pos_site_id
 _symmetry_equiv_pos_as_xyz
  1  'x, y, z'
loop_
 _atom_site_type_symbol
 _atom_site_label
 _atom_site_symmetry_multiplicity
 _atom_site_fract_x
 _atom_site_fract_y
 _atom_site_fract_z
 _atom_site_occupancy
  S  S0  1  0.75000000  0.85831572  0.67047991  1
  S  S1  1  0.25000000  0.14168428  0.32952009  1
  S  S2  1  0.75000000  0.32952009  0.14168428  1
  S  S3  1  0.25000000  0.67047991  0.85831572  1
  Pd  Pd4  1  0.50000000  0.00000000  0.00000000  1
  Pd  Pd5  1  0.00000000  0.00000000  0.00000000  1
  Ba  Ba6  1  0.75000000  0.34857793  0.65142207  1
  Ba  Ba7  1  0.25000000  0.65142207  0.34857793  1
