# generated using pymatgen
data_GaAsO4
_symmetry_space_group_name_H-M   'P 1'
_cell_length_a   5.11197318
_cell_length_b   5.11197318
_cell_length_c   11.64506554
_cell_angle_alpha   90.00000000
_cell_angle_beta   90.00000000
_cell_angle_gamma   119.99999999
_symmetry_Int_Tables_number   1
_chemical_formula_structural   GaAsO4
_chemical_formula_sum   'Ga3 As3 O12'
_cell_volume   263.54191803
_cell_formula_units_Z   3
loop_
 _symmetry_equiv_pos_site_id
 _symmetry_equiv_pos_as_xyz
  1  'x, y, z'
loop_
 _atom_site_type_symbol
 _atom_site_label
 _atom_site_symmetry_multiplicity
 _atom_site_fract_x
 _atom_site_fract_y
 _atom_site_fract_z
 _atom_site_occupancy
  O  O0  1  0.29247764  0.39940408  0.12709515  1
  O  O1  1  0.60059592  0.89307357  0.46042848  1
  O  O2  1  0.10692643  0.70752236  0.79376182  1
  O  O3  1  0.89307357  0.60059592  0.53957152  1
  O  O4  1  0.70752236  0.10692643  0.20623818  1
  O  O5  1  0.39940408  0.29247764  0.87290485  1
  O  O6  1  0.39702233  0.31145313  0.38320695  1
  O  O7  1  0.68854687  0.08556920  0.71654028  1
  O  O8  1  0.91443080  0.60297767  0.04987362  1
  O  O9  1  0.08556920  0.68854687  0.28345972  1
  O  O10  1  0.60297767  0.91443080  0.95012638  1
  O  O11  1  0.31145313  0.39702233  0.61679305  1
  Ga  Ga12  1  0.45484872  0.00000000  0.33333333  1
  Ga  Ga13  1  0.00000000  0.45484872  0.66666667  1
  Ga  Ga14  1  0.54515128  0.54515128  0.00000000  1
  As  As15  1  0.45405623  0.00000000  0.83333333  1
  As  As16  1  0.00000000  0.45405623  0.16666667  1
  As  As17  1  0.54594377  0.54594377  0.50000000  1
