# generated using pymatgen
data_LaTe2Se
_symmetry_space_group_name_H-M   'P 1'
_cell_length_a   4.33274160
_cell_length_b   4.34631585
_cell_length_c   13.53608627
_cell_angle_alpha   90.00000000
_cell_angle_beta   99.20945624
_cell_angle_gamma   90.00000000
_symmetry_Int_Tables_number   1
_chemical_formula_structural   LaTe2Se
_chemical_formula_sum   'La2 Te4 Se2'
_cell_volume   251.61856306
_cell_formula_units_Z   2
loop_
 _symmetry_equiv_pos_site_id
 _symmetry_equiv_pos_as_xyz
  1  'x, y, z'
loop_
 _atom_site_type_symbol
 _atom_site_label
 _atom_site_symmetry_multiplicity
 _atom_site_fract_x
 _atom_site_fract_y
 _atom_site_fract_z
 _atom_site_occupancy
  Se  Se0  1  0.70510960  0.25000000  0.41021921  1
  Se  Se1  1  0.29489040  0.75000000  0.58978079  1
  Te  Te2  1  0.57948433  0.75000000  0.15896867  1
  Te  Te3  1  0.42051567  0.25000000  0.84103133  1
  Te  Te4  1  0.07950500  0.25000000  0.15900999  1
  Te  Te5  1  0.92049500  0.75000000  0.84099001  1
  La  La6  1  0.18041747  0.75000000  0.36083493  1
  La  La7  1  0.81958253  0.25000000  0.63916507  1
