# generated using pymatgen
data_ZnSiH12(OF)6
_symmetry_space_group_name_H-M   'P 1'
_cell_length_a   6.42499849
_cell_length_b   6.42499826
_cell_length_c   6.42499852
_cell_angle_alpha   96.23425525
_cell_angle_beta   96.23424854
_cell_angle_gamma   96.23424874
_symmetry_Int_Tables_number   1
_chemical_formula_structural   ZnSiH12(OF)6
_chemical_formula_sum   'Zn1 Si1 H12 O6 F6'
_cell_volume   260.14794411
_cell_formula_units_Z   1
loop_
 _symmetry_equiv_pos_site_id
 _symmetry_equiv_pos_as_xyz
  1  'x, y, z'
loop_
 _atom_site_type_symbol
 _atom_site_label
 _atom_site_symmetry_multiplicity
 _atom_site_fract_x
 _atom_site_fract_y
 _atom_site_fract_z
 _atom_site_occupancy
  F  F0  1  0.27192616  0.55991296  0.36565887  1
  F  F1  1  0.36565887  0.27192616  0.55991296  1
  F  F2  1  0.44008704  0.63434113  0.72807384  1
  F  F3  1  0.55991296  0.36565887  0.27192616  1
  F  F4  1  0.63434113  0.72807384  0.44008704  1
  F  F5  1  0.72807384  0.44008704  0.63434113  1
  H  H6  1  0.05526545  0.39944416  0.20734809  1
  H  H7  1  0.18829539  0.68284820  0.80398015  1
  H  H8  1  0.19601985  0.81170461  0.31715180  1
  H  H9  1  0.20734809  0.05526545  0.39944416  1
  H  H10  1  0.31715180  0.19601985  0.81170461  1
  H  H11  1  0.39944416  0.20734809  0.05526545  1
  H  H12  1  0.60055584  0.79265191  0.94473455  1
  H  H13  1  0.68284820  0.80398015  0.18829539  1
  H  H14  1  0.79265191  0.94473455  0.60055584  1
  H  H15  1  0.80398015  0.18829539  0.68284820  1
  H  H16  1  0.81170461  0.31715180  0.19601985  1
  H  H17  1  0.94473455  0.60055584  0.79265191  1
  O  O18  1  0.06120023  0.69794010  0.87399216  1
  O  O19  1  0.12600784  0.93879977  0.30205990  1
  O  O20  1  0.30205990  0.12600784  0.93879977  1
  O  O21  1  0.69794010  0.87399216  0.06120023  1
  O  O22  1  0.87399216  0.06120023  0.69794010  1
  O  O23  1  0.93879977  0.30205990  0.12600784  1
  Si  Si24  1  0.50000000  0.50000000  0.50000000  1
  Zn  Zn25  1  0.00000000  0.00000000  0.00000000  1
