# generated using pymatgen
data_TlGaS2
_symmetry_space_group_name_H-M   'P 1'
_cell_length_a   7.40909820
_cell_length_b   7.40909821
_cell_length_c   15.42691223
_cell_angle_alpha   83.04223488
_cell_angle_beta   83.04223489
_cell_angle_gamma   89.99468068
_symmetry_Int_Tables_number   1
_chemical_formula_structural   TlGaS2
_chemical_formula_sum   'Tl8 Ga8 S16'
_cell_volume   834.33785009
_cell_formula_units_Z   8
loop_
 _symmetry_equiv_pos_site_id
 _symmetry_equiv_pos_as_xyz
  1  'x, y, z'
loop_
 _atom_site_type_symbol
 _atom_site_label
 _atom_site_symmetry_multiplicity
 _atom_site_fract_x
 _atom_site_fract_y
 _atom_site_fract_z
 _atom_site_occupancy
  S  S0  1  0.14433969  0.76930949  0.92808814  1
  S  S1  1  0.23069051  0.85566031  0.57191186  1
  S  S2  1  0.85566031  0.23069051  0.07191186  1
  S  S3  1  0.76930949  0.14433969  0.42808814  1
  S  S4  1  0.06815329  0.44450801  0.24866736  1
  S  S5  1  0.55549199  0.93184671  0.25133264  1
  S  S6  1  0.93184671  0.55549199  0.75133264  1
  S  S7  1  0.44450801  0.06815329  0.74866736  1
  S  S8  1  0.77028747  0.64315161  0.42497343  1
  S  S9  1  0.35684839  0.22971253  0.07502657  1
  S  S10  1  0.22971253  0.35684839  0.57502657  1
  S  S11  1  0.93199268  0.06800732  0.75000000  1
  S  S12  1  0.55588571  0.44411429  0.25000000  1
  S  S13  1  0.44411429  0.55588571  0.75000000  1
  S  S14  1  0.06800732  0.93199268  0.25000000  1
  S  S15  1  0.64315161  0.77028747  0.92497343  1
  Ga  Ga16  1  0.58636656  0.20899325  0.16424809  1
  Ga  Ga17  1  0.79074789  0.91929377  0.33696215  1
  Ga  Ga18  1  0.91929377  0.79074789  0.83696215  1
  Ga  Ga19  1  0.20925211  0.08070623  0.66303785  1
  Ga  Ga20  1  0.20899325  0.58636656  0.66424809  1
  Ga  Ga21  1  0.41363344  0.79100675  0.83575191  1
  Ga  Ga22  1  0.79100675  0.41363344  0.33575191  1
  Ga  Ga23  1  0.08070623  0.20925211  0.16303785  1
  Tl  Tl24  1  0.15484449  0.27733834  0.88406061  1
  Tl  Tl25  1  0.72266166  0.84515551  0.61593939  1
  Tl  Tl26  1  0.84515551  0.72266166  0.11593939  1
  Tl  Tl27  1  0.27733834  0.15484449  0.38406061  1
  Tl  Tl28  1  0.27529426  0.65191479  0.39028213  1
  Tl  Tl29  1  0.34808521  0.72470574  0.10971787  1
  Tl  Tl30  1  0.72470574  0.34808521  0.60971787  1
  Tl  Tl31  1  0.65191479  0.27529426  0.89028213  1
