# generated using pymatgen
data_Tb11CuSe16
_symmetry_space_group_name_H-M   'P 1'
_cell_length_a   30.23049772
_cell_length_b   8.78270676
_cell_length_c   8.69663546
_cell_angle_alpha   90.00000000
_cell_angle_beta   54.87549644
_cell_angle_gamma   54.47561367
_symmetry_Int_Tables_number   1
_chemical_formula_structural   Tb11CuSe16
_chemical_formula_sum   'Tb22 Cu2 Se32'
_cell_volume   1329.12916499
_cell_formula_units_Z   2
loop_
 _symmetry_equiv_pos_site_id
 _symmetry_equiv_pos_as_xyz
  1  'x, y, z'
loop_
 _atom_site_type_symbol
 _atom_site_label
 _atom_site_symmetry_multiplicity
 _atom_site_fract_x
 _atom_site_fract_y
 _atom_site_fract_z
 _atom_site_occupancy
  Tb  Tb0  1  0.06861321  0.61123708  0.36477749  1
  Tb  Tb1  1  0.12608767  0.26115378  0.62263977  1
  Tb  Tb2  1  0.18892981  0.85865729  0.12448502  1
  Tb  Tb3  1  0.25000000  0.12621521  0.75000000  1
  Tb  Tb4  1  0.12681254  0.74503866  0.86092204  1
  Tb  Tb5  1  0.31107019  0.61437653  0.37551498  1
  Tb  Tb6  1  0.37318746  0.25228883  0.63907796  1
  Tb  Tb7  1  0.50192144  0.37238944  0.24388320  1
  Tb  Tb8  1  0.43138679  0.88568993  0.13522251  1
  Tb  Tb9  1  0.49807856  0.12761056  0.75156896  1
  Tb  Tb10  1  0.37391233  0.76550446  0.87736023  1
  Tb  Tb11  1  0.56861321  0.61431007  0.36076966  1
  Tb  Tb12  1  0.62681254  0.24771117  0.63182780  1
  Tb  Tb13  1  0.75000000  0.37378479  0.25000000  1
  Tb  Tb14  1  0.68892981  0.88562347  0.11979574  1
  Tb  Tb15  1  0.62608767  0.73449554  0.87300956  1
  Tb  Tb16  1  0.81107019  0.64134271  0.38020426  1
  Tb  Tb17  1  0.87391233  0.23884622  0.62699044  1
  Tb  Tb18  1  0.93138679  0.88876292  0.13923034  1
  Tb  Tb19  1  0.99807856  0.38007520  0.25611680  1
  Tb  Tb20  1  0.00192144  0.11992480  0.74843104  1
  Tb  Tb21  1  0.87318746  0.75496134  0.86817220  1
  Cu  Cu22  1  0.25000000  0.37387323  0.25000000  1
  Cu  Cu23  1  0.75000000  0.12612677  0.75000000  1
  Se  Se24  1  0.08778405  0.50269378  0.00282469  1
  Se  Se25  1  0.03427608  0.36305839  0.50311156  1
  Se  Se26  1  0.21345801  0.12786777  0.13869803  1
  Se  Se27  1  0.03629819  0.99559698  0.35646074  1
  Se  Se28  1  0.21721331  0.48114479  0.00849078  1
  Se  Se29  1  0.09603794  0.64003080  0.62495867  1
  Se  Se30  1  0.15915952  0.99821833  0.86622541  1
  Se  Se31  1  0.15803146  0.87836770  0.50815964  1
  Se  Se32  1  0.34196854  0.51049355  0.99184036  1
  Se  Se33  1  0.28278669  0.34999804  0.49150922  1
  Se  Se34  1  0.46370181  0.14078975  0.14353926  1
  Se  Se35  1  0.28654199  0.98169981  0.36130197  1
  Se  Se36  1  0.46572392  0.50016270  0.99688844  1
  Se  Se37  1  0.40396206  0.02418255  0.87504133  1
  Se  Se38  1  0.34084048  0.63485641  0.63377459  1
  Se  Se39  1  0.41221595  0.85382997  0.49717531  1
  Se  Se40  1  0.59603794  0.47581745  0.99088958  1
  Se  Se41  1  0.53629819  0.35921025  0.49834648  1
  Se  Se42  1  0.53427608  0.99983730  0.35978413  1
  Se  Se43  1  0.71721331  0.15000196  0.12265598  1
  Se  Se44  1  0.71345801  0.51830019  0.00746993  1
  Se  Se45  1  0.65803146  0.98950645  0.85971450  1
  Se  Se46  1  0.58778405  0.64617003  0.64603913  1
  Se  Se47  1  0.65915952  0.86514359  0.49713651  1
  Se  Se48  1  0.84084048  0.50178167  0.00286349  1
  Se  Se49  1  0.78654199  0.37213223  0.49253007  1
  Se  Se50  1  0.96572392  0.13694161  0.14021587  1
  Se  Se51  1  0.78278669  0.01885521  0.37734402  1
  Se  Se52  1  0.96370181  0.50440302  0.00165352  1
  Se  Se53  1  0.91221595  0.99730622  0.85396087  1
  Se  Se54  1  0.84196854  0.62163230  0.64028550  1
  Se  Se55  1  0.90396206  0.85996920  0.50911042  1
