# generated using pymatgen
data_Dy2Fe14B
_symmetry_space_group_name_H-M   'P 1'
_cell_length_a   8.73004830
_cell_length_b   8.73004830
_cell_length_c   11.89953841
_cell_angle_alpha   90.00000000
_cell_angle_beta   90.00000000
_cell_angle_gamma   90.00000000
_symmetry_Int_Tables_number   1
_chemical_formula_structural   Dy2Fe14B
_chemical_formula_sum   'Dy8 Fe56 B4'
_cell_volume   906.90836601
_cell_formula_units_Z   4
loop_
 _symmetry_equiv_pos_site_id
 _symmetry_equiv_pos_as_xyz
  1  'x, y, z'
loop_
 _atom_site_type_symbol
 _atom_site_label
 _atom_site_symmetry_multiplicity
 _atom_site_fract_x
 _atom_site_fract_y
 _atom_site_fract_z
 _atom_site_occupancy
  B  B0  1  0.62453537  0.37546463  0.00000000  1
  B  B1  1  0.12453537  0.12453537  0.50000000  1
  B  B2  1  0.87546463  0.87546463  0.50000000  1
  B  B3  1  0.37546463  0.62453537  0.00000000  1
  Fe  Fe4  1  0.50000000  0.00000000  0.00000000  1
  Fe  Fe5  1  0.50000000  0.00000000  0.50000000  1
  Fe  Fe6  1  0.00000000  0.50000000  0.50000000  1
  Fe  Fe7  1  0.00000000  0.50000000  0.00000000  1
  Fe  Fe8  1  0.50000000  0.50000000  0.88410423  1
  Fe  Fe9  1  0.00000000  0.00000000  0.38410423  1
  Fe  Fe10  1  0.00000000  0.00000000  0.61589577  1
  Fe  Fe11  1  0.50000000  0.50000000  0.11589577  1
  Fe  Fe12  1  0.68285484  0.68285484  0.75414111  1
  Fe  Fe13  1  0.31714516  0.31714516  0.75414111  1
  Fe  Fe14  1  0.68285484  0.68285484  0.24585889  1
  Fe  Fe15  1  0.18285484  0.81714516  0.25414111  1
  Fe  Fe16  1  0.81714516  0.18285484  0.25414111  1
  Fe  Fe17  1  0.81714516  0.18285484  0.74585889  1
  Fe  Fe18  1  0.18285484  0.81714516  0.74585889  1
  Fe  Fe19  1  0.31714516  0.31714516  0.24585889  1
  Fe  Fe20  1  0.90267727  0.90267727  0.79959039  1
  Fe  Fe21  1  0.09732273  0.09732273  0.79959039  1
  Fe  Fe22  1  0.90267727  0.90267727  0.20040961  1
  Fe  Fe23  1  0.40267727  0.59732273  0.29959039  1
  Fe  Fe24  1  0.59732273  0.40267727  0.29959039  1
  Fe  Fe25  1  0.59732273  0.40267727  0.70040961  1
  Fe  Fe26  1  0.40267727  0.59732273  0.70040961  1
  Fe  Fe27  1  0.09732273  0.09732273  0.20040961  1
  Fe  Fe28  1  0.35886421  0.03704044  0.17470894  1
  Fe  Fe29  1  0.64113579  0.96295956  0.17470894  1
  Fe  Fe30  1  0.03704044  0.35886421  0.82529106  1
  Fe  Fe31  1  0.53704044  0.14113579  0.67470894  1
  Fe  Fe32  1  0.46295956  0.85886421  0.67470894  1
  Fe  Fe33  1  0.14113579  0.53704044  0.32529106  1
  Fe  Fe34  1  0.85886421  0.46295956  0.32529106  1
  Fe  Fe35  1  0.96295956  0.64113579  0.82529106  1
  Fe  Fe36  1  0.64113579  0.96295956  0.82529106  1
  Fe  Fe37  1  0.35886421  0.03704044  0.82529106  1
  Fe  Fe38  1  0.96295956  0.64113579  0.17470894  1
  Fe  Fe39  1  0.46295956  0.85886421  0.32529106  1
  Fe  Fe40  1  0.53704044  0.14113579  0.32529106  1
  Fe  Fe41  1  0.85886421  0.46295956  0.67470894  1
  Fe  Fe42  1  0.14113579  0.53704044  0.67470894  1
  Fe  Fe43  1  0.03704044  0.35886421  0.17470894  1
  Fe  Fe44  1  0.56624384  0.22448193  0.12622164  1
  Fe  Fe45  1  0.43375616  0.77551807  0.12622164  1
  Fe  Fe46  1  0.22448193  0.56624384  0.87377836  1
  Fe  Fe47  1  0.72448193  0.93375616  0.62622164  1
  Fe  Fe48  1  0.27551807  0.06624384  0.62622164  1
  Fe  Fe49  1  0.93375616  0.72448193  0.37377836  1
  Fe  Fe50  1  0.06624384  0.27551807  0.37377836  1
  Fe  Fe51  1  0.77551807  0.43375616  0.87377836  1
  Fe  Fe52  1  0.43375616  0.77551807  0.87377836  1
  Fe  Fe53  1  0.56624384  0.22448193  0.87377836  1
  Fe  Fe54  1  0.77551807  0.43375616  0.12622164  1
  Fe  Fe55  1  0.27551807  0.06624384  0.37377836  1
  Fe  Fe56  1  0.72448193  0.93375616  0.37377836  1
  Fe  Fe57  1  0.06624384  0.27551807  0.62622164  1
  Fe  Fe58  1  0.93375616  0.72448193  0.62622164  1
  Fe  Fe59  1  0.22448193  0.56624384  0.12622164  1
  Dy  Dy60  1  0.85643110  0.14356890  0.00000000  1
  Dy  Dy61  1  0.35643110  0.35643110  0.50000000  1
  Dy  Dy62  1  0.64356890  0.64356890  0.50000000  1
  Dy  Dy63  1  0.14356890  0.85643110  0.00000000  1
  Dy  Dy64  1  0.73280545  0.73280545  0.00000000  1
  Dy  Dy65  1  0.76719455  0.23280545  0.50000000  1
  Dy  Dy66  1  0.23280545  0.76719455  0.50000000  1
  Dy  Dy67  1  0.26719455  0.26719455  0.00000000  1
