# generated using pymatgen
data_NaHf2(PO4)3
_symmetry_space_group_name_H-M   'P 1'
_cell_length_a   9.18271565
_cell_length_b   9.18271545
_cell_length_c   9.18271488
_cell_angle_alpha   57.67412702
_cell_angle_beta   57.67412371
_cell_angle_gamma   57.67412610
_symmetry_Int_Tables_number   1
_chemical_formula_structural   NaHf2(PO4)3
_chemical_formula_sum   'Na2 Hf4 P6 O24'
_cell_volume   518.25563253
_cell_formula_units_Z   2
loop_
 _symmetry_equiv_pos_site_id
 _symmetry_equiv_pos_as_xyz
  1  'x, y, z'
loop_
 _atom_site_type_symbol
 _atom_site_label
 _atom_site_symmetry_multiplicity
 _atom_site_fract_x
 _atom_site_fract_y
 _atom_site_fract_z
 _atom_site_occupancy
  Hf  Hf0  1  0.14557938  0.14557938  0.14557938  1
  Hf  Hf1  1  0.35442062  0.35442062  0.35442062  1
  Hf  Hf2  1  0.64557938  0.64557938  0.64557938  1
  Hf  Hf3  1  0.85442062  0.85442062  0.85442062  1
  Na  Na4  1  0.00000000  0.00000000  0.00000000  1
  Na  Na5  1  0.50000000  0.50000000  0.50000000  1
  O  O6  1  0.41812923  0.56382668  0.78063959  1
  O  O7  1  0.56382668  0.78063959  0.41812923  1
  O  O8  1  0.78063959  0.41812923  0.56382668  1
  O  O9  1  0.49436808  0.87732965  0.71315553  1
  O  O10  1  0.71315553  0.49436808  0.87732965  1
  O  O11  1  0.87732965  0.71315553  0.49436808  1
  O  O12  1  0.62267035  0.00563192  0.78684447  1
  O  O13  1  0.78684447  0.62267035  0.00563192  1
  O  O14  1  0.00563192  0.78684447  0.62267035  1
  O  O15  1  0.71936041  0.93617332  0.08187077  1
  O  O16  1  0.93617332  0.08187077  0.71936041  1
  O  O17  1  0.08187077  0.71936041  0.93617332  1
  O  O18  1  0.91812923  0.28063959  0.06382668  1
  O  O19  1  0.06382668  0.91812923  0.28063959  1
  O  O20  1  0.28063959  0.06382668  0.91812923  1
  O  O21  1  0.99436808  0.21315553  0.37732965  1
  O  O22  1  0.21315553  0.37732965  0.99436808  1
  O  O23  1  0.37732965  0.99436808  0.21315553  1
  O  O24  1  0.12267035  0.28684447  0.50563192  1
  O  O25  1  0.28684447  0.50563192  0.12267035  1
  O  O26  1  0.50563192  0.12267035  0.28684447  1
  O  O27  1  0.21936041  0.58187077  0.43617332  1
  O  O28  1  0.43617332  0.21936041  0.58187077  1
  O  O29  1  0.58187077  0.43617332  0.21936041  1
  P  P30  1  0.45943986  0.04056014  0.75000000  1
  P  P31  1  0.75000000  0.45943986  0.04056014  1
  P  P32  1  0.04056014  0.75000000  0.45943986  1
  P  P33  1  0.95943986  0.25000000  0.54056014  1
  P  P34  1  0.25000000  0.54056014  0.95943986  1
  P  P35  1  0.54056014  0.95943986  0.25000000  1
