# generated using pymatgen
data_NaDy3Ti2(SbO7)2
_symmetry_space_group_name_H-M   'P 1'
_cell_length_a   7.30736598
_cell_length_b   14.62911603
_cell_length_c   12.68291840
_cell_angle_alpha   29.89143840
_cell_angle_beta   54.42306399
_cell_angle_gamma   59.70867887
_symmetry_Int_Tables_number   1
_chemical_formula_structural   NaDy3Ti2(SbO7)2
_chemical_formula_sum   'Na2 Dy6 Ti4 Sb4 O28'
_cell_volume   549.55254210
_cell_formula_units_Z   2
loop_
 _symmetry_equiv_pos_site_id
 _symmetry_equiv_pos_as_xyz
  1  'x, y, z'
loop_
 _atom_site_type_symbol
 _atom_site_label
 _atom_site_symmetry_multiplicity
 _atom_site_fract_x
 _atom_site_fract_y
 _atom_site_fract_z
 _atom_site_occupancy
  Dy  Dy0  1  0.00000296  0.02330788  0.97670307  1
  Dy  Dy1  1  0.50000572  0.00417693  0.99583552  1
  Dy  Dy2  1  0.99999719  0.47669206  0.02329692  1
  Dy  Dy3  1  0.00000010  0.74999997  0.00000006  1
  Dy  Dy4  1  0.49999430  0.49582296  0.00416458  1
  Dy  Dy5  1  -0.00000007  0.74999993  0.50000002  1
  Na  Na6  1  -0.00000006  0.24999990  0.50000007  1
  Na  Na7  1  0.00000007  0.24999990  0.00000011  1
  O  O8  1  0.13067128  0.98644177  0.13082035  1
  O  O9  1  0.17678896  0.20155452  0.18164954  1
  O  O10  1  0.17536570  0.98023096  0.59390893  1
  O  O11  1  0.13063822  0.51357241  0.10367758  1
  O  O12  1  0.57230496  0.20729804  0.17208490  1
  O  O13  1  0.18164491  0.69647519  0.17474650  1
  O  O14  1  0.42771041  0.20730879  0.41328723  1
  O  O15  1  0.17679864  0.29845798  0.58475707  1
  O  O16  1  0.57976561  0.50062294  0.17049412  1
  O  O17  1  0.17528535  0.51974853  0.55445464  1
  O  O18  1  0.42023452  0.99937708  0.82950592  1
  O  O19  1  0.58025134  0.70683843  0.16581650  1
  O  O20  1  0.82320103  0.20154230  0.41524277  1
  O  O21  1  0.57228968  0.29269109  0.58671294  1
  O  O22  1  0.42769498  0.29270179  0.82791526  1
  O  O23  1  0.18161742  0.80347895  0.56775359  1
  O  O24  1  0.41972592  0.70683529  0.42052505  1
  O  O25  1  0.57973579  0.99937366  0.17175158  1
  O  O26  1  0.82463435  0.51976899  0.40609121  1
  O  O27  1  0.86936171  0.98642752  0.89632257  1
  O  O28  1  0.42026409  0.50062640  0.82824837  1
  O  O29  1  0.82321131  0.29844564  0.81835016  1
  O  O30  1  0.81838288  0.69652125  0.43224606  1
  O  O31  1  0.58027405  0.79316455  0.57947511  1
  O  O32  1  0.41974854  0.79316144  0.83418367  1
  O  O33  1  0.86932872  0.51355817  0.86917969  1
  O  O34  1  0.82471453  0.98025132  0.44554547  1
  O  O35  1  0.81835467  0.80352520  0.82525332  1
  Sb  Sb36  1  0.50004054  0.99538836  0.50459590  1
  Sb  Sb37  1  0.50000085  0.25000003  0.49999960  1
  Sb  Sb38  1  0.49995928  0.50461147  0.49540436  1
  Sb  Sb39  1  0.49999947  0.24999985  0.00000031  1
  Ti  Ti40  1  0.00002303  0.98698844  0.51300613  1
  Ti  Ti41  1  0.49999995  0.75000020  0.49999981  1
  Ti  Ti42  1  0.99997693  0.51301191  0.48699354  1
  Ti  Ti43  1  0.50000015  0.75000002  -0.00000011  1
