# generated using pymatgen
data_Rb2Mn3Se4
_symmetry_space_group_name_H-M   'P 1'
_cell_length_a   6.26196853
_cell_length_b   9.85437889
_cell_length_c   9.85437888
_cell_angle_alpha   74.80663800
_cell_angle_beta   71.47459120
_cell_angle_gamma   71.47459117
_symmetry_Int_Tables_number   1
_chemical_formula_structural   Rb2Mn3Se4
_chemical_formula_sum   'Rb4 Mn6 Se8'
_cell_volume   537.85395216
_cell_formula_units_Z   2
loop_
 _symmetry_equiv_pos_site_id
 _symmetry_equiv_pos_as_xyz
  1  'x, y, z'
loop_
 _atom_site_type_symbol
 _atom_site_label
 _atom_site_symmetry_multiplicity
 _atom_site_fract_x
 _atom_site_fract_y
 _atom_site_fract_z
 _atom_site_occupancy
  Mn  Mn0  1  0.25000000  0.52174694  0.97825306  1
  Mn  Mn1  1  0.25000000  0.97825306  0.52174694  1
  Mn  Mn2  1  0.75000000  0.47825306  0.02174694  1
  Mn  Mn3  1  0.75000000  0.75000000  0.75000000  1
  Mn  Mn4  1  0.25000000  0.25000000  0.25000000  1
  Mn  Mn5  1  0.75000000  0.02174694  0.47825306  1
  Se  Se6  1  0.36808089  0.21985141  0.48592192  1
  Se  Se7  1  0.57385422  0.28014859  0.01407808  1
  Se  Se8  1  0.13191911  0.01407808  0.28014859  1
  Se  Se9  1  0.92614578  0.48592192  0.21985141  1
  Se  Se10  1  0.63191911  0.78014859  0.51407808  1
  Se  Se11  1  0.42614578  0.71985141  0.98592192  1
  Se  Se12  1  0.86808089  0.98592192  0.71985141  1
  Se  Se13  1  0.07385422  0.51407808  0.78014859  1
  Rb  Rb14  1  0.23684506  0.12216156  0.87783844  1
  Rb  Rb15  1  0.73684506  0.37783844  0.62216156  1
  Rb  Rb16  1  0.26315494  0.62216156  0.37783844  1
  Rb  Rb17  1  0.76315494  0.87783844  0.12216156  1
