# generated using pymatgen
data_In14Ga3Pt2O8F15
_symmetry_space_group_name_H-M   'P 1'
_cell_length_a   16.05675860
_cell_length_b   16.05675903
_cell_length_c   16.05675866
_cell_angle_alpha   26.01820201
_cell_angle_beta   26.01820051
_cell_angle_gamma   26.01820319
_symmetry_Int_Tables_number   1
_chemical_formula_structural   In14Ga3Pt2O8F15
_chemical_formula_sum   'In14 Ga3 Pt2 O8 F15'
_cell_volume   701.69334352
_cell_formula_units_Z   1
loop_
 _symmetry_equiv_pos_site_id
 _symmetry_equiv_pos_as_xyz
  1  'x, y, z'
loop_
 _atom_site_type_symbol
 _atom_site_label
 _atom_site_symmetry_multiplicity
 _atom_site_fract_x
 _atom_site_fract_y
 _atom_site_fract_z
 _atom_site_occupancy
  F  F0  1  0.00000000  0.00000000  0.00000000  1
  F  F1  1  0.05412445  0.05412445  0.05412445  1
  F  F2  1  0.04597148  0.06973983  0.54379179  1
  F  F3  1  0.06973983  0.54379179  0.04597148  1
  F  F4  1  0.54379179  0.04597148  0.06973983  1
  F  F5  1  0.22561194  0.57140597  0.63246378  1
  F  F6  1  0.57140597  0.63246378  0.22561194  1
  F  F7  1  0.63246378  0.22561194  0.57140597  1
  F  F8  1  0.36753622  0.77438806  0.42859403  1
  F  F9  1  0.42859403  0.36753622  0.77438806  1
  F  F10  1  0.77438806  0.42859403  0.36753622  1
  F  F11  1  0.45620821  0.95402852  0.93026017  1
  F  F12  1  0.95402852  0.93026017  0.45620821  1
  F  F13  1  0.93026017  0.45620821  0.95402852  1
  F  F14  1  0.94587555  0.94587555  0.94587555  1
  Ga  Ga15  1  0.30017642  0.30017642  0.30017642  1
  Ga  Ga16  1  0.50000000  0.50000000  0.50000000  1
  Ga  Ga17  1  0.69982358  0.69982358  0.69982358  1
  In  In18  1  0.14960062  0.14960062  0.14960062  1
  In  In19  1  0.19388680  0.19334421  0.70201188  1
  In  In20  1  0.19334421  0.70201188  0.19388680  1
  In  In21  1  0.70201188  0.19388680  0.19334421  1
  In  In22  1  0.09134038  0.58685935  0.60907619  1
  In  In23  1  0.58685935  0.60907619  0.09134038  1
  In  In24  1  0.60907619  0.09134038  0.58685935  1
  In  In25  1  0.41314065  0.39092381  0.90865962  1
  In  In26  1  0.39092381  0.90865962  0.41314065  1
  In  In27  1  0.90865962  0.41314065  0.39092381  1
  In  In28  1  0.29798812  0.80611320  0.80665579  1
  In  In29  1  0.80665579  0.29798812  0.80611320  1
  In  In30  1  0.80611320  0.80665579  0.29798812  1
  In  In31  1  0.85039938  0.85039938  0.85039938  1
  O  O32  1  0.25941585  0.25941585  0.25941585  1
  O  O33  1  0.17267972  0.17261676  0.59685827  1
  O  O34  1  0.17261676  0.59685827  0.17267972  1
  O  O35  1  0.59685827  0.17267972  0.17261676  1
  O  O36  1  0.40314173  0.82732028  0.82738324  1
  O  O37  1  0.82732028  0.82738324  0.40314173  1
  O  O38  1  0.82738324  0.40314173  0.82732028  1
  O  O39  1  0.74058415  0.74058415  0.74058415  1
  Pt  Pt40  1  0.39640889  0.39640889  0.39640889  1
  Pt  Pt41  1  0.60359111  0.60359111  0.60359111  1
