# generated using pymatgen
data_Eu(AsRu)2
_symmetry_space_group_name_H-M   'P 1'
_cell_length_a   4.21537106
_cell_length_b   4.21537106
_cell_length_c   6.15107954
_cell_angle_alpha   110.03858865
_cell_angle_beta   110.03858863
_cell_angle_gamma   90.00000002
_symmetry_Int_Tables_number   1
_chemical_formula_structural   Eu(AsRu)2
_chemical_formula_sum   'Eu1 As2 Ru2'
_cell_volume   95.61018889
_cell_formula_units_Z   1
loop_
 _symmetry_equiv_pos_site_id
 _symmetry_equiv_pos_as_xyz
  1  'x, y, z'
loop_
 _atom_site_type_symbol
 _atom_site_label
 _atom_site_symmetry_multiplicity
 _atom_site_fract_x
 _atom_site_fract_y
 _atom_site_fract_z
 _atom_site_occupancy
  As  As0  1  0.63553156  0.63553156  0.27106312  1
  As  As1  1  0.36446844  0.36446844  0.72893688  1
  Ru  Ru2  1  0.25000000  0.75000000  0.50000000  1
  Ru  Ru3  1  0.75000000  0.25000000  0.50000000  1
  Eu  Eu4  1  0.00000000  0.00000000  0.00000000  1
