# generated using pymatgen
data_U2P2O9
_symmetry_space_group_name_H-M   'P 1'
_cell_length_a   5.77070914
_cell_length_b   5.77070914
_cell_length_c   12.77270746
_cell_angle_alpha   90.00000000
_cell_angle_beta   90.00000000
_cell_angle_gamma   103.64073770
_symmetry_Int_Tables_number   1
_chemical_formula_structural   U2P2O9
_chemical_formula_sum   'U4 P4 O18'
_cell_volume   413.34753814
_cell_formula_units_Z   2
loop_
 _symmetry_equiv_pos_site_id
 _symmetry_equiv_pos_as_xyz
  1  'x, y, z'
loop_
 _atom_site_type_symbol
 _atom_site_label
 _atom_site_symmetry_multiplicity
 _atom_site_fract_x
 _atom_site_fract_y
 _atom_site_fract_z
 _atom_site_occupancy
  O  O0  1  0.44149697  0.55850303  0.62370343  1
  O  O1  1  0.05850303  0.94149697  0.12370343  1
  O  O2  1  0.55850303  0.44149697  0.37629657  1
  O  O3  1  0.94149697  0.05850303  0.87629657  1
  O  O4  1  0.00000000  0.00000000  0.50000000  1
  O  O5  1  0.50000000  0.50000000  0.00000000  1
  O  O6  1  0.13975278  0.86024722  0.73904500  1
  O  O7  1  0.36024722  0.63975278  0.23904500  1
  O  O8  1  0.35369963  0.98580565  0.91350624  1
  O  O9  1  0.14630037  0.51419435  0.41350624  1
  O  O10  1  0.98580565  0.35369963  0.08649376  1
  O  O11  1  0.51419435  0.14630037  0.58649376  1
  O  O12  1  0.64630037  0.01419435  0.08649376  1
  O  O13  1  0.85369963  0.48580565  0.58649376  1
  O  O14  1  0.01419435  0.64630037  0.91350624  1
  O  O15  1  0.48580565  0.85369963  0.41350624  1
  O  O16  1  0.63975278  0.36024722  0.76095500  1
  O  O17  1  0.86024722  0.13975278  0.26095500  1
  P  P18  1  0.60926452  0.39073548  0.64365284  1
  P  P19  1  0.89073548  0.10926452  0.14365284  1
  P  P20  1  0.39073548  0.60926452  0.35634716  1
  P  P21  1  0.10926452  0.89073548  0.85634716  1
  U  U22  1  0.70861117  0.29138883  0.93094055  1
  U  U23  1  0.79138883  0.20861117  0.43094055  1
  U  U24  1  0.29138883  0.70861117  0.06905945  1
  U  U25  1  0.20861117  0.79138883  0.56905945  1
