# generated using pymatgen
data_CaNb2Ga2(CuO4)3
_symmetry_space_group_name_H-M   'P 1'
_cell_length_a   13.09937226
_cell_length_b   7.56292614
_cell_length_c   7.56292602
_cell_angle_alpha   90.00000000
_cell_angle_beta   54.73561075
_cell_angle_gamma   54.73561010
_symmetry_Int_Tables_number   1
_chemical_formula_structural   CaNb2Ga2(CuO4)3
_chemical_formula_sum   'Ca2 Nb4 Ga4 Cu6 O24'
_cell_volume   432.58312179
_cell_formula_units_Z   2
loop_
 _symmetry_equiv_pos_site_id
 _symmetry_equiv_pos_as_xyz
  1  'x, y, z'
loop_
 _atom_site_type_symbol
 _atom_site_label
 _atom_site_symmetry_multiplicity
 _atom_site_fract_x
 _atom_site_fract_y
 _atom_site_fract_z
 _atom_site_occupancy
  Ca  Ca0  1  0.00000000  0.00000000  0.00000000  1
  Ca  Ca1  1  0.50000000  0.00000000  0.00000000  1
  Nb  Nb2  1  0.25000000  0.00000000  0.00000000  1
  Nb  Nb3  1  0.25000000  0.50000000  0.50000000  1
  Nb  Nb4  1  0.75000000  0.50000000  0.00000000  1
  Nb  Nb5  1  0.75000000  0.00000000  0.50000000  1
  Ga  Ga6  1  0.25000000  0.50000000  0.00000000  1
  Ga  Ga7  1  0.25000000  0.00000000  0.50000000  1
  Ga  Ga8  1  0.75000000  0.00000000  0.00000000  1
  Ga  Ga9  1  0.75000000  0.50000000  0.50000000  1
  Cu  Cu10  1  0.00000000  0.50000000  0.00000000  1
  Cu  Cu11  1  0.00000000  0.00000000  0.50000000  1
  Cu  Cu12  1  0.50000000  0.00000000  0.50000000  1
  Cu  Cu13  1  0.50000000  0.50000000  0.00000000  1
  Cu  Cu14  1  0.50000000  0.50000000  0.50000000  1
  Cu  Cu15  1  0.00000000  0.50000000  0.50000000  1
  O  O16  1  0.00088012  0.69521375  0.17413449  1
  O  O17  1  0.19609387  0.12889153  0.30478625  1
  O  O18  1  0.19609387  0.47892074  0.30302602  1
  O  O19  1  0.17501460  0.82410528  0.12889153  1
  O  O20  1  0.99911988  0.69697398  0.82586551  1
  O  O21  1  0.32498540  0.17413449  0.47892074  1
  O  O22  1  0.17501460  0.82586551  0.52107926  1
  O  O23  1  0.50088012  0.30302602  0.17413449  1
  O  O24  1  0.32498540  0.17589472  0.87110847  1
  O  O25  1  0.30390613  0.52107926  0.69697398  1
  O  O26  1  0.49911988  0.69697398  0.17589472  1
  O  O27  1  0.30390613  0.87110847  0.69521375  1
  O  O28  1  0.69609387  0.12889153  0.30302602  1
  O  O29  1  0.49911988  0.30478625  0.82586551  1
  O  O30  1  0.69609387  0.47892074  0.30478625  1
  O  O31  1  0.67501460  0.82586551  0.12889153  1
  O  O32  1  0.50088012  0.69521375  0.82410528  1
  O  O33  1  0.82498540  0.17589472  0.47892074  1
  O  O34  1  0.67501460  0.82410528  0.52107926  1
  O  O35  1  0.99911988  0.30478625  0.17589472  1
  O  O36  1  0.82498540  0.17413449  0.87110847  1
  O  O37  1  0.80390613  0.52107926  0.69521375  1
  O  O38  1  0.80390613  0.87110847  0.69697398  1
  O  O39  1  0.00088012  0.30302602  0.82410528  1
