# generated using pymatgen
data_La2SO6
_symmetry_space_group_name_H-M   'P 1'
_cell_length_a   4.31635039
_cell_length_b   7.54978327
_cell_length_c   8.44847207
_cell_angle_alpha   106.44348728
_cell_angle_beta   90.00000000
_cell_angle_gamma   106.61021549
_symmetry_Int_Tables_number   1
_chemical_formula_structural   La2SO6
_chemical_formula_sum   'La4 S2 O12'
_cell_volume   252.05297141
_cell_formula_units_Z   2
loop_
 _symmetry_equiv_pos_site_id
 _symmetry_equiv_pos_as_xyz
  1  'x, y, z'
loop_
 _atom_site_type_symbol
 _atom_site_label
 _atom_site_symmetry_multiplicity
 _atom_site_fract_x
 _atom_site_fract_y
 _atom_site_fract_z
 _atom_site_occupancy
  O  O0  1  0.95689914  0.17822953  0.79395715  1
  O  O1  1  0.77866961  0.82177047  0.70604285  1
  O  O2  1  0.04310086  0.82177047  0.20604285  1
  O  O3  1  0.22133039  0.17822953  0.29395715  1
  O  O4  1  0.26101833  0.49520949  0.12392175  1
  O  O5  1  0.76580884  0.50479051  0.37607825  1
  O  O6  1  0.73757108  0.00133273  0.39407509  1
  O  O7  1  0.23419116  0.49520949  0.62392175  1
  O  O8  1  0.26376166  0.00133273  0.89407509  1
  O  O9  1  0.73898167  0.50479051  0.87607825  1
  O  O10  1  0.73623834  0.99866727  0.10592491  1
  O  O11  1  0.26242892  0.99866727  0.60592491  1
  S  S12  1  0.94027086  0.00000000  0.25000000  1
  S  S13  1  0.05972914  0.00000000  0.75000000  1
  La  La14  1  0.32697272  0.66404373  0.91630127  1
  La  La15  1  0.66292899  0.33595627  0.58369873  1
  La  La16  1  0.33707101  0.66404373  0.41630127  1
  La  La17  1  0.67302728  0.33595627  0.08369873  1
