# generated using pymatgen
data_NaSm3Ti2(SbO7)2
_symmetry_space_group_name_H-M   'P 1'
_cell_length_a   7.38686509
_cell_length_b   14.76455909
_cell_length_c   12.80624520
_cell_angle_alpha   29.84602072
_cell_angle_beta   54.40945803
_cell_angle_gamma   59.68197529
_symmetry_Int_Tables_number   1
_chemical_formula_structural   NaSm3Ti2(SbO7)2
_chemical_formula_sum   'Na2 Sm6 Ti4 Sb4 O28'
_cell_volume   565.24965696
_cell_formula_units_Z   2
loop_
 _symmetry_equiv_pos_site_id
 _symmetry_equiv_pos_as_xyz
  1  'x, y, z'
loop_
 _atom_site_type_symbol
 _atom_site_label
 _atom_site_symmetry_multiplicity
 _atom_site_fract_x
 _atom_site_fract_y
 _atom_site_fract_z
 _atom_site_occupancy
  Na  Na0  1  0.00000006  0.24999996  0.00000001  1
  Na  Na1  1  -0.00000006  0.24999997  0.50000008  1
  O  O2  1  0.17999211  0.19708603  0.18456671  1
  O  O3  1  0.12735042  0.50571438  0.11523583  1
  O  O4  1  0.17870491  0.98102900  0.58985915  1
  O  O5  1  0.57195281  0.20312746  0.17518585  1
  O  O6  1  0.42799743  0.20313176  0.41857191  1
  O  O7  1  0.17999544  0.30290689  0.57875809  1
  O  O8  1  0.18274626  0.69704561  0.17493943  1
  O  O9  1  0.57714237  0.50016736  0.17291188  1
  O  O10  1  0.12737060  0.99428375  0.12665719  1
  O  O11  1  0.42285746  0.99983269  0.82708814  1
  O  O12  1  0.17871664  0.51895716  0.55193944  1
  O  O13  1  0.57200243  0.29686827  0.58142810  1
  O  O14  1  0.82000451  0.19709301  0.42124209  1
  O  O15  1  0.57775182  0.70505152  0.16768960  1
  O  O16  1  0.42230185  0.70503769  0.42220679  1
  O  O17  1  0.42804727  0.29687266  0.82481405  1
  O  O18  1  0.18272363  0.80295453  0.56901026  1
  O  O19  1  0.82129511  0.51897089  0.41014092  1
  O  O20  1  0.87264944  0.99428564  0.88476423  1
  O  O21  1  0.42284547  0.50016933  0.82675712  1
  O  O22  1  0.57715466  0.99983073  0.17324279  1
  O  O23  1  0.82000798  0.30291377  0.81543342  1
  O  O24  1  0.81727622  0.69704540  0.43098974  1
  O  O25  1  0.57769811  0.79496231  0.57779323  1
  O  O26  1  0.42224822  0.79494852  0.83231036  1
  O  O27  1  0.82128336  0.98104284  0.44806056  1
  O  O28  1  0.87262948  0.50571627  0.87334276  1
  O  O29  1  0.81725381  0.80295428  0.82506068  1
  Sb  Sb30  1  0.50000012  0.25000003  0.49999986  1
  Sb  Sb31  1  0.49998815  0.50507533  0.49491864  1
  Sb  Sb32  1  0.49999994  0.25000003  0.00000005  1
  Sb  Sb33  1  0.50001183  0.99492474  0.50508130  1
  Sm  Sm34  1  0.00000441  0.02221514  0.97778620  1
  Sm  Sm35  1  0.50000349  0.00696613  0.99303987  1
  Sm  Sm36  1  0.99999553  0.47778501  0.02221369  1
  Sm  Sm37  1  0.00000000  0.74999998  0.00000002  1
  Sm  Sm38  1  0.49999650  0.49303427  0.00695976  1
  Sm  Sm39  1  0.00000004  0.74999998  0.50000003  1
  Ti  Ti40  1  0.00001641  0.98713903  0.51285048  1
  Ti  Ti41  1  0.50000026  0.75000002  0.49999981  1
  Ti  Ti42  1  0.99998367  0.51286060  0.48714984  1
  Ti  Ti43  1  0.49999985  0.75000006  0.00000005  1
