# generated using pymatgen
data_Dy(SiIr)2
_symmetry_space_group_name_H-M   'P 1'
_cell_length_a   4.08398160
_cell_length_b   4.08398160
_cell_length_c   5.76286712
_cell_angle_alpha   110.75274974
_cell_angle_beta   110.75274969
_cell_angle_gamma   90.00000000
_symmetry_Int_Tables_number   1
_chemical_formula_structural   Dy(SiIr)2
_chemical_formula_sum   'Dy1 Si2 Ir2'
_cell_volume   83.17940120
_cell_formula_units_Z   1
loop_
 _symmetry_equiv_pos_site_id
 _symmetry_equiv_pos_as_xyz
  1  'x, y, z'
loop_
 _atom_site_type_symbol
 _atom_site_label
 _atom_site_symmetry_multiplicity
 _atom_site_fract_x
 _atom_site_fract_y
 _atom_site_fract_z
 _atom_site_occupancy
  Si  Si0  1  0.62122313  0.62122313  0.24244626  1
  Si  Si1  1  0.37877687  0.37877687  0.75755374  1
  Dy  Dy2  1  0.00000000  0.00000000  0.00000000  1
  Ir  Ir3  1  0.25000000  0.75000000  0.50000000  1
  Ir  Ir4  1  0.75000000  0.25000000  0.50000000  1
