# generated using pymatgen
data_KGaO2
_symmetry_space_group_name_H-M   'P 1'
_cell_length_a   5.61039925
_cell_length_b   11.25135922
_cell_length_c   15.95815986
_cell_angle_alpha   90.00000000
_cell_angle_beta   90.00000000
_cell_angle_gamma   90.00000000
_symmetry_Int_Tables_number   1
_chemical_formula_structural   KGaO2
_chemical_formula_sum   'K16 Ga16 O32'
_cell_volume   1007.35273444
_cell_formula_units_Z   16
loop_
 _symmetry_equiv_pos_site_id
 _symmetry_equiv_pos_as_xyz
  1  'x, y, z'
loop_
 _atom_site_type_symbol
 _atom_site_label
 _atom_site_symmetry_multiplicity
 _atom_site_fract_x
 _atom_site_fract_y
 _atom_site_fract_z
 _atom_site_occupancy
  O  O0  1  0.44581089  0.98064702  0.28614950  1
  O  O1  1  0.94581089  0.51935298  0.71385050  1
  O  O2  1  0.55418911  0.48064702  0.21385050  1
  O  O3  1  0.05418911  0.01935298  0.78614950  1
  O  O4  1  0.55418911  0.01935298  0.71385050  1
  O  O5  1  0.05418911  0.48064702  0.28614950  1
  O  O6  1  0.44581089  0.51935298  0.78614950  1
  O  O7  1  0.94581089  0.98064702  0.21385050  1
  O  O8  1  0.83919645  0.16546836  0.34324207  1
  O  O9  1  0.33919645  0.33453164  0.65675793  1
  O  O10  1  0.16080355  0.66546836  0.15675793  1
  O  O11  1  0.66080355  0.83453164  0.84324207  1
  O  O12  1  0.16080355  0.83453164  0.65675793  1
  O  O13  1  0.66080355  0.66546836  0.34324207  1
  O  O14  1  0.83919645  0.33453164  0.84324207  1
  O  O15  1  0.56091608  0.30551311  0.01009845  1
  O  O16  1  0.64523461  0.40602323  0.39765788  1
  O  O17  1  0.14523461  0.09397677  0.60234212  1
  O  O18  1  0.35476539  0.90602323  0.10234212  1
  O  O19  1  0.85476539  0.59397677  0.89765788  1
  O  O20  1  0.35476539  0.59397677  0.60234212  1
  O  O21  1  0.85476539  0.90602323  0.39765788  1
  O  O22  1  0.64523461  0.09397677  0.89765788  1
  O  O23  1  0.14523461  0.40602323  0.10234212  1
  O  O24  1  0.06091608  0.30551311  0.48990155  1
  O  O25  1  0.56091608  0.19448689  0.51009845  1
  O  O26  1  0.93908392  0.80551311  0.01009845  1
  O  O27  1  0.43908392  0.69448689  0.98990155  1
  O  O28  1  0.93908392  0.69448689  0.51009845  1
  O  O29  1  0.43908392  0.80551311  0.48990155  1
  O  O30  1  0.06091608  0.19448689  0.98990155  1
  O  O31  1  0.33919645  0.16546836  0.15675793  1
  K  K32  1  0.29375052  0.26634222  0.31611875  1
  K  K33  1  0.79375052  0.23365778  0.68388125  1
  K  K34  1  0.70624948  0.76634222  0.18388125  1
  K  K35  1  0.20624948  0.73365778  0.81611875  1
  K  K36  1  0.70624948  0.73365778  0.68388125  1
  K  K37  1  0.20624948  0.76634222  0.31611875  1
  K  K38  1  0.29375052  0.23365778  0.81611875  1
  K  K39  1  0.79375052  0.26634222  0.18388125  1
  K  K40  1  0.25709090  0.01386954  0.43931119  1
  K  K41  1  0.75709090  0.48613046  0.56068881  1
  K  K42  1  0.74290910  0.51386954  0.06068881  1
  K  K43  1  0.24290910  0.98613046  0.93931119  1
  K  K44  1  0.74290910  0.98613046  0.56068881  1
  K  K45  1  0.24290910  0.51386954  0.43931119  1
  K  K46  1  0.25709090  0.48613046  0.93931119  1
  K  K47  1  0.75709090  0.01386954  0.06068881  1
  Ga  Ga48  1  0.77777299  0.26253795  0.43549265  1
  Ga  Ga49  1  0.27777299  0.23746205  0.56450735  1
  Ga  Ga50  1  0.22222701  0.76253795  0.06450735  1
  Ga  Ga51  1  0.72222701  0.73746205  0.93549265  1
  Ga  Ga52  1  0.22222701  0.73746205  0.56450735  1
  Ga  Ga53  1  0.72222701  0.76253795  0.43549265  1
  Ga  Ga54  1  0.77777299  0.23746205  0.93549265  1
  Ga  Ga55  1  0.27777299  0.26253795  0.06450735  1
  Ga  Ga56  1  0.76668126  0.00934413  0.31098250  1
  Ga  Ga57  1  0.26668126  0.49065587  0.68901750  1
  Ga  Ga58  1  0.23331874  0.50934413  0.18901750  1
  Ga  Ga59  1  0.73331874  0.99065587  0.81098250  1
  Ga  Ga60  1  0.23331874  0.99065587  0.68901750  1
  Ga  Ga61  1  0.73331874  0.50934413  0.31098250  1
  Ga  Ga62  1  0.76668126  0.49065587  0.81098250  1
  Ga  Ga63  1  0.26668126  0.00934413  0.18901750  1
