# generated using pymatgen
data_LiNi2P4H3O14
_symmetry_space_group_name_H-M   'P 1'
_cell_length_a   8.49717147
_cell_length_b   8.49717111
_cell_length_c   8.97031030
_cell_angle_alpha   110.89978699
_cell_angle_beta   110.89978773
_cell_angle_gamma   98.91996846
_symmetry_Int_Tables_number   1
_chemical_formula_structural   LiNi2P4H3O14
_chemical_formula_sum   'Li2 Ni4 P8 H6 O28'
_cell_volume   534.86024210
_cell_formula_units_Z   2
loop_
 _symmetry_equiv_pos_site_id
 _symmetry_equiv_pos_as_xyz
  1  'x, y, z'
loop_
 _atom_site_type_symbol
 _atom_site_label
 _atom_site_symmetry_multiplicity
 _atom_site_fract_x
 _atom_site_fract_y
 _atom_site_fract_z
 _atom_site_occupancy
  H  H0  1  0.47776461  0.97633351  0.99257734  1
  H  H1  1  0.05178246  0.26578605  0.20335665  1
  H  H2  1  0.26578605  0.05178246  0.70335665  1
  H  H3  1  0.73246305  0.94323186  0.29303075  1
  H  H4  1  0.94323186  0.73246305  0.79303075  1
  H  H5  1  0.97633351  0.47776461  0.49257734  1
  Li  Li6  1  0.35249390  0.63593806  0.74187875  1
  Li  Li7  1  0.63593806  0.35249390  0.24187875  1
  Ni  Ni8  1  0.99951473  0.49746552  0.00265493  1
  Ni  Ni9  1  0.40605122  0.59448308  0.25164857  1
  Ni  Ni10  1  0.59448308  0.40605122  0.75164857  1
  Ni  Ni11  1  0.49746552  0.99951473  0.50265493  1
  O  O12  1  0.09669016  0.72073450  0.96130998  1
  O  O13  1  0.05080373  0.26404035  0.64192028  1
  O  O14  1  0.21283989  0.42220731  0.98186297  1
  O  O15  1  0.13813246  0.61772493  0.54756775  1
  O  O16  1  0.37461804  0.85753587  0.94895032  1
  O  O17  1  0.25534521  0.13998548  0.80978568  1
  O  O18  1  0.27700618  0.90301371  0.54071008  1
  O  O19  1  0.16935467  0.60479967  0.27008221  1
  O  O20  1  0.13998548  0.25534521  0.30978568  1
  O  O21  1  0.37593186  0.42983190  0.79480886  1
  O  O22  1  0.39761354  0.83332190  0.23227076  1
  O  O23  1  0.26404035  0.05080373  0.14192028  1
  O  O24  1  0.42220731  0.21283989  0.48186297  1
  O  O25  1  0.56899365  0.62328624  0.70601323  1
  O  O26  1  0.42983190  0.37593186  0.29480886  1
  O  O27  1  0.57511628  0.78679309  0.51882460  1
  O  O28  1  0.73585433  0.94953144  0.85787053  1
  O  O29  1  0.60479967  0.16935467  0.77008221  1
  O  O30  1  0.62328624  0.56899365  0.20601323  1
  O  O31  1  0.85634229  0.74239104  0.68748431  1
  O  O32  1  0.83332190  0.39761354  0.73227076  1
  O  O33  1  0.72073450  0.09669016  0.46130998  1
  O  O34  1  0.74239104  0.85634229  0.18748431  1
  O  O35  1  0.61772493  0.13813246  0.04756775  1
  O  O36  1  0.85753587  0.37461804  0.44895032  1
  O  O37  1  0.78679309  0.57511628  0.01882460  1
  O  O38  1  0.94953144  0.73585433  0.35787053  1
  O  O39  1  0.90301371  0.27700618  0.04071008  1
  P  P40  1  0.14373796  0.71379530  0.43368325  1
  P  P41  1  0.23436710  0.31973600  0.81562592  1
  P  P42  1  0.28151047  0.85682802  0.07189846  1
  P  P43  1  0.31973600  0.23436710  0.31562592  1
  P  P44  1  0.67817926  0.76689816  0.68628383  1
  P  P45  1  0.71379530  0.14373796  0.93368325  1
  P  P46  1  0.76689816  0.67817926  0.18628383  1
  P  P47  1  0.85682802  0.28151047  0.57189846  1
