# generated using pymatgen
data_Ti2Fe4O9
_symmetry_space_group_name_H-M   'P 1'
_cell_length_a   5.51850505
_cell_length_b   16.61958229
_cell_length_c   9.83629229
_cell_angle_alpha   27.62710689
_cell_angle_beta   50.22319087
_cell_angle_gamma   55.61519592
_symmetry_Int_Tables_number   1
_chemical_formula_structural   Ti2Fe4O9
_chemical_formula_sum   'Ti4 Fe8 O18'
_cell_volume   321.50275956
_cell_formula_units_Z   2
loop_
 _symmetry_equiv_pos_site_id
 _symmetry_equiv_pos_as_xyz
  1  'x, y, z'
loop_
 _atom_site_type_symbol
 _atom_site_label
 _atom_site_symmetry_multiplicity
 _atom_site_fract_x
 _atom_site_fract_y
 _atom_site_fract_z
 _atom_site_occupancy
  Ti  Ti0  1  0.34613433  0.00668612  0.34877676  1
  Ti  Ti1  1  0.84294183  0.33618118  0.84931542  1
  Ti  Ti2  1  0.86924124  0.66151380  0.85542845  1
  Ti  Ti3  1  0.83678184  0.00408428  0.85869833  1
  Fe  Fe4  1  0.14316038  0.00082682  0.13944222  1
  Fe  Fe5  1  0.15156479  0.33531478  0.14885705  1
  Fe  Fe6  1  0.36150683  0.32973168  0.35752316  1
  Fe  Fe7  1  0.14938597  0.66804592  0.13997090  1
  Fe  Fe8  1  0.35861091  0.66097746  0.36159049  1
  Fe  Fe9  1  0.63786798  0.33754960  0.64055320  1
  Fe  Fe10  1  0.65911270  0.66438590  0.64870547  1
  Fe  Fe11  1  0.64076257  0.99914083  0.64659323  1
  O  O12  1  0.06866931  0.09077961  0.45007312  1
  O  O13  1  0.71203922  0.12722624  0.07701840  1
  O  O14  1  0.57701905  0.22823063  0.23779670  1
  O  O15  1  0.04894352  0.43382777  0.45992398  1
  O  O16  1  0.48172474  0.08991022  0.74952569  1
  O  O17  1  0.74583091  0.47784140  0.03962094  1
  O  O18  1  0.21635373  0.20020303  0.96424024  1
  O  O19  1  0.56271032  0.58431994  0.20919984  1
  O  O20  1  0.05398106  0.75852602  0.45894627  1
  O  O21  1  0.94998780  0.21716368  0.57054009  1
  O  O22  1  0.45211854  0.44324726  0.74189861  1
  O  O23  1  0.75009066  0.79410018  0.06044947  1
  O  O24  1  0.24198966  0.55183920  0.92765092  1
  O  O25  1  0.58119994  0.90159403  0.23903829  1
  O  O26  1  0.94898867  0.55483033  0.57006264  1
  O  O27  1  0.44000363  0.78148814  0.72792095  1
  O  O28  1  0.23049347  0.87419480  0.94379706  1
  O  O29  1  0.94078439  0.88623916  0.57684211  1
