# generated using pymatgen
data_CsBF4
_symmetry_space_group_name_H-M   'P 1'
_cell_length_a   5.95004267
_cell_length_b   7.78934892
_cell_length_c   9.80028685
_cell_angle_alpha   90.00000000
_cell_angle_beta   90.00000000
_cell_angle_gamma   90.00000000
_symmetry_Int_Tables_number   1
_chemical_formula_structural   CsBF4
_chemical_formula_sum   'Cs4 B4 F16'
_cell_volume   454.21348739
_cell_formula_units_Z   4
loop_
 _symmetry_equiv_pos_site_id
 _symmetry_equiv_pos_as_xyz
  1  'x, y, z'
loop_
 _atom_site_type_symbol
 _atom_site_label
 _atom_site_symmetry_multiplicity
 _atom_site_fract_x
 _atom_site_fract_y
 _atom_site_fract_z
 _atom_site_occupancy
  B  B0  1  0.25000000  0.19796214  0.05231662  1
  B  B1  1  0.25000000  0.30203786  0.55231662  1
  B  B2  1  0.75000000  0.69796214  0.44768338  1
  B  B3  1  0.75000000  0.80203786  0.94768338  1
  F  F4  1  0.55535181  0.80243039  0.42818230  1
  F  F5  1  0.94464819  0.69756961  0.92818230  1
  F  F6  1  0.44464819  0.30243039  0.07181770  1
  F  F7  1  0.05535181  0.19756961  0.57181770  1
  F  F8  1  0.25000000  0.36826252  0.41832750  1
  F  F9  1  0.75000000  0.63173748  0.58167250  1
  F  F10  1  0.75000000  0.86826252  0.08167250  1
  F  F11  1  0.25000000  0.13173748  0.91832750  1
  F  F12  1  0.25000000  0.06409781  0.15000009  1
  F  F13  1  0.75000000  0.93590219  0.84999991  1
  F  F14  1  0.75000000  0.56409781  0.34999991  1
  F  F15  1  0.25000000  0.43590219  0.65000009  1
  F  F16  1  0.05535181  0.30243039  0.07181770  1
  F  F17  1  0.55535181  0.69756961  0.92818230  1
  F  F18  1  0.94464819  0.80243039  0.42818230  1
  F  F19  1  0.44464819  0.19756961  0.57181770  1
  Cs  Cs20  1  0.25000000  0.83850851  0.69110239  1
  Cs  Cs21  1  0.75000000  0.16149149  0.30889761  1
  Cs  Cs22  1  0.75000000  0.33850851  0.80889761  1
  Cs  Cs23  1  0.25000000  0.66149149  0.19110239  1
