# generated using pymatgen
data_SrSeO4
_symmetry_space_group_name_H-M   'P 1'
_cell_length_a   6.97487977
_cell_length_b   7.25106483
_cell_length_c   7.48098038
_cell_angle_alpha   90.00000000
_cell_angle_beta   90.00000000
_cell_angle_gamma   103.78101323
_symmetry_Int_Tables_number   1
_chemical_formula_structural   SrSeO4
_chemical_formula_sum   'Sr4 Se4 O16'
_cell_volume   367.46132624
_cell_formula_units_Z   4
loop_
 _symmetry_equiv_pos_site_id
 _symmetry_equiv_pos_as_xyz
  1  'x, y, z'
loop_
 _atom_site_type_symbol
 _atom_site_label
 _atom_site_symmetry_multiplicity
 _atom_site_fract_x
 _atom_site_fract_y
 _atom_site_fract_z
 _atom_site_occupancy
  O  O0  1  0.28902991  0.87581664  0.28578626  1
  O  O1  1  0.21097009  0.62418336  0.78578626  1
  O  O2  1  0.71097009  0.12418336  0.71421374  1
  O  O3  1  0.78902991  0.37581664  0.21421374  1
  O  O4  1  0.19055254  0.52197873  0.39367181  1
  O  O5  1  0.30944746  0.97802127  0.89367181  1
  O  O6  1  0.80944746  0.47802127  0.60632819  1
  O  O7  1  0.69055254  0.02197873  0.10632819  1
  O  O8  1  0.06072878  0.24774006  0.00514675  1
  O  O9  1  0.43927122  0.25225994  0.50514675  1
  O  O10  1  0.93927122  0.75225994  0.99485325  1
  O  O11  1  0.56072878  0.74774006  0.49485325  1
  O  O12  1  0.99865643  0.11349139  0.33707760  1
  O  O13  1  0.50134357  0.38650861  0.83707760  1
  O  O14  1  0.00134357  0.88650861  0.66292240  1
  O  O15  1  0.49865643  0.61349139  0.16292240  1
  Se  Se16  1  0.38729219  0.69388057  0.33624940  1
  Se  Se17  1  0.11270781  0.80611943  0.83624940  1
  Se  Se18  1  0.61270781  0.30611943  0.66375060  1
  Se  Se19  1  0.88729219  0.19388057  0.16375060  1
  Sr  Sr20  1  0.90291352  0.71840015  0.34410865  1
  Sr  Sr21  1  0.59708648  0.78159985  0.84410865  1
  Sr  Sr22  1  0.09708648  0.28159985  0.65589135  1
  Sr  Sr23  1  0.40291352  0.21840015  0.15589135  1
