# generated using pymatgen
data_CaTa2Ga2(CuO4)3
_symmetry_space_group_name_H-M   'P 1'
_cell_length_a   7.55538669
_cell_length_b   7.54200307
_cell_length_c   15.08828694
_cell_angle_alpha   89.92442352
_cell_angle_beta   89.85304235
_cell_angle_gamma   89.84148190
_symmetry_Int_Tables_number   1
_chemical_formula_structural   CaTa2Ga2(CuO4)3
_chemical_formula_sum   'Ca4 Ta8 Ga8 Cu12 O48'
_cell_volume   859.76521899
_cell_formula_units_Z   4
loop_
 _symmetry_equiv_pos_site_id
 _symmetry_equiv_pos_as_xyz
  1  'x, y, z'
loop_
 _atom_site_type_symbol
 _atom_site_label
 _atom_site_symmetry_multiplicity
 _atom_site_fract_x
 _atom_site_fract_y
 _atom_site_fract_z
 _atom_site_occupancy
  Ca  Ca0  1  0.26753428  0.24739679  0.12437381  1
  Ca  Ca1  1  0.25176512  0.25126899  0.62504696  1
  Ca  Ca2  1  0.74823488  0.74873101  0.37495304  1
  Ca  Ca3  1  0.73246572  0.75260321  0.87562619  1
  Ta  Ta4  1  0.00000000  0.00000000  0.00000000  1
  Ta  Ta5  1  0.99911767  0.00369960  0.25359747  1
  Ta  Ta6  1  0.00000000  0.50000000  0.00000000  1
  Ta  Ta7  1  0.00088233  0.99630040  0.74640253  1
  Ta  Ta8  1  0.00000000  0.50000000  0.50000000  1
  Ta  Ta9  1  0.50000000  0.00000000  0.50000000  1
  Ta  Ta10  1  0.50021116  0.49900356  0.74953776  1
  Ta  Ta11  1  0.49978884  0.50099644  0.25046224  1
  Ga  Ga12  1  0.00071338  0.49967602  0.24906866  1
  Ga  Ga13  1  0.00000000  0.00000000  0.50000000  1
  Ga  Ga14  1  0.99928662  0.50032398  0.75093134  1
  Ga  Ga15  1  0.50000000  0.00000000  0.00000000  1
  Ga  Ga16  1  0.49975899  0.99760273  0.24664780  1
  Ga  Ga17  1  0.50024101  0.00239727  0.75335220  1
  Ga  Ga18  1  0.50000000  0.50000000  0.00000000  1
  Ga  Ga19  1  0.50000000  0.50000000  0.50000000  1
  Cu  Cu20  1  0.25044481  0.25040445  0.37499222  1
  Cu  Cu21  1  0.25724121  0.75089624  0.12471217  1
  Cu  Cu22  1  0.25003664  0.75000120  0.37498541  1
  Cu  Cu23  1  0.25461078  0.25004081  0.87461590  1
  Cu  Cu24  1  0.25173648  0.74930168  0.62495047  1
  Cu  Cu25  1  0.25786671  0.74986936  0.87482412  1
  Cu  Cu26  1  0.74213329  0.25013064  0.12517588  1
  Cu  Cu27  1  0.74826352  0.25069832  0.37504953  1
  Cu  Cu28  1  0.74538922  0.74995919  0.12538410  1
  Cu  Cu29  1  0.74996336  0.24999880  0.62501459  1
  Cu  Cu30  1  0.74275879  0.24910376  0.87528783  1
  Cu  Cu31  1  0.74955519  0.74959555  0.62500778  1
  O  O32  1  0.05369526  0.75111374  0.28629994  1
  O  O33  1  0.05315469  0.74979834  0.46307973  1
  O  O34  1  0.05405026  0.75124075  0.78770194  1
  O  O35  1  0.05350213  0.75068914  0.96265195  1
  O  O36  1  0.07451610  0.55484753  0.12350441  1
  O  O37  1  0.07363423  0.94667746  0.12457200  1
  O  O38  1  0.07370010  0.55360687  0.62480543  1
  O  O39  1  0.07470503  0.94588330  0.62410731  1
  O  O40  1  0.24997479  0.07353611  0.47335755  1
  O  O41  1  0.25032226  0.42645217  0.27683869  1
  O  O42  1  0.24476740  0.07423124  0.97290510  1
  O  O43  1  0.25046506  0.42646320  0.77634943  1
  O  O44  1  0.24849556  0.07316863  0.27685244  1
  O  O45  1  0.24634349  0.07400808  0.77662922  1
  O  O46  1  0.24954592  0.42654688  0.47337645  1
  O  O47  1  0.24729951  0.42553217  0.97296730  1
  O  O48  1  0.42767824  0.55184961  0.12644761  1
  O  O49  1  0.42544195  0.94669038  0.12501919  1
  O  O50  1  0.42640552  0.55331027  0.62460463  1
  O  O51  1  0.42683015  0.94711290  0.62521060  1
  O  O52  1  0.44689548  0.75051697  0.46332832  1
  O  O53  1  0.44727693  0.74964380  0.28773031  1
  O  O54  1  0.44627403  0.74830572  0.96275626  1
  O  O55  1  0.44753379  0.74940539  0.78521543  1
  O  O56  1  0.55246621  0.25059461  0.21478457  1
  O  O57  1  0.55372597  0.25169428  0.03724374  1
  O  O58  1  0.55272307  0.25035620  0.71226969  1
  O  O59  1  0.55310452  0.24948303  0.53667168  1
  O  O60  1  0.57316985  0.05288710  0.37478940  1
  O  O61  1  0.57359448  0.44668973  0.37539537  1
  O  O62  1  0.57455805  0.05330962  0.87498081  1
  O  O63  1  0.57232176  0.44815039  0.87355239  1
  O  O64  1  0.75270049  0.57446783  0.02703270  1
  O  O65  1  0.75045408  0.57345312  0.52662355  1
  O  O66  1  0.75365651  0.92599192  0.22337078  1
  O  O67  1  0.75150444  0.92683137  0.72314756  1
  O  O68  1  0.74953494  0.57353680  0.22365057  1
  O  O69  1  0.75523260  0.92576876  0.02709490  1
  O  O70  1  0.74967774  0.57354783  0.72316131  1
  O  O71  1  0.75002521  0.92646389  0.52664245  1
  O  O72  1  0.92529497  0.05411670  0.37589269  1
  O  O73  1  0.92629990  0.44639313  0.37519457  1
  O  O74  1  0.92636577  0.05332254  0.87542800  1
  O  O75  1  0.92548390  0.44515247  0.87649559  1
  O  O76  1  0.94649787  0.24931086  0.03734805  1
  O  O77  1  0.94594974  0.24875925  0.21229806  1
  O  O78  1  0.94684531  0.25020166  0.53692027  1
  O  O79  1  0.94630474  0.24888626  0.71370006  1
