# generated using pymatgen
data_Cu3(PO4)2
_symmetry_space_group_name_H-M   'P 1'
_cell_length_a   4.90924894
_cell_length_b   5.61087915
_cell_length_c   6.25041936
_cell_angle_alpha   73.46720895
_cell_angle_beta   87.18385332
_cell_angle_gamma   67.60700448
_symmetry_Int_Tables_number   1
_chemical_formula_structural   Cu3(PO4)2
_chemical_formula_sum   'Cu3 P2 O8'
_cell_volume   152.26339171
_cell_formula_units_Z   1
loop_
 _symmetry_equiv_pos_site_id
 _symmetry_equiv_pos_as_xyz
  1  'x, y, z'
loop_
 _atom_site_type_symbol
 _atom_site_label
 _atom_site_symmetry_multiplicity
 _atom_site_fract_x
 _atom_site_fract_y
 _atom_site_fract_z
 _atom_site_occupancy
  O  O0  1  0.62267324  0.86388877  0.35982973  1
  O  O1  1  0.37732676  0.13611123  0.64017027  1
  O  O2  1  0.77995751  0.77947420  0.99348739  1
  O  O3  1  0.22004249  0.22052580  0.00651261  1
  O  O4  1  0.66344774  0.32502030  0.83905868  1
  O  O5  1  0.84551600  0.38076106  0.34024281  1
  O  O6  1  0.15448400  0.61923894  0.65975719  1
  O  O7  1  0.33655226  0.67497970  0.16094132  1
  P  P8  1  0.64295336  0.66770709  0.21583872  1
  P  P9  1  0.35704664  0.33229291  0.78416128  1
  Cu  Cu10  1  0.73280459  0.78986963  0.67895414  1
  Cu  Cu11  1  0.26719541  0.21013037  0.32104586  1
  Cu  Cu12  1  0.00000000  0.00000000  0.00000000  1
