# generated using pymatgen
data_Na2ZnP2O7
_symmetry_space_group_name_H-M   'P 1'
_cell_length_a   7.83145475
_cell_length_b   7.81767288
_cell_length_c   10.39486247
_cell_angle_alpha   91.46957344
_cell_angle_beta   90.00000000
_cell_angle_gamma   90.00000000
_symmetry_Int_Tables_number   1
_chemical_formula_structural   Na2ZnP2O7
_chemical_formula_sum   'Na8 Zn4 P8 O28'
_cell_volume   636.20315056
_cell_formula_units_Z   4
loop_
 _symmetry_equiv_pos_site_id
 _symmetry_equiv_pos_as_xyz
  1  'x, y, z'
loop_
 _atom_site_type_symbol
 _atom_site_label
 _atom_site_symmetry_multiplicity
 _atom_site_fract_x
 _atom_site_fract_y
 _atom_site_fract_z
 _atom_site_occupancy
  Na  Na0  1  0.14297905  0.86097476  0.50368084  1
  Na  Na1  1  0.20037461  0.80611056  0.00941019  1
  Na  Na2  1  0.29962539  0.30611056  0.50941019  1
  Na  Na3  1  0.35702095  0.36097476  0.00368084  1
  Na  Na4  1  0.64297905  0.63902524  0.99631916  1
  Na  Na5  1  0.70037461  0.69388944  0.49058981  1
  Na  Na6  1  0.79962539  0.19388944  0.99058981  1
  Na  Na7  1  0.85702095  0.13902524  0.49631916  1
  Zn  Zn8  1  0.00221138  0.51228604  0.24916933  1
  Zn  Zn9  1  0.99778862  0.48771396  0.75083067  1
  Zn  Zn10  1  0.50221138  0.98771396  0.25083067  1
  Zn  Zn11  1  0.49778862  0.01228604  0.74916933  1
  P  P12  1  0.13698865  0.13349894  0.79373730  1
  P  P13  1  0.13525424  0.13963749  0.21797880  1
  P  P14  1  0.36474576  0.63963749  0.71797880  1
  P  P15  1  0.36301135  0.63349894  0.29373730  1
  P  P16  1  0.63698865  0.36650106  0.70626270  1
  P  P17  1  0.63525424  0.36036251  0.28202120  1
  P  P18  1  0.86474576  0.86036251  0.78202120  1
  P  P19  1  0.86301135  0.86650106  0.20626270  1
  O  O20  1  0.02887075  0.96628305  0.84234682  1
  O  O21  1  0.11090595  0.31598978  0.15759902  1
  O  O22  1  0.04900249  0.28932551  0.86030789  1
  O  O23  1  0.13685659  0.13409804  0.64815837  1
  O  O24  1  0.13049747  0.13862254  0.36384749  1
  O  O25  1  0.18864419  0.60594975  0.35919064  1
  O  O26  1  0.20754256  0.54963585  0.65691359  1
  O  O27  1  0.29245744  0.04963585  0.15691359  1
  O  O28  1  0.31135581  0.10594975  0.85919064  1
  O  O29  1  0.36950253  0.63862254  0.86384749  1
  O  O30  1  0.36314341  0.63409804  0.14815837  1
  O  O31  1  0.45099751  0.78932551  0.36030789  1
  O  O32  1  0.38909405  0.81598978  0.65759902  1
  O  O33  1  0.47112925  0.46628305  0.34234682  1
  O  O34  1  0.52887075  0.53371695  0.65765318  1
  O  O35  1  0.54900249  0.21067449  0.63969211  1
  O  O36  1  0.61090595  0.18401022  0.34240098  1
  O  O37  1  0.63685659  0.36590196  0.85184163  1
  O  O38  1  0.63049747  0.36137746  0.13615251  1
  O  O39  1  0.68864419  0.89405025  0.14080936  1
  O  O40  1  0.70754256  0.95036415  0.84308641  1
  O  O41  1  0.79245744  0.45036415  0.34308641  1
  O  O42  1  0.81135581  0.39405025  0.64080936  1
  O  O43  1  0.86950253  0.86137746  0.63615251  1
  O  O44  1  0.86314341  0.86590196  0.35184163  1
  O  O45  1  0.95099751  0.71067449  0.13969211  1
  O  O46  1  0.88909405  0.68401022  0.84240098  1
  O  O47  1  0.97112925  0.03371695  0.15765318  1
