# generated using pymatgen
data_CsTiNiOF5
_symmetry_space_group_name_H-M   'P 1'
_cell_length_a   7.39328355
_cell_length_b   7.39328382
_cell_length_c   7.26154650
_cell_angle_alpha   60.58770175
_cell_angle_beta   60.58770057
_cell_angle_gamma   59.76962523
_symmetry_Int_Tables_number   1
_chemical_formula_structural   CsTiNiOF5
_chemical_formula_sum   'Cs2 Ti2 Ni2 O2 F10'
_cell_volume   282.62805027
_cell_formula_units_Z   2
loop_
 _symmetry_equiv_pos_site_id
 _symmetry_equiv_pos_as_xyz
  1  'x, y, z'
loop_
 _atom_site_type_symbol
 _atom_site_label
 _atom_site_symmetry_multiplicity
 _atom_site_fract_x
 _atom_site_fract_y
 _atom_site_fract_z
 _atom_site_occupancy
  Cs  Cs0  1  0.37384244  0.37384244  0.37615756  1
  Cs  Cs1  1  0.62615756  0.62615756  0.62384244  1
  Ti  Ti2  1  0.00000000  0.00000000  0.00000000  1
  Ti  Ti3  1  0.00000000  0.00000000  0.50000000  1
  Ni  Ni4  1  0.00000000  0.50000000  0.00000000  1
  Ni  Ni5  1  0.50000000  0.00000000  0.00000000  1
  O  O6  1  0.04299420  0.04299420  0.70700580  1
  O  O7  1  0.95700580  0.95700580  0.29299420  1
  F  F8  1  0.06319559  0.68503183  0.08175326  1
  F  F9  1  0.68503183  0.06319559  0.08175326  1
  F  F10  1  0.06319559  0.68503183  0.67001932  1
  F  F11  1  0.32293060  0.32293060  0.92706940  1
  F  F12  1  0.31496817  0.93680441  0.32998068  1
  F  F13  1  0.67706940  0.67706940  0.07293060  1
  F  F14  1  0.68503183  0.06319559  0.67001932  1
  F  F15  1  0.93680441  0.31496817  0.32998068  1
  F  F16  1  0.31496817  0.93680441  0.91824674  1
  F  F17  1  0.93680441  0.31496817  0.91824674  1
