# generated using pymatgen
data_Ca3Er3Ge2BO13
_symmetry_space_group_name_H-M   'P 1'
_cell_length_a   7.40769710
_cell_length_b   14.82474011
_cell_length_c   12.84197523
_cell_angle_alpha   29.97836392
_cell_angle_beta   54.77157399
_cell_angle_gamma   60.02043898
_symmetry_Int_Tables_number   1
_chemical_formula_structural   Ca3Er3Ge2BO13
_chemical_formula_sum   'Ca6 Er6 Ge4 B2 O26'
_cell_volume   575.61878330
_cell_formula_units_Z   2
loop_
 _symmetry_equiv_pos_site_id
 _symmetry_equiv_pos_as_xyz
  1  'x, y, z'
loop_
 _atom_site_type_symbol
 _atom_site_label
 _atom_site_symmetry_multiplicity
 _atom_site_fract_x
 _atom_site_fract_y
 _atom_site_fract_z
 _atom_site_occupancy
  B  B0  1  0.50379802  0.49999629  0.49622085  1
  B  B1  1  0.50379958  1.00000069  0.49621920  1
  Ca  Ca2  1  0.23241921  0.27072168  0.22717068  1
  Ca  Ca3  1  0.23142622  0.00000534  0.76856244  1
  Ca  Ca4  1  0.23243931  0.22927703  0.76860638  1
  Ca  Ca5  1  0.23143832  0.50000423  0.76855925  1
  Ca  Ca6  1  0.77180279  0.77073413  0.22716244  1
  Ca  Ca7  1  0.77180723  0.72927085  0.76861564  1
  Er  Er8  1  0.22987139  0.77237227  0.22573189  1
  Er  Er9  1  0.77392199  0.27239836  0.22571287  1
  Er  Er10  1  0.77416337  0.49998005  0.22584961  1
  Er  Er11  1  0.22985889  0.72763042  0.77048321  1
  Er  Er12  1  0.77391989  0.22761304  0.77051017  1
  Er  Er13  1  0.77416684  0.99997855  0.22584948  1
  Ge  Ge14  1  0.24693154  0.49999073  0.25305301  1
  Ge  Ge15  1  0.24691818  -0.00000650  0.25304715  1
  Ge  Ge16  1  0.74597472  0.50004711  0.75394311  1
  Ge  Ge17  1  0.74595579  1.00004516  0.75394649  1
  O  O18  1  0.99137097  -0.00001924  0.00865091  1
  O  O19  1  0.14663886  0.99109325  0.16261068  1
  O  O20  1  0.99139409  0.49997860  0.00865231  1
  O  O21  1  0.13854919  0.19633446  0.15592061  1
  O  O22  1  0.54589962  0.00883768  0.14487964  1
  O  O23  1  0.14665835  0.50884327  0.14487245  1
  O  O24  1  0.43145917  0.16484951  0.41052267  1
  O  O25  1  0.15693179  0.69633518  0.15592709  1
  O  O26  1  0.13856829  0.30361337  0.54865400  1
  O  O27  1  0.54591881  0.49110395  0.16262242  1
  O  O28  1  0.42586219  0.50552913  0.40575816  1
  O  O29  1  0.43144187  0.33514811  0.74021495  1
  O  O30  1  0.41783043  0.66484764  0.41051976  1
  O  O31  1  0.15696013  0.80361569  0.54864438  1
  O  O32  1  0.82998890  0.19675145  0.45980944  1
  O  O33  1  0.75159564  0.49448439  0.41681085  1
  O  O34  1  0.45483105  0.51423519  0.83741939  1
  O  O35  1  0.42585859  0.99449937  0.41679467  1
  O  O36  1  0.82998382  0.30327594  0.85329697  1
  O  O37  1  0.41782548  0.83515511  0.74021212  1
  O  O38  1  0.85689467  0.69675659  0.45980785  1
  O  O39  1  0.75159546  0.00552239  0.40576495  1
  O  O40  1  0.84180851  0.48581179  0.86584295  1
  O  O41  1  0.45483709  0.98581955  0.86583521  1
  O  O42  1  0.85686664  0.80327533  0.85329637  1
  O  O43  1  0.84181711  0.01424290  0.83741530  1
