# generated using pymatgen
data_Rb2CO3
_symmetry_space_group_name_H-M   'P 1'
_cell_length_a   5.97667949
_cell_length_b   7.65201331
_cell_length_c   10.18789235
_cell_angle_alpha   90.00000000
_cell_angle_beta   90.00000000
_cell_angle_gamma   95.75614907
_symmetry_Int_Tables_number   1
_chemical_formula_structural   Rb2CO3
_chemical_formula_sum   'Rb8 C4 O12'
_cell_volume   463.57998230
_cell_formula_units_Z   4
loop_
 _symmetry_equiv_pos_site_id
 _symmetry_equiv_pos_as_xyz
  1  'x, y, z'
loop_
 _atom_site_type_symbol
 _atom_site_label
 _atom_site_symmetry_multiplicity
 _atom_site_fract_x
 _atom_site_fract_y
 _atom_site_fract_z
 _atom_site_occupancy
  C  C0  1  0.74863595  0.73875484  0.58432642  1
  C  C1  1  0.74863595  0.23875484  0.91567358  1
  C  C2  1  0.25136405  0.26124516  0.41567358  1
  C  C3  1  0.25136405  0.76124516  0.08432642  1
  O  O4  1  0.93196163  0.22626838  0.84760971  1
  O  O5  1  0.06803837  0.27373162  0.34760971  1
  O  O6  1  0.06803837  0.77373162  0.15239029  1
  O  O7  1  0.93196163  0.72626838  0.65239029  1
  O  O8  1  0.57312030  0.29655293  0.86092442  1
  O  O9  1  0.57312030  0.79655293  0.63907558  1
  O  O10  1  0.42687970  0.70344707  0.13907558  1
  O  O11  1  0.42687970  0.20344707  0.36092442  1
  O  O12  1  0.74126169  0.68964911  0.46111454  1
  O  O13  1  0.25873831  0.81035089  0.96111454  1
  O  O14  1  0.25873831  0.31035089  0.53888546  1
  O  O15  1  0.74126169  0.18964911  0.03888546  1
  Rb  Rb16  1  0.74287407  0.97751532  0.27541727  1
  Rb  Rb17  1  0.25712593  0.52248468  0.77541727  1
  Rb  Rb18  1  0.25712593  0.02248468  0.72458273  1
  Rb  Rb19  1  0.74287407  0.47751532  0.22458273  1
  Rb  Rb20  1  0.75787724  0.81819834  0.91830774  1
  Rb  Rb21  1  0.24212276  0.68180166  0.41830774  1
  Rb  Rb22  1  0.24212276  0.18180166  0.08169226  1
  Rb  Rb23  1  0.75787724  0.31819834  0.58169226  1
