# generated using pymatgen
data_Yb3H8
_symmetry_space_group_name_H-M   'P 1'
_cell_length_a   6.60439432
_cell_length_b   6.61142758
_cell_length_c   9.38095014
_cell_angle_alpha   90.16485447
_cell_angle_beta   89.91748508
_cell_angle_gamma   120.03523334
_symmetry_Int_Tables_number   1
_chemical_formula_structural   Yb3H8
_chemical_formula_sum   'Yb9 H24'
_cell_volume   354.60887687
_cell_formula_units_Z   3
loop_
 _symmetry_equiv_pos_site_id
 _symmetry_equiv_pos_as_xyz
  1  'x, y, z'
loop_
 _atom_site_type_symbol
 _atom_site_label
 _atom_site_symmetry_multiplicity
 _atom_site_fract_x
 _atom_site_fract_y
 _atom_site_fract_z
 _atom_site_occupancy
  Yb  Yb0  1  0.00000000  0.00000000  0.00000000  1
  Yb  Yb1  1  0.27326552  0.63663276  0.00000000  1
  Yb  Yb2  1  0.72673448  0.36336724  0.00000000  1
  Yb  Yb3  1  0.67741269  0.00951778  0.66504072  1
  Yb  Yb4  1  0.32258731  0.33210509  0.66504072  1
  Yb  Yb5  1  0.00000000  0.66074688  0.67007786  1
  Yb  Yb6  1  0.32258731  0.99048222  0.33495928  1
  Yb  Yb7  1  0.67741269  0.66789491  0.33495928  1
  Yb  Yb8  1  1.00000000  0.33925312  0.32992214  1
  H  H9  1  1.00000000  0.00932237  0.24912203  1
  H  H10  1  0.00000000  0.99067763  0.75087797  1
  H  H11  1  0.35185247  0.68102365  0.75931985  1
  H  H12  1  0.64814753  0.32917118  0.75931985  1
  H  H13  1  0.64814753  0.31897635  0.24068015  1
  H  H14  1  0.35185247  0.67082882  0.24068015  1
  H  H15  1  0.66762208  0.00114585  0.41964765  1
  H  H16  1  0.33237792  0.33352377  0.41964765  1
  H  H17  1  0.00000000  0.66507715  0.42116478  1
  H  H18  1  0.33237792  0.99885415  0.58035235  1
  H  H19  1  0.66762208  0.66647623  0.58035235  1
  H  H20  1  0.00000000  0.33492285  0.57883522  1
  H  H21  1  0.65830155  -0.01430296  0.96048933  1
  H  H22  1  0.34169845  0.32739549  0.96048933  1
  H  H23  1  0.00000000  0.68792978  0.90379007  1
  H  H24  1  0.34169845  0.01430296  0.03951067  1
  H  H25  1  0.65830155  0.67260451  0.03951067  1
  H  H26  1  1.00000000  0.31207022  0.09620993  1
  H  H27  1  0.65829536  -0.01519475  0.05264364  1
  H  H28  1  0.34170464  0.32650989  0.05264364  1
  H  H29  1  1.00000000  0.68717145  0.13252973  1
  H  H30  1  0.34170464  0.01519475  0.94735636  1
  H  H31  1  0.65829536  0.67349011  0.94735636  1
  H  H32  1  0.00000000  0.31282855  0.86747027  1
