# generated using pymatgen
data_DySi2Ni
_symmetry_space_group_name_H-M   'P 1'
_cell_length_a   3.97516545
_cell_length_b   3.97533879
_cell_length_c   8.46453909
_cell_angle_alpha   103.58119590
_cell_angle_beta   90.00000000
_cell_angle_gamma   90.00000000
_symmetry_Int_Tables_number   1
_chemical_formula_structural   DySi2Ni
_chemical_formula_sum   'Dy2 Si4 Ni2'
_cell_volume   130.02173812
_cell_formula_units_Z   2
loop_
 _symmetry_equiv_pos_site_id
 _symmetry_equiv_pos_as_xyz
  1  'x, y, z'
loop_
 _atom_site_type_symbol
 _atom_site_label
 _atom_site_symmetry_multiplicity
 _atom_site_fract_x
 _atom_site_fract_y
 _atom_site_fract_z
 _atom_site_occupancy
  Si  Si0  1  0.25000000  0.25058818  0.50117637  1
  Si  Si1  1  0.75000000  0.74941182  0.49882363  1
  Si  Si2  1  0.75000000  0.46027385  0.92054771  1
  Si  Si3  1  0.25000000  0.53972615  0.07945229  1
  Ni  Ni4  1  0.75000000  0.32274344  0.64548689  1
  Ni  Ni5  1  0.25000000  0.67725656  0.35451311  1
  Dy  Dy6  1  0.25000000  0.89412596  0.78825191  1
  Dy  Dy7  1  0.75000000  0.10587404  0.21174809  1
