# generated using pymatgen
data_Nd2Co14B
_symmetry_space_group_name_H-M   'P 1'
_cell_length_a   8.60497344
_cell_length_b   8.60497344
_cell_length_c   11.83154164
_cell_angle_alpha   90.00000000
_cell_angle_beta   90.00000000
_cell_angle_gamma   90.00000000
_symmetry_Int_Tables_number   1
_chemical_formula_structural   Nd2Co14B
_chemical_formula_sum   'Nd8 Co56 B4'
_cell_volume   876.07321990
_cell_formula_units_Z   4
loop_
 _symmetry_equiv_pos_site_id
 _symmetry_equiv_pos_as_xyz
  1  'x, y, z'
loop_
 _atom_site_type_symbol
 _atom_site_label
 _atom_site_symmetry_multiplicity
 _atom_site_fract_x
 _atom_site_fract_y
 _atom_site_fract_z
 _atom_site_occupancy
  B  B0  1  0.37825791  0.62174209  0.00000000  1
  B  B1  1  0.87825791  0.87825791  0.50000000  1
  B  B2  1  0.12174209  0.12174209  0.50000000  1
  B  B3  1  0.62174209  0.37825791  0.00000000  1
  Co  Co4  1  0.00000000  0.50000000  0.00000000  1
  Co  Co5  1  0.00000000  0.50000000  0.50000000  1
  Co  Co6  1  0.50000000  0.00000000  0.50000000  1
  Co  Co7  1  0.50000000  0.00000000  0.00000000  1
  Co  Co8  1  0.00000000  0.00000000  0.61649140  1
  Co  Co9  1  0.50000000  0.50000000  0.11649140  1
  Co  Co10  1  0.50000000  0.50000000  0.88350860  1
  Co  Co11  1  0.00000000  0.00000000  0.38350860  1
  Co  Co12  1  0.31794556  0.31794556  0.24720060  1
  Co  Co13  1  0.18205444  0.81794556  0.74720060  1
  Co  Co14  1  0.81794556  0.18205444  0.74720060  1
  Co  Co15  1  0.81794556  0.18205444  0.25279940  1
  Co  Co16  1  0.18205444  0.81794556  0.25279940  1
  Co  Co17  1  0.68205444  0.68205444  0.24720060  1
  Co  Co18  1  0.31794556  0.31794556  0.75279940  1
  Co  Co19  1  0.68205444  0.68205444  0.75279940  1
  Co  Co20  1  0.09869300  0.09869300  0.20617419  1
  Co  Co21  1  0.40130700  0.59869300  0.70617419  1
  Co  Co22  1  0.59869300  0.40130700  0.70617419  1
  Co  Co23  1  0.59869300  0.40130700  0.29382581  1
  Co  Co24  1  0.40130700  0.59869300  0.29382581  1
  Co  Co25  1  0.90130700  0.90130700  0.20617419  1
  Co  Co26  1  0.09869300  0.09869300  0.79382581  1
  Co  Co27  1  0.90130700  0.90130700  0.79382581  1
  Co  Co28  1  0.03603162  0.36049215  0.17893507  1
  Co  Co29  1  0.13950785  0.53603162  0.67893507  1
  Co  Co30  1  0.86049215  0.46396838  0.67893507  1
  Co  Co31  1  0.53603162  0.13950785  0.32106493  1
  Co  Co32  1  0.46396838  0.86049215  0.32106493  1
  Co  Co33  1  0.96396838  0.63950785  0.17893507  1
  Co  Co34  1  0.36049215  0.03603162  0.82106493  1
  Co  Co35  1  0.63950785  0.96396838  0.82106493  1
  Co  Co36  1  0.96396838  0.63950785  0.82106493  1
  Co  Co37  1  0.86049215  0.46396838  0.32106493  1
  Co  Co38  1  0.13950785  0.53603162  0.32106493  1
  Co  Co39  1  0.46396838  0.86049215  0.67893507  1
  Co  Co40  1  0.53603162  0.13950785  0.67893507  1
  Co  Co41  1  0.03603162  0.36049215  0.82106493  1
  Co  Co42  1  0.63950785  0.96396838  0.17893507  1
  Co  Co43  1  0.36049215  0.03603162  0.17893507  1
  Co  Co44  1  0.22462294  0.56950199  0.12741514  1
  Co  Co45  1  0.93049801  0.72462294  0.62741514  1
  Co  Co46  1  0.06950199  0.27537706  0.62741514  1
  Co  Co47  1  0.72462294  0.93049801  0.37258486  1
  Co  Co48  1  0.27537706  0.06950199  0.37258486  1
  Co  Co49  1  0.77537706  0.43049801  0.12741514  1
  Co  Co50  1  0.56950199  0.22462294  0.87258486  1
  Co  Co51  1  0.43049801  0.77537706  0.87258486  1
  Co  Co52  1  0.77537706  0.43049801  0.87258486  1
  Co  Co53  1  0.06950199  0.27537706  0.37258486  1
  Co  Co54  1  0.93049801  0.72462294  0.37258486  1
  Co  Co55  1  0.27537706  0.06950199  0.62741514  1
  Co  Co56  1  0.72462294  0.93049801  0.62741514  1
  Co  Co57  1  0.22462294  0.56950199  0.87258486  1
  Co  Co58  1  0.43049801  0.77537706  0.12741514  1
  Co  Co59  1  0.56950199  0.22462294  0.12741514  1
  Nd  Nd60  1  0.27572667  0.27572667  0.00000000  1
  Nd  Nd61  1  0.22427333  0.77572667  0.50000000  1
  Nd  Nd62  1  0.77572667  0.22427333  0.50000000  1
  Nd  Nd63  1  0.72427333  0.72427333  0.00000000  1
  Nd  Nd64  1  0.14535344  0.85464656  0.00000000  1
  Nd  Nd65  1  0.64535344  0.64535344  0.50000000  1
  Nd  Nd66  1  0.35464656  0.35464656  0.50000000  1
  Nd  Nd67  1  0.85464656  0.14535344  0.00000000  1
