# generated using pymatgen
data_Tl3PSe4
_symmetry_space_group_name_H-M   'P 1'
_cell_length_a   9.47131546
_cell_length_b   9.58660741
_cell_length_c   11.29889780
_cell_angle_alpha   90.00000000
_cell_angle_beta   90.00000000
_cell_angle_gamma   90.00000000
_symmetry_Int_Tables_number   1
_chemical_formula_structural   Tl3PSe4
_chemical_formula_sum   'Tl12 P4 Se16'
_cell_volume   1025.91487026
_cell_formula_units_Z   4
loop_
 _symmetry_equiv_pos_site_id
 _symmetry_equiv_pos_as_xyz
  1  'x, y, z'
loop_
 _atom_site_type_symbol
 _atom_site_label
 _atom_site_symmetry_multiplicity
 _atom_site_fract_x
 _atom_site_fract_y
 _atom_site_fract_z
 _atom_site_occupancy
  P  P0  1  0.27962444  0.52778649  0.25000000  1
  P  P1  1  0.77962444  0.97221351  0.25000000  1
  P  P2  1  0.22037556  0.02778649  0.75000000  1
  P  P3  1  0.72037556  0.47221351  0.75000000  1
  Se  Se4  1  0.84034166  0.53262628  0.58776052  1
  Se  Se5  1  0.34034166  0.96737372  0.91223948  1
  Se  Se6  1  0.65965834  0.03262628  0.41223948  1
  Se  Se7  1  0.15965834  0.46737372  0.08776052  1
  Se  Se8  1  0.15965834  0.46737372  0.41223948  1
  Se  Se9  1  0.65965834  0.03262628  0.08776052  1
  Se  Se10  1  0.34034166  0.96737372  0.58776052  1
  Se  Se11  1  0.84034166  0.53262628  0.91223948  1
  Se  Se12  1  0.69113670  0.23870236  0.75000000  1
  Se  Se13  1  0.19113670  0.26129764  0.75000000  1
  Se  Se14  1  0.80886330  0.73870236  0.25000000  1
  Se  Se15  1  0.30886330  0.76129764  0.25000000  1
  Se  Se16  1  0.00543750  0.93288490  0.75000000  1
  Se  Se17  1  0.50543750  0.56711510  0.75000000  1
  Se  Se18  1  0.49456250  0.43288490  0.25000000  1
  Se  Se19  1  0.99456250  0.06711510  0.25000000  1
  Tl  Tl20  1  0.93253149  0.19442279  0.55396850  1
  Tl  Tl21  1  0.43253149  0.30557721  0.94603150  1
  Tl  Tl22  1  0.56746851  0.69442279  0.44603150  1
  Tl  Tl23  1  0.06746851  0.80557721  0.05396850  1
  Tl  Tl24  1  0.06746851  0.80557721  0.44603150  1
  Tl  Tl25  1  0.56746851  0.69442279  0.05396850  1
  Tl  Tl26  1  0.43253149  0.30557721  0.55396850  1
  Tl  Tl27  1  0.93253149  0.19442279  0.94603150  1
  Tl  Tl28  1  0.40209825  0.10843932  0.25000000  1
  Tl  Tl29  1  0.90209825  0.39156068  0.25000000  1
  Tl  Tl30  1  0.09790175  0.60843932  0.75000000  1
  Tl  Tl31  1  0.59790175  0.89156068  0.75000000  1
