# generated using pymatgen
data_La4Se3O4
_symmetry_space_group_name_H-M   'P 1'
_cell_length_a   4.11813120
_cell_length_b   6.96533772
_cell_length_c   8.55802033
_cell_angle_alpha   90.00000000
_cell_angle_beta   90.00000000
_cell_angle_gamma   107.19448188
_symmetry_Int_Tables_number   1
_chemical_formula_structural   La4Se3O4
_chemical_formula_sum   'La4 Se3 O4'
_cell_volume   234.50848293
_cell_formula_units_Z   1
loop_
 _symmetry_equiv_pos_site_id
 _symmetry_equiv_pos_as_xyz
  1  'x, y, z'
loop_
 _atom_site_type_symbol
 _atom_site_label
 _atom_site_symmetry_multiplicity
 _atom_site_fract_x
 _atom_site_fract_y
 _atom_site_fract_z
 _atom_site_occupancy
  O  O0  1  0.61381242  0.22762484  0.50000000  1
  O  O1  1  0.58837003  0.17674006  0.00000000  1
  O  O2  1  0.09023242  0.18046484  0.75556343  1
  O  O3  1  0.09023242  0.18046484  0.24443657  1
  Se  Se4  1  0.35696895  0.71393790  0.35109383  1
  Se  Se5  1  0.35696895  0.71393790  0.64890617  1
  Se  Se6  1  0.31421523  0.62843046  0.00000000  1
  La  La7  1  0.68485482  0.36970965  0.76178627  1
  La  La8  1  0.68485482  0.36970965  0.23821373  1
  La  La9  1  0.01644656  0.03289312  0.50000000  1
  La  La10  1  0.00183337  0.00366674  0.00000000  1
