# generated using pymatgen
data_LiCo2P4H3O14
_symmetry_space_group_name_H-M   'P 1'
_cell_length_a   8.55997481
_cell_length_b   8.55997447
_cell_length_c   9.03348271
_cell_angle_alpha   110.86204129
_cell_angle_beta   110.86203781
_cell_angle_gamma   98.97473367
_symmetry_Int_Tables_number   1
_chemical_formula_structural   LiCo2P4H3O14
_chemical_formula_sum   'Li2 Co4 P8 H6 O28'
_cell_volume   546.81096723
_cell_formula_units_Z   2
loop_
 _symmetry_equiv_pos_site_id
 _symmetry_equiv_pos_as_xyz
  1  'x, y, z'
loop_
 _atom_site_type_symbol
 _atom_site_label
 _atom_site_symmetry_multiplicity
 _atom_site_fract_x
 _atom_site_fract_y
 _atom_site_fract_z
 _atom_site_occupancy
  Co  Co0  1  0.09367396  0.90903679  0.75337235  1
  Co  Co1  1  0.49986777  0.99632403  0.00338723  1
  Co  Co2  1  0.99632403  0.49986777  0.50338723  1
  Co  Co3  1  0.90903679  0.09367396  0.25337235  1
  H  H4  1  0.23512772  0.44250584  0.29720651  1
  H  H5  1  0.44250584  0.23512772  0.79720651  1
  H  H6  1  0.47450769  0.97911437  0.49414770  1
  H  H7  1  0.55359359  0.76339098  0.19994340  1
  H  H8  1  0.76339098  0.55359359  0.69994340  1
  H  H9  1  0.97911437  0.47450769  0.99414770  1
  Li  Li10  1  0.13629322  0.85091293  0.24117739  1
  Li  Li11  1  0.85091293  0.13629322  0.74117739  1
  O  O12  1  0.10418513  0.67112697  0.77312957  1
  O  O13  1  0.06800622  0.12680033  0.70686046  1
  O  O14  1  0.07942370  0.28897965  0.52156370  1
  O  O15  1  0.23468481  0.45131755  0.85866577  1
  O  O16  1  0.33236083  0.89775811  0.73131979  1
  O  O17  1  0.22091968  0.59990587  0.46106681  1
  O  O18  1  0.11850276  0.63829067  0.04834513  1
  O  O19  1  0.12680033  0.06800622  0.20686046  1
  O  O20  1  0.35709333  0.87733484  0.45066961  1
  O  O21  1  0.35605929  0.24469459  0.69258237  1
  O  O22  1  0.24469459  0.35605929  0.19258237  1
  O  O23  1  0.54860877  0.76575034  0.64119617  1
  O  O24  1  0.71158844  0.91831694  0.97976196  1
  O  O25  1  0.59990587  0.22091968  0.96106681  1
  O  O26  1  0.40134905  0.77619595  0.03997283  1
  O  O27  1  0.28897965  0.07942370  0.02156370  1
  O  O28  1  0.45131755  0.23468481  0.35866577  1
  O  O29  1  0.75268881  0.64070220  0.80495348  1
  O  O30  1  0.64070220  0.75268881  0.30495348  1
  O  O31  1  0.63829067  0.11850276  0.54834513  1
  O  O32  1  0.87123384  0.93013193  0.79219339  1
  O  O33  1  0.87733484  0.35709333  0.95066961  1
  O  O34  1  0.77619595  0.40134905  0.53997283  1
  O  O35  1  0.67112697  0.10418513  0.27312957  1
  O  O36  1  0.76575034  0.54860877  0.14119617  1
  O  O37  1  0.91831694  0.71158844  0.47976196  1
  O  O38  1  0.93013193  0.87123384  0.29219339  1
  O  O39  1  0.89775811  0.33236083  0.23131979  1
  P  P40  1  0.21284273  0.64439945  0.93462471  1
  P  P41  1  0.17859529  0.26982599  0.68892452  1
  P  P42  1  0.35613481  0.78362247  0.57211398  1
  P  P43  1  0.26982599  0.17859529  0.18892452  1
  P  P44  1  0.73138475  0.81983504  0.81312118  1
  P  P45  1  0.64439945  0.21284273  0.43462471  1
  P  P46  1  0.81983504  0.73138475  0.31312118  1
  P  P47  1  0.78362247  0.35613481  0.07211398  1
