# generated using pymatgen
data_YbPO4
_symmetry_space_group_name_H-M   'P 1'
_cell_length_a   5.82968760
_cell_length_b   5.82968760
_cell_length_c   5.82968760
_cell_angle_alpha   106.13227657
_cell_angle_beta   106.13227659
_cell_angle_gamma   116.37781368
_symmetry_Int_Tables_number   1
_chemical_formula_structural   YbPO4
_chemical_formula_sum   'Yb2 P2 O8'
_cell_volume   150.83409177
_cell_formula_units_Z   2
loop_
 _symmetry_equiv_pos_site_id
 _symmetry_equiv_pos_as_xyz
  1  'x, y, z'
loop_
 _atom_site_type_symbol
 _atom_site_label
 _atom_site_symmetry_multiplicity
 _atom_site_fract_x
 _atom_site_fract_y
 _atom_site_fract_z
 _atom_site_occupancy
  O  O0  1  0.22220598  0.64765246  0.92544648  1
  O  O1  1  0.29675950  0.22220598  0.07455352  1
  O  O2  1  0.64765246  0.22220598  0.42544648  1
  O  O3  1  0.22220598  0.29675950  0.57455352  1
  O  O4  1  0.70324050  0.77779402  0.92544648  1
  O  O5  1  0.77779402  0.35234754  0.07455352  1
  O  O6  1  0.77779402  0.70324050  0.42544648  1
  O  O7  1  0.35234754  0.77779402  0.57455352  1
  P  P8  1  0.37500000  0.62500000  0.75000000  1
  P  P9  1  0.62500000  0.37500000  0.25000000  1
  Yb  Yb10  1  0.12500000  0.87500000  0.25000000  1
  Yb  Yb11  1  0.87500000  0.12500000  0.75000000  1
