# generated using pymatgen
data_Na3ScF6
_symmetry_space_group_name_H-M   'P 1'
_cell_length_a   5.65264455
_cell_length_b   5.88220694
_cell_length_c   8.23578747
_cell_angle_alpha   90.00000000
_cell_angle_beta   90.80088388
_cell_angle_gamma   90.00000000
_symmetry_Int_Tables_number   1
_chemical_formula_structural   Na3ScF6
_chemical_formula_sum   'Na6 Sc2 F12'
_cell_volume   273.81338770
_cell_formula_units_Z   2
loop_
 _symmetry_equiv_pos_site_id
 _symmetry_equiv_pos_as_xyz
  1  'x, y, z'
loop_
 _atom_site_type_symbol
 _atom_site_label
 _atom_site_symmetry_multiplicity
 _atom_site_fract_x
 _atom_site_fract_y
 _atom_site_fract_z
 _atom_site_occupancy
  F  F0  1  0.66983754  0.21481918  0.42118668  1
  F  F1  1  0.83016246  0.71481918  0.07881332  1
  F  F2  1  0.33016246  0.78518082  0.57881332  1
  F  F3  1  0.16983754  0.28518082  0.92118668  1
  F  F4  1  0.20470410  0.32131905  0.55436889  1
  F  F5  1  0.29529590  0.82131905  0.94563111  1
  F  F6  1  0.79529590  0.67868095  0.44563111  1
  F  F7  1  0.70470410  0.17868095  0.05436889  1
  F  F8  1  0.12550755  0.06757202  0.22908497  1
  F  F9  1  0.37449245  0.56757202  0.27091503  1
  F  F10  1  0.87449245  0.93242798  0.77091503  1
  F  F11  1  0.62550755  0.43242798  0.72908497  1
  Na  Na12  1  0.01661360  0.55524933  0.74117729  1
  Na  Na13  1  0.48338640  0.05524933  0.75882271  1
  Na  Na14  1  0.98338640  0.44475067  0.25882271  1
  Na  Na15  1  0.51661360  0.94475067  0.24117729  1
  Na  Na16  1  0.50000000  0.50000000  0.00000000  1
  Na  Na17  1  0.00000000  0.00000000  0.50000000  1
  Sc  Sc18  1  0.50000000  0.50000000  0.50000000  1
  Sc  Sc19  1  0.00000000  0.00000000  0.00000000  1
