# generated using pymatgen
data_Dy(SiRu)2
_symmetry_space_group_name_H-M   'P 1'
_cell_length_a   4.18754872
_cell_length_b   4.18754872
_cell_length_c   5.62508769
_cell_angle_alpha   111.85264200
_cell_angle_beta   111.85264210
_cell_angle_gamma   90.00000005
_symmetry_Int_Tables_number   1
_chemical_formula_structural   Dy(SiRu)2
_chemical_formula_sum   'Dy1 Si2 Ru2'
_cell_volume   83.86662843
_cell_formula_units_Z   1
loop_
 _symmetry_equiv_pos_site_id
 _symmetry_equiv_pos_as_xyz
  1  'x, y, z'
loop_
 _atom_site_type_symbol
 _atom_site_label
 _atom_site_symmetry_multiplicity
 _atom_site_fract_x
 _atom_site_fract_y
 _atom_site_fract_z
 _atom_site_occupancy
  Si  Si0  1  0.63156019  0.63156019  0.26312039  1
  Si  Si1  1  0.36843981  0.36843981  0.73687961  1
  Ru  Ru2  1  0.75000000  0.25000000  0.50000000  1
  Ru  Ru3  1  0.25000000  0.75000000  0.50000000  1
  Dy  Dy4  1  0.00000000  0.00000000  0.00000000  1
