# generated using pymatgen
data_CuH36C8(N5O4)2
_symmetry_space_group_name_H-M   'P 1'
_cell_length_a   12.48157110
_cell_length_b   12.48157110
_cell_length_c   13.45240817
_cell_angle_alpha   74.93897874
_cell_angle_beta   105.06102126
_cell_angle_gamma   147.23196766
_symmetry_Int_Tables_number   1
_chemical_formula_structural   CuH36C8(N5O4)2
_chemical_formula_sum   'Cu2 H72 C16 N20 O16'
_cell_volume   1091.90245250
_cell_formula_units_Z   2
loop_
 _symmetry_equiv_pos_site_id
 _symmetry_equiv_pos_as_xyz
  1  'x, y, z'
loop_
 _atom_site_type_symbol
 _atom_site_label
 _atom_site_symmetry_multiplicity
 _atom_site_fract_x
 _atom_site_fract_y
 _atom_site_fract_z
 _atom_site_occupancy
  Cu  Cu0  1  0.69796736  0.69796736  0.75000000  1
  Cu  Cu1  1  0.30203264  0.30203264  0.25000000  1
  H  H2  1  0.76594153  0.61485377  0.34851404  1
  H  H3  1  0.61485377  0.76594153  0.15148596  1
  H  H4  1  0.23405847  0.38514623  0.65148596  1
  H  H5  1  0.38514623  0.23405847  0.84851404  1
  H  H6  1  0.02038128  0.85897987  0.37637962  1
  H  H7  1  0.85897987  0.02038128  0.12362038  1
  H  H8  1  0.97961872  0.14102013  0.62362038  1
  H  H9  1  0.14102013  0.97961872  0.87637962  1
  H  H10  1  0.82259689  0.92377822  0.43333768  1
  H  H11  1  0.92377822  0.82259689  0.06666232  1
  H  H12  1  0.17740311  0.07622178  0.56666232  1
  H  H13  1  0.07622178  0.17740311  0.93333768  1
  H  H14  1  0.84980824  0.89245182  0.32678957  1
  H  H15  1  0.89245182  0.84980824  0.17321043  1
  H  H16  1  0.15019176  0.10754818  0.67321043  1
  H  H17  1  0.10754818  0.15019176  0.82678957  1
  H  H18  1  0.61055424  0.69315370  0.37314208  1
  H  H19  1  0.69315370  0.61055424  0.12685792  1
  H  H20  1  0.38944576  0.30684630  0.62685792  1
  H  H21  1  0.30684630  0.38944576  0.87314208  1
  H  H22  1  0.44058928  0.13957792  0.55144342  1
  H  H23  1  0.13957792  0.44058928  0.94855658  1
  H  H24  1  0.55941072  0.86042208  0.44855658  1
  H  H25  1  0.86042208  0.55941072  0.05144342  1
  H  H26  1  0.64728090  0.37600457  0.55303184  1
  H  H27  1  0.37600457  0.64728090  0.94696816  1
  H  H28  1  0.35271910  0.62399543  0.44696816  1
  H  H29  1  0.62399543  0.35271910  0.05303184  1
  H  H30  1  0.09809219  0.80279007  0.61151654  1
  H  H31  1  0.80279007  0.09809219  0.88848346  1
  H  H32  1  0.90190781  0.19720993  0.38848346  1
  H  H33  1  0.19720993  0.90190781  0.11151654  1
  H  H34  1  0.23734101  0.84303346  0.56604677  1
  H  H35  1  0.84303346  0.23734101  0.93395323  1
  H  H36  1  0.76265899  0.15696654  0.43395323  1
  H  H37  1  0.15696654  0.76265899  0.06604677  1
  H  H38  1  0.36414406  0.97554803  0.73997481  1
  H  H39  1  0.97554803  0.36414406  0.76002519  1
  H  H40  1  0.63585594  0.02445197  0.26002519  1
  H  H41  1  0.02445197  0.63585594  0.23997481  1
  H  H42  1  0.56882980  0.17098066  0.79613992  1
  H  H43  1  0.17098066  0.56882980  0.70386008  1
  H  H44  1  0.43117020  0.82901934  0.20386008  1
  H  H45  1  0.82901934  0.43117020  0.29613992  1
  H  H46  1  0.22392540  0.67868819  0.97822503  1
  H  H47  1  0.67868819  0.22392540  0.52177497  1
  H  H48  1  0.77607460  0.32131181  0.02177497  1
  H  H49  1  0.32131181  0.77607460  0.47822503  1
  H  H50  1  0.29023781  0.85185866  0.91526114  1
  H  H51  1  0.85185866  0.29023781  0.58473886  1
  H  H52  1  0.70976219  0.14814134  0.08473886  1
  H  H53  1  0.14814134  0.70976219  0.41526114  1
  H  H54  1  0.66745954  0.74136944  0.55193546  1
  H  H55  1  0.74136944  0.66745954  0.94806454  1
  H  H56  1  0.33254046  0.25863056  0.44806454  1
  H  H57  1  0.25863056  0.33254046  0.05193546  1
  H  H58  1  0.76332670  0.55164412  0.86057579  1
  H  H59  1  0.55164412  0.76332670  0.63942421  1
  H  H60  1  0.23667330  0.44835588  0.13942421  1
  H  H61  1  0.44835588  0.23667330  0.36057579  1
  H  H62  1  0.90355979  0.49606286  0.72187141  1
  H  H63  1  0.49606286  0.90355979  0.77812859  1
  H  H64  1  0.09644021  0.50393714  0.27812859  1
  H  H65  1  0.50393714  0.09644021  0.22187141  1
  H  H66  1  0.91030582  0.52394902  0.84061733  1
  H  H67  1  0.52394902  0.91030582  0.65938267  1
  H  H68  1  0.08969418  0.47605098  0.15938267  1
  H  H69  1  0.47605098  0.08969418  0.34061733  1
  H  H70  1  0.89838903  0.64972465  0.46425685  1
  H  H71  1  0.64972465  0.89838903  0.03574315  1
  H  H72  1  0.10161097  0.35027535  0.53574315  1
  H  H73  1  0.35027535  0.10161097  0.96425685  1
  C  C74  1  0.78036611  0.68720201  0.56547107  1
  C  C75  1  0.68720201  0.78036611  0.93452893  1
  C  C76  1  0.21963389  0.31279799  0.43452893  1
  C  C77  1  0.31279799  0.21963389  0.06547107  1
  C  C78  1  0.81137734  0.57379528  0.72427217  1
  C  C79  1  0.57379528  0.81137734  0.77572783  1
  C  C80  1  0.18862266  0.42620472  0.27572783  1
  C  C81  1  0.42620472  0.18862266  0.22427217  1
  C  C82  1  0.87889621  0.71513611  0.41032298  1
  C  C83  1  0.71513611  0.87889621  0.08967702  1
  C  C84  1  0.12110379  0.28486389  0.58967702  1
  C  C85  1  0.28486389  0.12110379  0.91032298  1
  C  C86  1  0.77051341  0.81516785  0.39657717  1
  C  C87  1  0.81516785  0.77051341  0.10342283  1
  C  C88  1  0.22948659  0.18483215  0.60342283  1
  C  C89  1  0.18483215  0.22948659  0.89657717  1
  N  N90  1  0.70480437  0.70029777  0.60525716  1
  N  N91  1  0.70029777  0.70480437  0.89474284  1
  N  N92  1  0.29519563  0.29970223  0.39474284  1
  N  N93  1  0.29970223  0.29519563  0.10525716  1
  N  N94  1  0.77241721  0.60429217  0.78574730  1
  N  N95  1  0.60429217  0.77241721  0.71425270  1
  N  N96  1  0.22758279  0.39570783  0.21425270  1
  N  N97  1  0.39570783  0.22758279  0.28574730  1
  N  N98  1  0.83876525  0.48272322  0.76807331  1
  N  N99  1  0.48272322  0.83876525  0.73192669  1
  N  N100  1  0.16123475  0.51727678  0.23192669  1
  N  N101  1  0.51727678  0.16123475  0.26807331  1
  N  N102  1  0.82723979  0.61963475  0.62079138  1
  N  N103  1  0.61963475  0.82723979  0.87920862  1
  N  N104  1  0.17276021  0.38036525  0.37920862  1
  N  N105  1  0.38036525  0.17276021  0.12079138  1
  N  N106  1  0.81665652  0.74366313  0.46302947  1
  N  N107  1  0.74366313  0.81665652  0.03697053  1
  N  N108  1  0.18334348  0.25633687  0.53697053  1
  N  N109  1  0.25633687  0.18334348  0.96302947  1
  O  O110  1  0.55847478  0.26271205  0.51210173  1
  O  O111  1  0.26271205  0.55847478  0.98789827  1
  O  O112  1  0.44152522  0.73728795  0.48789827  1
  O  O113  1  0.73728795  0.44152522  0.01210173  1
  O  O114  1  0.23773043  0.89412063  0.61286985  1
  O  O115  1  0.89412063  0.23773043  0.88713015  1
  O  O116  1  0.76226957  0.10587937  0.38713015  1
  O  O117  1  0.10587937  0.76226957  0.11286985  1
  O  O118  1  0.44459050  0.02524486  0.80734811  1
  O  O119  1  0.02524486  0.44459050  0.69265189  1
  O  O120  1  0.55540950  0.97475514  0.19265189  1
  O  O121  1  0.97475514  0.55540950  0.30734811  1
  O  O122  1  0.19275489  0.73305860  0.96380195  1
  O  O123  1  0.73305860  0.19275489  0.53619805  1
  O  O124  1  0.80724511  0.26694140  0.03619805  1
  O  O125  1  0.26694140  0.80724511  0.46380195  1
