# generated using pymatgen
data_Mn5Ge2
_symmetry_space_group_name_H-M   'P 1'
_cell_length_a   6.95676875
_cell_length_b   6.95676887
_cell_length_c   12.58841707
_cell_angle_alpha   90.00000000
_cell_angle_beta   90.00000000
_cell_angle_gamma   119.99999948
_symmetry_Int_Tables_number   1
_chemical_formula_structural   Mn5Ge2
_chemical_formula_sum   'Mn30 Ge12'
_cell_volume   527.61471454
_cell_formula_units_Z   6
loop_
 _symmetry_equiv_pos_site_id
 _symmetry_equiv_pos_as_xyz
  1  'x, y, z'
loop_
 _atom_site_type_symbol
 _atom_site_label
 _atom_site_symmetry_multiplicity
 _atom_site_fract_x
 _atom_site_fract_y
 _atom_site_fract_z
 _atom_site_occupancy
  Mn  Mn0  1  0.63634590  0.96962157  0.88975340  1
  Mn  Mn1  1  0.33321196  0.03313968  -0.00001245  1
  Mn  Mn2  1  0.33333300  0.66666700  0.76911322  1
  Mn  Mn3  1  0.69992772  0.03313968  0.49998755  1
  Mn  Mn4  1  0.63133623  0.66645948  0.59634965  1
  Mn  Mn5  1  0.03512325  0.66645948  0.09634965  1
  Mn  Mn6  1  0.33354052  0.96487675  0.59634965  1
  Mn  Mn7  1  0.33365988  0.02479040  0.79367710  1
  Mn  Mn8  1  0.33333300  0.66666700  0.26911322  1
  Mn  Mn9  1  0.69113052  0.66634012  0.79367710  1
  Mn  Mn10  1  0.33365988  0.30886948  0.29367710  1
  Mn  Mn11  1  0.69113052  0.02479040  0.29367710  1
  Mn  Mn12  1  0.96686032  0.66678804  0.49998755  1
  Mn  Mn13  1  0.63634590  0.66672433  0.38975340  1
  Mn  Mn14  1  0.33354052  0.36866377  0.09634965  1
  Mn  Mn15  1  0.66666700  0.33333300  0.11806925  1
  Mn  Mn16  1  0.69992772  0.66678804  -0.00001245  1
  Mn  Mn17  1  0.00000000  0.00000000  0.11746297  1
  Mn  Mn18  1  0.97520960  0.66634012  0.29367710  1
  Mn  Mn19  1  0.33321196  0.30007228  0.49998755  1
  Mn  Mn20  1  0.33327567  0.96962157  0.38975340  1
  Mn  Mn21  1  0.97520960  0.30886948  0.79367710  1
  Mn  Mn22  1  0.03512325  0.36866377  0.59634965  1
  Mn  Mn23  1  0.96686032  0.30007228  -0.00001245  1
  Mn  Mn24  1  0.63133623  0.96487675  0.09634965  1
  Mn  Mn25  1  0.00000000  0.00000000  0.61746297  1
  Mn  Mn26  1  0.33327567  0.36365410  0.88975340  1
  Mn  Mn27  1  0.03037843  0.66672433  0.88975340  1
  Mn  Mn28  1  0.66666700  0.33333300  0.61806925  1
  Mn  Mn29  1  0.03037843  0.36365410  0.38975340  1
  Ge  Ge30  1  0.66666700  0.33333300  0.40856280  1
  Ge  Ge31  1  0.33333300  0.66666700  0.98212621  1
  Ge  Ge32  1  0.00000000  0.00000000  0.90805680  1
  Ge  Ge33  1  0.66545140  0.99852795  0.69546855  1
  Ge  Ge34  1  0.33307655  0.33454860  0.69546855  1
  Ge  Ge35  1  0.00147205  0.66692345  0.69546855  1
  Ge  Ge36  1  0.00147205  0.33454860  0.19546855  1
  Ge  Ge37  1  0.33307655  0.99852795  0.19546855  1
  Ge  Ge38  1  0.66545140  0.66692345  0.19546855  1
  Ge  Ge39  1  0.33333300  0.66666700  0.48212621  1
  Ge  Ge40  1  0.00000000  0.00000000  0.40805680  1
  Ge  Ge41  1  0.66666700  0.33333300  0.90856280  1
