# generated using pymatgen
data_Al3(Ni10B3)2
_symmetry_space_group_name_H-M   'P 1'
_cell_length_a   7.40072320
_cell_length_b   7.40072321
_cell_length_c   7.40072240
_cell_angle_alpha   59.99999923
_cell_angle_beta   59.99999921
_cell_angle_gamma   59.99999950
_symmetry_Int_Tables_number   1
_chemical_formula_structural   Al3(Ni10B3)2
_chemical_formula_sum   'Al3 Ni20 B6'
_cell_volume   286.62062099
_cell_formula_units_Z   1
loop_
 _symmetry_equiv_pos_site_id
 _symmetry_equiv_pos_as_xyz
  1  'x, y, z'
loop_
 _atom_site_type_symbol
 _atom_site_label
 _atom_site_symmetry_multiplicity
 _atom_site_fract_x
 _atom_site_fract_y
 _atom_site_fract_z
 _atom_site_occupancy
  Al  Al0  1  0.00000000  0.00000000  0.00000000  1
  B  B1  1  0.27375238  0.72624762  0.27375238  1
  B  B2  1  0.27375238  0.27375238  0.72624762  1
  B  B3  1  0.72624762  0.72624762  0.27375238  1
  B  B4  1  0.72624762  0.27375238  0.27375238  1
  B  B5  1  0.27375238  0.72624762  0.72624762  1
  B  B6  1  0.72624762  0.27375238  0.72624762  1
  Ni  Ni7  1  0.00000000  0.00000000  0.33821278  1
  Ni  Ni8  1  0.00000000  0.66178722  0.33821278  1
  Ni  Ni9  1  0.33821278  0.00000000  1.00000000  1
  Ni  Ni10  1  0.00000000  0.33821278  1.00000000  1
  Ni  Ni11  1  0.66178722  0.00000000  0.33821278  1
  Ni  Ni12  1  0.66178722  0.33821278  1.00000000  1
  Ni  Ni13  1  0.33821278  0.66178722  0.00000000  1
  Ni  Ni14  1  0.66178722  1.00000000  0.00000000  1
  Ni  Ni15  1  0.33821278  1.00000000  0.66178722  1
  Ni  Ni16  1  1.00000000  0.33821278  0.66178722  1
  Ni  Ni17  1  1.00000000  0.66178722  0.00000000  1
  Ni  Ni18  1  1.00000000  1.00000000  0.66178722  1
  Ni  Ni19  1  0.38249959  0.38249959  0.38249959  1
  Ni  Ni20  1  0.61750041  0.61750041  0.14749878  1
  Ni  Ni21  1  0.14749878  0.61750041  0.61750041  1
  Ni  Ni22  1  0.61750041  0.14749878  0.61750041  1
  Ni  Ni23  1  0.85250122  0.38249959  0.38249959  1
  Ni  Ni24  1  0.38249959  0.85250122  0.38249959  1
  Ni  Ni25  1  0.38249959  0.38249959  0.85250122  1
  Ni  Ni26  1  0.61750041  0.61750041  0.61750041  1
  Al  Al27  1  0.25000000  0.25000000  0.25000000  1
  Al  Al28  1  0.75000000  0.75000000  0.75000000  1
