# generated using pymatgen
data_UH3
_symmetry_space_group_name_H-M   'P 1'
_cell_length_a   6.59866349
_cell_length_b   6.59866349
_cell_length_c   6.59866349
_cell_angle_alpha   90.00000000
_cell_angle_beta   90.00000000
_cell_angle_gamma   90.00000000
_symmetry_Int_Tables_number   1
_chemical_formula_structural   UH3
_chemical_formula_sum   'U8 H24'
_cell_volume   287.32138024
_cell_formula_units_Z   8
loop_
 _symmetry_equiv_pos_site_id
 _symmetry_equiv_pos_as_xyz
  1  'x, y, z'
loop_
 _atom_site_type_symbol
 _atom_site_label
 _atom_site_symmetry_multiplicity
 _atom_site_fract_x
 _atom_site_fract_y
 _atom_site_fract_z
 _atom_site_occupancy
  U  U0  1  -0.00000000  0.00000000  -0.00000000  1
  U  U1  1  0.50000000  0.50000000  0.50000000  1
  U  U2  1  0.25000000  0.00000000  0.50000000  1
  U  U3  1  0.75000000  0.00000000  0.50000000  1
  U  U4  1  -0.00000000  0.50000000  0.25000000  1
  U  U5  1  -0.00000000  0.50000000  0.75000000  1
  U  U6  1  0.50000000  0.75000000  -0.00000000  1
  U  U7  1  0.50000000  0.25000000  -0.00000000  1
  H  H8  1  -0.00000000  0.15542604  0.30497733  1
  H  H9  1  0.50000000  0.19502267  0.65542604  1
  H  H10  1  0.50000000  0.80497733  0.34457396  1
  H  H11  1  0.80497733  0.65542604  0.50000000  1
  H  H12  1  0.19502267  0.65542604  0.50000000  1
  H  H13  1  0.34457396  0.50000000  0.80497733  1
  H  H14  1  0.65542604  0.50000000  0.80497733  1
  H  H15  1  0.30497733  0.00000000  0.15542604  1
  H  H16  1  0.15542604  0.30497733  -0.00000000  1
  H  H17  1  0.84457396  0.69502267  -0.00000000  1
  H  H18  1  0.30497733  0.00000000  0.84457396  1
  H  H19  1  0.84457396  0.30497733  -0.00000000  1
  H  H20  1  0.69502267  0.00000000  0.15542604  1
  H  H21  1  0.69502267  0.00000000  0.84457396  1
  H  H22  1  0.15542604  0.69502267  -0.00000000  1
  H  H23  1  -0.00000000  0.84457396  0.69502267  1
  H  H24  1  -0.00000000  0.15542604  0.69502267  1
  H  H25  1  -0.00000000  0.84457396  0.30497733  1
  H  H26  1  0.65542604  0.50000000  0.19502267  1
  H  H27  1  0.34457396  0.50000000  0.19502267  1
  H  H28  1  0.80497733  0.34457396  0.50000000  1
  H  H29  1  0.19502267  0.34457396  0.50000000  1
  H  H30  1  0.50000000  0.80497733  0.65542604  1
  H  H31  1  0.50000000  0.19502267  0.34457396  1
