# generated using pymatgen
data_Zr5Sb3
_symmetry_space_group_name_H-M   'P 1'
_cell_length_a   7.61487351
_cell_length_b   8.88916695
_cell_length_c   10.86696868
_cell_angle_alpha   90.00000000
_cell_angle_beta   90.00000000
_cell_angle_gamma   90.00000000
_symmetry_Int_Tables_number   1
_chemical_formula_structural   Zr5Sb3
_chemical_formula_sum   'Zr20 Sb12'
_cell_volume   735.58382692
_cell_formula_units_Z   4
loop_
 _symmetry_equiv_pos_site_id
 _symmetry_equiv_pos_as_xyz
  1  'x, y, z'
loop_
 _atom_site_type_symbol
 _atom_site_label
 _atom_site_symmetry_multiplicity
 _atom_site_fract_x
 _atom_site_fract_y
 _atom_site_fract_z
 _atom_site_occupancy
  Zr  Zr0  1  0.47405888  0.75000000  0.49682589  1
  Zr  Zr1  1  0.97405888  0.25000000  0.00317411  1
  Zr  Zr2  1  0.52594112  0.25000000  0.50317411  1
  Zr  Zr3  1  0.02594112  0.75000000  0.99682589  1
  Zr  Zr4  1  0.32068688  0.75000000  0.76804967  1
  Zr  Zr5  1  0.82068688  0.25000000  0.73195033  1
  Zr  Zr6  1  0.67931312  0.25000000  0.23195033  1
  Zr  Zr7  1  0.17931312  0.75000000  0.26804967  1
  Zr  Zr8  1  0.17241870  0.25000000  0.28714103  1
  Zr  Zr9  1  0.67241870  0.75000000  0.21285897  1
  Zr  Zr10  1  0.82758130  0.75000000  0.71285897  1
  Zr  Zr11  1  0.32758130  0.25000000  0.78714103  1
  Zr  Zr12  1  0.19904598  0.44337096  0.55265840  1
  Zr  Zr13  1  0.69904598  0.55662904  0.94734160  1
  Zr  Zr14  1  0.80095402  0.94337096  0.44734160  1
  Zr  Zr15  1  0.30095402  0.05662904  0.05265840  1
  Zr  Zr16  1  0.80095402  0.55662904  0.44734160  1
  Zr  Zr17  1  0.30095402  0.44337096  0.05265840  1
  Zr  Zr18  1  0.19904598  0.05662904  0.55265840  1
  Zr  Zr19  1  0.69904598  0.94337096  0.94734160  1
  Sb  Sb20  1  0.09055123  0.75000000  0.52730842  1
  Sb  Sb21  1  0.59055123  0.25000000  0.97269158  1
  Sb  Sb22  1  0.90944877  0.25000000  0.47269158  1
  Sb  Sb23  1  0.40944877  0.75000000  0.02730842  1
  Sb  Sb24  1  0.06649042  0.00761051  0.82181486  1
  Sb  Sb25  1  0.56649042  0.99238949  0.67818514  1
  Sb  Sb26  1  0.93350958  0.50761051  0.17818514  1
  Sb  Sb27  1  0.43350958  0.49238949  0.32181486  1
  Sb  Sb28  1  0.93350958  0.99238949  0.17818514  1
  Sb  Sb29  1  0.43350958  0.00761051  0.32181486  1
  Sb  Sb30  1  0.06649042  0.49238949  0.82181486  1
  Sb  Sb31  1  0.56649042  0.50761051  0.67818514  1
