# generated using pymatgen
data_Ru(OF3)2
_symmetry_space_group_name_H-M   'P 1'
_cell_length_a   9.24851964
_cell_length_b   9.24851952
_cell_length_c   9.24851964
_cell_angle_alpha   109.47122089
_cell_angle_beta   109.47122063
_cell_angle_gamma   109.47121715
_symmetry_Int_Tables_number   1
_chemical_formula_structural   Ru(OF3)2
_chemical_formula_sum   'Ru4 O8 F24'
_cell_volume   608.96844684
_cell_formula_units_Z   4
loop_
 _symmetry_equiv_pos_site_id
 _symmetry_equiv_pos_as_xyz
  1  'x, y, z'
loop_
 _atom_site_type_symbol
 _atom_site_label
 _atom_site_symmetry_multiplicity
 _atom_site_fract_x
 _atom_site_fract_y
 _atom_site_fract_z
 _atom_site_occupancy
  O  O0  1  0.56463910  0.56463910  0.56463910  1
  O  O1  1  1.00000000  0.93536090  0.50000000  1
  O  O2  1  0.50000000  0.00000000  0.93536090  1
  O  O3  1  0.93536090  0.50000000  1.00000000  1
  O  O4  1  0.43536090  0.43536090  0.43536090  1
  O  O5  1  0.00000000  0.06463910  0.50000000  1
  O  O6  1  0.50000000  0.00000000  0.06463910  1
  O  O7  1  0.06463910  0.50000000  0.00000000  1
  Ru  Ru8  1  0.00000000  0.00000000  0.00000000  1
  Ru  Ru9  1  0.00000000  0.50000000  0.50000000  1
  Ru  Ru10  1  0.50000000  0.00000000  0.50000000  1
  Ru  Ru11  1  0.50000000  0.50000000  0.00000000  1
  F  F12  1  0.23223826  0.07767264  0.04204248  1
  F  F13  1  0.19019579  0.45795752  0.53563016  1
  F  F14  1  0.65456562  0.96436984  0.42232736  1
  F  F15  1  0.30980421  0.84543438  0.26776174  1
  F  F16  1  0.45795752  0.53563016  0.19019579  1
  F  F17  1  0.42232736  0.65456562  0.96436984  1
  F  F18  1  0.84543438  0.26776174  0.30980421  1
  F  F19  1  0.04204248  0.23223826  0.07767264  1
  F  F20  1  0.07767264  0.04204248  0.23223826  1
  F  F21  1  0.53563016  0.19019579  0.45795752  1
  F  F22  1  0.96436984  0.42232736  0.65456562  1
  F  F23  1  0.26776174  0.30980421  0.84543438  1
  F  F24  1  0.76776174  0.92232736  0.95795752  1
  F  F25  1  0.80980421  0.54204248  0.46436984  1
  F  F26  1  0.34543438  0.03563016  0.57767264  1
  F  F27  1  0.69019579  0.15456562  0.73223826  1
  F  F28  1  0.54204248  0.46436984  0.80980421  1
  F  F29  1  0.57767264  0.34543438  0.03563016  1
  F  F30  1  0.15456562  0.73223826  0.69019579  1
  F  F31  1  0.95795752  0.76776174  0.92232736  1
  F  F32  1  0.92232736  0.95795752  0.76776174  1
  F  F33  1  0.46436984  0.80980421  0.54204248  1
  F  F34  1  0.03563016  0.57767264  0.34543438  1
  F  F35  1  0.73223826  0.69019579  0.15456562  1
