# generated using pymatgen
data_Ta3Al2CoC
_symmetry_space_group_name_H-M   'P 1'
_cell_length_a   8.20812965
_cell_length_b   8.20812955
_cell_length_c   8.20812872
_cell_angle_alpha   59.99999931
_cell_angle_beta   59.99999974
_cell_angle_gamma   60.00000175
_symmetry_Int_Tables_number   1
_chemical_formula_structural   Ta3Al2CoC
_chemical_formula_sum   'Ta12 Al8 Co4 C4'
_cell_volume   391.03674879
_cell_formula_units_Z   4
loop_
 _symmetry_equiv_pos_site_id
 _symmetry_equiv_pos_as_xyz
  1  'x, y, z'
loop_
 _atom_site_type_symbol
 _atom_site_label
 _atom_site_symmetry_multiplicity
 _atom_site_fract_x
 _atom_site_fract_y
 _atom_site_fract_z
 _atom_site_occupancy
  Ta  Ta0  1  0.31387513  0.93612487  0.93612487  1
  Ta  Ta1  1  0.06387513  0.06387513  0.68612487  1
  Ta  Ta2  1  0.68612487  0.68612487  0.06387513  1
  Ta  Ta3  1  0.06387513  0.68612487  0.68612487  1
  Ta  Ta4  1  0.06387513  0.68612487  0.06387513  1
  Ta  Ta5  1  0.68612487  0.06387513  0.68612487  1
  Ta  Ta6  1  0.93612487  0.31387513  0.93612487  1
  Ta  Ta7  1  0.93612487  0.93612487  0.31387513  1
  Ta  Ta8  1  0.31387513  0.31387513  0.93612487  1
  Ta  Ta9  1  0.31387513  0.93612487  0.31387513  1
  Ta  Ta10  1  0.68612487  0.06387513  0.06387513  1
  Ta  Ta11  1  0.93612487  0.31387513  0.31387513  1
  Al  Al12  1  0.29320266  0.29320266  0.29320266  1
  Al  Al13  1  0.70679734  0.70679734  0.37960798  1
  Al  Al14  1  0.37960798  0.70679734  0.70679734  1
  Al  Al15  1  0.70679734  0.37960798  0.70679734  1
  Al  Al16  1  0.62039202  0.29320266  0.29320266  1
  Al  Al17  1  0.29320266  0.62039202  0.29320266  1
  Al  Al18  1  0.29320266  0.29320266  0.62039202  1
  Al  Al19  1  0.70679734  0.70679734  0.70679734  1
  Co  Co20  1  0.50000000  0.50000000  0.50000000  1
  Co  Co21  1  0.50000000  0.50000000  0.00000000  1
  Co  Co22  1  0.00000000  0.50000000  0.50000000  1
  Co  Co23  1  0.50000000  0.00000000  0.50000000  1
  C  C24  1  0.00000000  0.00000000  0.00000000  1
  C  C25  1  0.00000000  0.00000000  0.50000000  1
  C  C26  1  0.50000000  0.00000000  0.00000000  1
  C  C27  1  0.00000000  0.50000000  0.00000000  1
