# generated using pymatgen
data_LaAlSi2
_symmetry_space_group_name_H-M   'P 1'
_cell_length_a   4.18310351
_cell_length_b   4.18310352
_cell_length_c   11.46073631
_cell_angle_alpha   90.00000000
_cell_angle_beta   90.00000000
_cell_angle_gamma   120.00000003
_symmetry_Int_Tables_number   1
_chemical_formula_structural   LaAlSi2
_chemical_formula_sum   'La2 Al2 Si4'
_cell_volume   173.67622667
_cell_formula_units_Z   2
loop_
 _symmetry_equiv_pos_site_id
 _symmetry_equiv_pos_as_xyz
  1  'x, y, z'
loop_
 _atom_site_type_symbol
 _atom_site_label
 _atom_site_symmetry_multiplicity
 _atom_site_fract_x
 _atom_site_fract_y
 _atom_site_fract_z
 _atom_site_occupancy
  Al  Al0  1  0.33333333  0.66666667  0.58197377  1
  Al  Al1  1  0.66666667  0.33333333  0.41802623  1
  Si  Si2  1  0.66666667  0.33333333  0.64277419  1
  Si  Si3  1  0.33333333  0.66666667  0.35722581  1
  Si  Si4  1  0.33333333  0.66666667  0.99410023  1
  Si  Si5  1  0.66666667  0.33333333  0.00589977  1
  La  La6  1  0.00000000  0.00000000  0.81727808  1
  La  La7  1  0.00000000  0.00000000  0.18272192  1
