# generated using pymatgen
data_Na2Zr12B2I5Cl23
_symmetry_space_group_name_H-M   'P 1'
_cell_length_a   13.49807200
_cell_length_b   13.62145260
_cell_length_c   13.49946432
_cell_angle_alpha   90.00000000
_cell_angle_beta   89.96676851
_cell_angle_gamma   90.00000000
_symmetry_Int_Tables_number   1
_chemical_formula_structural   Na2Zr12B2I5Cl23
_chemical_formula_sum   'Na4 Zr24 B4 I10 Cl46'
_cell_volume   2482.05628875
_cell_formula_units_Z   2
loop_
 _symmetry_equiv_pos_site_id
 _symmetry_equiv_pos_as_xyz
  1  'x, y, z'
loop_
 _atom_site_type_symbol
 _atom_site_label
 _atom_site_symmetry_multiplicity
 _atom_site_fract_x
 _atom_site_fract_y
 _atom_site_fract_z
 _atom_site_occupancy
  B  B0  1  0.00309482  1.00067022  0.99906434  1
  B  B1  1  0.00309482  0.49932978  0.49906434  1
  B  B2  1  0.49665370  0.00081578  0.50032603  1
  B  B3  1  0.49665370  0.49918422  0.00032603  1
  Cl  Cl4  1  0.01987987  0.11643053  0.23885890  1
  Cl  Cl5  1  0.01987987  0.38356947  0.73885890  1
  Cl  Cl6  1  0.09766098  0.37470911  0.28387057  1
  Cl  Cl7  1  0.09766098  0.12529089  0.78387057  1
  Cl  Cl8  1  0.11781616  0.23778064  0.02127895  1
  Cl  Cl9  1  0.11781616  0.26221936  0.52127895  1
  Cl  Cl10  1  0.12626020  0.78837195  0.09656437  1
  Cl  Cl11  1  0.12626020  0.71162805  0.59656437  1
  Cl  Cl12  1  0.21986610  0.59456404  0.37912720  1
  Cl  Cl13  1  0.21986610  0.90543596  0.87912720  1
  Cl  Cl14  1  0.23908001  0.02310011  0.11734613  1
  Cl  Cl15  1  0.23908001  0.47689989  0.61734613  1
  Cl  Cl16  1  0.26058379  0.52023301  0.11757268  1
  Cl  Cl17  1  0.26058379  0.97976699  0.61757268  1
  Cl  Cl18  1  0.28227895  0.09672241  0.37784633  1
  Cl  Cl19  1  0.28227895  0.40327759  0.87784633  1
  Cl  Cl20  1  0.37994256  0.28333299  0.09818406  1
  Cl  Cl21  1  0.37994256  0.21666701  0.59818406  1
  Cl  Cl22  1  0.38175243  0.73642524  0.01996728  1
  Cl  Cl23  1  0.38175243  0.76357476  0.51996728  1
  Cl  Cl24  1  0.40225697  0.88060982  0.28242665  1
  Cl  Cl25  1  0.40225697  0.61939018  0.78242665  1
  Cl  Cl26  1  0.47984121  0.61517254  0.23905957  1
  Cl  Cl27  1  0.47984121  0.88482746  0.73905957  1
  Cl  Cl28  1  0.52301664  0.11920839  0.26120843  1
  Cl  Cl29  1  0.52301664  0.38079161  0.76120843  1
  Cl  Cl30  1  0.59756599  0.37995042  0.21796403  1
  Cl  Cl31  1  0.59756599  0.12004958  0.71796403  1
  Cl  Cl32  1  0.61802852  0.26256899  0.97712951  1
  Cl  Cl33  1  0.61802852  0.23743101  0.47712951  1
  Cl  Cl34  1  0.61943811  0.78406840  0.40281682  1
  Cl  Cl35  1  0.61943811  0.71593160  0.90281682  1
  Cl  Cl36  1  0.71703026  0.59749917  0.11828289  1
  Cl  Cl37  1  0.71703026  0.90250083  0.61828289  1
  Cl  Cl38  1  0.73799564  0.02215873  0.38124160  1
  Cl  Cl39  1  0.73799564  0.47784127  0.88124160  1
  Cl  Cl40  1  0.76141328  0.51987859  0.38114013  1
  Cl  Cl41  1  0.76141328  0.98012141  0.88114013  1
  Cl  Cl42  1  0.78167086  0.09781245  0.11843912  1
  Cl  Cl43  1  0.78167086  0.40218755  0.61843912  1
  Cl  Cl44  1  0.87882620  0.21982628  0.90435029  1
  Cl  Cl45  1  0.87882620  0.28017372  0.40435029  1
  Cl  Cl46  1  0.88328065  0.76357617  0.97716801  1
  Cl  Cl47  1  0.88328065  0.73642383  0.47716801  1
  Cl  Cl48  1  0.90198234  0.88322281  0.21744222  1
  Cl  Cl49  1  0.90198234  0.61677719  0.71744222  1
  I  I50  1  0.13175010  0.86691643  0.36943219  1
  I  I51  1  0.13175010  0.63308357  0.86943219  1
  I  I52  1  0.36866261  0.36650004  0.36859317  1
  I  I53  1  0.36866261  0.13349996  0.86859317  1
  I  I54  1  0.63543258  0.63525695  0.63490356  1
  I  I55  1  0.63543258  0.86474305  0.13490356  1
  I  I56  1  0.86289921  0.13843239  0.63664132  1
  I  I57  1  0.86289921  0.36156761  0.13664132  1
  I  I58  1  0.98310846  0.62185759  0.23218370  1
  I  I59  1  0.98310846  0.87814241  0.73218370  1
  Na  Na60  1  0.71573915  0.21599929  0.28278187  1
  Na  Na61  1  0.71573915  0.28400071  0.78278187  1
  Na  Na62  1  0.77616215  0.71972150  0.28427668  1
  Na  Na63  1  0.77616215  0.78027850  0.78427668  1
  Zr  Zr64  1  0.05107615  0.65099451  0.43657377  1
  Zr  Zr65  1  0.05107615  0.84900549  0.93657377  1
  Zr  Zr66  1  0.06664118  0.95624276  0.15203470  1
  Zr  Zr67  1  0.06664118  0.54375724  0.65203470  1
  Zr  Zr68  1  0.15459167  0.43457777  0.45336328  1
  Zr  Zr69  1  0.15459167  0.06542223  0.95336328  1
  Zr  Zr70  1  0.34534060  0.93670322  0.45374405  1
  Zr  Zr71  1  0.34534060  0.56329678  0.95374405  1
  Zr  Zr72  1  0.43319170  0.45394816  0.15269211  1
  Zr  Zr73  1  0.43319170  0.04605184  0.65269211  1
  Zr  Zr74  1  0.45061859  0.15189431  0.43699146  1
  Zr  Zr75  1  0.45061859  0.34810569  0.93699146  1
  Zr  Zr76  1  0.54175989  0.65007773  0.06447704  1
  Zr  Zr77  1  0.54175989  0.84992227  0.56447704  1
  Zr  Zr78  1  0.56054704  0.95503573  0.34800061  1
  Zr  Zr79  1  0.56054704  0.54496427  0.84800061  1
  Zr  Zr80  1  0.64977447  0.43686790  0.04538814  1
  Zr  Zr81  1  0.64977447  0.06313210  0.54538814  1
  Zr  Zr82  1  0.85017795  0.56195846  0.54419080  1
  Zr  Zr83  1  0.85017795  0.93804154  0.04419080  1
  Zr  Zr84  1  0.93801861  0.05076229  0.84786822  1
  Zr  Zr85  1  0.93801861  0.44923771  0.34786822  1
  Zr  Zr86  1  0.95719165  0.15158153  0.06468721  1
  Zr  Zr87  1  0.95719165  0.34841847  0.56468721  1
