# generated using pymatgen
data_Ca14MnAs11
_symmetry_space_group_name_H-M   'P 1'
_cell_length_a   15.32145202
_cell_length_b   15.32164387
_cell_length_c   15.32146317
_cell_angle_alpha   93.32055829
_cell_angle_beta   118.09756153
_cell_angle_gamma   118.10580664
_symmetry_Int_Tables_number   1
_chemical_formula_structural   Ca14MnAs11
_chemical_formula_sum   'Ca56 Mn4 As44'
_cell_volume   2611.49099689
_cell_formula_units_Z   4
loop_
 _symmetry_equiv_pos_site_id
 _symmetry_equiv_pos_as_xyz
  1  'x, y, z'
loop_
 _atom_site_type_symbol
 _atom_site_label
 _atom_site_symmetry_multiplicity
 _atom_site_fract_x
 _atom_site_fract_y
 _atom_site_fract_z
 _atom_site_occupancy
  As  As0  1  0.11892253  0.92597882  0.81515026  1
  As  As1  1  0.15552226  0.58264359  0.97981911  1
  As  As2  1  0.24999837  0.73988159  0.75977391  1
  As  As3  1  0.25001828  0.88129095  0.61874096  1
  As  As4  1  0.10368252  0.42765104  0.58255896  1
  As  As5  1  0.10953955  0.18418008  0.80224292  1
  As  As6  1  0.11902488  0.69315456  0.30266743  1
  As  As7  1  0.01612555  0.75794165  0.00791672  1
  As  As8  1  0.34510335  0.52112706  0.91744088  1
  As  As9  1  0.11083094  0.42599349  0.30706434  1
  As  As10  1  0.10281998  0.17569637  0.52017333  1
  As  As11  1  0.39616489  0.97961553  0.32353078  1
  As  As12  1  0.38194127  0.68418856  0.57465296  1
  As  As13  1  0.60952284  0.80728366  0.92533949  1
  As  As14  1  0.48010710  0.49022329  0.74021903  1
  As  As15  1  0.38182242  0.19884116  0.80706390  1
  As  As16  1  0.39177554  0.69884160  0.31701888  1
  As  As17  1  0.39519979  0.91664422  0.07213014  1
  As  As18  1  0.34450925  0.32306826  0.42786439  1
  As  As19  1  0.25001397  0.00820095  0.49207366  1
  As  As20  1  0.84510537  0.92765938  0.82398135  1
  As  As21  1  0.26254839  0.38129592  0.13127526  1
  As  As22  1  0.15608104  0.07263296  0.17646222  1
  As  As23  1  0.74999607  0.99021899  0.51010911  1
  As  As24  1  0.76254646  0.63127073  0.88124662  1
  As  As25  1  0.65552468  0.67570505  0.57287717  1
  As  As26  1  0.60283022  0.08264687  0.92712042  1
  As  As27  1  0.61079332  0.30374351  0.68485907  1
  As  As28  1  0.61888964  0.80375195  0.19294686  1
  As  As29  1  0.51612427  0.50820823  0.25818248  1
  As  As30  1  0.39049727  0.19316102  0.07414498  1
  As  As31  1  0.61903111  0.31635664  0.42588827  1
  As  As32  1  0.60368170  0.02111634  0.67601359  1
  As  As33  1  0.89519780  0.82306229  0.47855287  1
  As  As34  1  0.89178018  0.57476123  0.69294120  1
  As  As35  1  0.65607894  0.47961931  0.08344654  1
  As  As36  1  0.98010783  0.23987627  0.98988800  1
  As  As37  1  0.88193825  0.30728724  0.69775891  1
  As  As38  1  0.89047029  0.81635445  0.19732321  1
  As  As39  1  0.89617414  0.57262856  0.41655521  1
  As  As40  1  0.75002149  0.13127110  0.36872348  1
  As  As41  1  0.75002560  0.25794190  0.24181636  1
  As  As42  1  0.84450857  0.41663952  0.02144409  1
  As  As43  1  0.88182835  0.07477407  0.18298405  1
  Ca  Ca44  1  0.14822188  0.74914971  0.89649633  1
  Ca  Ca45  1  0.03260838  0.74665466  0.62806159  1
  Ca  Ca46  1  0.02741525  0.78355883  0.39944637  1
  Ca  Ca47  1  0.08691469  0.52209318  0.75010601  1
  Ca  Ca48  1  0.35323037  0.97055655  0.87124369  1
  Ca  Ca49  1  0.11849602  0.37151308  0.90416201  1
  Ca  Ca50  1  0.09922824  0.12890481  0.98179536  1
  Ca  Ca51  1  0.14710285  0.62890132  0.52968334  1
  Ca  Ca52  1  0.41502822  0.75116335  0.97668742  1
  Ca  Ca53  1  0.14790360  0.89790613  0.24999359  1
  Ca  Ca54  1  0.46735775  0.87151840  0.75301649  1
  Ca  Ca55  1  0.35498752  0.88286750  0.48062016  1
  Ca  Ca56  1  0.35236959  0.60236564  0.74999942  1
  Ca  Ca57  1  0.22483041  0.97719957  0.05996594  1
  Ca  Ca58  1  0.27198903  0.33680791  0.74989396  1
  Ca  Ca59  1  0.22737764  0.74897460  0.16419839  1
  Ca  Ca60  1  0.27447047  0.43832839  0.52330735  1
  Ca  Ca61  1  0.09931196  0.47054947  0.11732990  1
  Ca  Ca62  1  0.59923247  0.61743161  0.97031316  1
  Ca  Ca63  1  0.14533685  0.01951492  0.61721700  1
  Ca  Ca64  1  0.08475453  0.06315878  0.33578420  1
  Ca  Ca65  1  0.11859522  0.24665171  0.21405485  1
  Ca  Ca66  1  0.58689901  0.83680242  0.56479873  1
  Ca  Ca67  1  0.61850179  0.71433834  0.74697697  1
  Ca  Ca68  1  0.35264215  0.25171258  0.60349415  1
  Ca  Ca69  1  0.53259885  0.90454251  0.28594634  1
  Ca  Ca70  1  0.40229689  0.51951855  0.37417666  1
  Ca  Ca71  1  0.61859050  0.40454335  0.87193821  1
  Ca  Ca72  1  0.38422099  0.60093784  0.12844516  1
  Ca  Ca73  1  0.59930788  0.48197919  0.62875304  1
  Ca  Ca74  1  0.47248392  0.10092966  0.71670827  1
  Ca  Ca75  1  0.64821366  0.75171715  0.39906194  1
  Ca  Ca76  1  0.38411648  0.28357007  0.25614189  1
  Ca  Ca77  1  0.41721967  0.16485165  0.44001961  1
  Ca  Ca78  1  0.88423455  0.75578252  0.78329042  1
  Ca  Ca79  1  0.91501151  0.93832337  0.66385066  1
  Ca  Ca80  1  0.85321805  0.98197665  0.38266364  1
  Ca  Ca81  1  0.40224627  0.38287457  0.02787608  1
  Ca  Ca82  1  0.90231098  0.52812476  0.88279384  1
  Ca  Ca83  1  0.72738731  0.56318491  0.47840303  1
  Ca  Ca84  1  0.77446312  0.25114809  0.83614661  1
  Ca  Ca85  1  0.72481643  0.66486608  0.24761555  1
  Ca  Ca86  1  0.77199776  0.02208785  0.93519835  1
  Ca  Ca87  1  0.64791709  0.39791312  0.25000317  1
  Ca  Ca88  1  0.64710259  0.11742190  0.51819361  1
  Ca  Ca89  1  0.52742822  0.12797417  0.24386006  1
  Ca  Ca90  1  0.85236444  0.10235904  0.75000012  1
  Ca  Ca91  1  0.58478318  0.24898135  0.02159059  1
  Ca  Ca92  1  0.85498539  0.37436083  0.47213518  1
  Ca  Ca93  1  0.90223473  0.87436154  0.01937452  1
  Ca  Ca94  1  0.88410603  0.62797053  0.10054340  1
  Ca  Ca95  1  0.64533352  0.02812659  0.12582061  1
  Ca  Ca96  1  0.91723971  0.47720000  0.25237369  1
  Ca  Ca97  1  0.96734816  0.21432825  0.59583317  1
  Ca  Ca98  1  0.97249246  0.25577688  0.37155107  1
  Ca  Ca99  1  0.85265475  0.24914684  0.10093717  1
  Mn  Mn100  1  0.25081998  0.62554400  0.37534929  1
  Mn  Mn101  1  0.25024023  0.12553129  0.87474259  1
  Mn  Mn102  1  0.75084147  0.37548342  0.62536501  1
  Mn  Mn103  1  0.75014107  0.87550803  0.12466772  1
