# generated using pymatgen
data_Ba6CdAg2(SnS4)4
_symmetry_space_group_name_H-M   'P 1'
_cell_length_a   12.94995858
_cell_length_b   12.94995848
_cell_length_c   12.94995878
_cell_angle_alpha   109.39326803
_cell_angle_beta   109.39326785
_cell_angle_gamma   109.62724172
_symmetry_Int_Tables_number   1
_chemical_formula_structural   Ba6CdAg2(SnS4)4
_chemical_formula_sum   'Ba12 Cd2 Ag4 Sn8 S32'
_cell_volume   1671.78651822
_cell_formula_units_Z   2
loop_
 _symmetry_equiv_pos_site_id
 _symmetry_equiv_pos_as_xyz
  1  'x, y, z'
loop_
 _atom_site_type_symbol
 _atom_site_label
 _atom_site_symmetry_multiplicity
 _atom_site_fract_x
 _atom_site_fract_y
 _atom_site_fract_z
 _atom_site_occupancy
  Ag  Ag0  1  0.25000000  0.12505071  0.87505071  1
  Ag  Ag1  1  0.62505071  0.75000000  0.37505071  1
  Ag  Ag2  1  0.75000000  0.37494929  0.62494929  1
  Ag  Ag3  1  0.87494929  0.25000000  0.12494929  1
  Ba  Ba4  1  0.01749373  0.26749373  0.75000000  1
  Ba  Ba5  1  0.25000000  0.76794568  0.51794568  1
  Ba  Ba6  1  0.23205432  0.25000000  0.48205432  1
  Ba  Ba7  1  0.25000000  0.48093077  0.23093077  1
  Ba  Ba8  1  0.26794568  0.75000000  0.01794568  1
  Ba  Ba9  1  0.73250627  0.98250627  0.75000000  1
  Ba  Ba10  1  0.51906923  0.25000000  0.76906923  1
  Ba  Ba11  1  0.75000000  0.73205432  0.98205432  1
  Ba  Ba12  1  0.48250627  0.23250627  0.25000000  1
  Ba  Ba13  1  0.98093077  0.75000000  0.73093077  1
  Ba  Ba14  1  0.76749373  0.51749373  0.25000000  1
  Ba  Ba15  1  0.75000000  0.01906923  0.26906923  1
  Cd  Cd16  1  0.12500000  0.87500000  0.25000000  1
  Cd  Cd17  1  0.37500000  0.62500000  0.75000000  1
  S  S18  1  0.00057580  0.77196257  0.49897148  1
  S  S19  1  0.30577178  0.98043356  0.95761002  1
  S  S20  1  0.17652526  0.64919898  0.69369834  1
  S  S21  1  0.02389354  0.04058617  0.84925626  1
  S  S22  1  0.00160431  0.27299109  0.50102852  1
  S  S23  1  0.04449935  0.85080102  0.02732628  1
  S  S24  1  0.01956644  0.47717646  0.32533822  1
  S  S25  1  0.14919898  0.67652526  0.19369834  1
  S  S26  1  0.19422822  0.15183824  0.67466178  1
  S  S27  1  0.51717308  0.82347474  0.97267372  1
  S  S28  1  0.35080102  0.54449935  0.52732628  1
  S  S29  1  0.45550065  0.48282692  0.80630166  1
  S  S30  1  0.48043356  0.80577178  0.45761002  1
  S  S31  1  0.49839569  0.99942420  0.27138678  1
  S  S32  1  0.22803743  0.22700891  0.22861322  1
  S  S33  1  0.27196257  0.50057580  0.99897148  1
  S  S34  1  0.32347474  0.01717308  0.47267372  1
  S  S35  1  0.52282354  0.34816176  0.54238998  1
  S  S36  1  0.72700891  0.72803743  0.72861322  1
  S  S37  1  0.49942420  0.99839569  0.77138678  1
  S  S38  1  0.54058617  0.52389354  0.34925626  1
  S  S39  1  0.82536272  0.97610646  0.51669263  1
  S  S40  1  0.65183824  0.69422822  0.17466178  1
  S  S41  1  0.47610646  0.32536272  0.01669263  1
  S  S42  1  0.69132991  0.17463728  0.65074374  1
  S  S43  1  0.80867009  0.45941383  0.48330737  1
  S  S44  1  0.95941383  0.30867009  0.98330737  1
  S  S45  1  0.97717646  0.51956644  0.82533822  1
  S  S46  1  0.98282692  0.95550065  0.30630166  1
  S  S47  1  0.67463728  0.19132991  0.15074374  1
  S  S48  1  0.77299109  0.50160431  0.00102852  1
  S  S49  1  0.84816176  0.02282354  0.04238998  1
  Sn  Sn50  1  0.00139400  0.95775863  0.50354410  1
  Sn  Sn51  1  0.99784991  0.45421453  0.49645590  1
  Sn  Sn52  1  0.04224137  0.04578547  0.04363538  1
  Sn  Sn53  1  0.50215009  0.99860600  0.45636462  1
  Sn  Sn54  1  0.49860600  0.00215009  0.95636462  1
  Sn  Sn55  1  0.54578547  0.54224137  0.54363538  1
  Sn  Sn56  1  0.45775863  0.50139400  0.00354410  1
  Sn  Sn57  1  0.95421453  0.49784991  0.99645590  1
