# generated using pymatgen
data_Bi14MoO24
_symmetry_space_group_name_H-M   'P 1'
_cell_length_a   17.48966587
_cell_length_b   12.38811504
_cell_length_c   10.54798114
_cell_angle_alpha   89.87234262
_cell_angle_beta   65.27287502
_cell_angle_gamma   45.20347381
_symmetry_Int_Tables_number   1
_chemical_formula_structural   Bi14MoO24
_chemical_formula_sum   'Bi28 Mo2 O48'
_cell_volume   1312.61927402
_cell_formula_units_Z   2
loop_
 _symmetry_equiv_pos_site_id
 _symmetry_equiv_pos_as_xyz
  1  'x, y, z'
loop_
 _atom_site_type_symbol
 _atom_site_label
 _atom_site_symmetry_multiplicity
 _atom_site_fract_x
 _atom_site_fract_y
 _atom_site_fract_z
 _atom_site_occupancy
  Bi  Bi0  1  0.03665828  0.05890864  0.33422463  1
  Bi  Bi1  1  0.11758086  0.20164160  0.00098481  1
  Bi  Bi2  1  0.07697318  0.12548984  0.66564680  1
  Bi  Bi3  1  0.12870439  0.28370418  0.33848876  1
  Bi  Bi4  1  0.17641991  0.44337603  0.99812476  1
  Bi  Bi5  1  0.15801533  0.34202780  0.68316942  1
  Bi  Bi6  1  0.24359695  0.45877772  0.32958741  1
  Bi  Bi7  1  0.31871237  0.56049444  0.00014208  1
  Bi  Bi8  1  0.53356001  0.05627350  0.33928972  1
  Bi  Bi9  1  0.61636164  0.21658842  0.00085628  1
  Bi  Bi10  1  0.25897520  0.53776676  0.66485029  1
  Bi  Bi11  1  0.34005167  0.66010047  0.32041465  1
  Bi  Bi12  1  0.38363836  0.78341158  0.99914372  1
  Bi  Bi13  1  0.57325843  0.12822555  0.67190396  1
  Bi  Bi14  1  0.63206029  0.27536760  0.33301616  1
  Bi  Bi15  1  0.68128763  0.43950556  0.99985792  1
  Bi  Bi16  1  0.36793971  0.72463240  0.66698384  1
  Bi  Bi17  1  0.42674157  0.87177445  0.32809604  1
  Bi  Bi18  1  0.65994833  0.33989953  0.67958535  1
  Bi  Bi19  1  0.74102480  0.46223324  0.33514971  1
  Bi  Bi20  1  0.82358009  0.55662397  0.00187524  1
  Bi  Bi21  1  0.46643999  0.94372650  0.66071028  1
  Bi  Bi22  1  0.75640305  0.54122228  0.67041259  1
  Bi  Bi23  1  0.84198467  0.65797220  0.31683058  1
  Bi  Bi24  1  0.88241914  0.79835840  0.99901519  1
  Bi  Bi25  1  0.87129561  0.71629582  0.66151124  1
  Bi  Bi26  1  0.92302682  0.87451016  0.33435320  1
  Bi  Bi27  1  0.96334172  0.94109136  0.66577537  1
  Mo  Mo28  1  0.00000000  0.00000000  0.00000000  1
  Mo  Mo29  1  0.50000000  0.00000000  0.00000000  1
  O  O30  1  0.13505232  0.11791875  0.23074337  1
  O  O31  1  0.07306546  0.40430071  0.16465893  1
  O  O32  1  0.16632808  0.16734745  0.50235316  1
  O  O33  1  0.05698714  0.28515663  0.83718557  1
  O  O34  1  0.08467465  0.49574093  0.49648414  1
  O  O35  1  0.13054495  0.78287136  0.98640864  1
  O  O36  1  0.39278470  0.21457096  0.99922826  1
  O  O37  1  0.38650524  0.11115293  0.22373327  1
  O  O38  1  0.13239699  0.62263049  0.23301785  1
  O  O39  1  0.42306540  0.99711896  0.49145229  1
  O  O40  1  0.08011301  0.04434073  0.01541293  1
  O  O41  1  0.24071407  0.23649805  0.83366669  1
  O  O42  1  0.10684061  0.54874717  0.83638008  1
  O  O43  1  0.16668956  0.66568386  0.49904737  1
  O  O44  1  0.33091273  0.33503466  0.50202097  1
  O  O45  1  0.39282129  0.45576698  0.16411122  1
  O  O46  1  0.26360154  0.76308641  0.15969029  1
  O  O47  1  0.08890508  0.99481042  0.49461983  1
  O  O48  1  0.64125418  0.10865191  0.23059985  1
  O  O49  1  0.36618741  0.38545858  0.76677386  1
  O  O50  1  0.42009657  0.49540671  0.49140974  1
  O  O51  1  0.57603169  0.39767547  0.16016805  1
  O  O52  1  0.44321583  0.70983219  0.16391024  1
  O  O53  1  0.66759958  0.16512135  0.50013856  1
  O  O54  1  0.33240042  0.83487865  0.49986144  1
  O  O55  1  0.91988699  0.95565927  0.98458707  1
  O  O56  1  0.55678417  0.29016781  0.83608976  1
  O  O57  1  0.42396831  0.60232453  0.83983195  1
  O  O58  1  0.57990343  0.50459329  0.50859026  1
  O  O59  1  0.60721530  0.78542904  0.00077174  1
  O  O60  1  0.86945505  0.21712864  0.01359136  1
  O  O61  1  0.63381259  0.61454142  0.23322614  1
  O  O62  1  0.35874582  0.89134809  0.76940015  1
  O  O63  1  0.91109492  0.00518958  0.50538017  1
  O  O64  1  0.73639846  0.23691359  0.84030971  1
  O  O65  1  0.60717871  0.54423302  0.83588878  1
  O  O66  1  0.66908727  0.66496534  0.49797903  1
  O  O67  1  0.83331044  0.33431614  0.50095263  1
  O  O68  1  0.89315939  0.45125283  0.16361992  1
  O  O69  1  0.75928593  0.76350195  0.16633331  1
  O  O70  1  0.57693460  0.00288104  0.50854771  1
  O  O71  1  0.86760301  0.37736951  0.76698215  1
  O  O72  1  0.61349476  0.88884707  0.77626673  1
  O  O73  1  0.91532535  0.50425907  0.50351586  1
  O  O74  1  0.94301286  0.71484337  0.16281443  1
  O  O75  1  0.83367192  0.83265255  0.49764684  1
  O  O76  1  0.92693454  0.59569929  0.83534107  1
  O  O77  1  0.86494768  0.88208125  0.76925663  1
