# generated using pymatgen
data_Na3Zr2Si2PO12
_symmetry_space_group_name_H-M   'P 1'
_cell_length_a   9.15471335
_cell_length_b   18.32145024
_cell_length_c   9.32102808
_cell_angle_alpha   61.44383692
_cell_angle_beta   61.40682902
_cell_angle_gamma   60.20811909
_symmetry_Int_Tables_number   1
_chemical_formula_structural   Na3Zr2Si2PO12
_chemical_formula_sum   'Na12 Zr8 Si8 P4 O48'
_cell_volume   1130.54428184
_cell_formula_units_Z   4
loop_
 _symmetry_equiv_pos_site_id
 _symmetry_equiv_pos_as_xyz
  1  'x, y, z'
loop_
 _atom_site_type_symbol
 _atom_site_label
 _atom_site_symmetry_multiplicity
 _atom_site_fract_x
 _atom_site_fract_y
 _atom_site_fract_z
 _atom_site_occupancy
  Na  Na0  1  0.05210627  0.15651417  0.92182348  1
  Na  Na1  1  0.34180122  0.01946299  0.44137400  1
  Na  Na2  1  0.60731873  0.19308385  0.25785520  1
  Na  Na3  1  0.39443600  0.30394723  0.74819989  1
  Na  Na4  1  0.31046855  0.52678135  0.41538406  1
  Na  Na5  1  0.05305593  0.65585798  0.91859528  1
  Na  Na6  1  0.94444858  0.34648265  0.08304671  1
  Na  Na7  1  0.69080604  0.47346917  0.58114107  1
  Na  Na8  1  0.60861935  0.69597149  0.25022858  1
  Na  Na9  1  0.39334854  0.80056100  0.75823896  1
  Na  Na10  1  0.94289008  0.84949712  0.09035670  1
  Na  Na11  1  0.72960794  0.96047068  0.63761312  1
  Zr  Zr12  1  0.15364720  0.32284619  0.55595865  1
  Zr  Zr13  1  0.64464134  0.07749421  0.05757763  1
  Zr  Zr14  1  0.35668210  0.42332153  0.94206725  1
  Zr  Zr15  1  0.85097448  0.17723635  0.44167115  1
  Zr  Zr16  1  0.15844510  0.82194397  0.55447187  1
  Zr  Zr17  1  0.64772631  0.57614122  0.05587605  1
  Zr  Zr18  1  0.35445181  0.92365747  0.94511469  1
  Zr  Zr19  1  0.84752740  0.67758790  0.44303848  1
  Si  Si20  1  0.24868073  0.23596879  0.23543160  1
  Si  Si21  1  0.47142612  0.12387804  0.73858514  1
  Si  Si22  1  0.53020084  0.37587996  0.26246886  1
  Si  Si23  1  0.24953956  0.73477940  0.23714341  1
  Si  Si24  1  0.75334594  0.26451037  0.76294646  1
  Si  Si25  1  0.47217799  0.62378137  0.73662820  1
  Si  Si26  1  0.53060448  0.87618087  0.26449161  1
  Si  Si27  1  0.75411007  0.76459831  0.76238788  1
  P  P28  1  0.04400398  0.47880380  0.74887726  1
  P  P29  1  0.95684630  0.02075062  0.25033065  1
  P  P30  1  0.04318859  0.97965668  0.74712477  1
  P  P31  1  0.95905934  0.52123161  0.24920371  1
  O  O32  1  0.10907962  0.00297815  0.08453715  1
  O  O33  1  0.01556101  0.05545727  0.57943736  1
  O  O34  1  0.06842289  0.21760953  0.29109328  1
  O  O35  1  0.26242673  0.31667193  0.05109196  1
  O  O36  1  0.11008683  0.50241275  0.08432985  1
  O  O37  1  0.42280399  0.14432231  0.22429927  1
  O  O38  1  0.24587374  0.26373025  0.38065899  1
  O  O39  1  0.06189609  0.38944598  0.75055566  1
  O  O40  1  0.29124226  0.21152558  0.71894788  1
  O  O41  1  0.00555624  0.55453263  0.58463882  1
  O  O42  1  0.43066902  0.03427415  0.79798340  1
  O  O43  1  0.47504661  0.37762741  0.11683473  1
  O  O44  1  0.07096982  0.71407283  0.29664552  1
  O  O45  1  0.78029674  0.02974684  0.24845175  1
  O  O46  1  0.36616015  0.37167027  0.44520583  1
  O  O47  1  0.63975463  0.12657836  0.55942990  1
  O  O48  1  0.22311519  0.46959261  0.74688465  1
  O  O49  1  0.52191235  0.12380489  0.88567561  1
  O  O50  1  0.25803281  0.81689656  0.05521224  1
  O  O51  1  0.57498544  0.46426918  0.20338481  1
  O  O52  1  0.71013066  0.28747116  0.27966713  1
  O  O53  1  0.42489930  0.64428226  0.22013508  1
  O  O54  1  0.93653155  0.11030392  0.25026765  1
  O  O55  1  0.25040101  0.76152161  0.38182493  1
  O  O56  1  0.75693656  0.23614931  0.61830183  1
  O  O57  1  0.05297332  0.89226722  0.74765497  1
  O  O58  1  0.57860614  0.35580806  0.77606871  1
  O  O59  1  0.88990109  0.00037916  0.90943704  1
  O  O60  1  0.28976742  0.71145098  0.72298120  1
  O  O61  1  0.43007586  0.53503800  0.79426310  1
  O  O62  1  0.74086736  0.18376441  0.94724410  1
  O  O63  1  0.47252644  0.87823065  0.12052726  1
  O  O64  1  0.77973788  0.53075066  0.25070556  1
  O  O65  1  0.36990723  0.86960377  0.44989532  1
  O  O66  1  0.63446738  0.62955879  0.55272629  1
  O  O67  1  0.22287245  0.96574943  0.75231180  1
  O  O68  1  0.93140927  0.28547757  0.70529642  1
  O  O69  1  0.52784501  0.62291770  0.88107236  1
  O  O70  1  0.57636110  0.96397874  0.20602188  1
  O  O71  1  0.99576275  0.44558548  0.41423333  1
  O  O72  1  0.71251644  0.78813537  0.27723694  1
  O  O73  1  0.94095370  0.61047504  0.24819547  1
  O  O74  1  0.75458077  0.73777820  0.61734967  1
  O  O75  1  0.57834813  0.85460595  0.78305317  1
  O  O76  1  0.89305718  0.49745607  0.91405064  1
  O  O77  1  0.74609118  0.68217099  0.94439987  1
  O  O78  1  0.93031947  0.78763281  0.70350532  1
  O  O79  1  0.99807827  0.94459086  0.41312092  1
