# generated using pymatgen
data_K2YHf(PO4)3
_symmetry_space_group_name_H-M   'P 1'
_cell_length_a   10.47077840
_cell_length_b   10.47652568
_cell_length_c   20.97800174
_cell_angle_alpha   90.07002489
_cell_angle_beta   89.99343202
_cell_angle_gamma   89.99806053
_symmetry_Int_Tables_number   1
_chemical_formula_structural   K2YHf(PO4)3
_chemical_formula_sum   'K16 Y8 Hf8 P24 O96'
_cell_volume   2301.23006860
_cell_formula_units_Z   8
loop_
 _symmetry_equiv_pos_site_id
 _symmetry_equiv_pos_as_xyz
  1  'x, y, z'
loop_
 _atom_site_type_symbol
 _atom_site_label
 _atom_site_symmetry_multiplicity
 _atom_site_fract_x
 _atom_site_fract_y
 _atom_site_fract_z
 _atom_site_occupancy
  Hf  Hf0  1  0.14581672  0.14058102  0.57304180  1
  Hf  Hf1  1  0.35682967  0.85554161  0.82027895  1
  Hf  Hf2  1  0.41390625  0.41332334  0.20679524  1
  Hf  Hf3  1  0.58833107  0.91583851  0.54128541  1
  Hf  Hf4  1  0.64576311  0.35805995  0.92812839  1
  Hf  Hf5  1  0.85687888  0.64586869  0.67724713  1
  Hf  Hf6  1  0.85202356  0.64223140  0.17809720  1
  Hf  Hf7  1  0.91690432  0.08870314  0.29397850  1
  K  K8  1  0.07966140  0.43500078  0.28724659  1
  K  K9  1  0.07206037  0.42604411  0.78547734  1
  K  K10  1  0.19453420  0.80274184  0.14820868  1
  K  K11  1  0.19922069  0.79800972  0.64904961  1
  K  K12  1  0.28967785  0.19296526  0.90158153  1
  K  K13  1  0.31075024  0.20052299  0.40310966  1
  K  K14  1  0.42788645  0.58021514  0.03471277  1
  K  K15  1  0.42952139  0.56933769  0.52747207  1
  K  K16  1  0.56737268  0.06145146  0.21596353  1
  K  K17  1  0.56666988  0.08151571  0.71571290  1
  K  K18  1  0.69195273  0.69987252  0.34729764  1
  K  K19  1  0.70572884  0.69942997  0.85349125  1
  K  K20  1  0.79553318  0.30537657  0.60067997  1
  K  K21  1  0.80490003  0.29475206  0.09369670  1
  K  K22  1  0.93074392  0.92954947  0.46014953  1
  K  K23  1  0.93955693  0.93325297  0.96526263  1
  O  O24  1  0.99279391  0.91532836  0.31639509  1
  O  O25  1  0.98923372  0.89314572  0.82459081  1
  O  O26  1  0.02566097  0.56212361  0.15439313  1
  O  O27  1  0.00304269  0.52985772  0.64531402  1
  O  O28  1  0.01127164  0.70853383  0.37513326  1
  O  O29  1  0.02421091  0.66788513  0.86423860  1
  O  O30  1  0.06139642  0.19295226  0.48726405  1
  O  O31  1  0.02297772  0.21201724  0.99738531  1
  O  O32  1  0.07304990  0.33326777  0.12406175  1
  O  O33  1  0.07757098  0.31060902  0.61224126  1
  O  O34  1  0.09072102  0.15552609  0.25713231  1
  O  O35  1  0.10334696  0.15409654  0.75585477  1
  O  O36  1  0.15600947  0.51639446  0.05502097  1
  O  O37  1  0.14954864  0.50521209  0.54953683  1
  O  O38  1  0.16599683  0.76166671  0.28385381  1
  O  O39  1  0.18858645  0.76802625  0.78992793  1
  O  O40  1  0.20616050  0.99669032  0.01000508  1
  O  O41  1  0.20793543  0.97273579  0.53194216  1
  O  O42  1  0.20460666  0.74747006  0.49351614  1
  O  O43  1  0.17430108  0.76531087  0.98930164  1
  O  O44  1  0.23325101  0.07197181  0.16753354  1
  O  O45  1  0.22862091  0.08417644  0.65859386  1
  O  O46  1  0.23813566  0.51746488  0.39223208  1
  O  O47  1  0.27101842  0.52728457  0.91483147  1
  O  O48  1  0.24756765  0.48149081  0.16470644  1
  O  O49  1  0.23178451  0.47162032  0.66154345  1
  O  O50  1  0.26854389  0.92817472  0.41752749  1
  O  O51  1  0.26429094  0.90904234  0.90276580  1
  O  O52  1  0.30591043  0.25769228  0.23611344  1
  O  O53  1  0.32795985  0.23530211  0.74092936  1
  O  O54  1  0.29884027  0.03985570  0.28277301  1
  O  O55  1  0.29445185  0.00660420  0.76661970  1
  O  O56  1  0.32478556  0.24475184  0.03445183  1
  O  O57  1  0.31754650  0.22189914  0.54590544  1
  O  O58  1  0.36781098  0.49062860  0.29266140  1
  O  O59  1  0.34835816  0.48893864  0.80242598  1
  O  O60  1  0.39858383  0.85083037  0.99943795  1
  O  O61  1  0.41488882  0.85735963  0.50708806  1
  O  O62  1  0.42326462  0.66851823  0.36998130  1
  O  O63  1  0.42271858  0.68649951  0.86201953  1
  O  O64  1  0.45546247  0.79010144  0.23741656  1
  O  O65  1  0.46720205  0.80332532  0.74164792  1
  O  O66  1  0.46752421  0.32717886  0.12241619  1
  O  O67  1  0.48516181  0.29807542  0.62601357  1
  O  O68  1  0.49706904  0.46993136  0.89789278  1
  O  O69  1  0.46336663  0.43890037  0.40041104  1
  O  O70  1  0.50766819  0.10831180  0.07748227  1
  O  O71  1  0.51193894  0.08622778  0.57163901  1
  O  O72  1  0.49217036  0.58166265  0.17690526  1
  O  O73  1  0.48679418  0.61208918  0.66819930  1
  O  O74  1  0.54295763  0.93447709  0.34868884  1
  O  O75  1  0.50261683  0.96929630  0.85388040  1
  O  O76  1  0.51249590  0.79351714  0.12257935  1
  O  O77  1  0.53416841  0.83585350  0.62870391  1
  O  O78  1  0.55351264  0.30695794  0.01195671  1
  O  O79  1  0.53568997  0.29197410  0.51013758  1
  O  O80  1  0.57817708  0.16510969  0.38138258  1
  O  O81  1  0.57516105  0.18829241  0.88850652  1
  O  O82  1  0.59315469  0.34427069  0.23978861  1
  O  O83  1  0.60699005  0.35440188  0.74530981  1
  O  O84  1  0.65543892  0.99104170  0.94760108  1
  O  O85  1  0.65177654  0.98430190  0.45378236  1
  O  O86  1  0.67797709  0.72111505  0.20574620  1
  O  O87  1  0.68625734  0.73244141  0.70715005  1
  O  O88  1  0.70246126  0.51957882  0.48329846  1
  O  O89  1  0.71291836  0.51131704  0.98024545  1
  O  O90  1  0.67725360  0.73794826  0.01054441  1
  O  O91  1  0.67014274  0.74501953  0.51603748  1
  O  O92  1  0.72638331  0.43050002  0.33252443  1
  O  O93  1  0.73351766  0.41881398  0.84352635  1
  O  O94  1  0.74416599  0.98186745  0.10485116  1
  O  O95  1  0.75989875  0.97261148  0.58172344  1
  O  O96  1  0.76377410  0.02337032  0.34881821  1
  O  O97  1  0.72734825  0.03148069  0.83418975  1
  O  O98  1  0.77745394  0.58248005  0.09061264  1
  O  O99  1  0.76663417  0.58829055  0.59387801  1
  O  O100  1  0.80898330  0.24740477  0.26454293  1
  O  O101  1  0.83218899  0.27187082  0.76014073  1
  O  O102  1  0.79813411  0.46797483  0.21883546  1
  O  O103  1  0.79763513  0.50132535  0.73559612  1
  O  O104  1  0.83030710  0.25135101  0.46564177  1
  O  O105  1  0.81097503  0.26793398  0.95309780  1
  O  O106  1  0.83634101  0.01591055  0.69384370  1
  O  O107  1  0.85791204  0.01116431  0.20870247  1
  O  O108  1  0.90117542  0.66047651  0.99407583  1
  O  O109  1  0.89513159  0.66501301  0.49784710  1
  O  O110  1  0.91554271  0.81856714  0.63372553  1
  O  O111  1  0.90702252  0.81544618  0.14082581  1
  O  O112  1  0.93346948  0.70331193  0.26312842  1
  O  O113  1  0.97318784  0.70573694  0.74952387  1
  O  O114  1  0.97890679  0.17870629  0.37639098  1
  O  O115  1  0.98059867  0.16840984  0.88218773  1
  O  O116  1  0.97901372  0.03078344  0.10408611  1
  O  O117  1  0.98394178  0.03953932  0.59890947  1
  O  O118  1  0.00690768  0.39586980  0.42503495  1
  O  O119  1  1.00802099  0.39583975  0.91971656  1
  P  P120  1  0.02859201  0.77154921  0.30959742  1
  P  P121  1  0.04421684  0.76104544  0.80888842  1
  P  P122  1  0.12536646  0.47049671  0.12265546  1
  P  P123  1  0.11803500  0.45460758  0.61612162  1
  P  P124  1  0.23119969  0.12852153  0.23532479  1
  P  P125  1  0.23672429  0.12295643  0.73042543  1
  P  P126  1  0.27344879  0.87591278  0.48589762  1
  P  P127  1  0.26278853  0.87931456  0.97597441  1
  P  P128  1  0.38214132  0.54326609  0.86809550  1
  P  P129  1  0.37393578  0.53018902  0.36445414  1
  P  P130  1  0.46161061  0.24331322  0.06108737  1
  P  P131  1  0.46250513  0.22536407  0.56357264  1
  P  P132  1  0.53410919  0.72298954  0.18565181  1
  P  P133  1  0.54409797  0.74232454  0.68582591  1
  P  P134  1  0.63144631  0.02851677  0.38329389  1
  P  P135  1  0.61783296  0.04524459  0.88230477  1
  P  P136  1  0.72991275  0.37347003  0.26504264  1
  P  P137  1  0.74038063  0.38374923  0.77132501  1
  P  P138  1  0.76850872  0.62511834  0.01920264  1
  P  P139  1  0.76192003  0.62862036  0.52215205  1
  P  P140  1  0.87323114  0.96068236  0.62887060  1
  P  P141  1  0.87181728  0.96028029  0.13914980  1
  P  P142  1  0.96735645  0.25797975  0.43920874  1
  P  P143  1  0.95692770  0.26273592  0.93717164  1
  Y  Y144  1  0.08009281  0.58701863  0.45714017  1
  Y  Y145  1  0.08483866  0.58102237  0.95816942  1
  Y  Y146  1  0.14673724  0.15151033  0.07655596  1
  Y  Y147  1  0.35002789  0.85010404  0.32501859  1
  Y  Y148  1  0.41730225  0.41936295  0.70764193  1
  Y  Y149  1  0.58166320  0.91814413  0.04183270  1
  Y  Y150  1  0.65000918  0.34828295  0.42590901  1
  Y  Y151  1  0.91416436  0.08239538  0.78988176  1
