# generated using pymatgen
data_ZnSeO3
_symmetry_space_group_name_H-M   'P 1'
_cell_length_a   6.35154401
_cell_length_b   7.51649983
_cell_length_c   12.07678820
_cell_angle_alpha   90.00000000
_cell_angle_beta   90.00000000
_cell_angle_gamma   90.00000000
_symmetry_Int_Tables_number   1
_chemical_formula_structural   ZnSeO3
_chemical_formula_sum   'Zn8 Se8 O24'
_cell_volume   576.56252825
_cell_formula_units_Z   8
loop_
 _symmetry_equiv_pos_site_id
 _symmetry_equiv_pos_as_xyz
  1  'x, y, z'
loop_
 _atom_site_type_symbol
 _atom_site_label
 _atom_site_symmetry_multiplicity
 _atom_site_fract_x
 _atom_site_fract_y
 _atom_site_fract_z
 _atom_site_occupancy
  O  O0  1  0.01491328  0.65632777  0.09358042  1
  O  O1  1  0.51491328  0.34367223  0.40641958  1
  O  O2  1  0.48508672  0.15632777  0.90641958  1
  O  O3  1  0.98508672  0.84367223  0.59358042  1
  O  O4  1  0.98508672  0.34367223  0.90641958  1
  O  O5  1  0.48508672  0.65632777  0.59358042  1
  O  O6  1  0.51491328  0.84367223  0.09358042  1
  O  O7  1  0.01491328  0.15632777  0.40641958  1
  O  O8  1  0.65781075  0.47283206  0.06538061  1
  O  O9  1  0.15781075  0.52716794  0.43461939  1
  O  O10  1  0.84218925  0.97283206  0.93461939  1
  O  O11  1  0.34218925  0.02716794  0.56538061  1
  O  O12  1  0.34218925  0.52716794  0.93461939  1
  O  O13  1  0.84218925  0.47283206  0.56538061  1
  O  O14  1  0.15781075  0.02716794  0.06538061  1
  O  O15  1  0.65781075  0.97283206  0.43461939  1
  O  O16  1  0.79682147  0.03425093  0.23099303  1
  O  O17  1  0.29682147  0.96574907  0.26900697  1
  O  O18  1  0.70317853  0.53425093  0.76900697  1
  O  O19  1  0.20317853  0.46574907  0.73099303  1
  O  O20  1  0.20317853  0.96574907  0.76900697  1
  O  O21  1  0.70317853  0.03425093  0.73099303  1
  O  O22  1  0.29682147  0.46574907  0.23099303  1
  O  O23  1  0.79682147  0.53425093  0.26900697  1
  Zn  Zn24  1  0.86592813  0.39109845  0.40502336  1
  Zn  Zn25  1  0.36592813  0.60890155  0.09497664  1
  Zn  Zn26  1  0.63407187  0.89109845  0.59497664  1
  Zn  Zn27  1  0.13407187  0.10890155  0.90502336  1
  Zn  Zn28  1  0.13407187  0.60890155  0.59497664  1
  Zn  Zn29  1  0.63407187  0.39109845  0.90502336  1
  Zn  Zn30  1  0.36592813  0.10890155  0.40502336  1
  Zn  Zn31  1  0.86592813  0.89109845  0.09497664  1
  Se  Se32  1  0.88921101  0.96231414  0.35706661  1
  Se  Se33  1  0.38921101  0.03768586  0.14293339  1
  Se  Se34  1  0.61078899  0.46231414  0.64293339  1
  Se  Se35  1  0.11078899  0.53768586  0.85706661  1
  Se  Se36  1  0.11078899  0.03768586  0.64293339  1
  Se  Se37  1  0.61078899  0.96231414  0.85706661  1
  Se  Se38  1  0.38921101  0.53768586  0.35706661  1
  Se  Se39  1  0.88921101  0.46231414  0.14293339  1
