# generated using pymatgen
data_Al2FeO4
_symmetry_space_group_name_H-M   'P 1'
_cell_length_a   5.83024556
_cell_length_b   5.83024573
_cell_length_c   35.10984682
_cell_angle_alpha   60.12087813
_cell_angle_beta   60.12087585
_cell_angle_gamma   59.99999709
_symmetry_Int_Tables_number   1
_chemical_formula_structural   Al2FeO4
_chemical_formula_sum   'Al24 Fe12 O48'
_cell_volume   845.43203882
_cell_formula_units_Z   12
loop_
 _symmetry_equiv_pos_site_id
 _symmetry_equiv_pos_as_xyz
  1  'x, y, z'
loop_
 _atom_site_type_symbol
 _atom_site_label
 _atom_site_symmetry_multiplicity
 _atom_site_fract_x
 _atom_site_fract_y
 _atom_site_fract_z
 _atom_site_occupancy
  Al  Al0  1  0.49712301  0.49712301  0.08274749  1
  Al  Al1  1  0.49712301  0.00926706  0.08274749  1
  Al  Al2  1  0.00926706  0.49712301  0.08274749  1
  Al  Al3  1  0.49362481  0.49362481  0.25151636  1
  Al  Al4  1  0.88080723  0.88080723  0.14292938  1
  Al  Al5  1  0.49815231  0.49815231  0.33425684  1
  Al  Al6  1  0.49848753  0.99667016  0.41772613  1
  Al  Al7  1  0.49362481  0.00365219  0.25151636  1
  Al  Al8  1  0.00365219  0.49362481  0.25151636  1
  Al  Al9  1  0.49848753  0.49848753  0.41772613  1
  Al  Al10  1  0.49901966  0.49901966  0.50049017  1
  Al  Al11  1  0.49978075  0.00147690  0.58315993  1
  Al  Al12  1  0.99667016  0.49848753  0.41772613  1
  Al  Al13  1  0.49978075  0.49978075  0.58315993  1
  Al  Al14  1  0.50047058  0.50047058  0.66643171  1
  Al  Al15  1  0.50084229  0.00014335  0.74969534  1
  Al  Al16  1  0.00147690  0.49978075  0.58315993  1
  Al  Al17  1  0.50084229  0.50084229  0.74969534  1
  Al  Al18  1  0.50128912  0.00649597  0.91515463  1
  Al  Al19  1  0.50416902  0.50416902  0.83124849  1
  Al  Al20  1  0.00014335  0.50084229  0.74969534  1
  Al  Al21  1  0.50128912  0.50128912  0.91515463  1
  Al  Al22  1  0.00649597  0.50128912  0.91515463  1
  Al  Al23  1  0.87890729  0.87890729  0.97721336  1
  Fe  Fe24  1  0.12705238  0.12705238  0.01980681  1
  Fe  Fe25  1  0.50163236  0.50163236  0.99918382  1
  Fe  Fe26  1  0.11450721  0.11450721  0.19274639  1
  Fe  Fe27  1  0.49768131  0.49768131  0.16782635  1
  Fe  Fe28  1  0.11475406  0.11475406  0.35928997  1
  Fe  Fe29  1  0.12375760  0.12375760  0.52145420  1
  Fe  Fe30  1  0.88247911  0.88247911  0.30876044  1
  Fe  Fe31  1  0.11938298  0.11938298  0.69030851  1
  Fe  Fe32  1  0.87417990  0.87417990  0.47957705  1
  Fe  Fe33  1  0.12341065  0.12341065  0.85496167  1
  Fe  Fe34  1  0.88131298  0.88131298  0.64267651  1
  Fe  Fe35  1  0.87570553  0.87570553  0.81214724  1
  O  O36  1  0.25252137  0.25252137  0.04671797  1
  O  O37  1  0.26585149  0.26585149  0.11707425  1
  O  O38  1  0.25252137  0.71464744  0.04671797  1
  O  O39  1  0.71464744  0.25252137  0.04671797  1
  O  O40  1  0.24761300  0.24761300  0.21669445  1
  O  O41  1  0.27028602  0.75705120  0.11926826  1
  O  O42  1  0.26062519  0.26062519  0.28635441  1
  O  O43  1  0.74611656  0.74611656  0.04360872  1
  O  O44  1  0.75705120  0.27028602  0.11926826  1
  O  O45  1  0.24761300  0.70460730  0.21669445  1
  O  O46  1  0.70460730  0.24761300  0.21669445  1
  O  O47  1  0.75705120  0.75705120  0.11926826  1
  O  O48  1  0.26470942  0.26470942  0.37858491  1
  O  O49  1  0.30339720  0.73091571  0.28912856  1
  O  O50  1  0.26387447  0.26387447  0.45139577  1
  O  O51  1  0.75132155  0.75132155  0.20767222  1
  O  O52  1  0.73091571  0.30339720  0.28912856  1
  O  O53  1  0.26470942  0.69907368  0.37858491  1
  O  O54  1  0.69907368  0.26470942  0.37858491  1
  O  O55  1  0.73091571  0.73091571  0.28912856  1
  O  O56  1  0.26534131  0.26534131  0.54431506  1
  O  O57  1  0.29506150  0.73275701  0.45657108  1
  O  O58  1  0.73241022  0.73241022  0.38379489  1
  O  O59  1  0.26692630  0.26692630  0.61653685  1
  O  O60  1  0.73275701  0.29506150  0.45657108  1
  O  O61  1  0.26534131  0.70342500  0.54431506  1
  O  O62  1  0.70342500  0.26534131  0.54431506  1
  O  O63  1  0.73275701  0.73275701  0.45657108  1
  O  O64  1  0.26706486  0.26706486  0.71045816  1
  O  O65  1  0.29816149  0.73393820  0.62232669  1
  O  O66  1  0.26791904  0.26791904  0.78270748  1
  O  O67  1  0.73393820  0.29816149  0.62232669  1
  O  O68  1  0.26706486  0.70312135  0.71045816  1
  O  O69  1  0.73393555  0.73393555  0.54969922  1
  O  O70  1  0.70312135  0.26706486  0.71045816  1
  O  O71  1  0.73393820  0.73393820  0.62232669  1
  O  O72  1  0.26912045  0.26912045  0.87656984  1
  O  O73  1  0.29764915  0.73471847  0.78881898  1
  O  O74  1  0.73376079  0.73376079  0.71645260  1
  O  O75  1  0.73471847  0.29764915  0.78881898  1
  O  O76  1  0.26571612  0.26571612  0.95047494  1
  O  O77  1  0.26912045  0.70234207  0.87656984  1
  O  O78  1  0.70234207  0.26912045  0.87656984  1
  O  O79  1  0.73471847  0.73471847  0.78881898  1
  O  O80  1  0.26089381  0.76067723  0.95295896  1
  O  O81  1  0.72863745  0.72863745  0.88568127  1
  O  O82  1  0.76067723  0.26089381  0.95295896  1
  O  O83  1  0.76067723  0.76067723  0.95295896  1
