# generated using pymatgen
data_Ba3Nb16O23
_symmetry_space_group_name_H-M   'P 1'
_cell_length_a   4.21702973
_cell_length_b   12.34588113
_cell_length_c   12.34588113
_cell_angle_alpha   118.44531239
_cell_angle_beta   90.00000000
_cell_angle_gamma   90.00000000
_symmetry_Int_Tables_number   1
_chemical_formula_structural   Ba3Nb16O23
_chemical_formula_sum   'Ba3 Nb16 O23'
_cell_volume   565.16357379
_cell_formula_units_Z   1
loop_
 _symmetry_equiv_pos_site_id
 _symmetry_equiv_pos_as_xyz
  1  'x, y, z'
loop_
 _atom_site_type_symbol
 _atom_site_label
 _atom_site_symmetry_multiplicity
 _atom_site_fract_x
 _atom_site_fract_y
 _atom_site_fract_z
 _atom_site_occupancy
  O  O0  1  0.50000000  0.89698728  0.10301272  1
  O  O1  1  0.50000000  0.10301272  0.89698728  1
  O  O2  1  0.50000000  0.29878564  0.70121436  1
  O  O3  1  0.50000000  0.70121436  0.29878564  1
  O  O4  1  0.00000000  0.14090117  0.53926381  1
  O  O5  1  0.00000000  0.85909883  0.46073619  1
  O  O6  1  0.00000000  0.53926381  0.14090117  1
  O  O7  1  0.00000000  0.46073619  0.85909883  1
  O  O8  1  0.50000000  0.03320969  0.63409021  1
  O  O9  1  0.50000000  0.96679031  0.36590979  1
  O  O10  1  0.50000000  0.63409021  0.03320969  1
  O  O11  1  0.50000000  0.36590979  0.96679031  1
  O  O12  1  0.00000000  0.93720320  0.73888220  1
  O  O13  1  0.00000000  0.06279680  0.26111780  1
  O  O14  1  0.00000000  0.73888220  0.93720320  1
  O  O15  1  0.00000000  0.26111780  0.06279680  1
  O  O16  1  0.50000000  0.83995851  0.83995851  1
  O  O17  1  0.50000000  0.16004149  0.16004149  1
  O  O18  1  0.00000000  0.40362113  0.59637887  1
  O  O19  1  0.50000000  0.50000000  0.50000000  1
  O  O20  1  0.00000000  0.33408751  0.33408751  1
  O  O21  1  0.00000000  0.66591249  0.66591249  1
  O  O22  1  0.00000000  0.59637887  0.40362113  1
  Nb  Nb23  1  0.50000000  0.86193592  0.47200663  1
  Nb  Nb24  1  0.50000000  0.13806408  0.52799337  1
  Nb  Nb25  1  0.50000000  0.47200663  0.86193592  1
  Nb  Nb26  1  0.50000000  0.52799337  0.13806408  1
  Nb  Nb27  1  0.50000000  0.93168050  0.72970865  1
  Nb  Nb28  1  0.50000000  0.06831950  0.27029135  1
  Nb  Nb29  1  0.50000000  0.72970865  0.93168050  1
  Nb  Nb30  1  0.50000000  0.27029135  0.06831950  1
  Nb  Nb31  1  0.50000000  0.39867882  0.60132118  1
  Nb  Nb32  1  0.50000000  0.60132118  0.39867882  1
  Nb  Nb33  1  0.00000000  0.77225511  0.56927939  1
  Nb  Nb34  1  0.00000000  0.22774489  0.43072061  1
  Nb  Nb35  1  0.00000000  0.56927939  0.77225511  1
  Nb  Nb36  1  0.00000000  0.43072061  0.22774489  1
  Nb  Nb37  1  0.50000000  0.67243825  0.67243825  1
  Nb  Nb38  1  0.50000000  0.32756175  0.32756175  1
  Ba  Ba39  1  0.00000000  0.79900429  0.20099571  1
  Ba  Ba40  1  0.00000000  0.20099571  0.79900429  1
  Ba  Ba41  1  0.00000000  0.00000000  0.00000000  1
