# generated using pymatgen
data_Er3(Si3Ru)4
_symmetry_space_group_name_H-M   'P 1'
_cell_length_a   8.10997028
_cell_length_b   8.11252524
_cell_length_c   10.11116950
_cell_angle_alpha   90.00000000
_cell_angle_beta   113.64322072
_cell_angle_gamma   90.00000000
_symmetry_Int_Tables_number   1
_chemical_formula_structural   Er3(Si3Ru)4
_chemical_formula_sum   'Er6 Si24 Ru8'
_cell_volume   609.39776454
_cell_formula_units_Z   2
loop_
 _symmetry_equiv_pos_site_id
 _symmetry_equiv_pos_as_xyz
  1  'x, y, z'
loop_
 _atom_site_type_symbol
 _atom_site_label
 _atom_site_symmetry_multiplicity
 _atom_site_fract_x
 _atom_site_fract_y
 _atom_site_fract_z
 _atom_site_occupancy
  Si  Si0  1  0.38850765  0.99438951  0.23408399  1
  Si  Si1  1  0.65442367  0.50561049  0.76591601  1
  Si  Si2  1  0.11149235  0.49438951  0.76591601  1
  Si  Si3  1  0.84557633  0.00561049  0.23408399  1
  Si  Si4  1  0.61149235  0.00561049  0.76591601  1
  Si  Si5  1  0.34557633  0.49438951  0.23408399  1
  Si  Si6  1  0.88850765  0.50561049  0.23408399  1
  Si  Si7  1  0.15442367  0.99438951  0.76591601  1
  Si  Si8  1  0.61292029  0.77151561  0.23416377  1
  Si  Si9  1  0.87875652  0.72848439  0.76583623  1
  Si  Si10  1  0.88707971  0.27151561  0.76583623  1
  Si  Si11  1  0.62124348  0.22848439  0.23416377  1
  Si  Si12  1  0.38707971  0.22848439  0.76583623  1
  Si  Si13  1  0.12124348  0.27151561  0.23416377  1
  Si  Si14  1  0.70488534  0.00000000  0.40977068  1
  Si  Si15  1  0.79511466  0.50000000  0.59022932  1
  Si  Si16  1  0.29511466  0.00000000  0.59022932  1
  Si  Si17  1  0.20488534  0.50000000  0.40977068  1
  Si  Si18  1  0.16751048  0.66688108  0.00000000  1
  Si  Si19  1  0.66751048  0.83311892  0.00000000  1
  Si  Si20  1  0.33248952  0.16688108  0.00000000  1
  Si  Si21  1  0.83248952  0.33311892  0.00000000  1
  Si  Si22  1  0.37875652  0.77151561  0.76583623  1
  Si  Si23  1  0.11292029  0.72848439  0.23416377  1
  Ru  Ru24  1  0.62693641  0.12750414  0.00000000  1
  Ru  Ru25  1  0.12693641  0.37249586  0.00000000  1
  Ru  Ru26  1  0.87306359  0.62750414  0.00000000  1
  Ru  Ru27  1  0.37306359  0.87249586  0.00000000  1
  Ru  Ru28  1  0.33013262  0.50000000  0.66026524  1
  Ru  Ru29  1  0.16986738  0.00000000  0.33973476  1
  Ru  Ru30  1  0.66986738  0.50000000  0.33973476  1
  Ru  Ru31  1  0.83013262  0.00000000  0.66026524  1
  Er  Er32  1  0.49693610  0.75000000  0.50000000  1
  Er  Er33  1  0.00306390  0.25000000  0.50000000  1
  Er  Er34  1  0.50306390  0.25000000  0.50000000  1
  Er  Er35  1  0.99693610  0.75000000  0.50000000  1
  Er  Er36  1  0.50000000  0.50000000  0.00000000  1
  Er  Er37  1  0.00000000  0.00000000  0.00000000  1
