# generated using pymatgen
data_CaAg
_symmetry_space_group_name_H-M   'P 1'
_cell_length_a   4.10765262
_cell_length_b   4.71187061
_cell_length_c   6.04081238
_cell_angle_alpha   90.00000000
_cell_angle_beta   109.87637085
_cell_angle_gamma   90.00000000
_symmetry_Int_Tables_number   1
_chemical_formula_structural   CaAg
_chemical_formula_sum   'Ca2 Ag2'
_cell_volume   109.95327192
_cell_formula_units_Z   2
loop_
 _symmetry_equiv_pos_site_id
 _symmetry_equiv_pos_as_xyz
  1  'x, y, z'
loop_
 _atom_site_type_symbol
 _atom_site_label
 _atom_site_symmetry_multiplicity
 _atom_site_fract_x
 _atom_site_fract_y
 _atom_site_fract_z
 _atom_site_occupancy
  Ca  Ca0  1  0.85875550  0.25000000  0.71751101  1
  Ca  Ca1  1  0.14124450  0.75000000  0.28248899  1
  Ag  Ag2  1  0.57498671  0.25000000  0.14997342  1
  Ag  Ag3  1  0.42501329  0.75000000  0.85002658  1
