# generated using pymatgen
data_YTaO4
_symmetry_space_group_name_H-M   'P 1'
_cell_length_a   5.16156270
_cell_length_b   5.35070011
_cell_length_c   5.54298502
_cell_angle_alpha   90.00000000
_cell_angle_beta   90.00000000
_cell_angle_gamma   96.52288772
_symmetry_Int_Tables_number   1
_chemical_formula_structural   YTaO4
_chemical_formula_sum   'Y2 Ta2 O8'
_cell_volume   152.09502316
_cell_formula_units_Z   2
loop_
 _symmetry_equiv_pos_site_id
 _symmetry_equiv_pos_as_xyz
  1  'x, y, z'
loop_
 _atom_site_type_symbol
 _atom_site_label
 _atom_site_symmetry_multiplicity
 _atom_site_fract_x
 _atom_site_fract_y
 _atom_site_fract_z
 _atom_site_occupancy
  O  O0  1  0.25002737  0.60132067  0.91241040  1
  O  O1  1  0.74997263  0.89867933  0.91241040  1
  O  O2  1  0.74997263  0.39867933  0.08758960  1
  O  O3  1  0.25002737  0.10132067  0.08758960  1
  O  O4  1  0.26983652  0.49703666  0.43423367  1
  O  O5  1  0.73016348  0.00296334  0.43423367  1
  O  O6  1  0.73016348  0.50296334  0.56576633  1
  O  O7  1  0.26983652  0.99703666  0.56576633  1
  Y  Y8  1  0.00000000  0.75000000  0.23205226  1
  Y  Y9  1  0.00000000  0.25000000  0.76794774  1
  Ta  Ta10  1  0.50000000  0.75000000  0.69197962  1
  Ta  Ta11  1  0.50000000  0.25000000  0.30802038  1
