# generated using pymatgen
data_H24PdC8(NCl2)2
_symmetry_space_group_name_H-M   'P 1'
_cell_length_a   8.98062200
_cell_length_b   8.98062200
_cell_length_c   11.59353873
_cell_angle_alpha   90.00000000
_cell_angle_beta   90.00000000
_cell_angle_gamma   90.00000000
_symmetry_Int_Tables_number   1
_chemical_formula_structural   H24PdC8(NCl2)2
_chemical_formula_sum   'H48 Pd2 C16 N4 Cl8'
_cell_volume   935.03711790
_cell_formula_units_Z   2
loop_
 _symmetry_equiv_pos_site_id
 _symmetry_equiv_pos_as_xyz
  1  'x, y, z'
loop_
 _atom_site_type_symbol
 _atom_site_label
 _atom_site_symmetry_multiplicity
 _atom_site_fract_x
 _atom_site_fract_y
 _atom_site_fract_z
 _atom_site_occupancy
  H  H0  1  0.02458380  0.66218262  0.11898089  1
  H  H1  1  0.97541620  0.33781738  0.11898089  1
  H  H2  1  0.47541620  0.16218262  0.61898089  1
  H  H3  1  0.52458380  0.83781738  0.61898089  1
  H  H4  1  0.97541620  0.33781738  0.88101911  1
  H  H5  1  0.02458380  0.66218262  0.88101911  1
  H  H6  1  0.52458380  0.83781738  0.38101911  1
  H  H7  1  0.47541620  0.16218262  0.38101911  1
  H  H8  1  0.66218262  0.02458380  0.11898089  1
  H  H9  1  0.33781738  0.97541620  0.11898089  1
  H  H10  1  0.16218262  0.47541620  0.61898089  1
  H  H11  1  0.83781738  0.52458380  0.61898089  1
  H  H12  1  0.33781738  0.97541620  0.88101911  1
  H  H13  1  0.66218262  0.02458380  0.88101911  1
  H  H14  1  0.83781738  0.52458380  0.38101911  1
  H  H15  1  0.16218262  0.47541620  0.38101911  1
  H  H16  1  0.84448613  0.57160963  0.12434738  1
  H  H17  1  0.15551387  0.42839037  0.12434738  1
  H  H18  1  0.65551387  0.07160963  0.62434738  1
  H  H19  1  0.34448613  0.92839037  0.62434738  1
  H  H20  1  0.15551387  0.42839037  0.87565262  1
  H  H21  1  0.84448613  0.57160963  0.87565262  1
  H  H22  1  0.34448613  0.92839037  0.37565262  1
  H  H23  1  0.65551387  0.07160963  0.37565262  1
  H  H24  1  0.57160963  0.84448613  0.12434738  1
  H  H25  1  0.42839037  0.15551387  0.12434738  1
  H  H26  1  0.07160963  0.65551387  0.62434738  1
  H  H27  1  0.92839037  0.34448613  0.62434738  1
  H  H28  1  0.42839037  0.15551387  0.87565262  1
  H  H29  1  0.57160963  0.84448613  0.87565262  1
  H  H30  1  0.92839037  0.34448613  0.37565262  1
  H  H31  1  0.07160963  0.65551387  0.37565262  1
  H  H32  1  0.89505488  0.70990356  0.23058355  1
  H  H33  1  0.10494512  0.29009644  0.23058355  1
  H  H34  1  0.60494512  0.20990356  0.73058355  1
  H  H35  1  0.39505488  0.79009644  0.73058355  1
  H  H36  1  0.10494512  0.29009644  0.76941645  1
  H  H37  1  0.89505488  0.70990356  0.76941645  1
  H  H38  1  0.39505488  0.79009644  0.26941645  1
  H  H39  1  0.60494512  0.20990356  0.26941645  1
  H  H40  1  0.70990356  0.89505488  0.23058355  1
  H  H41  1  0.29009644  0.10494512  0.23058355  1
  H  H42  1  0.20990356  0.60494512  0.73058355  1
  H  H43  1  0.79009644  0.39505488  0.73058355  1
  H  H44  1  0.29009644  0.10494512  0.76941645  1
  H  H45  1  0.70990356  0.89505488  0.76941645  1
  H  H46  1  0.79009644  0.39505488  0.26941645  1
  H  H47  1  0.20990356  0.60494512  0.26941645  1
  Pd  Pd48  1  0.50000000  0.50000000  0.00000000  1
  Pd  Pd49  1  0.00000000  0.00000000  0.50000000  1
  C  C50  1  0.93553141  0.61999624  0.17501820  1
  C  C51  1  0.06446859  0.38000376  0.17501820  1
  C  C52  1  0.56446859  0.11999624  0.67501820  1
  C  C53  1  0.43553141  0.88000376  0.67501820  1
  C  C54  1  0.06446859  0.38000376  0.82498180  1
  C  C55  1  0.93553141  0.61999624  0.82498180  1
  C  C56  1  0.43553141  0.88000376  0.32498180  1
  C  C57  1  0.56446859  0.11999624  0.32498180  1
  C  C58  1  0.61999624  0.93553141  0.17501820  1
  C  C59  1  0.38000376  0.06446859  0.17501820  1
  C  C60  1  0.11999624  0.56446859  0.67501820  1
  C  C61  1  0.88000376  0.43553141  0.67501820  1
  C  C62  1  0.38000376  0.06446859  0.82498180  1
  C  C63  1  0.61999624  0.93553141  0.82498180  1
  C  C64  1  0.88000376  0.43553141  0.32498180  1
  C  C65  1  0.11999624  0.56446859  0.32498180  1
  N  N66  1  0.00000000  0.50000000  0.25000000  1
  N  N67  1  0.50000000  0.00000000  0.75000000  1
  N  N68  1  0.00000000  0.50000000  0.75000000  1
  N  N69  1  0.50000000  0.00000000  0.25000000  1
  Cl  Cl70  1  0.50000000  0.50000000  0.79954342  1
  Cl  Cl71  1  0.00000000  0.00000000  0.29954342  1
  Cl  Cl72  1  0.50000000  0.50000000  0.20045658  1
  Cl  Cl73  1  0.00000000  0.00000000  0.70045658  1
  Cl  Cl74  1  0.31561455  0.68438545  0.00000000  1
  Cl  Cl75  1  0.68438545  0.31561455  0.00000000  1
  Cl  Cl76  1  0.18438545  0.18438545  0.50000000  1
  Cl  Cl77  1  0.81561455  0.81561455  0.50000000  1
