# generated using pymatgen
data_ErNbO4
_symmetry_space_group_name_H-M   'P 1'
_cell_length_a   5.13049560
_cell_length_b   5.29908169
_cell_length_c   6.56606714
_cell_angle_alpha   112.16369739
_cell_angle_beta   111.31857787
_cell_angle_gamma   93.85498416
_symmetry_Int_Tables_number   1
_chemical_formula_structural   ErNbO4
_chemical_formula_sum   'Er2 Nb2 O8'
_cell_volume   149.62452133
_cell_formula_units_Z   2
loop_
 _symmetry_equiv_pos_site_id
 _symmetry_equiv_pos_as_xyz
  1  'x, y, z'
loop_
 _atom_site_type_symbol
 _atom_site_label
 _atom_site_symmetry_multiplicity
 _atom_site_fract_x
 _atom_site_fract_y
 _atom_site_fract_z
 _atom_site_occupancy
  O  O0  1  0.98642582  0.78062658  0.56479023  1
  O  O1  1  0.57836442  0.28416366  0.56479023  1
  O  O2  1  0.01357418  0.21937342  0.43520977  1
  O  O3  1  0.42163558  0.71583634  0.43520977  1
  O  O4  1  0.21410513  0.37412949  0.92272689  1
  O  O5  1  0.70862176  0.04859740  0.92272689  1
  O  O6  1  0.78589487  0.62587051  0.07727311  1
  O  O7  1  0.29137824  0.95140260  0.07727311  1
  Nb  Nb8  1  0.85922720  0.10922720  0.71845440  1
  Nb  Nb9  1  0.14077280  0.89077280  0.28154560  1
  Er  Er10  1  0.37794274  0.62794274  0.75588548  1
  Er  Er11  1  0.62205726  0.37205726  0.24411452  1
