# generated using pymatgen
data_Ho2Te4O11
_symmetry_space_group_name_H-M   'P 1'
_cell_length_a   5.15996880
_cell_length_b   6.74497809
_cell_length_c   16.03330652
_cell_angle_alpha   80.03347204
_cell_angle_beta   80.74126620
_cell_angle_gamma   67.50647291
_symmetry_Int_Tables_number   1
_chemical_formula_structural   Ho2Te4O11
_chemical_formula_sum   'Ho4 Te8 O22'
_cell_volume   505.03209502
_cell_formula_units_Z   2
loop_
 _symmetry_equiv_pos_site_id
 _symmetry_equiv_pos_as_xyz
  1  'x, y, z'
loop_
 _atom_site_type_symbol
 _atom_site_label
 _atom_site_symmetry_multiplicity
 _atom_site_fract_x
 _atom_site_fract_y
 _atom_site_fract_z
 _atom_site_occupancy
  Ho  Ho0  1  0.63091126  0.20166668  0.03703818  1
  Ho  Ho1  1  0.86955458  0.29838404  0.46297816  1
  Ho  Ho2  1  0.36908874  0.79833332  0.96296182  1
  Ho  Ho3  1  0.13044542  0.70161596  0.53702184  1
  Te  Te4  1  0.58964347  0.88128215  0.37496154  1
  Te  Te5  1  0.84561353  0.61894078  0.12504880  1
  Te  Te6  1  0.41035653  0.11871785  0.62503846  1
  Te  Te7  1  0.15438647  0.38105922  0.87495120  1
  Te  Te8  1  0.15732772  0.04540743  0.19806617  1
  Te  Te9  1  0.40066541  0.45473023  0.30190936  1
  Te  Te10  1  0.84267228  0.95459257  0.80193383  1
  Te  Te11  1  0.59933459  0.54526977  0.69809064  1
  O  O12  1  0.68533847  0.13289315  0.37265649  1
  O  O13  1  0.19065103  0.36720930  0.12736850  1
  O  O14  1  0.31466153  0.86710685  0.62734351  1
  O  O15  1  0.80934897  0.63279070  0.87263150  1
  O  O16  1  0.24628760  0.96773698  0.44811040  1
  O  O17  1  0.66207800  0.53231628  0.05191034  1
  O  O18  1  0.75371240  0.03226302  0.55188960  1
  O  O19  1  0.33792200  0.46768372  0.94808966  1
  O  O20  1  0.82497372  0.68271956  0.45545777  1
  O  O21  1  0.96312646  0.81734394  0.04453630  1
  O  O22  1  0.17502628  0.31728044  0.54454223  1
  O  O23  1  0.03687354  0.18265606  0.95546370  1
  O  O24  1  0.44752067  0.54716843  0.40440863  1
  O  O25  1  0.39917316  0.95287171  0.09557558  1
  O  O26  1  0.55247933  0.45283157  0.59559137  1
  O  O27  1  0.60082684  0.04712829  0.90442442  1
  O  O28  1  0.09090695  0.36893853  0.33327151  1
  O  O29  1  0.79312098  0.13102340  0.16672868  1
  O  O30  1  0.90909305  0.63106147  0.66672849  1
  O  O31  1  0.20687902  0.86897660  0.83327132  1
  O  O32  1  0.14580172  0.75003976  0.24999529  1
  O  O33  1  0.85419828  0.24996024  0.75000471  1
