# generated using pymatgen
data_NaPr2RuO6
_symmetry_space_group_name_H-M   'P 1'
_cell_length_a   5.58387684
_cell_length_b   6.00227215
_cell_length_c   8.04129779
_cell_angle_alpha   90.00000000
_cell_angle_beta   90.84153272
_cell_angle_gamma   90.00000000
_symmetry_Int_Tables_number   1
_chemical_formula_structural   NaPr2RuO6
_chemical_formula_sum   'Na2 Pr4 Ru2 O12'
_cell_volume   269.48265281
_cell_formula_units_Z   2
loop_
 _symmetry_equiv_pos_site_id
 _symmetry_equiv_pos_as_xyz
  1  'x, y, z'
loop_
 _atom_site_type_symbol
 _atom_site_label
 _atom_site_symmetry_multiplicity
 _atom_site_fract_x
 _atom_site_fract_y
 _atom_site_fract_z
 _atom_site_occupancy
  Pr  Pr0  1  0.48022785  0.07154687  0.25330763  1
  Pr  Pr1  1  0.01977215  0.57154687  0.24669237  1
  Pr  Pr2  1  0.51977215  0.92845313  0.74669237  1
  Pr  Pr3  1  0.98022785  0.42845313  0.75330763  1
  Na  Na4  1  0.00000000  0.00000000  0.00000000  1
  Na  Na5  1  0.50000000  0.50000000  0.50000000  1
  Ru  Ru6  1  0.50000000  0.50000000  0.00000000  1
  Ru  Ru7  1  0.00000000  0.00000000  0.50000000  1
  O  O8  1  0.20822492  0.32718420  0.05106542  1
  O  O9  1  0.29177508  0.82718420  0.44893458  1
  O  O10  1  0.79177508  0.67281580  0.94893458  1
  O  O11  1  0.70822492  0.17281580  0.55106542  1
  O  O12  1  0.61691083  0.45173304  0.23089736  1
  O  O13  1  0.88308917  0.95173304  0.26910264  1
  O  O14  1  0.38308917  0.54826696  0.76910264  1
  O  O15  1  0.11691083  0.04826696  0.73089736  1
  O  O16  1  0.33530995  0.78096382  0.06725245  1
  O  O17  1  0.16469005  0.28096382  0.43274755  1
  O  O18  1  0.66469005  0.21903618  0.93274755  1
  O  O19  1  0.83530995  0.71903618  0.56725245  1
