# generated using pymatgen
data_CsFe2S3
_symmetry_space_group_name_H-M   'P 1'
_cell_length_a   5.17950005
_cell_length_b   7.62950248
_cell_length_c   7.62950210
_cell_angle_alpha   103.26549631
_cell_angle_beta   90.00000000
_cell_angle_gamma   90.00000000
_symmetry_Int_Tables_number   1
_chemical_formula_structural   CsFe2S3
_chemical_formula_sum   'Cs2 Fe4 S6'
_cell_volume   293.45037566
_cell_formula_units_Z   2
loop_
 _symmetry_equiv_pos_site_id
 _symmetry_equiv_pos_as_xyz
  1  'x, y, z'
loop_
 _atom_site_type_symbol
 _atom_site_label
 _atom_site_symmetry_multiplicity
 _atom_site_fract_x
 _atom_site_fract_y
 _atom_site_fract_z
 _atom_site_occupancy
  Cs  Cs0  1  0.75000000  0.67360666  0.32639334  1
  Cs  Cs1  1  0.25000000  0.32639334  0.67360666  1
  Fe  Fe2  1  0.00000000  0.86560450  0.86560450  1
  Fe  Fe3  1  0.50000000  0.13439550  0.13439550  1
  Fe  Fe4  1  0.00000000  0.13439550  0.13439550  1
  Fe  Fe5  1  0.50000000  0.86560450  0.86560450  1
  S  S6  1  0.75000000  0.10126780  0.89873220  1
  S  S7  1  0.25000000  0.89873220  0.10126780  1
  S  S8  1  0.75000000  0.64070457  0.83888681  1
  S  S9  1  0.25000000  0.35929543  0.16111319  1
  S  S10  1  0.25000000  0.83888681  0.64070457  1
  S  S11  1  0.75000000  0.16111319  0.35929543  1
