# generated using pymatgen
data_La9(SbO)5
_symmetry_space_group_name_H-M   'P 1'
_cell_length_a   9.39782111
_cell_length_b   10.47311794
_cell_length_c   10.47311794
_cell_angle_alpha   90.00000000
_cell_angle_beta   90.00000000
_cell_angle_gamma   90.00000000
_symmetry_Int_Tables_number   1
_chemical_formula_structural   La9(SbO)5
_chemical_formula_sum   'La18 Sb10 O10'
_cell_volume   1030.81128006
_cell_formula_units_Z   2
loop_
 _symmetry_equiv_pos_site_id
 _symmetry_equiv_pos_as_xyz
  1  'x, y, z'
loop_
 _atom_site_type_symbol
 _atom_site_label
 _atom_site_symmetry_multiplicity
 _atom_site_fract_x
 _atom_site_fract_y
 _atom_site_fract_z
 _atom_site_occupancy
  La  La0  1  0.32937317  0.25000000  0.25000000  1
  La  La1  1  0.67062683  0.75000000  0.75000000  1
  La  La2  1  0.34360263  0.85356598  0.04634328  1
  La  La3  1  0.34360263  0.45365672  0.85356598  1
  La  La4  1  0.34360263  0.04634328  0.64643402  1
  La  La5  1  0.34360263  0.64643402  0.45365672  1
  La  La6  1  0.65639737  0.14643402  0.95365672  1
  La  La7  1  0.65639737  0.54634328  0.14643402  1
  La  La8  1  0.65639737  0.95365672  0.35356598  1
  La  La9  1  0.65639737  0.35356598  0.54634328  1
  La  La10  1  0.99792878  0.47789384  0.33067235  1
  La  La11  1  0.99792878  0.16932765  0.47789384  1
  La  La12  1  0.99792878  0.33067235  0.02210616  1
  La  La13  1  0.99792878  0.02210616  0.16932765  1
  La  La14  1  0.00207122  0.52210616  0.66932765  1
  La  La15  1  0.00207122  0.83067235  0.52210616  1
  La  La16  1  0.00207122  0.66932765  0.97789384  1
  La  La17  1  0.00207122  0.97789384  0.83067235  1
  Sb  Sb18  1  0.69000488  0.25000000  0.25000000  1
  Sb  Sb19  1  0.30999512  0.75000000  0.75000000  1
  Sb  Sb20  1  0.29834382  0.15256608  0.94737646  1
  Sb  Sb21  1  0.29834382  0.55262354  0.15256608  1
  Sb  Sb22  1  0.29834382  0.94737646  0.34743392  1
  Sb  Sb23  1  0.29834382  0.34743392  0.55262354  1
  Sb  Sb24  1  0.70165618  0.84743392  0.05262354  1
  Sb  Sb25  1  0.70165618  0.44737646  0.84743392  1
  Sb  Sb26  1  0.70165618  0.05262354  0.65256608  1
  Sb  Sb27  1  0.70165618  0.65256608  0.44737646  1
  O  O28  1  0.07240937  0.25000000  0.25000000  1
  O  O29  1  0.92759063  0.75000000  0.75000000  1
  O  O30  1  0.90919482  0.52605751  0.12916493  1
  O  O31  1  0.90919482  0.37083507  0.52605751  1
  O  O32  1  0.90919482  0.12916493  0.97394249  1
  O  O33  1  0.90919482  0.97394249  0.37083507  1
  O  O34  1  0.09080518  0.47394249  0.87083507  1
  O  O35  1  0.09080518  0.62916493  0.47394249  1
  O  O36  1  0.09080518  0.87083507  0.02605751  1
  O  O37  1  0.09080518  0.02605751  0.62916493  1
