# generated using pymatgen
data_Rb2U3(TeO7)2
_symmetry_space_group_name_H-M   'P 1'
_cell_length_a   7.03907192
_cell_length_b   7.37130951
_cell_length_c   8.39256768
_cell_angle_alpha   108.19420070
_cell_angle_beta   101.13724735
_cell_angle_gamma   98.32722576
_symmetry_Int_Tables_number   1
_chemical_formula_structural   Rb2U3(TeO7)2
_chemical_formula_sum   'Rb2 U3 Te2 O14'
_cell_volume   395.95199032
_cell_formula_units_Z   1
loop_
 _symmetry_equiv_pos_site_id
 _symmetry_equiv_pos_as_xyz
  1  'x, y, z'
loop_
 _atom_site_type_symbol
 _atom_site_label
 _atom_site_symmetry_multiplicity
 _atom_site_fract_x
 _atom_site_fract_y
 _atom_site_fract_z
 _atom_site_occupancy
  U  U0  1  0.00000000  0.00000000  0.00000000  1
  U  U1  1  0.39847122  0.82875099  0.76545418  1
  U  U2  1  0.60152878  0.17124901  0.23454582  1
  Te  Te3  1  0.84230768  0.67562697  0.51946031  1
  Te  Te4  1  0.15769232  0.32437303  0.48053969  1
  Rb  Rb5  1  0.70273891  0.38479270  0.83510087  1
  Rb  Rb6  1  0.29726109  0.61520730  0.16489913  1
  O  O7  1  0.03529954  0.79261014  0.73779019  1
  O  O8  1  0.96470046  0.20738986  0.26220981  1
  O  O9  1  0.63653251  0.74135072  0.62715604  1
  O  O10  1  0.36346749  0.25864928  0.37284396  1
  O  O11  1  0.80651593  0.41170216  0.51291681  1
  O  O12  1  0.19348407  0.58829784  0.48708319  1
  O  O13  1  0.31979352  0.99428231  0.02515330  1
  O  O14  1  0.68020648  0.00571769  0.97484670  1
  O  O15  1  0.38199571  0.03112615  0.68299429  1
  O  O16  1  0.61800429  0.96887385  0.31700571  1
  O  O17  1  0.39367789  0.60915433  0.83109045  1
  O  O18  1  0.60632211  0.39084567  0.16890955  1
  O  O19  1  0.03367175  0.21369809  0.92869145  1
  O  O20  1  0.96632825  0.78630191  0.07130855  1
