# generated using pymatgen
data_Sr2B2O5
_symmetry_space_group_name_H-M   'P 1'
_cell_length_a   5.39232876
_cell_length_b   7.83006084
_cell_length_c   12.05489206
_cell_angle_alpha   92.02492360
_cell_angle_beta   90.00000000
_cell_angle_gamma   90.00000000
_symmetry_Int_Tables_number   1
_chemical_formula_structural   Sr2B2O5
_chemical_formula_sum   'Sr8 B8 O20'
_cell_volume   508.66697930
_cell_formula_units_Z   4
loop_
 _symmetry_equiv_pos_site_id
 _symmetry_equiv_pos_as_xyz
  1  'x, y, z'
loop_
 _atom_site_type_symbol
 _atom_site_label
 _atom_site_symmetry_multiplicity
 _atom_site_fract_x
 _atom_site_fract_y
 _atom_site_fract_z
 _atom_site_occupancy
  B  B0  1  0.45048872  0.16301119  0.08433516  1
  B  B1  1  0.95048872  0.83698881  0.41566484  1
  B  B2  1  0.54951128  0.83698881  0.91566484  1
  B  B3  1  0.04951128  0.16301119  0.58433516  1
  B  B4  1  0.57159705  0.33979470  0.90430061  1
  B  B5  1  0.07159705  0.66020530  0.59569939  1
  B  B6  1  0.42840295  0.66020530  0.09569939  1
  B  B7  1  0.92840295  0.33979470  0.40430061  1
  O  O8  1  0.85066735  0.64457830  0.64906285  1
  O  O9  1  0.35066735  0.35542170  0.85093715  1
  O  O10  1  0.14933265  0.35542170  0.35093715  1
  O  O11  1  0.64933265  0.64457830  0.14906285  1
  O  O12  1  0.79049172  0.38966948  0.85761244  1
  O  O13  1  0.29049172  0.61033052  0.64238756  1
  O  O14  1  0.20950828  0.61033052  0.14238756  1
  O  O15  1  0.70950828  0.38966948  0.35761244  1
  O  O16  1  0.90924092  0.10132106  0.66895850  1
  O  O17  1  0.40924092  0.89867894  0.83104150  1
  O  O18  1  0.09075908  0.89867894  0.33104150  1
  O  O19  1  0.59075908  0.10132106  0.16895850  1
  O  O20  1  0.30048601  0.14662981  0.57137925  1
  O  O21  1  0.80048601  0.85337019  0.92862075  1
  O  O22  1  0.69951399  0.85337019  0.42862075  1
  O  O23  1  0.19951399  0.14662981  0.07137925  1
  O  O24  1  0.90001338  0.25798973  0.50774303  1
  O  O25  1  0.40001338  0.74201027  0.99225697  1
  O  O26  1  0.09998662  0.74201027  0.49225697  1
  O  O27  1  0.59998662  0.25798973  0.00774303  1
  Sr  Sr28  1  0.94669478  0.88279160  0.13303089  1
  Sr  Sr29  1  0.44669478  0.11720840  0.36696911  1
  Sr  Sr30  1  0.05330522  0.11720840  0.86696911  1
  Sr  Sr31  1  0.55330522  0.88279160  0.63303089  1
  Sr  Sr32  1  0.90903386  0.37745291  0.16063379  1
  Sr  Sr33  1  0.40903386  0.62254709  0.33936621  1
  Sr  Sr34  1  0.09096614  0.62254709  0.83936621  1
  Sr  Sr35  1  0.59096614  0.37745291  0.66063379  1
