# generated using pymatgen
data_Cs2Si2Se5
_symmetry_space_group_name_H-M   'P 1'
_cell_length_a   9.93915988
_cell_length_b   11.87880446
_cell_length_c   11.87880378
_cell_angle_alpha   90.44684269
_cell_angle_beta   100.11391926
_cell_angle_gamma   100.11391565
_symmetry_Int_Tables_number   1
_chemical_formula_structural   Cs2Si2Se5
_chemical_formula_sum   'Cs8 Si8 Se20'
_cell_volume   1358.14574707
_cell_formula_units_Z   4
loop_
 _symmetry_equiv_pos_site_id
 _symmetry_equiv_pos_as_xyz
  1  'x, y, z'
loop_
 _atom_site_type_symbol
 _atom_site_label
 _atom_site_symmetry_multiplicity
 _atom_site_fract_x
 _atom_site_fract_y
 _atom_site_fract_z
 _atom_site_occupancy
  Cs  Cs0  1  0.62571835  0.71276361  0.97952342  1
  Cs  Cs1  1  0.87428165  0.02047658  0.28723639  1
  Cs  Cs2  1  0.37428165  0.28723639  0.02047658  1
  Cs  Cs3  1  0.12571835  0.97952342  0.71276361  1
  Cs  Cs4  1  0.13192451  0.55562699  0.70819334  1
  Cs  Cs5  1  0.36807549  0.29180666  0.44437301  1
  Cs  Cs6  1  0.86807549  0.44437301  0.29180666  1
  Cs  Cs7  1  0.63192451  0.70819334  0.55562699  1
  Se  Se8  1  0.96892271  0.74263119  0.86976831  1
  Se  Se9  1  0.53107729  0.13023169  0.25736881  1
  Se  Se10  1  0.03107729  0.25736881  0.13023169  1
  Se  Se11  1  0.46892271  0.86976831  0.74263119  1
  Se  Se12  1  0.48231753  0.48631653  0.74670611  1
  Se  Se13  1  0.01768247  0.25329389  0.51368347  1
  Se  Se14  1  0.51768247  0.51368347  0.25329389  1
  Se  Se15  1  0.98231753  0.74670611  0.48631653  1
  Se  Se16  1  0.24129720  0.61912571  0.05277943  1
  Se  Se17  1  0.25870280  0.94722057  0.38087429  1
  Se  Se18  1  0.75870280  0.38087429  0.94722057  1
  Se  Se19  1  0.74129720  0.05277943  0.61912571  1
  Se  Se20  1  0.97312570  0.74399859  0.17883399  1
  Se  Se21  1  0.52687430  0.82116601  0.25600141  1
  Se  Se22  1  0.02687430  0.25600141  0.82116601  1
  Se  Se23  1  0.47312570  0.17883399  0.74399859  1
  Se  Se24  1  0.25000000  0.94487697  0.05512303  1
  Se  Se25  1  0.75000000  0.05512303  0.94487697  1
  Se  Se26  1  0.75000000  0.37750312  0.62249688  1
  Se  Se27  1  0.25000000  0.62249688  0.37750312  1
  Si  Si28  1  0.61859373  0.35692588  0.76815160  1
  Si  Si29  1  0.88140627  0.23184840  0.64307412  1
  Si  Si30  1  0.38140627  0.64307412  0.23184840  1
  Si  Si31  1  0.11859373  0.76815160  0.35692588  1
  Si  Si32  1  0.10988412  0.76507864  0.03640302  1
  Si  Si33  1  0.39011588  0.96359698  0.23492136  1
  Si  Si34  1  0.89011588  0.23492136  0.96359698  1
  Si  Si35  1  0.60988412  0.03640302  0.76507864  1
