# generated using pymatgen
data_K3Nb2AsSe11
_symmetry_space_group_name_H-M   'P 1'
_cell_length_a   10.14478396
_cell_length_b   10.14478478
_cell_length_c   10.09721122
_cell_angle_alpha   82.85039103
_cell_angle_beta   82.85039033
_cell_angle_gamma   82.47342827
_symmetry_Int_Tables_number   1
_chemical_formula_structural   K3Nb2AsSe11
_chemical_formula_sum   'K6 Nb4 As2 Se22'
_cell_volume   1016.00961756
_cell_formula_units_Z   2
loop_
 _symmetry_equiv_pos_site_id
 _symmetry_equiv_pos_as_xyz
  1  'x, y, z'
loop_
 _atom_site_type_symbol
 _atom_site_label
 _atom_site_symmetry_multiplicity
 _atom_site_fract_x
 _atom_site_fract_y
 _atom_site_fract_z
 _atom_site_occupancy
  K  K0  1  0.05565650  0.89941440  0.74994870  1
  K  K1  1  0.89941440  0.05565650  0.24994870  1
  K  K2  1  0.66277122  0.80051918  0.91621155  1
  K  K3  1  0.80051918  0.66277122  0.41621155  1
  K  K4  1  0.43081104  0.27232660  0.16523474  1
  K  K5  1  0.27232660  0.43081104  0.66523474  1
  Nb  Nb6  1  0.82675498  0.41015985  0.83067073  1
  Nb  Nb7  1  0.41015985  0.82675498  0.33067073  1
  Nb  Nb8  1  0.70896675  0.15755764  0.64647423  1
  Nb  Nb9  1  0.15755764  0.70896675  0.14647423  1
  As  As10  1  0.35099095  0.04555071  0.59756689  1
  As  As11  1  0.04555071  0.35099095  0.09756689  1
  Se  Se12  1  0.74008182  0.14143923  0.90388753  1
  Se  Se13  1  0.14143923  0.74008182  0.40388753  1
  Se  Se14  1  0.94361857  0.25916679  0.62738360  1
  Se  Se15  1  0.25916679  0.94361857  0.12738360  1
  Se  Se16  1  0.64024547  0.44107264  0.66778763  1
  Se  Se17  1  0.44107264  0.64024547  0.16778763  1
  Se  Se18  1  0.50730192  0.19874345  0.49220927  1
  Se  Se19  1  0.19874345  0.50730192  0.99220927  1
  Se  Se20  1  0.03282323  0.22567697  0.90511091  1
  Se  Se21  1  0.22567697  0.03282323  0.40511091  1
  Se  Se22  1  0.51898703  0.13153853  0.84375621  1
  Se  Se23  1  0.13153853  0.51898703  0.34375621  1
  Se  Se24  1  0.81467304  0.44170748  0.08932913  1
  Se  Se25  1  0.44170748  0.81467304  0.58932913  1
  Se  Se26  1  0.57454300  0.49323369  0.89238601  1
  Se  Se27  1  0.49323369  0.57454300  0.39238601  1
  Se  Se28  1  0.81562721  0.31065194  0.43908471  1
  Se  Se29  1  0.31065194  0.81562721  0.93908471  1
  Se  Se30  1  0.94246899  0.59717834  0.74692893  1
  Se  Se31  1  0.59717834  0.94246899  0.24692893  1
  Se  Se32  1  0.78502552  0.93833533  0.58659923  1
  Se  Se33  1  0.93833533  0.78502552  0.08659923  1
