# generated using pymatgen
data_Pr3Sb5Pd6
_symmetry_space_group_name_H-M   'P 1'
_cell_length_a   4.50966373
_cell_length_b   10.15906759
_cell_length_c   13.63635943
_cell_angle_alpha   90.00000000
_cell_angle_beta   90.00000000
_cell_angle_gamma   90.00000000
_symmetry_Int_Tables_number   1
_chemical_formula_structural   Pr3Sb5Pd6
_chemical_formula_sum   'Pr6 Sb10 Pd12'
_cell_volume   624.73587967
_cell_formula_units_Z   2
loop_
 _symmetry_equiv_pos_site_id
 _symmetry_equiv_pos_as_xyz
  1  'x, y, z'
loop_
 _atom_site_type_symbol
 _atom_site_label
 _atom_site_symmetry_multiplicity
 _atom_site_fract_x
 _atom_site_fract_y
 _atom_site_fract_z
 _atom_site_occupancy
  Pr  Pr0  1  0.25000000  0.75666887  0.25000000  1
  Pr  Pr1  1  0.75000000  0.24333113  0.75000000  1
  Pr  Pr2  1  0.25000000  0.75434445  0.57410258  1
  Pr  Pr3  1  0.75000000  0.24565555  0.42589742  1
  Pr  Pr4  1  0.25000000  0.75434445  0.92589742  1
  Pr  Pr5  1  0.75000000  0.24565555  0.07410258  1
  Pd  Pd6  1  0.25000000  0.00903675  0.41033723  1
  Pd  Pd7  1  0.75000000  0.99096325  0.58966277  1
  Pd  Pd8  1  0.25000000  0.00903675  0.08966277  1
  Pd  Pd9  1  0.75000000  0.99096325  0.91033723  1
  Pd  Pd10  1  0.75000000  0.01750058  0.25000000  1
  Pd  Pd11  1  0.25000000  0.98249942  0.75000000  1
  Pd  Pd12  1  0.25000000  0.39681671  0.56792048  1
  Pd  Pd13  1  0.75000000  0.60318329  0.43207952  1
  Pd  Pd14  1  0.25000000  0.39681671  0.93207952  1
  Pd  Pd15  1  0.75000000  0.60318329  0.06792048  1
  Pd  Pd16  1  0.75000000  0.47489495  0.25000000  1
  Pd  Pd17  1  0.25000000  0.52510505  0.75000000  1
  Sb  Sb18  1  0.25000000  0.47702132  0.37669443  1
  Sb  Sb19  1  0.75000000  0.52297868  0.62330557  1
  Sb  Sb20  1  0.25000000  0.47702132  0.12330557  1
  Sb  Sb21  1  0.75000000  0.52297868  0.87669443  1
  Sb  Sb22  1  0.25000000  0.13672362  0.58693688  1
  Sb  Sb23  1  0.75000000  0.86327638  0.41306312  1
  Sb  Sb24  1  0.25000000  0.13672362  0.91306312  1
  Sb  Sb25  1  0.75000000  0.86327638  0.08693688  1
  Sb  Sb26  1  0.25000000  0.17037770  0.25000000  1
  Sb  Sb27  1  0.75000000  0.82962230  0.75000000  1
