# generated using pymatgen
data_CsPH3O4F
_symmetry_space_group_name_H-M   'P 1'
_cell_length_a   7.97026377
_cell_length_b   9.59874681
_cell_length_c   15.12581096
_cell_angle_alpha   90.00000000
_cell_angle_beta   90.00000000
_cell_angle_gamma   90.00000000
_symmetry_Int_Tables_number   1
_chemical_formula_structural   CsPH3O4F
_chemical_formula_sum   'Cs8 P8 H24 O32 F8'
_cell_volume   1157.19326917
_cell_formula_units_Z   8
loop_
 _symmetry_equiv_pos_site_id
 _symmetry_equiv_pos_as_xyz
  1  'x, y, z'
loop_
 _atom_site_type_symbol
 _atom_site_label
 _atom_site_symmetry_multiplicity
 _atom_site_fract_x
 _atom_site_fract_y
 _atom_site_fract_z
 _atom_site_occupancy
  Cs  Cs0  1  0.70415283  0.57009000  0.33516043  1
  Cs  Cs1  1  0.79584717  0.42991000  0.83516043  1
  Cs  Cs2  1  0.20415283  0.57009000  0.16483957  1
  Cs  Cs3  1  0.70415283  0.92991000  0.83516043  1
  Cs  Cs4  1  0.29584717  0.07009000  0.16483957  1
  Cs  Cs5  1  0.79584717  0.07009000  0.33516043  1
  Cs  Cs6  1  0.29584717  0.42991000  0.66483957  1
  Cs  Cs7  1  0.20415283  0.92991000  0.66483957  1
  P  P8  1  0.80931974  0.20180516  0.06123069  1
  P  P9  1  0.30931974  0.20180516  0.43876931  1
  P  P10  1  0.19068026  0.79819484  0.93876931  1
  P  P11  1  0.80931974  0.29819484  0.56123069  1
  P  P12  1  0.19068026  0.70180516  0.43876931  1
  P  P13  1  0.69068026  0.70180516  0.06123069  1
  P  P14  1  0.30931974  0.29819484  0.93876931  1
  P  P15  1  0.69068026  0.79819484  0.56123069  1
  H  H16  1  0.72271643  0.51645794  0.57303649  1
  H  H17  1  0.55444377  0.79870314  0.19757745  1
  H  H18  1  0.77728357  0.01645794  0.57303649  1
  H  H19  1  0.72271643  0.98354206  0.07303649  1
  H  H20  1  0.44555623  0.29870314  0.30242255  1
  H  H21  1  0.55444377  0.70129686  0.69757745  1
  H  H22  1  0.01777498  0.33706109  0.46362264  1
  H  H23  1  0.44555623  0.20129686  0.80242255  1
  H  H24  1  0.27728357  0.01645794  0.92696351  1
  H  H25  1  0.05444377  0.79870314  0.30242255  1
  H  H26  1  0.94555623  0.20129686  0.69757745  1
  H  H27  1  0.01777498  0.16293891  0.96362264  1
  H  H28  1  0.22271643  0.51645794  0.92696351  1
  H  H29  1  0.94555623  0.29870314  0.19757745  1
  H  H30  1  0.98222502  0.83706109  0.03637736  1
  H  H31  1  0.77728357  0.48354206  0.07303649  1
  H  H32  1  0.22271643  0.98354206  0.42696351  1
  H  H33  1  0.98222502  0.66293891  0.53637736  1
  H  H34  1  0.48222502  0.83706109  0.46362264  1
  H  H35  1  0.05444377  0.70129686  0.80242255  1
  H  H36  1  0.48222502  0.66293891  0.96362264  1
  H  H37  1  0.51777498  0.16293891  0.53637736  1
  H  H38  1  0.27728357  0.48354206  0.42696351  1
  H  H39  1  0.51777498  0.33706109  0.03637736  1
  O  O40  1  0.32255637  0.91728570  0.91714231  1
  O  O41  1  0.32255637  0.58271430  0.41714231  1
  O  O42  1  0.88893324  0.34277334  0.46949959  1
  O  O43  1  0.05239052  0.78981678  0.86886711  1
  O  O44  1  0.20800728  0.16381834  0.94916764  1
  O  O45  1  0.55239052  0.78981678  0.63113289  1
  O  O46  1  0.70800728  0.16381834  0.55083236  1
  O  O47  1  0.20800728  0.33618166  0.44916764  1
  O  O48  1  0.17744363  0.41728570  0.91714231  1
  O  O49  1  0.11106676  0.84277334  0.03050041  1
  O  O50  1  0.82255637  0.58271430  0.08285769  1
  O  O51  1  0.67744363  0.08271430  0.08285769  1
  O  O52  1  0.67744363  0.41728570  0.58285769  1
  O  O53  1  0.88893324  0.15722666  0.96949959  1
  O  O54  1  0.79199272  0.66381834  0.55083236  1
  O  O55  1  0.44760948  0.21018322  0.36886711  1
  O  O56  1  0.61106676  0.65722666  0.96949959  1
  O  O57  1  0.29199272  0.83618166  0.44916764  1
  O  O58  1  0.11106676  0.65722666  0.53050041  1
  O  O59  1  0.94760948  0.21018322  0.13113289  1
  O  O60  1  0.17744363  0.08271430  0.41714231  1
  O  O61  1  0.05239052  0.71018322  0.36886711  1
  O  O62  1  0.61106676  0.84277334  0.46949959  1
  O  O63  1  0.94760948  0.28981678  0.63113289  1
  O  O64  1  0.55239052  0.71018322  0.13113289  1
  O  O65  1  0.38893324  0.15722666  0.53050041  1
  O  O66  1  0.44760948  0.28981678  0.86886711  1
  O  O67  1  0.29199272  0.66381834  0.94916764  1
  O  O68  1  0.79199272  0.83618166  0.05083236  1
  O  O69  1  0.82255637  0.91728570  0.58285769  1
  O  O70  1  0.38893324  0.34277334  0.03050041  1
  O  O71  1  0.70800728  0.33618166  0.05083236  1
  F  F72  1  0.04657433  0.63530748  0.74636711  1
  F  F73  1  0.54657433  0.86469252  0.25363289  1
  F  F74  1  0.95342567  0.13530748  0.75363289  1
  F  F75  1  0.45342567  0.36469252  0.24636711  1
  F  F76  1  0.54657433  0.63530748  0.75363289  1
  F  F77  1  0.95342567  0.36469252  0.25363289  1
  F  F78  1  0.45342567  0.13530748  0.74636711  1
  F  F79  1  0.04657433  0.86469252  0.24636711  1
