# generated using pymatgen
data_Nd3Sb5Pd6
_symmetry_space_group_name_H-M   'P 1'
_cell_length_a   4.49444650
_cell_length_b   10.12623490
_cell_length_c   13.59179318
_cell_angle_alpha   90.00000000
_cell_angle_beta   90.00000000
_cell_angle_gamma   90.00000000
_symmetry_Int_Tables_number   1
_chemical_formula_structural   Nd3Sb5Pd6
_chemical_formula_sum   'Nd6 Sb10 Pd12'
_cell_volume   618.58725834
_cell_formula_units_Z   2
loop_
 _symmetry_equiv_pos_site_id
 _symmetry_equiv_pos_as_xyz
  1  'x, y, z'
loop_
 _atom_site_type_symbol
 _atom_site_label
 _atom_site_symmetry_multiplicity
 _atom_site_fract_x
 _atom_site_fract_y
 _atom_site_fract_z
 _atom_site_occupancy
  Nd  Nd0  1  0.25000000  0.75660185  0.25000000  1
  Nd  Nd1  1  0.75000000  0.24339815  0.75000000  1
  Nd  Nd2  1  0.25000000  0.75495053  0.57351161  1
  Nd  Nd3  1  0.75000000  0.24504947  0.42648839  1
  Nd  Nd4  1  0.25000000  0.75495053  0.92648839  1
  Nd  Nd5  1  0.75000000  0.24504947  0.07351161  1
  Pd  Pd6  1  0.25000000  0.00973163  0.40995422  1
  Pd  Pd7  1  0.75000000  0.99026837  0.59004578  1
  Pd  Pd8  1  0.25000000  0.00973163  0.09004578  1
  Pd  Pd9  1  0.75000000  0.99026837  0.90995422  1
  Pd  Pd10  1  0.75000000  0.01854721  0.25000000  1
  Pd  Pd11  1  0.25000000  0.98145279  0.75000000  1
  Pd  Pd12  1  0.25000000  0.39733181  0.56776172  1
  Pd  Pd13  1  0.75000000  0.60266819  0.43223828  1
  Pd  Pd14  1  0.25000000  0.39733181  0.93223828  1
  Pd  Pd15  1  0.75000000  0.60266819  0.06776172  1
  Pd  Pd16  1  0.75000000  0.47246585  0.25000000  1
  Pd  Pd17  1  0.25000000  0.52753415  0.75000000  1
  Sb  Sb18  1  0.25000000  0.47618069  0.37636716  1
  Sb  Sb19  1  0.75000000  0.52381931  0.62363284  1
  Sb  Sb20  1  0.25000000  0.47618069  0.12363284  1
  Sb  Sb21  1  0.75000000  0.52381931  0.87636716  1
  Sb  Sb22  1  0.25000000  0.13723422  0.58729535  1
  Sb  Sb23  1  0.75000000  0.86276578  0.41270465  1
  Sb  Sb24  1  0.25000000  0.13723422  0.91270465  1
  Sb  Sb25  1  0.75000000  0.86276578  0.08729535  1
  Sb  Sb26  1  0.25000000  0.17312363  0.25000000  1
  Sb  Sb27  1  0.75000000  0.82687637  0.75000000  1
