# generated using pymatgen
data_SrIn2Rh
_symmetry_space_group_name_H-M   'P 1'
_cell_length_a   4.42684156
_cell_length_b   5.94454288
_cell_length_c   8.08933217
_cell_angle_alpha   90.00000000
_cell_angle_beta   90.00000000
_cell_angle_gamma   111.86031198
_symmetry_Int_Tables_number   1
_chemical_formula_structural   SrIn2Rh
_chemical_formula_sum   'Sr2 In4 Rh2'
_cell_volume   197.56829948
_cell_formula_units_Z   2
loop_
 _symmetry_equiv_pos_site_id
 _symmetry_equiv_pos_as_xyz
  1  'x, y, z'
loop_
 _atom_site_type_symbol
 _atom_site_label
 _atom_site_symmetry_multiplicity
 _atom_site_fract_x
 _atom_site_fract_y
 _atom_site_fract_z
 _atom_site_occupancy
  Sr  Sr0  1  0.05952972  0.11905943  0.75000000  1
  Sr  Sr1  1  0.94047028  0.88094057  0.25000000  1
  Rh  Rh2  1  0.78177020  0.56354039  0.75000000  1
  Rh  Rh3  1  0.21822980  0.43645961  0.25000000  1
  In  In4  1  0.34522016  0.69044031  0.94617805  1
  In  In5  1  0.65477984  0.30955969  0.05382195  1
  In  In6  1  0.65477984  0.30955969  0.44617805  1
  In  In7  1  0.34522016  0.69044031  0.55382195  1
