# generated using pymatgen
data_Li10Ge(PO6)2
_symmetry_space_group_name_H-M   'P 1'
_cell_length_a   7.15829110
_cell_length_b   6.99241559
_cell_length_c   10.72442847
_cell_angle_alpha   90.58668644
_cell_angle_beta   89.74312887
_cell_angle_gamma   89.82022836
_symmetry_Int_Tables_number   1
_chemical_formula_structural   Li10Ge(PO6)2
_chemical_formula_sum   'Li20 Ge2 P4 O24'
_cell_volume   536.76156624
_cell_formula_units_Z   2
loop_
 _symmetry_equiv_pos_site_id
 _symmetry_equiv_pos_as_xyz
  1  'x, y, z'
loop_
 _atom_site_type_symbol
 _atom_site_label
 _atom_site_symmetry_multiplicity
 _atom_site_fract_x
 _atom_site_fract_y
 _atom_site_fract_z
 _atom_site_occupancy
  Li  Li0  1  0.97903540  0.53399968  0.92911801  1
  Li  Li1  1  0.94631747  0.52836528  0.42430305  1
  Li  Li2  1  0.53387141  0.95493634  0.55812591  1
  Li  Li3  1  0.47963514  0.99517357  0.06521322  1
  Li  Li4  1  0.26977346  0.26946284  0.15760291  1
  Li  Li5  1  0.69362345  0.72120268  0.28372350  1
  Li  Li6  1  0.19205802  0.84751766  0.74514103  1
  Li  Li7  1  0.21478148  0.76118107  0.26211700  1
  Li  Li8  1  0.75670929  0.23519492  0.35373982  1
  Li  Li9  1  0.45219906  0.50868664  0.74974700  1
  Li  Li10  1  0.23337569  0.27908687  0.38830845  1
  Li  Li11  1  0.78625005  0.25394262  0.87945634  1
  Li  Li12  1  0.23188082  0.76412728  0.99405904  1
  Li  Li13  1  0.74778219  0.20409984  0.11238195  1
  Li  Li14  1  0.76591615  0.73959582  0.67710370  1
  Li  Li15  1  0.16940718  0.23418392  0.91527091  1
  Li  Li16  1  0.76248212  0.78218763  0.00773047  1
  Li  Li17  1  0.27335863  0.70475660  0.49928578  1
  Li  Li18  1  0.74570706  0.22710148  0.62215750  1
  Li  Li19  1  0.26961609  0.20722518  0.64468754  1
  Ge  Ge20  1  0.98989102  0.49087365  0.17152528  1
  Ge  Ge21  1  0.50804974  0.99482362  0.81576608  1
  P  P22  1  0.00102092  0.97073598  0.49651992  1
  P  P23  1  0.49922993  0.50633316  0.99856981  1
  P  P24  1  0.01718531  0.48178547  0.68328260  1
  P  P25  1  0.48410740  0.00726583  0.31916381  1
  O  O26  1  0.99673233  0.16313233  0.42647838  1
  O  O27  1  0.02365691  0.79307963  0.40916752  1
  O  O28  1  0.32247689  0.50005736  0.91268416  1
  O  O29  1  0.68281989  0.51162160  0.91813276  1
  O  O30  1  0.48923361  0.69841741  0.07448599  1
  O  O31  1  0.50057426  0.32356393  0.07901972  1
  O  O32  1  0.17730723  0.96517839  0.58340398  1
  O  O33  1  0.81676131  0.95987385  0.57426076  1
  O  O34  1  0.99723094  0.30009118  0.05814830  1
  O  O35  1  0.00019072  0.70300968  0.08126630  1
  O  O36  1  0.20474974  0.47540136  0.60707563  1
  O  O37  1  0.84643766  0.48350342  0.59404426  1
  O  O38  1  0.47353294  0.81033919  0.38744125  1
  O  O39  1  0.49052499  0.17001840  0.41905470  1
  O  O40  1  0.28870195  0.98844948  0.89619756  1
  O  O41  1  0.68490378  0.01354715  0.93061656  1
  O  O42  1  0.00368252  0.66495242  0.76600477  1
  O  O43  1  0.00581266  0.30249721  0.76877801  1
  O  O44  1  0.79589694  0.47310837  0.27339900  1
  O  O45  1  0.18705674  0.47661646  0.27163530  1
  O  O46  1  0.51822039  0.19801545  0.71490566  1
  O  O47  1  0.50416788  0.79127075  0.71221657  1
  O  O48  1  0.66833406  0.01145093  0.23972444  1
  O  O49  1  0.31512820  0.02606141  0.23095678  1
