# generated using pymatgen
data_Gd2Te4O11
_symmetry_space_group_name_H-M   'P 1'
_cell_length_a   5.22468708
_cell_length_b   6.82462585
_cell_length_c   16.20204055
_cell_angle_alpha   79.81812053
_cell_angle_beta   80.72138754
_cell_angle_gamma   67.49389158
_symmetry_Int_Tables_number   1
_chemical_formula_structural   Gd2Te4O11
_chemical_formula_sum   'Gd4 Te8 O22'
_cell_volume   522.51580342
_cell_formula_units_Z   2
loop_
 _symmetry_equiv_pos_site_id
 _symmetry_equiv_pos_as_xyz
  1  'x, y, z'
loop_
 _atom_site_type_symbol
 _atom_site_label
 _atom_site_symmetry_multiplicity
 _atom_site_fract_x
 _atom_site_fract_y
 _atom_site_fract_z
 _atom_site_occupancy
  Gd  Gd0  1  0.63014377  0.20061157  0.03758368  1
  Gd  Gd1  1  0.86833902  0.29938843  0.46241632  1
  Gd  Gd2  1  0.36985623  0.79938843  0.96241632  1
  Gd  Gd3  1  0.13166098  0.70061157  0.53758368  1
  Te  Te4  1  0.58871098  0.88458907  0.37429707  1
  Te  Te5  1  0.84759712  0.61541093  0.12570293  1
  Te  Te6  1  0.41128902  0.11541093  0.62570293  1
  Te  Te7  1  0.15240288  0.38458907  0.87429707  1
  Te  Te8  1  0.15610860  0.04224279  0.19917770  1
  Te  Te9  1  0.39752909  0.45775721  0.30082230  1
  Te  Te10  1  0.84389140  0.95775721  0.80082230  1
  Te  Te11  1  0.60247091  0.54224279  0.69917770  1
  O  O12  1  0.68365611  0.13213969  0.37183364  1
  O  O13  1  0.18762944  0.36786031  0.12816636  1
  O  O14  1  0.31634389  0.86786031  0.62816636  1
  O  O15  1  0.81237056  0.63213969  0.87183364  1
  O  O16  1  0.24973659  0.96883184  0.44666808  1
  O  O17  1  0.66523651  0.53116816  0.05333192  1
  O  O18  1  0.75026341  0.03116816  0.55333192  1
  O  O19  1  0.33476349  0.46883184  0.94666808  1
  O  O20  1  0.81904739  0.68616092  0.45438925  1
  O  O21  1  0.95959756  0.81383908  0.04561075  1
  O  O22  1  0.18095261  0.31383908  0.54561075  1
  O  O23  1  0.04040244  0.18616092  0.95438925  1
  O  O24  1  0.44302171  0.54849031  0.40188246  1
  O  O25  1  0.39339448  0.95150969  0.09811754  1
  O  O26  1  0.55697829  0.45150969  0.59811754  1
  O  O27  1  0.60660552  0.04849031  0.90188246  1
  O  O28  1  0.09274496  0.37168194  0.33156117  1
  O  O29  1  0.79598808  0.12831806  0.16843883  1
  O  O30  1  0.90725504  0.62831806  0.66843883  1
  O  O31  1  0.20401192  0.87168194  0.83156117  1
  O  O32  1  0.14587949  0.75000000  0.25000000  1
  O  O33  1  0.85412051  0.25000000  0.75000000  1
