# generated using pymatgen
data_Co2Hg2H2S2O11
_symmetry_space_group_name_H-M   'P 1'
_cell_length_a   6.19621597
_cell_length_b   11.37153015
_cell_length_c   13.32938832
_cell_angle_alpha   90.00000000
_cell_angle_beta   90.00000000
_cell_angle_gamma   90.00000000
_symmetry_Int_Tables_number   1
_chemical_formula_structural   Co2Hg2H2S2O11
_chemical_formula_sum   'Co8 Hg8 H8 S8 O44'
_cell_volume   939.19478881
_cell_formula_units_Z   4
loop_
 _symmetry_equiv_pos_site_id
 _symmetry_equiv_pos_as_xyz
  1  'x, y, z'
loop_
 _atom_site_type_symbol
 _atom_site_label
 _atom_site_symmetry_multiplicity
 _atom_site_fract_x
 _atom_site_fract_y
 _atom_site_fract_z
 _atom_site_occupancy
  Hg  Hg0  1  0.20093758  0.41991697  0.25000000  1
  Hg  Hg1  1  0.20093758  0.08008303  0.75000000  1
  Hg  Hg2  1  0.79906242  0.91991697  0.25000000  1
  Hg  Hg3  1  0.79906242  0.58008303  0.75000000  1
  Hg  Hg4  1  0.52371888  0.17009493  0.25000000  1
  Hg  Hg5  1  0.52371888  0.32990507  0.75000000  1
  Hg  Hg6  1  0.47628112  0.67009493  0.25000000  1
  Hg  Hg7  1  0.47628112  0.82990507  0.75000000  1
  Co  Co8  1  0.01931683  0.16868023  0.12450794  1
  Co  Co9  1  0.01931683  0.33131977  0.87549206  1
  Co  Co10  1  0.98068317  0.66868023  0.37549206  1
  Co  Co11  1  0.98068317  0.83131977  0.62450794  1
  Co  Co12  1  0.98068317  0.83131977  0.87549206  1
  Co  Co13  1  0.98068317  0.66868023  0.12450794  1
  Co  Co14  1  0.01931683  0.33131977  0.62450794  1
  Co  Co15  1  0.01931683  0.16868023  0.37549206  1
  S  S16  1  0.73341585  0.41074169  0.07713265  1
  S  S17  1  0.73341585  0.08925831  0.92286735  1
  S  S18  1  0.26658415  0.91074169  0.42286735  1
  S  S19  1  0.26658415  0.58925831  0.57713265  1
  S  S20  1  0.26658415  0.58925831  0.92286735  1
  S  S21  1  0.26658415  0.91074169  0.07713265  1
  S  S22  1  0.73341585  0.08925831  0.57713265  1
  S  S23  1  0.73341585  0.41074169  0.42286735  1
  O  O24  1  0.11504698  0.83378338  0.13587672  1
  O  O25  1  0.11504698  0.66621662  0.86412328  1
  O  O26  1  0.88495302  0.33378338  0.36412328  1
  O  O27  1  0.88495302  0.16621662  0.63587672  1
  O  O28  1  0.88495302  0.16621662  0.86412328  1
  O  O29  1  0.88495302  0.33378338  0.13587672  1
  O  O30  1  0.11504698  0.66621662  0.63587672  1
  O  O31  1  0.11504698  0.83378338  0.36412328  1
  O  O32  1  0.21350317  0.59488193  0.03158414  1
  O  O33  1  0.21350317  0.90511807  0.96841586  1
  O  O34  1  0.78649683  0.09488193  0.46841586  1
  O  O35  1  0.78649683  0.40511807  0.53158414  1
  O  O36  1  0.78649683  0.40511807  0.96841586  1
  O  O37  1  0.78649683  0.09488193  0.03158414  1
  O  O38  1  0.21350317  0.90511807  0.53158414  1
  O  O39  1  0.21350317  0.59488193  0.46841586  1
  O  O40  1  0.24193024  0.03312977  0.11607430  1
  O  O41  1  0.24193024  0.46687023  0.88392570  1
  O  O42  1  0.75806976  0.53312977  0.38392570  1
  O  O43  1  0.75806976  0.96687023  0.61607430  1
  O  O44  1  0.75806976  0.96687023  0.88392570  1
  O  O45  1  0.75806976  0.53312977  0.11607430  1
  O  O46  1  0.24193024  0.46687023  0.61607430  1
  O  O47  1  0.24193024  0.03312977  0.38392570  1
  O  O48  1  0.50922650  0.37159442  0.09563431  1
  O  O49  1  0.50922650  0.12840558  0.90436569  1
  O  O50  1  0.49077350  0.87159442  0.40436569  1
  O  O51  1  0.49077350  0.62840558  0.59563431  1
  O  O52  1  0.49077350  0.62840558  0.90436569  1
  O  O53  1  0.49077350  0.87159442  0.09563431  1
  O  O54  1  0.50922650  0.12840558  0.59563431  1
  O  O55  1  0.50922650  0.37159442  0.40436569  1
  O  O56  1  0.16367648  0.60355310  0.25000000  1
  O  O57  1  0.16367648  0.89644690  0.75000000  1
  O  O58  1  0.83632352  0.10355310  0.25000000  1
  O  O59  1  0.83632352  0.39644690  0.75000000  1
  O  O60  1  0.21182964  0.23367439  0.25000000  1
  O  O61  1  0.21182964  0.26632561  0.75000000  1
  O  O62  1  0.78817036  0.73367439  0.25000000  1
  O  O63  1  0.78817036  0.76632561  0.75000000  1
  O  O64  1  0.20577184  0.25000000  0.00000000  1
  O  O65  1  0.79422816  0.75000000  0.50000000  1
  O  O66  1  0.79422816  0.75000000  0.00000000  1
  O  O67  1  0.20577184  0.25000000  0.50000000  1
  H  H68  1  0.30866584  0.30883075  0.02932112  1
  H  H69  1  0.30866584  0.19116925  0.97067888  1
  H  H70  1  0.69133416  0.80883075  0.47067888  1
  H  H71  1  0.69133416  0.69116925  0.52932112  1
  H  H72  1  0.69133416  0.69116925  0.97067888  1
  H  H73  1  0.69133416  0.80883075  0.02932112  1
  H  H74  1  0.30866584  0.19116925  0.52932112  1
  H  H75  1  0.30866584  0.30883075  0.47067888  1
