# generated using pymatgen
data_VCo3
_symmetry_space_group_name_H-M   'P 1'
_cell_length_a   4.97939665
_cell_length_b   4.97939679
_cell_length_c   12.13731444
_cell_angle_alpha   90.00000000
_cell_angle_beta   90.00000000
_cell_angle_gamma   119.99999900
_symmetry_Int_Tables_number   1
_chemical_formula_structural   VCo3
_chemical_formula_sum   'V6 Co18'
_cell_volume   260.61937398
_cell_formula_units_Z   6
loop_
 _symmetry_equiv_pos_site_id
 _symmetry_equiv_pos_as_xyz
  1  'x, y, z'
loop_
 _atom_site_type_symbol
 _atom_site_label
 _atom_site_symmetry_multiplicity
 _atom_site_fract_x
 _atom_site_fract_y
 _atom_site_fract_z
 _atom_site_occupancy
  Co  Co0  1  0.49545554  0.50454446  0.00000000  1
  Co  Co1  1  0.00908892  0.50454446  0.00000000  1
  Co  Co2  1  0.49545554  0.99091108  0.00000000  1
  Co  Co3  1  0.50454446  0.49545554  0.50000000  1
  Co  Co4  1  0.99091108  0.49545554  0.50000000  1
  Co  Co5  1  0.50454446  0.00908892  0.50000000  1
  Co  Co6  1  0.16600681  0.83399319  0.16731109  1
  Co  Co7  1  0.66798638  0.83399319  0.83268891  1
  Co  Co8  1  0.16600681  0.33201362  0.83268891  1
  Co  Co9  1  0.16600681  0.33201362  0.16731109  1
  Co  Co10  1  0.66798638  0.83399319  0.16731109  1
  Co  Co11  1  0.16600681  0.83399319  0.83268891  1
  Co  Co12  1  0.83399319  0.16600681  0.33268891  1
  Co  Co13  1  0.33201362  0.16600681  0.66731109  1
  Co  Co14  1  0.83399319  0.66798638  0.66731109  1
  Co  Co15  1  0.83399319  0.66798638  0.33268891  1
  Co  Co16  1  0.33201362  0.16600681  0.33268891  1
  Co  Co17  1  0.83399319  0.16600681  0.66731109  1
  V  V18  1  0.00000000  0.00000000  0.00000000  1
  V  V19  1  0.00000000  0.00000000  0.50000000  1
  V  V20  1  0.33333300  0.66666700  0.33888134  1
  V  V21  1  0.33333300  0.66666700  0.66111866  1
  V  V22  1  0.66666700  0.33333300  0.16111866  1
  V  V23  1  0.66666700  0.33333300  0.83888134  1
