# generated using pymatgen
data_Cs2AlP3O10
_symmetry_space_group_name_H-M   'P 1'
_cell_length_a   9.14982565
_cell_length_b   9.53760337
_cell_length_c   12.45827877
_cell_angle_alpha   94.83150272
_cell_angle_beta   90.00000000
_cell_angle_gamma   90.00000000
_symmetry_Int_Tables_number   1
_chemical_formula_structural   Cs2AlP3O10
_chemical_formula_sum   'Cs8 Al4 P12 O40'
_cell_volume   1083.33854271
_cell_formula_units_Z   4
loop_
 _symmetry_equiv_pos_site_id
 _symmetry_equiv_pos_as_xyz
  1  'x, y, z'
loop_
 _atom_site_type_symbol
 _atom_site_label
 _atom_site_symmetry_multiplicity
 _atom_site_fract_x
 _atom_site_fract_y
 _atom_site_fract_z
 _atom_site_occupancy
  Cs  Cs0  1  0.12321335  0.00315116  0.14662315  1
  Cs  Cs1  1  0.62321335  0.49684884  0.85337685  1
  Cs  Cs2  1  0.87678665  0.99684884  0.85337685  1
  Cs  Cs3  1  0.37678665  0.50315116  0.14662315  1
  Cs  Cs4  1  0.10751708  0.76194805  0.45844731  1
  Cs  Cs5  1  0.60751708  0.73805195  0.54155269  1
  Cs  Cs6  1  0.89248292  0.23805195  0.54155269  1
  Cs  Cs7  1  0.39248292  0.26194805  0.45844731  1
  Al  Al8  1  0.14897055  0.35492161  0.85289139  1
  Al  Al9  1  0.64897055  0.14507839  0.14710861  1
  Al  Al10  1  0.85102945  0.64507839  0.14710861  1
  Al  Al11  1  0.35102945  0.85492161  0.85289139  1
  P  P12  1  0.08395100  0.67771416  0.95193173  1
  P  P13  1  0.58395100  0.82228584  0.04806827  1
  P  P14  1  0.91604900  0.32228584  0.04806827  1
  P  P15  1  0.41604900  0.17771416  0.95193173  1
  P  P16  1  0.02898508  0.42303811  0.25946712  1
  P  P17  1  0.52898508  0.07696189  0.74053288  1
  P  P18  1  0.97101492  0.57696189  0.74053288  1
  P  P19  1  0.47101492  0.92303811  0.25946712  1
  P  P20  1  0.21116530  0.06684526  0.69561258  1
  P  P21  1  0.71116530  0.43315474  0.30438742  1
  P  P22  1  0.78883470  0.93315474  0.30438742  1
  P  P23  1  0.28883470  0.56684526  0.69561258  1
  O  O24  1  0.13567622  0.18387653  0.76734639  1
  O  O25  1  0.63567622  0.31612347  0.23265361  1
  O  O26  1  0.86432378  0.81612347  0.23265361  1
  O  O27  1  0.36432378  0.68387653  0.76734639  1
  O  O28  1  0.30836575  0.29693197  0.93703727  1
  O  O29  1  0.80836575  0.20306803  0.06296273  1
  O  O30  1  0.69163425  0.70306803  0.06296273  1
  O  O31  1  0.19163425  0.79693197  0.93703727  1
  O  O32  1  0.27912504  0.43120747  0.75346373  1
  O  O33  1  0.77912504  0.06879253  0.24653627  1
  O  O34  1  0.72087496  0.56879253  0.24653627  1
  O  O35  1  0.22087496  0.93120747  0.75346373  1
  O  O36  1  0.00746545  0.28262177  0.94801432  1
  O  O37  1  0.50746545  0.21737823  0.05198568  1
  O  O38  1  0.99253455  0.71737823  0.05198568  1
  O  O39  1  0.49253455  0.78262177  0.94801432  1
  O  O40  1  0.15277655  0.53189006  0.94448439  1
  O  O41  1  0.65277655  0.96810994  0.05551561  1
  O  O42  1  0.84722345  0.46810994  0.05551561  1
  O  O43  1  0.34722345  0.03189006  0.94448439  1
  O  O44  1  0.98583516  0.42658365  0.77184217  1
  O  O45  1  0.48583516  0.07341635  0.22815783  1
  O  O46  1  0.01416484  0.57341635  0.22815783  1
  O  O47  1  0.51416484  0.92658365  0.77184217  1
  O  O48  1  0.96619451  0.67967791  0.85145133  1
  O  O49  1  0.46619451  0.82032209  0.14854867  1
  O  O50  1  0.03380549  0.32032209  0.14854867  1
  O  O51  1  0.53380549  0.17967791  0.85145133  1
  O  O52  1  0.15930766  0.38957386  0.32428122  1
  O  O53  1  0.65930766  0.11042614  0.67571878  1
  O  O54  1  0.84069234  0.61042614  0.67571878  1
  O  O55  1  0.34069234  0.88957386  0.32428122  1
  O  O56  1  0.88346336  0.37893829  0.31901128  1
  O  O57  1  0.38346336  0.12106171  0.68098872  1
  O  O58  1  0.11653664  0.62106171  0.68098872  1
  O  O59  1  0.61653664  0.87893829  0.31901128  1
  O  O60  1  0.15193203  0.04877426  0.58291701  1
  O  O61  1  0.65193203  0.45122574  0.41708299  1
  O  O62  1  0.84806797  0.95122574  0.41708299  1
  O  O63  1  0.34806797  0.54877426  0.58291701  1
