# generated using pymatgen
data_P4S9
_symmetry_space_group_name_H-M   'P 1'
_cell_length_a   9.22527731
_cell_length_b   13.27340069
_cell_length_c   13.65792586
_cell_angle_alpha   90.00000000
_cell_angle_beta   90.00000000
_cell_angle_gamma   105.24267081
_symmetry_Int_Tables_number   1
_chemical_formula_structural   P4S9
_chemical_formula_sum   'P16 S36'
_cell_volume   1613.58971278
_cell_formula_units_Z   4
loop_
 _symmetry_equiv_pos_site_id
 _symmetry_equiv_pos_as_xyz
  1  'x, y, z'
loop_
 _atom_site_type_symbol
 _atom_site_label
 _atom_site_symmetry_multiplicity
 _atom_site_fract_x
 _atom_site_fract_y
 _atom_site_fract_z
 _atom_site_occupancy
  P  P0  1  0.38607463  0.47258371  0.80172847  1
  P  P1  1  0.11392537  0.02741629  0.30172847  1
  P  P2  1  0.61392537  0.52741629  0.19827153  1
  P  P3  1  0.88607463  0.97258371  0.69827153  1
  P  P4  1  0.02924024  0.50842102  0.76157735  1
  P  P5  1  0.47075976  0.99157898  0.26157735  1
  P  P6  1  0.97075976  0.49157898  0.23842265  1
  P  P7  1  0.52924024  0.00842102  0.73842265  1
  P  P8  1  0.31745613  0.61194560  0.59701269  1
  P  P9  1  0.18254387  0.88805440  0.09701269  1
  P  P10  1  0.68254387  0.38805440  0.40298731  1
  P  P11  1  0.81745613  0.11194560  0.90298731  1
  P  P12  1  0.16313181  0.34394487  0.60882854  1
  P  P13  1  0.33686819  0.15605513  0.10882854  1
  P  P14  1  0.83686819  0.65605513  0.39117146  1
  P  P15  1  0.66313181  0.84394487  0.89117146  1
  S  S16  1  0.12373433  0.63557975  0.66718837  1
  S  S17  1  0.37626567  0.86442025  0.16718837  1
  S  S18  1  0.87626567  0.36442025  0.33281163  1
  S  S19  1  0.62373433  0.13557975  0.83281163  1
  S  S20  1  0.32187401  0.33343460  0.71642262  1
  S  S21  1  0.17812599  0.16656540  0.21642262  1
  S  S22  1  0.67812599  0.66656540  0.28357738  1
  S  S23  1  0.82187401  0.83343460  0.78357738  1
  S  S24  1  0.10364294  0.21802744  0.53197013  1
  S  S25  1  0.39635706  0.28197256  0.03197013  1
  S  S26  1  0.89635706  0.78197256  0.46802987  1
  S  S27  1  0.60364294  0.71802744  0.96802987  1
  S  S28  1  0.47544381  0.59865303  0.70391252  1
  S  S29  1  0.02455619  0.90134697  0.20391252  1
  S  S30  1  0.52455619  0.40134697  0.29608748  1
  S  S31  1  0.97544381  0.09865303  0.79608748  1
  S  S32  1  0.25632808  0.47146890  0.51481566  1
  S  S33  1  0.24367192  0.02853110  0.01481566  1
  S  S34  1  0.74367192  0.52853110  0.48518434  1
  S  S35  1  0.75632808  0.97146890  0.98518434  1
  S  S36  1  0.39803825  0.72676123  0.51018804  1
  S  S37  1  0.10196175  0.77323877  0.01018804  1
  S  S38  1  0.60196175  0.27323877  0.48981196  1
  S  S39  1  0.89803825  0.22676123  0.98981196  1
  S  S40  1  0.96983890  0.36906411  0.67817267  1
  S  S41  1  0.53016110  0.13093589  0.17817267  1
  S  S42  1  0.03016110  0.63093589  0.32182733  1
  S  S43  1  0.46983890  0.86906411  0.82182733  1
  S  S44  1  0.18914115  0.49733799  0.86789207  1
  S  S45  1  0.31085885  0.00266201  0.36789207  1
  S  S46  1  0.81085885  0.50266201  0.13210793  1
  S  S47  1  0.68914115  0.99733799  0.63210793  1
  S  S48  1  0.85075673  0.53007455  0.82133133  1
  S  S49  1  0.64924327  0.96992545  0.32133133  1
  S  S50  1  0.14924327  0.46992545  0.17866867  1
  S  S51  1  0.35075673  0.03007455  0.67866867  1
