# generated using pymatgen
data_NdGe2Ir
_symmetry_space_group_name_H-M   'P 1'
_cell_length_a   4.39475917
_cell_length_b   9.01578525
_cell_length_c   9.57650853
_cell_angle_alpha   118.08131507
_cell_angle_beta   103.25214021
_cell_angle_gamma   89.99444794
_symmetry_Int_Tables_number   1
_chemical_formula_structural   NdGe2Ir
_chemical_formula_sum   'Nd4 Ge8 Ir4'
_cell_volume   323.28182839
_cell_formula_units_Z   4
loop_
 _symmetry_equiv_pos_site_id
 _symmetry_equiv_pos_as_xyz
  1  'x, y, z'
loop_
 _atom_site_type_symbol
 _atom_site_label
 _atom_site_symmetry_multiplicity
 _atom_site_fract_x
 _atom_site_fract_y
 _atom_site_fract_z
 _atom_site_occupancy
  Ge  Ge0  1  0.42231618  0.42245967  0.84495780  1
  Ge  Ge1  1  0.57768382  0.57754033  0.15504220  1
  Ge  Ge2  1  0.42108375  0.92107740  0.84220678  1
  Ge  Ge3  1  0.57891625  0.07892260  0.15779322  1
  Ge  Ge4  1  0.19883573  0.04467116  0.39752901  1
  Ge  Ge5  1  0.80116427  0.95532884  0.60247099  1
  Ge  Ge6  1  0.80127713  0.64711210  0.60244051  1
  Ge  Ge7  1  0.19872287  0.35288790  0.39755949  1
  Ir  Ir8  1  0.35333546  0.10159810  0.70713880  1
  Ir  Ir9  1  0.64666454  0.89840190  0.29286120  1
  Ir  Ir10  1  0.64641030  0.39447729  0.29287259  1
  Ir  Ir11  1  0.35358970  0.60552271  0.70712741  1
  Nd  Nd12  1  0.20646216  0.70643199  0.41279959  1
  Nd  Nd13  1  0.79353784  0.29356801  0.58720041  1
  Nd  Nd14  1  1.00002016  0.73982532  -0.00003863  1
  Nd  Nd15  1  -0.00002016  0.26017468  1.00003863  1
