# generated using pymatgen
data_Ta2Te3
_symmetry_space_group_name_H-M   'P 1'
_cell_length_a   3.51095866
_cell_length_b   7.87500929
_cell_length_c   10.49601063
_cell_angle_alpha   85.15873210
_cell_angle_beta   80.36874753
_cell_angle_gamma   77.17246033
_symmetry_Int_Tables_number   1
_chemical_formula_structural   Ta2Te3
_chemical_formula_sum   'Ta4 Te6'
_cell_volume   278.63423981
_cell_formula_units_Z   2
loop_
 _symmetry_equiv_pos_site_id
 _symmetry_equiv_pos_as_xyz
  1  'x, y, z'
loop_
 _atom_site_type_symbol
 _atom_site_label
 _atom_site_symmetry_multiplicity
 _atom_site_fract_x
 _atom_site_fract_y
 _atom_site_fract_z
 _atom_site_occupancy
  Ta  Ta0  1  0.41623127  0.02287501  0.14477078  1
  Ta  Ta1  1  0.58376873  0.97712499  0.85522922  1
  Ta  Ta2  1  0.22728726  0.93406790  0.61105706  1
  Ta  Ta3  1  0.77271274  0.06593210  0.38894294  1
  Te  Te4  1  0.42708247  0.78535616  0.35972870  1
  Te  Te5  1  0.57291753  0.21464384  0.64027130  1
  Te  Te6  1  0.19456911  0.32379417  0.28832869  1
  Te  Te7  1  0.80543089  0.67620583  0.71167131  1
  Te  Te8  1  0.09817988  0.77448009  0.02771801  1
  Te  Te9  1  0.90182012  0.22551991  0.97228199  1
