# generated using pymatgen
data_K2B2Se7
_symmetry_space_group_name_H-M   'P 1'
_cell_length_a   7.30333442
_cell_length_b   8.75441814
_cell_length_c   11.37707560
_cell_angle_alpha   76.01222673
_cell_angle_beta   71.27857373
_cell_angle_gamma   65.34692931
_symmetry_Int_Tables_number   1
_chemical_formula_structural   K2B2Se7
_chemical_formula_sum   'K4 B4 Se14'
_cell_volume   621.19491860
_cell_formula_units_Z   2
loop_
 _symmetry_equiv_pos_site_id
 _symmetry_equiv_pos_as_xyz
  1  'x, y, z'
loop_
 _atom_site_type_symbol
 _atom_site_label
 _atom_site_symmetry_multiplicity
 _atom_site_fract_x
 _atom_site_fract_y
 _atom_site_fract_z
 _atom_site_occupancy
  B  B0  1  0.84295851  0.61608215  0.15119904  1
  B  B1  1  0.61023970  0.88391785  0.34880096  1
  B  B2  1  0.15704149  0.38391785  0.84880096  1
  B  B3  1  0.38976030  0.11608215  0.65119904  1
  K  K4  1  0.67324214  0.18513439  0.02368276  1
  K  K5  1  0.88205930  0.31486561  0.47631724  1
  K  K6  1  0.32675786  0.81486561  0.97631724  1
  K  K7  1  0.11794070  0.68513439  0.52368276  1
  Se  Se8  1  0.54399674  0.75000000  0.25000000  1
  Se  Se9  1  0.45600326  0.25000000  0.75000000  1
  Se  Se10  1  0.17374263  0.23954867  0.01917394  1
  Se  Se11  1  0.43246524  0.26045133  0.48082606  1
  Se  Se12  1  0.82625737  0.76045133  0.98082606  1
  Se  Se13  1  0.56753476  0.73954867  0.51917394  1
  Se  Se14  1  0.85039093  0.37480142  0.16734776  1
  Se  Se15  1  0.39254011  0.12519858  0.33265224  1
  Se  Se16  1  0.14960907  0.62519858  0.83265224  1
  Se  Se17  1  0.60745989  0.87480142  0.66734776  1
  Se  Se18  1  0.06733799  0.60571084  0.22879825  1
  Se  Se19  1  0.90184709  0.89428916  0.27120175  1
  Se  Se20  1  0.93266201  0.39428916  0.77120175  1
  Se  Se21  1  0.09815291  0.10571084  0.72879825  1
