# generated using pymatgen
data_ThB4
_symmetry_space_group_name_H-M   'P 1'
_cell_length_a   4.11952518
_cell_length_b   7.25561389
_cell_length_c   7.25561389
_cell_angle_alpha   90.00000000
_cell_angle_beta   90.00000000
_cell_angle_gamma   90.00000000
_symmetry_Int_Tables_number   1
_chemical_formula_structural   ThB4
_chemical_formula_sum   'Th4 B16'
_cell_volume   216.86800724
_cell_formula_units_Z   4
loop_
 _symmetry_equiv_pos_site_id
 _symmetry_equiv_pos_as_xyz
  1  'x, y, z'
loop_
 _atom_site_type_symbol
 _atom_site_label
 _atom_site_symmetry_multiplicity
 _atom_site_fract_x
 _atom_site_fract_y
 _atom_site_fract_z
 _atom_site_occupancy
  B  B0  1  0.20114533  0.00000000  0.00000000  1
  B  B1  1  0.79885467  0.50000000  0.50000000  1
  B  B2  1  0.79885467  0.00000000  0.00000000  1
  B  B3  1  0.20114533  0.50000000  0.50000000  1
  B  B4  1  0.50000000  0.08955740  0.58955740  1
  B  B5  1  0.50000000  0.41044260  0.08955740  1
  B  B6  1  0.50000000  0.58955740  0.91044260  1
  B  B7  1  0.50000000  0.91044260  0.41044260  1
  B  B8  1  0.50000000  0.17514905  0.03889929  1
  B  B9  1  0.50000000  0.96110071  0.17514905  1
  B  B10  1  0.50000000  0.03889929  0.82485095  1
  B  B11  1  0.50000000  0.82485095  0.96110071  1
  B  B12  1  0.50000000  0.67514905  0.46110071  1
  B  B13  1  0.50000000  0.32485095  0.53889929  1
  B  B14  1  0.50000000  0.53889929  0.67514905  1
  B  B15  1  0.50000000  0.46110071  0.32485095  1
  Th  Th16  1  0.00000000  0.31401212  0.81401212  1
  Th  Th17  1  0.00000000  0.18598788  0.31401212  1
  Th  Th18  1  0.00000000  0.81401212  0.68598788  1
  Th  Th19  1  0.00000000  0.68598788  0.18598788  1
