# generated using pymatgen
data_K2Mn(PS3)2
_symmetry_space_group_name_H-M   'P 1'
_cell_length_a   6.19405028
_cell_length_b   7.65700516
_cell_length_c   12.33154406
_cell_angle_alpha   90.00000000
_cell_angle_beta   90.00000000
_cell_angle_gamma   101.36581505
_symmetry_Int_Tables_number   1
_chemical_formula_structural   K2Mn(PS3)2
_chemical_formula_sum   'K4 Mn2 P4 S12'
_cell_volume   573.38922071
_cell_formula_units_Z   2
loop_
 _symmetry_equiv_pos_site_id
 _symmetry_equiv_pos_as_xyz
  1  'x, y, z'
loop_
 _atom_site_type_symbol
 _atom_site_label
 _atom_site_symmetry_multiplicity
 _atom_site_fract_x
 _atom_site_fract_y
 _atom_site_fract_z
 _atom_site_occupancy
  K  K0  1  0.77937367  0.47059575  0.68280394  1
  K  K1  1  0.72062633  0.02940425  0.18280394  1
  K  K2  1  0.22062633  0.52940425  0.31719606  1
  K  K3  1  0.27937367  0.97059575  0.81719606  1
  Mn  Mn4  1  0.50000000  0.50000000  0.00000000  1
  Mn  Mn5  1  0.00000000  0.00000000  0.50000000  1
  P  P6  1  0.48150228  0.13063045  0.46375510  1
  P  P7  1  0.01849772  0.36936955  0.96375510  1
  P  P8  1  0.51849772  0.86936955  0.53624490  1
  P  P9  1  0.98150228  0.63063045  0.03624490  1
  S  S10  1  0.79965912  0.24905363  0.43428582  1
  S  S11  1  0.70034088  0.25094637  0.93428582  1
  S  S12  1  0.20034088  0.75094637  0.56571418  1
  S  S13  1  0.29965912  0.74905363  0.06571418  1
  S  S14  1  0.68187112  0.75219529  0.42289795  1
  S  S15  1  0.81812888  0.74780471  0.92289795  1
  S  S16  1  0.31812888  0.24780471  0.57710205  1
  S  S17  1  0.18187112  0.25219529  0.07710205  1
  S  S18  1  0.71761307  0.93228170  0.66735267  1
  S  S19  1  0.78238693  0.56771830  0.16735267  1
  S  S20  1  0.28238693  0.06771830  0.33264733  1
  S  S21  1  0.21761307  0.43228170  0.83264733  1
