# generated using pymatgen
data_Hg(SbS2)4
_symmetry_space_group_name_H-M   'P 1'
_cell_length_a   4.01389407
_cell_length_b   11.32946712
_cell_length_c   30.12711343
_cell_angle_alpha   82.47351470
_cell_angle_beta   86.18035424
_cell_angle_gamma   79.79655208
_symmetry_Int_Tables_number   1
_chemical_formula_structural   Hg(SbS2)4
_chemical_formula_sum   'Hg4 Sb16 S32'
_cell_volume   1335.43086080
_cell_formula_units_Z   4
loop_
 _symmetry_equiv_pos_site_id
 _symmetry_equiv_pos_as_xyz
  1  'x, y, z'
loop_
 _atom_site_type_symbol
 _atom_site_label
 _atom_site_symmetry_multiplicity
 _atom_site_fract_x
 _atom_site_fract_y
 _atom_site_fract_z
 _atom_site_occupancy
  Hg  Hg0  1  0.50000000  0.00000000  0.00000000  1
  Hg  Hg1  1  0.50000000  0.50000000  0.50000000  1
  Hg  Hg2  1  0.00320172  0.75000000  0.25000000  1
  Hg  Hg3  1  0.99679828  0.25000000  0.75000000  1
  S  S4  1  0.40919461  0.12221742  0.05982789  1
  S  S5  1  0.59123992  0.37778258  0.44017211  1
  S  S6  1  0.59080539  0.87778258  0.94017211  1
  S  S7  1  0.40876008  0.62221742  0.55982789  1
  S  S8  1  0.78460604  0.13816849  0.22868735  1
  S  S9  1  0.15146188  0.36183151  0.27131265  1
  S  S10  1  0.21539396  0.86183151  0.77131265  1
  S  S11  1  0.84853812  0.63816849  0.72868735  1
  S  S12  1  0.44977920  0.90569361  0.17134723  1
  S  S13  1  0.52682004  0.59430639  0.32865277  1
  S  S14  1  0.55022080  0.09430639  0.82865277  1
  S  S15  1  0.47317996  0.40569361  0.67134723  1
  S  S16  1  0.25644475  0.29820199  0.14868276  1
  S  S17  1  0.70332950  0.20179801  0.35131724  1
  S  S18  1  0.74355525  0.70179801  0.85131724  1
  S  S19  1  0.29667050  0.79820199  0.64868276  1
  S  S20  1  0.08845337  0.62752082  0.19025177  1
  S  S21  1  0.90622597  0.87247918  0.30974823  1
  S  S22  1  0.91154663  0.37247918  0.80974823  1
  S  S23  1  0.09377403  0.12752082  0.69025177  1
  S  S24  1  0.67445365  0.61061957  0.02167520  1
  S  S25  1  0.30674842  0.88938043  0.47832480  1
  S  S26  1  0.32554635  0.38938043  0.97832480  1
  S  S27  1  0.69325158  0.11061957  0.52167520  1
  S  S28  1  0.02753038  0.84358689  0.07867777  1
  S  S29  1  0.94979504  0.65641311  0.42132223  1
  S  S30  1  0.97246962  0.15641311  0.92132223  1
  S  S31  1  0.05020496  0.34358689  0.57867777  1
  S  S32  1  0.23286711  0.45002304  0.10130828  1
  S  S33  1  0.78419843  0.04997696  0.39869172  1
  S  S34  1  0.76713289  0.54997696  0.89869172  1
  S  S35  1  0.21580157  0.95002304  0.60130828  1
  Sb  Sb36  1  0.88218691  0.02530681  0.11887417  1
  Sb  Sb37  1  0.02636789  0.47469319  0.38112583  1
  Sb  Sb38  1  0.11781309  0.97469319  0.88112583  1
  Sb  Sb39  1  0.97363211  0.52530681  0.61887417  1
  Sb  Sb40  1  0.73685187  0.38700772  0.04179067  1
  Sb  Sb41  1  0.16565026  0.11299228  0.45820933  1
  Sb  Sb42  1  0.26314813  0.61299228  0.95820933  1
  Sb  Sb43  1  0.83434974  0.88700772  0.54179067  1
  Sb  Sb44  1  0.52362986  0.72378623  0.13119671  1
  Sb  Sb45  1  0.37861279  0.77621377  0.36880329  1
  Sb  Sb46  1  0.47637014  0.27621377  0.86880329  1
  Sb  Sb47  1  0.62138721  0.22378623  0.63119671  1
  Sb  Sb48  1  0.63399090  0.36146267  0.20837617  1
  Sb  Sb49  1  0.20382974  0.13853733  0.29162383  1
  Sb  Sb50  1  0.36600910  0.63853733  0.79162383  1
  Sb  Sb51  1  0.79617026  0.86146267  0.70837617  1
