# generated using pymatgen
data_Mg7Si4(HO8)2
_symmetry_space_group_name_H-M   'P 1'
_cell_length_a   5.82850039
_cell_length_b   11.58392709
_cell_length_c   8.28279619
_cell_angle_alpha   90.00000000
_cell_angle_beta   90.00000000
_cell_angle_gamma   90.00000000
_symmetry_Int_Tables_number   1
_chemical_formula_structural   Mg7Si4(HO8)2
_chemical_formula_sum   'Mg14 Si8 H4 O32'
_cell_volume   559.22891724
_cell_formula_units_Z   2
loop_
 _symmetry_equiv_pos_site_id
 _symmetry_equiv_pos_as_xyz
  1  'x, y, z'
loop_
 _atom_site_type_symbol
 _atom_site_label
 _atom_site_symmetry_multiplicity
 _atom_site_fract_x
 _atom_site_fract_y
 _atom_site_fract_z
 _atom_site_occupancy
  Mg  Mg0  1  0.00000000  0.50000000  0.00000000  1
  Mg  Mg1  1  0.00000000  0.00000000  0.00000000  1
  Mg  Mg2  1  0.50000000  0.00000000  0.50000000  1
  Mg  Mg3  1  0.50000000  0.50000000  0.50000000  1
  Mg  Mg4  1  0.00000000  0.25000000  0.95418063  1
  Mg  Mg5  1  0.00000000  0.75000000  0.04581937  1
  Mg  Mg6  1  0.74619943  0.38619010  0.25168789  1
  Mg  Mg7  1  0.74619943  0.61380990  0.74831211  1
  Mg  Mg8  1  0.74619943  0.11380990  0.25168789  1
  Mg  Mg9  1  0.74619943  0.88619010  0.74831211  1
  Mg  Mg10  1  0.25380057  0.61380990  0.74831211  1
  Mg  Mg11  1  0.25380057  0.38619010  0.25168789  1
  Mg  Mg12  1  0.25380057  0.88619010  0.74831211  1
  Mg  Mg13  1  0.25380057  0.11380990  0.25168789  1
  Si  Si14  1  0.00000000  0.38101179  0.60806355  1
  Si  Si15  1  0.00000000  0.61898821  0.39193645  1
  Si  Si16  1  0.00000000  0.11898821  0.60806355  1
  Si  Si17  1  0.00000000  0.88101179  0.39193645  1
  Si  Si18  1  0.50000000  0.87593991  0.11203031  1
  Si  Si19  1  0.50000000  0.12406009  0.88796969  1
  Si  Si20  1  0.50000000  0.62406009  0.11203031  1
  Si  Si21  1  0.50000000  0.37593991  0.88796969  1
  H  H22  1  0.00000000  0.25000000  0.35634335  1
  H  H23  1  0.00000000  0.75000000  0.64365665  1
  H  H24  1  0.50000000  0.75000000  0.59671109  1
  H  H25  1  0.50000000  0.25000000  0.40328891  1
  O  O26  1  0.00000000  0.25000000  0.23705982  1
  O  O27  1  0.00000000  0.75000000  0.76294018  1
  O  O28  1  0.50000000  0.75000000  0.71596550  1
  O  O29  1  0.50000000  0.25000000  0.28403450  1
  O  O30  1  0.00000000  0.25000000  0.70836374  1
  O  O31  1  0.00000000  0.75000000  0.29163626  1
  O  O32  1  0.50000000  0.75000000  0.20543644  1
  O  O33  1  0.50000000  0.25000000  0.79456356  1
  O  O34  1  0.00000000  0.51578074  0.24867726  1
  O  O35  1  0.00000000  0.48421926  0.75132274  1
  O  O36  1  0.00000000  0.98421926  0.24867726  1
  O  O37  1  0.00000000  0.01578074  0.75132274  1
  O  O38  1  0.50000000  0.01355181  0.76079246  1
  O  O39  1  0.50000000  0.98644819  0.23920754  1
  O  O40  1  0.50000000  0.48644819  0.76079246  1
  O  O41  1  0.50000000  0.51355181  0.23920754  1
  O  O42  1  0.73957827  0.37537197  0.00080137  1
  O  O43  1  0.73957827  0.62462803  0.99919863  1
  O  O44  1  0.73957827  0.12462803  0.00080137  1
  O  O45  1  0.73957827  0.87537197  0.99919863  1
  O  O46  1  0.26042173  0.62462803  0.99919863  1
  O  O47  1  0.26042173  0.37537197  0.00080137  1
  O  O48  1  0.26042173  0.87537197  0.99919863  1
  O  O49  1  0.26042173  0.12462803  0.00080137  1
  O  O50  1  0.22897546  0.88296636  0.50523322  1
  O  O51  1  0.22897546  0.11703364  0.49476678  1
  O  O52  1  0.22897546  0.61703364  0.50523322  1
  O  O53  1  0.22897546  0.38296636  0.49476678  1
  O  O54  1  0.77102454  0.11703364  0.49476678  1
  O  O55  1  0.77102454  0.88296636  0.50523322  1
  O  O56  1  0.77102454  0.38296636  0.49476678  1
  O  O57  1  0.77102454  0.61703364  0.50523322  1
