# generated using pymatgen
data_LiNi2(PO4)3
_symmetry_space_group_name_H-M   'P 1'
_cell_length_a   4.83460097
_cell_length_b   4.83460168
_cell_length_c   19.29912901
_cell_angle_alpha   89.53573791
_cell_angle_beta   89.53573785
_cell_angle_gamma   66.11338107
_symmetry_Int_Tables_number   1
_chemical_formula_structural   LiNi2(PO4)3
_chemical_formula_sum   'Li2 Ni4 P6 O24'
_cell_volume   412.43026449
_cell_formula_units_Z   2
loop_
 _symmetry_equiv_pos_site_id
 _symmetry_equiv_pos_as_xyz
  1  'x, y, z'
loop_
 _atom_site_type_symbol
 _atom_site_label
 _atom_site_symmetry_multiplicity
 _atom_site_fract_x
 _atom_site_fract_y
 _atom_site_fract_z
 _atom_site_occupancy
  Li  Li0  1  0.99970319  0.99970319  0.50027742  1
  Li  Li1  1  0.00029681  0.00029681  0.83305658  1
  Ni  Ni2  1  -0.00000000  0.00000000  0.16666700  1
  Ni  Ni3  1  0.00161427  0.00161427  0.00038408  1
  Ni  Ni4  1  0.99838573  0.99838573  0.33294992  1
  Ni  Ni5  1  -0.00000000  0.00000000  0.66666700  1
  P  P6  1  0.64580397  0.64580397  0.25005341  1
  P  P7  1  0.64343789  0.64343789  0.58534444  1
  P  P8  1  0.35547043  0.35547043  0.41462866  1
  P  P9  1  0.35656211  0.35656211  0.74798856  1
  P  P10  1  0.35419603  0.35419603  0.08327959  1
  P  P11  1  0.64452957  0.64452957  0.91870434  1
  O  O12  1  0.25638538  0.25638538  0.48348312  1
  O  O13  1  0.29694021  0.77413099  0.92075024  1
  O  O14  1  0.75330832  0.75330832  0.18315500  1
  O  O15  1  0.22264806  0.70508579  0.08351636  1
  O  O16  1  0.29556028  0.77220767  0.58687160  1
  O  O17  1  0.22586801  0.70305979  0.41258276  1
  O  O18  1  0.77220767  0.29556028  0.58687160  1
  O  O19  1  0.29491421  0.77735194  0.24981664  1
  O  O20  1  0.74408945  0.74408945  0.51691476  1
  O  O21  1  0.74361462  0.74361462  0.84985088  1
  O  O22  1  0.74966183  0.74966183  0.31704218  1
  O  O23  1  0.77413099  0.29694021  0.92075024  1
  O  O24  1  0.25033817  0.25033817  0.01629082  1
  O  O25  1  0.70508579  0.22264806  0.08351636  1
  O  O26  1  0.70305979  0.22586801  0.41258276  1
  O  O27  1  0.24699586  0.24699586  0.68187850  1
  O  O28  1  0.70443972  0.22779233  0.74646240  1
  O  O29  1  0.75544235  0.75544235  0.98438326  1
  O  O30  1  0.24669168  0.24669168  0.15017800  1
  O  O31  1  0.22779233  0.70443972  0.74646240  1
  O  O32  1  0.25591055  0.25591055  0.81641824  1
  O  O33  1  0.24455765  0.24455765  0.34894974  1
  O  O34  1  0.77735194  0.29491421  0.24981664  1
  O  O35  1  0.75300414  0.75300414  0.65145450  1
