# generated using pymatgen
data_Li3CuF4
_symmetry_space_group_name_H-M   'P 1'
_cell_length_a   6.43692352
_cell_length_b   5.54527118
_cell_length_c   5.12414447
_cell_angle_alpha   90.00000000
_cell_angle_beta   90.00000000
_cell_angle_gamma   90.00000000
_symmetry_Int_Tables_number   1
_chemical_formula_structural   Li3CuF4
_chemical_formula_sum   'Li6 Cu2 F8'
_cell_volume   182.90370552
_cell_formula_units_Z   2
loop_
 _symmetry_equiv_pos_site_id
 _symmetry_equiv_pos_as_xyz
  1  'x, y, z'
loop_
 _atom_site_type_symbol
 _atom_site_label
 _atom_site_symmetry_multiplicity
 _atom_site_fract_x
 _atom_site_fract_y
 _atom_site_fract_z
 _atom_site_occupancy
  Li  Li0  1  0.00000000  0.17216479  0.49612341  1
  Li  Li1  1  0.24944258  0.66574033  0.49478163  1
  Li  Li2  1  0.25055742  0.33425967  0.99478163  1
  Li  Li3  1  0.50000000  0.82783521  0.99612341  1
  Li  Li4  1  0.74944258  0.33425967  0.99478163  1
  Li  Li5  1  0.75055742  0.66574033  0.49478163  1
  Cu  Cu6  1  0.00000000  0.83134527  0.99295298  1
  Cu  Cu7  1  0.50000000  0.16865473  0.49295298  1
  F  F8  1  0.00000000  0.19514395  0.86684490  1
  F  F9  1  0.00000000  0.83864893  0.40825151  1
  F  F10  1  0.23103735  0.34521886  0.36549797  1
  F  F11  1  0.26896265  0.65478114  0.86549797  1
  F  F12  1  0.50000000  0.16135107  0.90825151  1
  F  F13  1  0.50000000  0.80485605  0.36684490  1
  F  F14  1  0.73103735  0.65478114  0.86549797  1
  F  F15  1  0.76896265  0.34521886  0.36549797  1
