# generated using pymatgen
data_Na(RhO2)2
_symmetry_space_group_name_H-M   'P 1'
_cell_length_a   3.10115449
_cell_length_b   9.10194259
_cell_length_c   10.90233257
_cell_angle_alpha   90.00000000
_cell_angle_beta   90.00000000
_cell_angle_gamma   90.00000000
_symmetry_Int_Tables_number   1
_chemical_formula_structural   Na(RhO2)2
_chemical_formula_sum   'Na4 Rh8 O16'
_cell_volume   307.73501878
_cell_formula_units_Z   4
loop_
 _symmetry_equiv_pos_site_id
 _symmetry_equiv_pos_as_xyz
  1  'x, y, z'
loop_
 _atom_site_type_symbol
 _atom_site_label
 _atom_site_symmetry_multiplicity
 _atom_site_fract_x
 _atom_site_fract_y
 _atom_site_fract_z
 _atom_site_occupancy
  Na  Na0  1  0.75000000  0.23732001  0.34271801  1
  Na  Na1  1  0.25000000  0.76267999  0.65728199  1
  Na  Na2  1  0.75000000  0.73732001  0.15728199  1
  Na  Na3  1  0.25000000  0.26267999  0.84271801  1
  Rh  Rh4  1  0.75000000  0.58646173  0.89704151  1
  Rh  Rh5  1  0.25000000  0.41353827  0.10295849  1
  Rh  Rh6  1  0.75000000  0.08646173  0.60295849  1
  Rh  Rh7  1  0.25000000  0.91353827  0.39704151  1
  Rh  Rh8  1  0.75000000  0.55738468  0.38391628  1
  Rh  Rh9  1  0.25000000  0.44261532  0.61608372  1
  Rh  Rh10  1  0.75000000  0.05738468  0.11608372  1
  Rh  Rh11  1  0.25000000  0.94261532  0.88391628  1
  O  O12  1  0.75000000  0.80300641  0.84043527  1
  O  O13  1  0.25000000  0.19699359  0.15956473  1
  O  O14  1  0.75000000  0.30300641  0.65956473  1
  O  O15  1  0.25000000  0.69699359  0.34043527  1
  O  O16  1  0.75000000  0.88402089  0.52019693  1
  O  O17  1  0.25000000  0.11597911  0.47980307  1
  O  O18  1  0.75000000  0.38402089  0.97980307  1
  O  O19  1  0.25000000  0.61597911  0.02019693  1
  O  O20  1  0.75000000  0.46727979  0.21279035  1
  O  O21  1  0.25000000  0.53272021  0.78720965  1
  O  O22  1  0.75000000  0.96727979  0.28720965  1
  O  O23  1  0.25000000  0.03272021  0.71279035  1
  O  O24  1  0.75000000  0.58176933  0.56989914  1
  O  O25  1  0.25000000  0.41823067  0.43010086  1
  O  O26  1  0.75000000  0.08176933  0.93010086  1
  O  O27  1  0.25000000  0.91823067  0.06989914  1
