# generated using pymatgen
data_K4Na2(Si2O5)3
_symmetry_space_group_name_H-M   'P 1'
_cell_length_a   7.40545495
_cell_length_b   10.70262822
_cell_length_c   12.63483601
_cell_angle_alpha   66.33901614
_cell_angle_beta   72.95667672
_cell_angle_gamma   69.76114668
_symmetry_Int_Tables_number   1
_chemical_formula_structural   K4Na2(Si2O5)3
_chemical_formula_sum   'K8 Na4 Si12 O30'
_cell_volume   846.61801722
_cell_formula_units_Z   2
loop_
 _symmetry_equiv_pos_site_id
 _symmetry_equiv_pos_as_xyz
  1  'x, y, z'
loop_
 _atom_site_type_symbol
 _atom_site_label
 _atom_site_symmetry_multiplicity
 _atom_site_fract_x
 _atom_site_fract_y
 _atom_site_fract_z
 _atom_site_occupancy
  Si  Si0  1  0.45411860  0.30061642  0.00275852  1
  Si  Si1  1  0.75747095  0.19942331  0.49721756  1
  Si  Si2  1  0.54588140  0.69938358  0.99724148  1
  Si  Si3  1  0.24252905  0.80057669  0.50278244  1
  Si  Si4  1  0.18737032  0.24787001  0.88598249  1
  Si  Si5  1  0.32120620  0.25214573  0.61398241  1
  Si  Si6  1  0.81262968  0.75212999  0.11401751  1
  Si  Si7  1  0.67879380  0.74785427  0.38601759  1
  Si  Si8  1  0.22363562  0.53604849  0.11502798  1
  Si  Si9  1  0.87468840  0.96396588  0.38499985  1
  Si  Si10  1  0.77636438  0.46395151  0.88497202  1
  Si  Si11  1  0.12531160  0.03603412  0.61500015  1
  O  O12  1  0.46895907  0.16750921  0.11933364  1
  O  O13  1  0.75581101  0.33253480  0.38066151  1
  O  O14  1  0.53104093  0.83249079  0.88066636  1
  O  O15  1  0.24418899  0.66746520  0.61933849  1
  O  O16  1  0.30152575  0.45149603  0.01748767  1
  O  O17  1  0.77041600  0.04855102  0.48249910  1
  O  O18  1  0.69847425  0.54850397  0.98251233  1
  O  O19  1  0.22958400  0.95144898  0.51750090  1
  O  O20  1  0.67353578  0.33041290  0.93889551  1
  O  O21  1  0.94288213  0.16954243  0.56105774  1
  O  O22  1  0.32646422  0.66958710  0.06110449  1
  O  O23  1  0.05711787  0.83045757  0.43894226  1
  O  O24  1  0.38613652  0.27997877  0.89662831  1
  O  O25  1  0.56272408  0.22006745  0.60333588  1
  O  O26  1  0.61386348  0.72002123  0.10337169  1
  O  O27  1  0.43727592  0.77993255  0.39666412  1
  O  O28  1  0.14154580  0.10488180  0.97901098  1
  O  O29  1  0.22544550  0.39509614  0.52095785  1
  O  O30  1  0.85845420  0.89511820  0.02098902  1
  O  O31  1  0.77455450  0.60490386  0.47904215  1
  O  O32  1  0.00986814  0.38976837  0.89921330  1
  O  O33  1  0.29885584  0.11023183  0.60076883  1
  O  O34  1  0.99013186  0.61023163  0.10078670  1
  O  O35  1  0.70114416  0.88976817  0.39923117  1
  O  O36  1  0.22993861  0.25003229  0.74998022  1
  O  O37  1  0.77006139  0.74996771  0.25001978  1
  O  O38  1  0.24725180  0.43770914  0.24576094  1
  O  O39  1  0.93067464  0.06230668  0.25425127  1
  O  O40  1  0.75274820  0.56229086  0.75423906  1
  O  O41  1  0.06932536  0.93769332  0.74574873  1
  K  K42  1  0.31202665  0.95892709  0.16590352  1
  K  K43  1  0.43687810  0.54104488  0.33411498  1
  K  K44  1  0.68797335  0.04107291  0.83409648  1
  K  K45  1  0.56312190  0.45895512  0.66588502  1
  K  K46  1  0.42477311  0.16667530  0.33474498  1
  K  K47  1  0.92608254  0.33343696  0.16521051  1
  K  K48  1  0.57522689  0.83332470  0.66525502  1
  K  K49  1  0.07391746  0.66656304  0.83478949  1
  Na  Na50  1  0.83034639  0.07030852  0.09243651  1
  Na  Na51  1  0.99313083  0.42967059  0.40760239  1
  Na  Na52  1  0.16965361  0.92969148  0.90756349  1
  Na  Na53  1  0.00686917  0.57032941  0.59239761  1
