# generated using pymatgen
data_Ga2Te2Cl7
_symmetry_space_group_name_H-M   'P 1'
_cell_length_a   9.62695246
_cell_length_b   11.41230869
_cell_length_c   13.78086807
_cell_angle_alpha   90.00000000
_cell_angle_beta   94.31598524
_cell_angle_gamma   90.00000000
_symmetry_Int_Tables_number   1
_chemical_formula_structural   Ga2Te2Cl7
_chemical_formula_sum   'Ga8 Te8 Cl28'
_cell_volume   1509.75188356
_cell_formula_units_Z   4
loop_
 _symmetry_equiv_pos_site_id
 _symmetry_equiv_pos_as_xyz
  1  'x, y, z'
loop_
 _atom_site_type_symbol
 _atom_site_label
 _atom_site_symmetry_multiplicity
 _atom_site_fract_x
 _atom_site_fract_y
 _atom_site_fract_z
 _atom_site_occupancy
  Te  Te0  1  0.43448331  0.15475210  0.96476649  1
  Te  Te1  1  0.56551669  0.65475210  0.53523351  1
  Te  Te2  1  0.56551669  0.84524790  0.03523351  1
  Te  Te3  1  0.43448331  0.34524790  0.46476649  1
  Te  Te4  1  0.67540714  0.06470688  0.05015392  1
  Te  Te5  1  0.32459286  0.56470688  0.44984608  1
  Te  Te6  1  0.32459286  0.93529312  0.94984608  1
  Te  Te7  1  0.67540714  0.43529312  0.55015392  1
  Ga  Ga8  1  0.73997959  0.41816688  0.15778965  1
  Ga  Ga9  1  0.26002041  0.91816688  0.34221035  1
  Ga  Ga10  1  0.26002041  0.58183312  0.84221035  1
  Ga  Ga11  1  0.73997959  0.08183312  0.65778965  1
  Ga  Ga12  1  0.12217374  0.32045011  0.20461441  1
  Ga  Ga13  1  0.87782626  0.82045011  0.29538559  1
  Ga  Ga14  1  0.87782626  0.67954989  0.79538559  1
  Ga  Ga15  1  0.12217374  0.17954989  0.70461441  1
  Cl  Cl16  1  0.63565832  0.57838994  0.19420469  1
  Cl  Cl17  1  0.36434168  0.07838994  0.30579531  1
  Cl  Cl18  1  0.36434168  0.42161006  0.80579531  1
  Cl  Cl19  1  0.63565832  0.92161006  0.69420469  1
  Cl  Cl20  1  0.68156857  0.35380361  0.00916147  1
  Cl  Cl21  1  0.31843143  0.85380361  0.49083853  1
  Cl  Cl22  1  0.31843143  0.64619639  0.99083853  1
  Cl  Cl23  1  0.68156857  0.14619639  0.50916147  1
  Cl  Cl24  1  0.72883489  0.27817092  0.26291653  1
  Cl  Cl25  1  0.27116511  0.77817092  0.23708347  1
  Cl  Cl26  1  0.27116511  0.72182908  0.73708347  1
  Cl  Cl27  1  0.72883489  0.22182908  0.76291653  1
  Cl  Cl28  1  0.97257291  0.47220349  0.14670278  1
  Cl  Cl29  1  0.02742709  0.97220349  0.35329722  1
  Cl  Cl30  1  0.02742709  0.52779651  0.85329722  1
  Cl  Cl31  1  0.97257291  0.02779651  0.64670278  1
  Cl  Cl32  1  0.11224217  0.33076679  0.36399332  1
  Cl  Cl33  1  0.88775783  0.83076679  0.13600668  1
  Cl  Cl34  1  0.88775783  0.66923321  0.63600668  1
  Cl  Cl35  1  0.11224217  0.16923321  0.86399332  1
  Cl  Cl36  1  0.04275089  0.16340234  0.13236875  1
  Cl  Cl37  1  0.95724911  0.66340234  0.36763125  1
  Cl  Cl38  1  0.95724911  0.83659766  0.86763125  1
  Cl  Cl39  1  0.04275089  0.33659766  0.63236875  1
  Cl  Cl40  1  0.32373822  0.37727369  0.16304054  1
  Cl  Cl41  1  0.67626178  0.87727369  0.33695946  1
  Cl  Cl42  1  0.67626178  0.62272631  0.83695946  1
  Cl  Cl43  1  0.32373822  0.12272631  0.66304054  1
