# generated using pymatgen
data_Na3Ca(BO2)5
_symmetry_space_group_name_H-M   'P 1'
_cell_length_a   7.51304882
_cell_length_b   9.83416464
_cell_length_c   13.08957228
_cell_angle_alpha   91.24418117
_cell_angle_beta   90.07142518
_cell_angle_gamma   109.48306124
_symmetry_Int_Tables_number   1
_chemical_formula_structural   Na3Ca(BO2)5
_chemical_formula_sum   'Na12 Ca4 B20 O40'
_cell_volume   911.48834763
_cell_formula_units_Z   4
loop_
 _symmetry_equiv_pos_site_id
 _symmetry_equiv_pos_as_xyz
  1  'x, y, z'
loop_
 _atom_site_type_symbol
 _atom_site_label
 _atom_site_symmetry_multiplicity
 _atom_site_fract_x
 _atom_site_fract_y
 _atom_site_fract_z
 _atom_site_occupancy
  Na  Na0  1  0.50823388  0.26292047  0.22928068  1
  Na  Na1  1  0.49176612  0.73707953  0.77071932  1
  Na  Na2  1  0.12661289  0.05325555  0.10979430  1
  Na  Na3  1  0.87338711  0.94674445  0.89020570  1
  Na  Na4  1  0.18447519  0.68466092  0.00321239  1
  Na  Na5  1  0.81552481  0.31533908  0.99678761  1
  Na  Na6  1  0.38314957  0.95798881  0.38893420  1
  Na  Na7  1  0.61685043  0.04201119  0.61106580  1
  Na  Na8  1  1.00156506  0.76217973  0.26276666  1
  Na  Na9  1  -0.00156506  0.23782027  0.73723334  1
  Na  Na10  1  0.68365666  0.66884277  0.51949303  1
  Na  Na11  1  0.31634334  0.33115723  0.48050697  1
  Ca  Ca12  1  0.47639297  0.61156530  0.26711692  1
  Ca  Ca13  1  0.52360703  0.38843470  0.73288308  1
  Ca  Ca14  1  0.00378601  0.37163258  0.24099696  1
  Ca  Ca15  1  0.99621399  0.62836742  0.75900304  1
  B  B16  1  0.82062544  0.36734691  0.58192520  1
  B  B17  1  0.17937456  0.63265309  0.41807480  1
  B  B18  1  0.69642049  0.40664298  0.41391187  1
  B  B19  1  0.30357951  0.59335702  0.58608813  1
  B  B20  1  0.83753499  0.20385686  0.43226458  1
  B  B21  1  0.16246501  0.79614314  0.56773542  1
  B  B22  1  0.74828708  0.93707091  0.38243271  1
  B  B23  1  0.25171292  0.06292909  0.61756729  1
  B  B24  1  0.07803421  0.09948420  0.35249646  1
  B  B25  1  0.92196579  0.90051580  0.64750354  1
  B  B26  1  0.29147866  0.37026984  0.07561633  1
  B  B27  1  0.70852134  0.62973016  0.92438367  1
  B  B28  1  0.21969656  0.43497453  0.90227141  1
  B  B29  1  0.78030344  0.56502547  0.09772859  1
  B  B30  1  0.33894904  0.22089330  0.92398374  1
  B  B31  1  0.66105096  0.77910670  0.07601626  1
  B  B32  1  0.24955498  0.95504476  0.87554626  1
  B  B33  1  0.75044502  0.04495524  0.12445374  1
  B  B34  1  0.58511514  0.11170254  0.86193216  1
  B  B35  1  0.41488486  0.88829746  0.13806784  1
  O  O36  1  0.83624669  0.40024349  0.68264168  1
  O  O37  1  0.16375331  0.59975651  0.31735832  1
  O  O38  1  0.86243988  0.25016856  0.54130812  1
  O  O39  1  0.13756012  0.74983144  0.45869188  1
  O  O40  1  0.74936639  0.44914951  0.51656265  1
  O  O41  1  0.25063361  0.55085049  0.48343735  1
  O  O42  1  0.75696740  0.29775110  0.37106312  1
  O  O43  1  0.24303260  0.70224890  0.62893688  1
  O  O44  1  0.58724184  0.46707838  0.36541041  1
  O  O45  1  0.41275816  0.53292162  0.63458959  1
  O  O46  1  0.70678986  0.05414439  0.42681470  1
  O  O47  1  0.29321014  0.94585561  0.57318530  1
  O  O48  1  0.02231275  0.21733936  0.38628491  1
  O  O49  1  0.97768725  0.78266064  0.61371509  1
  O  O50  1  0.93348365  0.96212908  0.34616798  1
  O  O51  1  0.06651635  0.03787092  0.65383202  1
  O  O52  1  0.61590081  0.80592052  0.37659637  1
  O  O53  1  0.38409919  0.19407948  0.62340363  1
  O  O54  1  0.25574091  0.11873586  0.32847538  1
  O  O55  1  0.74425909  0.88126414  0.67152462  1
  O  O56  1  0.30569536  0.40199724  0.17630129  1
  O  O57  1  0.69430464  0.59800276  0.82369871  1
  O  O58  1  0.35723318  0.26567374  0.03349175  1
  O  O59  1  0.64276682  0.73432626  0.96650825  1
  O  O60  1  0.20461983  0.44283699  0.01022443  1
  O  O61  1  0.79538017  0.55716301  0.98977557  1
  O  O62  1  0.27278121  0.32160965  0.86078307  1
  O  O63  1  0.72721879  0.67839035  0.13921693  1
  O  O64  1  0.18025417  0.53200983  0.84615299  1
  O  O65  1  0.81974583  0.46799017  0.15384701  1
  O  O66  1  0.20476962  0.07352519  0.91467521  1
  O  O67  1  0.79523038  0.92647481  0.08532479  1
  O  O68  1  0.52601448  0.23190157  0.88301597  1
  O  O69  1  0.47398552  0.76809843  0.11698403  1
  O  O70  1  0.44005600  0.97538452  0.84943282  1
  O  O71  1  0.55994400  0.02461548  0.15056718  1
  O  O72  1  0.11432142  0.82585828  0.86628153  1
  O  O73  1  0.88567858  0.17414172  0.13371847  1
  O  O74  1  0.76810726  0.13066806  0.85527950  1
  O  O75  1  0.23189274  0.86933194  0.14472050  1
