# generated using pymatgen
data_Rb2RuO4
_symmetry_space_group_name_H-M   'P 1'
_cell_length_a   6.38885829
_cell_length_b   8.24128535
_cell_length_c   11.25637323
_cell_angle_alpha   90.00000000
_cell_angle_beta   90.00000000
_cell_angle_gamma   90.00000000
_symmetry_Int_Tables_number   1
_chemical_formula_structural   Rb2RuO4
_chemical_formula_sum   'Rb8 Ru4 O16'
_cell_volume   592.67511345
_cell_formula_units_Z   4
loop_
 _symmetry_equiv_pos_site_id
 _symmetry_equiv_pos_as_xyz
  1  'x, y, z'
loop_
 _atom_site_type_symbol
 _atom_site_label
 _atom_site_symmetry_multiplicity
 _atom_site_fract_x
 _atom_site_fract_y
 _atom_site_fract_z
 _atom_site_occupancy
  Ru  Ru0  1  0.75000000  0.77909251  0.57859672  1
  Ru  Ru1  1  0.25000000  0.22090749  0.42140328  1
  Ru  Ru2  1  0.75000000  0.27909251  0.92140328  1
  Ru  Ru3  1  0.25000000  0.72090749  0.07859672  1
  Rb  Rb4  1  0.75000000  0.33662487  0.58095514  1
  Rb  Rb5  1  0.25000000  0.66337513  0.41904486  1
  Rb  Rb6  1  0.75000000  0.83662487  0.91904486  1
  Rb  Rb7  1  0.25000000  0.16337513  0.08095514  1
  Rb  Rb8  1  0.75000000  0.50662030  0.20489730  1
  Rb  Rb9  1  0.25000000  0.49337970  0.79510270  1
  Rb  Rb10  1  0.75000000  0.00662030  0.29510270  1
  Rb  Rb11  1  0.25000000  0.99337970  0.70489730  1
  O  O12  1  0.75000000  0.69500786  0.43016904  1
  O  O13  1  0.25000000  0.30499214  0.56983096  1
  O  O14  1  0.75000000  0.19500786  0.06983096  1
  O  O15  1  0.25000000  0.80499214  0.93016904  1
  O  O16  1  0.75000000  0.49584187  0.92407039  1
  O  O17  1  0.25000000  0.50415813  0.07592961  1
  O  O18  1  0.75000000  0.99584187  0.57592961  1
  O  O19  1  0.25000000  0.00415813  0.42407039  1
  O  O20  1  0.52044065  0.70253293  0.65264070  1
  O  O21  1  0.02044065  0.29746707  0.34735930  1
  O  O22  1  0.97955935  0.20253293  0.84735930  1
  O  O23  1  0.47955935  0.79746707  0.15264070  1
  O  O24  1  0.47955935  0.29746707  0.34735930  1
  O  O25  1  0.97955935  0.70253293  0.65264070  1
  O  O26  1  0.02044065  0.79746707  0.15264070  1
  O  O27  1  0.52044065  0.20253293  0.84735930  1
